MODEL 1
REMARK VINA RESULT:     8.569      0.000      0.000
REMARK INTER + INTRA:          23.777
REMARK INTER:                  22.595
REMARK INTRA:                   1.182
REMARK UNBOUND:                 1.182
REMARK SMILES CCCCCCCCCCCCCCCCCCCCCCCCCCCCCC(=O)[O-]
REMARK SMILES IDX 16 1 17 2 18 3 19 4 20 5 21 6 22 7 23 8 24 9 25 10 26 11
REMARK SMILES IDX 27 12 28 13 29 14 30 15 31 16 32 17 15 18 14 19 13 20 12 21
REMARK SMILES IDX 11 22 10 23 9 24 8 25 7 26 6 27 5 28 4 29 3 30 2 31 1 32
REMARK H PARENT
REMARK Flexibility Score: inf
ROOT
ATOM      1  C   UNL     1       4.107 -36.621  21.031  1.00  0.00     0.000 C 
ENDROOT
BRANCH   1   2
ATOM      2  C   UNL     1       5.273 -36.411  22.004  1.00  0.00     0.000 C 
BRANCH   2   3
ATOM      3  C   UNL     1       4.774 -35.957  23.382  1.00  0.00     0.000 C 
BRANCH   3   4
ATOM      4  C   UNL     1       5.931 -35.409  24.229  1.00  0.00     0.000 C 
BRANCH   4   5
ATOM      5  C   UNL     1       6.125 -33.890  24.068  1.00  0.00     0.000 C 
BRANCH   5   6
ATOM      6  C   UNL     1       5.668 -33.319  22.711  1.00  0.00     0.000 C 
BRANCH   6   7
ATOM      7  C   UNL     1       4.193 -33.589  22.350  1.00  0.00     0.000 C 
BRANCH   7   8
ATOM      8  C   UNL     1       3.886 -33.639  20.840  1.00  0.00     0.000 C 
BRANCH   8   9
ATOM      9  C   UNL     1       5.114 -33.475  19.925  1.00  0.00     0.000 C 
BRANCH   9  10
ATOM     10  C   UNL     1       5.585 -34.810  19.322  1.00  0.00     0.000 C 
BRANCH  10  11
ATOM     11  C   UNL     1       5.190 -34.970  17.843  1.00  0.00     0.000 C 
BRANCH  11  12
ATOM     12  C   UNL     1       3.673 -34.918  17.565  1.00  0.00     0.000 C 
BRANCH  12  13
ATOM     13  C   UNL     1       3.239 -35.497  16.206  1.00  0.00     0.006 C 
BRANCH  13  14
ATOM     14  C   UNL     1       3.804 -36.900  15.946  1.00  0.00     0.053 C 
BRANCH  14  15
ATOM     15  C   UNL     1       3.347 -37.418  14.618  1.00  0.00     0.041 C 
ATOM     16  O   UNL     1       2.485 -36.785  13.952  1.00  0.00    -0.550 OA
ATOM     17  O   UNL     1       3.901 -38.582  14.095  1.00  0.00    -0.550 OA
ENDBRANCH  14  15
ENDBRANCH  13  14
ENDBRANCH  12  13
ENDBRANCH  11  12
ENDBRANCH  10  11
ENDBRANCH   9  10
ENDBRANCH   8   9
ENDBRANCH   7   8
ENDBRANCH   6   7
ENDBRANCH   5   6
ENDBRANCH   4   5
ENDBRANCH   3   4
ENDBRANCH   2   3
ENDBRANCH   1   2
BRANCH   1  18
ATOM     18  C   UNL     1       4.099 -38.058  20.483  1.00  0.00     0.000 C 
BRANCH  18  19
ATOM     19  C   UNL     1       5.476 -38.498  19.939  1.00  0.00     0.000 C 
BRANCH  19  20
ATOM     20  C   UNL     1       6.012 -39.798  20.566  1.00  0.00     0.000 C 
BRANCH  20  21
ATOM     21  C   UNL     1       5.402 -40.181  21.929  1.00  0.00     0.000 C 
BRANCH  21  22
ATOM     22  C   UNL     1       5.673 -39.186  23.076  1.00  0.00     0.000 C 
BRANCH  22  23
ATOM     23  C   UNL     1       4.858 -39.456  24.363  1.00  0.00     0.000 C 
BRANCH  23  24
ATOM     24  C   UNL     1       5.204 -38.505  25.523  1.00  0.00    -0.000 C 
BRANCH  24  25
ATOM     25  C   UNL     1       4.137 -38.432  26.632  1.00  0.00    -0.000 C 
BRANCH  25  26
ATOM     26  C   UNL     1       2.943 -37.499  26.336  1.00  0.00    -0.000 C 
BRANCH  26  27
ATOM     27  C   UNL     1       1.693 -37.733  27.203  1.00  0.00    -0.000 C 
BRANCH  27  28
ATOM     28  C   UNL     1       1.791 -37.067  28.587  1.00  0.00    -0.000 C 
BRANCH  28  29
ATOM     29  C   UNL     1       2.194 -35.585  28.502  1.00  0.00    -0.000 C 
BRANCH  29  30
ATOM     30  C   UNL     1       1.001 -34.637  28.718  1.00  0.00    -0.000 C 
BRANCH  30  31
ATOM     31  C   UNL     1       1.136 -33.803  30.003  1.00  0.00    -0.003 C 
ATOM     32  C   UNL     1       2.459 -34.042  30.731  1.00  0.00     0.004 C 
ENDBRANCH  30  31
ENDBRANCH  29  30
ENDBRANCH  28  29
ENDBRANCH  27  28
ENDBRANCH  26  27
ENDBRANCH  25  26
ENDBRANCH  24  25
ENDBRANCH  23  24
ENDBRANCH  22  23
ENDBRANCH  21  22
ENDBRANCH  20  21
ENDBRANCH  19  20
ENDBRANCH  18  19
ENDBRANCH   1  18
TORSDOF 28
ENDMDL
MODEL 2
REMARK VINA RESULT:     9.500      2.026      3.999
REMARK INTER + INTRA:          26.232
REMARK INTER:                  26.390
REMARK INTRA:                  -0.158
REMARK UNBOUND:                 1.182
REMARK SMILES CCCCCCCCCCCCCCCCCCCCCCCCCCCCCC(=O)[O-]
REMARK SMILES IDX 16 1 17 2 18 3 19 4 20 5 21 6 22 7 23 8 24 9 25 10 26 11
REMARK SMILES IDX 27 12 28 13 29 14 30 15 31 16 32 17 15 18 14 19 13 20 12 21
REMARK SMILES IDX 11 22 10 23 9 24 8 25 7 26 6 27 5 28 4 29 3 30 2 31 1 32
REMARK H PARENT
REMARK Flexibility Score: inf
ROOT
ATOM      1  C   UNL     1       4.555 -35.190  23.707  1.00  0.00     0.000 C 
ENDROOT
BRANCH   1   2
ATOM      2  C   UNL     1       5.598 -34.254  23.086  1.00  0.00     0.000 C 
BRANCH   2   3
ATOM      3  C   UNL     1       4.933 -33.169  22.230  1.00  0.00     0.000 C 
BRANCH   3   4
ATOM      4  C   UNL     1       3.624 -33.683  21.614  1.00  0.00     0.000 C 
BRANCH   4   5
ATOM      5  C   UNL     1       3.853 -34.561  20.370  1.00  0.00     0.000 C 
BRANCH   5   6
ATOM      6  C   UNL     1       5.143 -34.250  19.584  1.00  0.00     0.000 C 
BRANCH   6   7
ATOM      7  C   UNL     1       4.960 -34.099  18.061  1.00  0.00     0.000 C 
BRANCH   7   8
ATOM      8  C   UNL     1       4.698 -35.414  17.299  1.00  0.00     0.000 C 
BRANCH   8   9
ATOM      9  C   UNL     1       3.213 -35.724  17.037  1.00  0.00     0.000 C 
BRANCH   9  10
ATOM     10  C   UNL     1       2.877 -35.788  15.536  1.00  0.00     0.000 C 
BRANCH  10  11
ATOM     11  C   UNL     1       3.828 -36.707  14.750  1.00  0.00     0.000 C 
BRANCH  11  12
ATOM     12  C   UNL     1       3.179 -37.992  14.193  1.00  0.00     0.000 C 
BRANCH  12  13
ATOM     13  C   UNL     1       3.408 -39.258  15.038  1.00  0.00     0.006 C 
BRANCH  13  14
ATOM     14  C   UNL     1       4.831 -39.817  14.902  1.00  0.00     0.053 C 
BRANCH  14  15
ATOM     15  C   UNL     1       4.824 -41.311  14.984  1.00  0.00     0.041 C 
ATOM     16  O   UNL     1       3.919 -41.975  14.408  1.00  0.00    -0.550 OA
ATOM     17  O   UNL     1       5.838 -41.979  15.663  1.00  0.00    -0.550 OA
ENDBRANCH  14  15
ENDBRANCH  13  14
ENDBRANCH  12  13
ENDBRANCH  11  12
ENDBRANCH  10  11
ENDBRANCH   9  10
ENDBRANCH   8   9
ENDBRANCH   7   8
ENDBRANCH   6   7
ENDBRANCH   5   6
ENDBRANCH   4   5
ENDBRANCH   3   4
ENDBRANCH   2   3
ENDBRANCH   1   2
BRANCH   1  18
ATOM     18  C   UNL     1       4.756 -36.637  23.225  1.00  0.00     0.000 C 
BRANCH  18  19
ATOM     19  C   UNL     1       5.734 -36.740  22.035  1.00  0.00     0.000 C 
BRANCH  19  20
ATOM     20  C   UNL     1       5.049 -36.981  20.677  1.00  0.00     0.000 C 
BRANCH  20  21
ATOM     21  C   UNL     1       4.629 -38.437  20.393  1.00  0.00     0.000 C 
BRANCH  21  22
ATOM     22  C   UNL     1       5.701 -39.312  19.713  1.00  0.00     0.000 C 
BRANCH  22  23
ATOM     23  C   UNL     1       6.042 -40.615  20.475  1.00  0.00     0.000 C 
BRANCH  23  24
ATOM     24  C   UNL     1       6.081 -40.443  22.005  1.00  0.00    -0.000 C 
BRANCH  24  25
ATOM     25  C   UNL     1       4.936 -41.145  22.758  1.00  0.00    -0.000 C 
BRANCH  25  26
ATOM     26  C   UNL     1       4.701 -40.654  24.203  1.00  0.00    -0.000 C 
BRANCH  26  27
ATOM     27  C   UNL     1       4.844 -39.136  24.415  1.00  0.00    -0.000 C 
BRANCH  27  28
ATOM     28  C   UNL     1       4.878 -38.740  25.901  1.00  0.00    -0.000 C 
BRANCH  28  29
ATOM     29  C   UNL     1       4.357 -37.313  26.143  1.00  0.00    -0.000 C 
BRANCH  29  30
ATOM     30  C   UNL     1       3.338 -37.246  27.295  1.00  0.00    -0.000 C 
BRANCH  30  31
ATOM     31  C   UNL     1       2.013 -37.946  26.951  1.00  0.00    -0.003 C 
ATOM     32  C   UNL     1       1.287 -38.485  28.184  1.00  0.00     0.004 C 
ENDBRANCH  30  31
ENDBRANCH  29  30
ENDBRANCH  28  29
ENDBRANCH  27  28
ENDBRANCH  26  27
ENDBRANCH  25  26
ENDBRANCH  24  25
ENDBRANCH  23  24
ENDBRANCH  22  23
ENDBRANCH  21  22
ENDBRANCH  20  21
ENDBRANCH  19  20
ENDBRANCH  18  19
ENDBRANCH   1  18
TORSDOF 28
ENDMDL
MODEL 3
REMARK VINA RESULT:    10.065      4.527     10.687
REMARK INTER + INTRA:          27.721
REMARK INTER:                  23.140
REMARK INTRA:                   4.581
REMARK UNBOUND:                 1.182
REMARK SMILES CCCCCCCCCCCCCCCCCCCCCCCCCCCCCC(=O)[O-]
REMARK SMILES IDX 16 1 17 2 18 3 19 4 20 5 21 6 22 7 23 8 24 9 25 10 26 11
REMARK SMILES IDX 27 12 28 13 29 14 30 15 31 16 32 17 15 18 14 19 13 20 12 21
REMARK SMILES IDX 11 22 10 23 9 24 8 25 7 26 6 27 5 28 4 29 3 30 2 31 1 32
REMARK H PARENT
REMARK Flexibility Score: inf
ROOT
ATOM      1  C   UNL     1       5.791 -35.548  20.820  1.00  0.00     0.000 C 
ENDROOT
BRANCH   1   2
ATOM      2  C   UNL     1       6.074 -36.869  20.093  1.00  0.00     0.000 C 
BRANCH   2   3
ATOM      3  C   UNL     1       5.291 -38.029  20.721  1.00  0.00     0.000 C 
BRANCH   3   4
ATOM      4  C   UNL     1       6.079 -39.342  20.614  1.00  0.00     0.000 C 
BRANCH   4   5
ATOM      5  C   UNL     1       5.823 -40.292  21.798  1.00  0.00     0.000 C 
BRANCH   5   6
ATOM      6  C   UNL     1       4.487 -40.068  22.533  1.00  0.00     0.000 C 
BRANCH   6   7
ATOM      7  C   UNL     1       4.615 -39.627  24.005  1.00  0.00     0.000 C 
BRANCH   7   8
ATOM      8  C   UNL     1       4.969 -38.141  24.215  1.00  0.00     0.000 C 
BRANCH   8   9
ATOM      9  C   UNL     1       4.993 -37.684  25.685  1.00  0.00     0.000 C 
BRANCH   9  10
ATOM     10  C   UNL     1       4.332 -38.700  26.632  1.00  0.00     0.000 C 
BRANCH  10  11
ATOM     11  C   UNL     1       3.066 -38.148  27.311  1.00  0.00     0.000 C 
BRANCH  11  12
ATOM     12  C   UNL     1       2.764 -36.663  27.019  1.00  0.00     0.000 C 
BRANCH  12  13
ATOM     13  C   UNL     1       1.776 -35.994  27.992  1.00  0.00     0.006 C 
BRANCH  13  14
ATOM     14  C   UNL     1       2.345 -34.727  28.645  1.00  0.00     0.053 C 
BRANCH  14  15
ATOM     15  C   UNL     1       1.531 -34.334  29.837  1.00  0.00     0.041 C 
ATOM     16  O   UNL     1       2.077 -34.210  30.967  1.00  0.00    -0.550 OA
ATOM     17  O   UNL     1       0.174 -34.066  29.698  1.00  0.00    -0.550 OA
ENDBRANCH  14  15
ENDBRANCH  13  14
ENDBRANCH  12  13
ENDBRANCH  11  12
ENDBRANCH  10  11
ENDBRANCH   9  10
ENDBRANCH   8   9
ENDBRANCH   7   8
ENDBRANCH   6   7
ENDBRANCH   5   6
ENDBRANCH   4   5
ENDBRANCH   3   4
ENDBRANCH   2   3
ENDBRANCH   1   2
BRANCH   1  18
ATOM     18  C   UNL     1       5.788 -35.748  22.344  1.00  0.00     0.000 C 
BRANCH  18  19
ATOM     19  C   UNL     1       4.927 -34.702  23.084  1.00  0.00     0.000 C 
BRANCH  19  20
ATOM     20  C   UNL     1       4.202 -33.713  22.153  1.00  0.00     0.000 C 
BRANCH  20  21
ATOM     21  C   UNL     1       3.567 -34.331  20.891  1.00  0.00     0.000 C 
BRANCH  21  22
ATOM     22  C   UNL     1       4.541 -34.601  19.726  1.00  0.00     0.000 C 
BRANCH  22  23
ATOM     23  C   UNL     1       3.972 -35.512  18.614  1.00  0.00     0.000 C 
BRANCH  23  24
ATOM     24  C   UNL     1       4.002 -34.871  17.214  1.00  0.00    -0.000 C 
BRANCH  24  25
ATOM     25  C   UNL     1       3.284 -35.684  16.121  1.00  0.00    -0.000 C 
BRANCH  25  26
ATOM     26  C   UNL     1       3.926 -37.049  15.789  1.00  0.00    -0.000 C 
BRANCH  26  27
ATOM     27  C   UNL     1       3.516 -37.660  14.437  1.00  0.00    -0.000 C 
BRANCH  27  28
ATOM     28  C   UNL     1       4.568 -38.632  13.875  1.00  0.00    -0.000 C 
BRANCH  28  29
ATOM     29  C   UNL     1       4.394 -40.064  14.410  1.00  0.00    -0.000 C 
BRANCH  29  30
ATOM     30  C   UNL     1       5.511 -41.009  13.933  1.00  0.00    -0.000 C 
BRANCH  30  31
ATOM     31  C   UNL     1       6.006 -41.945  15.048  1.00  0.00    -0.003 C 
ATOM     32  C   UNL     1       5.625 -41.458  16.447  1.00  0.00     0.004 C 
ENDBRANCH  30  31
ENDBRANCH  29  30
ENDBRANCH  28  29
ENDBRANCH  27  28
ENDBRANCH  26  27
ENDBRANCH  25  26
ENDBRANCH  24  25
ENDBRANCH  23  24
ENDBRANCH  22  23
ENDBRANCH  21  22
ENDBRANCH  20  21
ENDBRANCH  19  20
ENDBRANCH  18  19
ENDBRANCH   1  18
TORSDOF 28
ENDMDL
MODEL 4
REMARK VINA RESULT:    10.427      4.271     10.270
REMARK INTER + INTRA:          28.678
REMARK INTER:                  28.769
REMARK INTRA:                  -0.091
REMARK UNBOUND:                 1.182
REMARK SMILES CCCCCCCCCCCCCCCCCCCCCCCCCCCCCC(=O)[O-]
REMARK SMILES IDX 16 1 17 2 18 3 19 4 20 5 21 6 22 7 23 8 24 9 25 10 26 11
REMARK SMILES IDX 27 12 28 13 29 14 30 15 31 16 32 17 15 18 14 19 13 20 12 21
REMARK SMILES IDX 11 22 10 23 9 24 8 25 7 26 6 27 5 28 4 29 3 30 2 31 1 32
REMARK H PARENT
REMARK Flexibility Score: inf
ROOT
ATOM      1  C   UNL     1       5.729 -35.989  21.081  1.00  0.00     0.000 C 
ENDROOT
BRANCH   1   2
ATOM      2  C   UNL     1       5.331 -36.997  19.997  1.00  0.00     0.000 C 
BRANCH   2   3
ATOM      3  C   UNL     1       4.846 -38.315  20.613  1.00  0.00     0.000 C 
BRANCH   3   4
ATOM      4  C   UNL     1       5.845 -39.448  20.337  1.00  0.00     0.000 C 
BRANCH   4   5
ATOM      5  C   UNL     1       5.899 -40.487  21.472  1.00  0.00     0.000 C 
BRANCH   5   6
ATOM      6  C   UNL     1       4.761 -40.379  22.506  1.00  0.00     0.000 C 
BRANCH   6   7
ATOM      7  C   UNL     1       5.173 -40.664  23.965  1.00  0.00     0.000 C 
BRANCH   7   8
ATOM      8  C   UNL     1       5.254 -39.423  24.877  1.00  0.00     0.000 C 
BRANCH   8   9
ATOM      9  C   UNL     1       3.981 -38.558  24.906  1.00  0.00     0.000 C 
BRANCH   9  10
ATOM     10  C   UNL     1       4.064 -37.416  25.934  1.00  0.00     0.000 C 
BRANCH  10  11
ATOM     11  C   UNL     1       3.378 -37.763  27.268  1.00  0.00     0.000 C 
BRANCH  11  12
ATOM     12  C   UNL     1       2.024 -37.062  27.507  1.00  0.00     0.000 C 
BRANCH  12  13
ATOM     13  C   UNL     1       2.120 -35.618  28.034  1.00  0.00     0.006 C 
BRANCH  13  14
ATOM     14  C   UNL     1       1.350 -35.409  29.345  1.00  0.00     0.053 C 
BRANCH  14  15
ATOM     15  C   UNL     1       1.587 -34.034  29.885  1.00  0.00     0.041 C 
ATOM     16  O   UNL     1       1.169 -33.023  29.258  1.00  0.00    -0.550 OA
ATOM     17  O   UNL     1       2.238 -33.865  31.103  1.00  0.00    -0.550 OA
ENDBRANCH  14  15
ENDBRANCH  13  14
ENDBRANCH  12  13
ENDBRANCH  11  12
ENDBRANCH  10  11
ENDBRANCH   9  10
ENDBRANCH   8   9
ENDBRANCH   7   8
ENDBRANCH   6   7
ENDBRANCH   5   6
ENDBRANCH   4   5
ENDBRANCH   3   4
ENDBRANCH   2   3
ENDBRANCH   1   2
BRANCH   1  18
ATOM     18  C   UNL     1       5.905 -36.684  22.442  1.00  0.00     0.000 C 
BRANCH  18  19
ATOM     19  C   UNL     1       6.115 -35.686  23.601  1.00  0.00     0.000 C 
BRANCH  19  20
ATOM     20  C   UNL     1       5.387 -34.342  23.414  1.00  0.00     0.000 C 
BRANCH  20  21
ATOM     21  C   UNL     1       3.934 -34.438  22.907  1.00  0.00     0.000 C 
BRANCH  21  22
ATOM     22  C   UNL     1       3.426 -33.209  22.125  1.00  0.00     0.000 C 
BRANCH  22  23
ATOM     23  C   UNL     1       3.155 -33.472  20.625  1.00  0.00     0.000 C 
BRANCH  23  24
ATOM     24  C   UNL     1       4.304 -34.205  19.909  1.00  0.00    -0.000 C 
BRANCH  24  25
ATOM     25  C   UNL     1       4.180 -34.247  18.374  1.00  0.00    -0.000 C 
BRANCH  25  26
ATOM     26  C   UNL     1       5.077 -35.288  17.670  1.00  0.00    -0.000 C 
BRANCH  26  27
ATOM     27  C   UNL     1       4.410 -36.061  16.518  1.00  0.00    -0.000 C 
BRANCH  27  28
ATOM     28  C   UNL     1       3.344 -35.233  15.779  1.00  0.00    -0.000 C 
BRANCH  28  29
ATOM     29  C   UNL     1       2.136 -36.081  15.344  1.00  0.00    -0.000 C 
BRANCH  29  30
ATOM     30  C   UNL     1       2.458 -37.585  15.297  1.00  0.00    -0.000 C 
BRANCH  30  31
ATOM     31  C   UNL     1       2.966 -38.037  13.918  1.00  0.00    -0.003 C 
ATOM     32  C   UNL     1       4.483 -38.226  13.876  1.00  0.00     0.004 C 
ENDBRANCH  30  31
ENDBRANCH  29  30
ENDBRANCH  28  29
ENDBRANCH  27  28
ENDBRANCH  26  27
ENDBRANCH  25  26
ENDBRANCH  24  25
ENDBRANCH  23  24
ENDBRANCH  22  23
ENDBRANCH  21  22
ENDBRANCH  20  21
ENDBRANCH  19  20
ENDBRANCH  18  19
ENDBRANCH   1  18
TORSDOF 28
ENDMDL
MODEL 5
REMARK VINA RESULT:    10.936      1.391      3.380
REMARK INTER + INTRA:          30.019
REMARK INTER:                  30.344
REMARK INTRA:                  -0.326
REMARK UNBOUND:                 1.182
REMARK SMILES CCCCCCCCCCCCCCCCCCCCCCCCCCCCCC(=O)[O-]
REMARK SMILES IDX 16 1 17 2 18 3 19 4 20 5 21 6 22 7 23 8 24 9 25 10 26 11
REMARK SMILES IDX 27 12 28 13 29 14 30 15 31 16 32 17 15 18 14 19 13 20 12 21
REMARK SMILES IDX 11 22 10 23 9 24 8 25 7 26 6 27 5 28 4 29 3 30 2 31 1 32
REMARK H PARENT
REMARK Flexibility Score: inf
ROOT
ATOM      1  C   UNL     1       4.841 -40.489  22.213  1.00  0.00     0.000 C 
ENDROOT
BRANCH   1   2
ATOM      2  C   UNL     1       5.893 -39.686  21.438  1.00  0.00     0.000 C 
BRANCH   2   3
ATOM      3  C   UNL     1       5.429 -39.398  20.005  1.00  0.00     0.000 C 
BRANCH   3   4
ATOM      4  C   UNL     1       5.193 -37.895  19.798  1.00  0.00     0.000 C 
BRANCH   4   5
ATOM      5  C   UNL     1       4.773 -37.171  21.090  1.00  0.00     0.000 C 
BRANCH   5   6
ATOM      6  C   UNL     1       5.755 -36.086  21.575  1.00  0.00     0.000 C 
BRANCH   6   7
ATOM      7  C   UNL     1       5.195 -35.130  22.647  1.00  0.00     0.000 C 
BRANCH   7   8
ATOM      8  C   UNL     1       5.007 -33.670  22.188  1.00  0.00     0.000 C 
BRANCH   8   9
ATOM      9  C   UNL     1       3.727 -33.408  21.373  1.00  0.00     0.000 C 
BRANCH   9  10
ATOM     10  C   UNL     1       3.637 -34.286  20.113  1.00  0.00     0.000 C 
BRANCH  10  11
ATOM     11  C   UNL     1       4.925 -34.258  19.272  1.00  0.00     0.000 C 
BRANCH  11  12
ATOM     12  C   UNL     1       4.713 -34.404  17.750  1.00  0.00     0.000 C 
BRANCH  12  13
ATOM     13  C   UNL     1       4.066 -35.728  17.305  1.00  0.00     0.006 C 
BRANCH  13  14
ATOM     14  C   UNL     1       3.083 -35.552  16.140  1.00  0.00     0.053 C 
BRANCH  14  15
ATOM     15  C   UNL     1       3.247 -36.649  15.136  1.00  0.00     0.041 C 
ATOM     16  O   UNL     1       2.936 -36.458  13.930  1.00  0.00    -0.550 OA
ATOM     17  O   UNL     1       3.782 -37.874  15.522  1.00  0.00    -0.550 OA
ENDBRANCH  14  15
ENDBRANCH  13  14
ENDBRANCH  12  13
ENDBRANCH  11  12
ENDBRANCH  10  11
ENDBRANCH   9  10
ENDBRANCH   8   9
ENDBRANCH   7   8
ENDBRANCH   6   7
ENDBRANCH   5   6
ENDBRANCH   4   5
ENDBRANCH   3   4
ENDBRANCH   2   3
ENDBRANCH   1   2
BRANCH   1  18
ATOM     18  C   UNL     1       4.800 -40.061  23.690  1.00  0.00     0.000 C 
BRANCH  18  19
ATOM     19  C   UNL     1       5.712 -38.851  23.988  1.00  0.00     0.000 C 
BRANCH  19  20
ATOM     20  C   UNL     1       4.950 -37.541  24.259  1.00  0.00     0.000 C 
BRANCH  20  21
ATOM     21  C   UNL     1       5.411 -36.747  25.498  1.00  0.00     0.000 C 
BRANCH  21  22
ATOM     22  C   UNL     1       4.932 -37.305  26.854  1.00  0.00     0.000 C 
BRANCH  22  23
ATOM     23  C   UNL     1       3.602 -38.092  26.789  1.00  0.00     0.000 C 
BRANCH  23  24
ATOM     24  C   UNL     1       2.351 -37.197  26.848  1.00  0.00    -0.000 C 
BRANCH  24  25
ATOM     25  C   UNL     1       1.873 -36.857  28.272  1.00  0.00    -0.000 C 
BRANCH  25  26
ATOM     26  C   UNL     1       1.613 -35.358  28.537  1.00  0.00    -0.000 C 
BRANCH  26  27
ATOM     27  C   UNL     1       2.010 -34.858  29.938  1.00  0.00    -0.000 C 
BRANCH  27  28
ATOM     28  C   UNL     1       1.363 -33.509  30.298  1.00  0.00    -0.000 C 
BRANCH  28  29
ATOM     29  C   UNL     1       0.360 -33.033  29.233  1.00  0.00    -0.000 C 
BRANCH  29  30
ATOM     30  C   UNL     1      -1.074 -32.929  29.781  1.00  0.00    -0.000 C 
BRANCH  30  31
ATOM     31  C   UNL     1      -2.015 -33.982  29.171  1.00  0.00    -0.003 C 
ATOM     32  C   UNL     1      -3.148 -34.385  30.116  1.00  0.00     0.004 C 
ENDBRANCH  30  31
ENDBRANCH  29  30
ENDBRANCH  28  29
ENDBRANCH  27  28
ENDBRANCH  26  27
ENDBRANCH  25  26
ENDBRANCH  24  25
ENDBRANCH  23  24
ENDBRANCH  22  23
ENDBRANCH  21  22
ENDBRANCH  20  21
ENDBRANCH  19  20
ENDBRANCH  18  19
ENDBRANCH   1  18
TORSDOF 28
ENDMDL
MODEL 6
REMARK VINA RESULT:    11.143      2.185      4.460
REMARK INTER + INTRA:          30.564
REMARK INTER:                  31.425
REMARK INTRA:                  -0.861
REMARK UNBOUND:                 1.182
REMARK SMILES CCCCCCCCCCCCCCCCCCCCCCCCCCCCCC(=O)[O-]
REMARK SMILES IDX 16 1 17 2 18 3 19 4 20 5 21 6 22 7 23 8 24 9 25 10 26 11
REMARK SMILES IDX 27 12 28 13 29 14 30 15 31 16 32 17 15 18 14 19 13 20 12 21
REMARK SMILES IDX 11 22 10 23 9 24 8 25 7 26 6 27 5 28 4 29 3 30 2 31 1 32
REMARK H PARENT
REMARK Flexibility Score: inf
ROOT
ATOM      1  C   UNL     1       4.614 -40.152  22.775  1.00  0.00     0.000 C 
ENDROOT
BRANCH   1   2
ATOM      2  C   UNL     1       5.800 -39.750  21.889  1.00  0.00     0.000 C 
BRANCH   2   3
ATOM      3  C   UNL     1       5.339 -39.385  20.473  1.00  0.00     0.000 C 
BRANCH   3   4
ATOM      4  C   UNL     1       5.227 -37.862  20.309  1.00  0.00     0.000 C 
BRANCH   4   5
ATOM      5  C   UNL     1       4.738 -37.157  21.588  1.00  0.00     0.000 C 
BRANCH   5   6
ATOM      6  C   UNL     1       5.813 -36.335  22.326  1.00  0.00     0.000 C 
BRANCH   6   7
ATOM      7  C   UNL     1       5.274 -35.169  23.178  1.00  0.00     0.000 C 
BRANCH   7   8
ATOM      8  C   UNL     1       5.398 -33.774  22.533  1.00  0.00     0.000 C 
BRANCH   8   9
ATOM      9  C   UNL     1       4.225 -33.380  21.615  1.00  0.00     0.000 C 
BRANCH   9  10
ATOM     10  C   UNL     1       4.020 -34.372  20.457  1.00  0.00     0.000 C 
BRANCH  10  11
ATOM     11  C   UNL     1       5.268 -34.519  19.568  1.00  0.00     0.000 C 
BRANCH  11  12
ATOM     12  C   UNL     1       4.986 -34.565  18.052  1.00  0.00     0.000 C 
BRANCH  12  13
ATOM     13  C   UNL     1       3.989 -35.650  17.605  1.00  0.00     0.006 C 
BRANCH  13  14
ATOM     14  C   UNL     1       3.150 -35.228  16.392  1.00  0.00     0.053 C 
BRANCH  14  15
ATOM     15  C   UNL     1       2.933 -36.385  15.468  1.00  0.00     0.041 C 
ATOM     16  O   UNL     1       3.859 -37.216  15.264  1.00  0.00    -0.550 OA
ATOM     17  O   UNL     1       1.696 -36.572  14.861  1.00  0.00    -0.550 OA
ENDBRANCH  14  15
ENDBRANCH  13  14
ENDBRANCH  12  13
ENDBRANCH  11  12
ENDBRANCH  10  11
ENDBRANCH   9  10
ENDBRANCH   8   9
ENDBRANCH   7   8
ENDBRANCH   6   7
ENDBRANCH   5   6
ENDBRANCH   4   5
ENDBRANCH   3   4
ENDBRANCH   2   3
ENDBRANCH   1   2
BRANCH   1  18
ATOM     18  C   UNL     1       4.964 -40.002  24.265  1.00  0.00     0.000 C 
BRANCH  18  19
ATOM     19  C   UNL     1       5.028 -38.527  24.720  1.00  0.00     0.000 C 
BRANCH  19  20
ATOM     20  C   UNL     1       4.469 -38.280  26.133  1.00  0.00     0.000 C 
BRANCH  20  21
ATOM     21  C   UNL     1       3.489 -37.097  26.263  1.00  0.00     0.000 C 
BRANCH  21  22
ATOM     22  C   UNL     1       2.283 -37.338  27.194  1.00  0.00     0.000 C 
BRANCH  22  23
ATOM     23  C   UNL     1       2.308 -36.511  28.501  1.00  0.00     0.000 C 
BRANCH  23  24
ATOM     24  C   UNL     1       1.731 -35.092  28.345  1.00  0.00    -0.000 C 
BRANCH  24  25
ATOM     25  C   UNL     1       1.905 -34.190  29.581  1.00  0.00    -0.000 C 
BRANCH  25  26
ATOM     26  C   UNL     1       0.622 -33.953  30.407  1.00  0.00    -0.000 C 
BRANCH  26  27
ATOM     27  C   UNL     1      -0.659 -33.721  29.584  1.00  0.00    -0.000 C 
BRANCH  27  28
ATOM     28  C   UNL     1      -1.849 -34.561  30.079  1.00  0.00    -0.000 C 
BRANCH  28  29
ATOM     29  C   UNL     1      -3.181 -34.130  29.442  1.00  0.00    -0.000 C 
BRANCH  29  30
ATOM     30  C   UNL     1      -4.110 -35.324  29.157  1.00  0.00    -0.000 C 
BRANCH  30  31
ATOM     31  C   UNL     1      -4.372 -35.521  27.654  1.00  0.00    -0.003 C 
ATOM     32  C   UNL     1      -5.535 -34.673  27.137  1.00  0.00     0.004 C 
ENDBRANCH  30  31
ENDBRANCH  29  30
ENDBRANCH  28  29
ENDBRANCH  27  28
ENDBRANCH  26  27
ENDBRANCH  25  26
ENDBRANCH  24  25
ENDBRANCH  23  24
ENDBRANCH  22  23
ENDBRANCH  21  22
ENDBRANCH  20  21
ENDBRANCH  19  20
ENDBRANCH  18  19
ENDBRANCH   1  18
TORSDOF 28
ENDMDL
MODEL 7
REMARK VINA RESULT:    11.329      4.627     10.811
REMARK INTER + INTRA:          31.055
REMARK INTER:                  32.173
REMARK INTRA:                  -1.118
REMARK UNBOUND:                 1.182
REMARK SMILES CCCCCCCCCCCCCCCCCCCCCCCCCCCCCC(=O)[O-]
REMARK SMILES IDX 16 1 17 2 18 3 19 4 20 5 21 6 22 7 23 8 24 9 25 10 26 11
REMARK SMILES IDX 27 12 28 13 29 14 30 15 31 16 32 17 15 18 14 19 13 20 12 21
REMARK SMILES IDX 11 22 10 23 9 24 8 25 7 26 6 27 5 28 4 29 3 30 2 31 1 32
REMARK H PARENT
REMARK Flexibility Score: inf
ROOT
ATOM      1  C   UNL     1       4.383 -37.401  24.959  1.00  0.00     0.000 C 
ENDROOT
BRANCH   1   2
ATOM      2  C   UNL     1       4.043 -38.282  26.167  1.00  0.00     0.000 C 
BRANCH   2   3
ATOM      3  C   UNL     1       3.594 -37.436  27.364  1.00  0.00     0.000 C 
BRANCH   3   4
ATOM      4  C   UNL     1       2.099 -37.100  27.268  1.00  0.00     0.000 C 
BRANCH   4   5
ATOM      5  C   UNL     1       1.777 -35.665  27.723  1.00  0.00     0.000 C 
BRANCH   5   6
ATOM      6  C   UNL     1       1.625 -35.486  29.247  1.00  0.00     0.000 C 
BRANCH   6   7
ATOM      7  C   UNL     1       1.692 -34.028  29.744  1.00  0.00     0.000 C 
BRANCH   7   8
ATOM      8  C   UNL     1       0.367 -33.244  29.655  1.00  0.00     0.000 C 
BRANCH   8   9
ATOM      9  C   UNL     1      -0.903 -34.110  29.747  1.00  0.00     0.000 C 
BRANCH   9  10
ATOM     10  C   UNL     1      -2.192 -33.296  29.531  1.00  0.00     0.000 C 
BRANCH  10  11
ATOM     11  C   UNL     1      -3.438 -33.984  30.115  1.00  0.00     0.000 C 
BRANCH  11  12
ATOM     12  C   UNL     1      -4.326 -34.711  29.082  1.00  0.00     0.000 C 
BRANCH  12  13
ATOM     13  C   UNL     1      -3.583 -35.698  28.162  1.00  0.00     0.006 C 
BRANCH  13  14
ATOM     14  C   UNL     1      -4.483 -36.285  27.066  1.00  0.00     0.053 C 
BRANCH  14  15
ATOM     15  C   UNL     1      -4.941 -37.661  27.437  1.00  0.00     0.041 C 
ATOM     16  O   UNL     1      -5.707 -37.831  28.424  1.00  0.00    -0.550 OA
ATOM     17  O   UNL     1      -4.554 -38.756  26.671  1.00  0.00    -0.550 OA
ENDBRANCH  14  15
ENDBRANCH  13  14
ENDBRANCH  12  13
ENDBRANCH  11  12
ENDBRANCH  10  11
ENDBRANCH   9  10
ENDBRANCH   8   9
ENDBRANCH   7   8
ENDBRANCH   6   7
ENDBRANCH   5   6
ENDBRANCH   4   5
ENDBRANCH   3   4
ENDBRANCH   2   3
ENDBRANCH   1   2
BRANCH   1  18
ATOM     18  C   UNL     1       5.740 -36.703  25.151  1.00  0.00     0.000 C 
BRANCH  18  19
ATOM     19  C   UNL     1       6.125 -35.804  23.956  1.00  0.00     0.000 C 
BRANCH  19  20
ATOM     20  C   UNL     1       5.488 -34.402  23.992  1.00  0.00     0.000 C 
BRANCH  20  21
ATOM     21  C   UNL     1       4.773 -33.963  22.699  1.00  0.00     0.000 C 
BRANCH  21  22
ATOM     22  C   UNL     1       3.634 -34.890  22.227  1.00  0.00     0.000 C 
BRANCH  22  23
ATOM     23  C   UNL     1       4.101 -36.103  21.390  1.00  0.00     0.000 C 
BRANCH  23  24
ATOM     24  C   UNL     1       5.270 -35.784  20.439  1.00  0.00    -0.000 C 
BRANCH  24  25
ATOM     25  C   UNL     1       5.265 -34.351  19.876  1.00  0.00    -0.000 C 
BRANCH  25  26
ATOM     26  C   UNL     1       4.944 -34.236  18.371  1.00  0.00    -0.000 C 
BRANCH  26  27
ATOM     27  C   UNL     1       4.527 -35.549  17.684  1.00  0.00    -0.000 C 
BRANCH  27  28
ATOM     28  C   UNL     1       3.616 -35.324  16.464  1.00  0.00    -0.000 C 
BRANCH  28  29
ATOM     29  C   UNL     1       2.940 -36.620  15.985  1.00  0.00    -0.000 C 
BRANCH  29  30
ATOM     30  C   UNL     1       2.892 -36.726  14.450  1.00  0.00    -0.000 C 
BRANCH  30  31
ATOM     31  C   UNL     1       4.088 -37.502  13.875  1.00  0.00    -0.003 C 
ATOM     32  C   UNL     1       4.039 -38.996  14.201  1.00  0.00     0.004 C 
ENDBRANCH  30  31
ENDBRANCH  29  30
ENDBRANCH  28  29
ENDBRANCH  27  28
ENDBRANCH  26  27
ENDBRANCH  25  26
ENDBRANCH  24  25
ENDBRANCH  23  24
ENDBRANCH  22  23
ENDBRANCH  21  22
ENDBRANCH  20  21
ENDBRANCH  19  20
ENDBRANCH  18  19
ENDBRANCH   1  18
TORSDOF 28
ENDMDL
MODEL 8
REMARK VINA RESULT:    11.555      2.420      4.973
REMARK INTER + INTRA:          31.651
REMARK INTER:                  31.041
REMARK INTRA:                   0.610
REMARK UNBOUND:                 1.182
REMARK SMILES CCCCCCCCCCCCCCCCCCCCCCCCCCCCCC(=O)[O-]
REMARK SMILES IDX 16 1 17 2 18 3 19 4 20 5 21 6 22 7 23 8 24 9 25 10 26 11
REMARK SMILES IDX 27 12 28 13 29 14 30 15 31 16 32 17 15 18 14 19 13 20 12 21
REMARK SMILES IDX 11 22 10 23 9 24 8 25 7 26 6 27 5 28 4 29 3 30 2 31 1 32
REMARK H PARENT
REMARK Flexibility Score: inf
ROOT
ATOM      1  C   UNL     1       5.654 -36.371  25.686  1.00  0.00     0.000 C 
ENDROOT
BRANCH   1   2
ATOM      2  C   UNL     1       5.395 -35.585  24.395  1.00  0.00     0.000 C 
BRANCH   2   3
ATOM      3  C   UNL     1       6.125 -34.237  24.408  1.00  0.00     0.000 C 
BRANCH   3   4
ATOM      4  C   UNL     1       5.703 -33.374  23.210  1.00  0.00     0.000 C 
BRANCH   4   5
ATOM      5  C   UNL     1       5.147 -34.206  22.040  1.00  0.00     0.000 C 
BRANCH   5   6
ATOM      6  C   UNL     1       5.763 -35.612  21.893  1.00  0.00     0.000 C 
BRANCH   6   7
ATOM      7  C   UNL     1       4.759 -36.778  21.977  1.00  0.00     0.000 C 
BRANCH   7   8
ATOM      8  C   UNL     1       5.224 -38.092  21.318  1.00  0.00     0.000 C 
BRANCH   8   9
ATOM      9  C   UNL     1       4.997 -38.167  19.797  1.00  0.00     0.000 C 
BRANCH   9  10
ATOM     10  C   UNL     1       5.253 -36.823  19.093  1.00  0.00     0.000 C 
BRANCH  10  11
ATOM     11  C   UNL     1       3.959 -36.032  18.828  1.00  0.00     0.000 C 
BRANCH  11  12
ATOM     12  C   UNL     1       4.094 -34.886  17.803  1.00  0.00     0.000 C 
BRANCH  12  13
ATOM     13  C   UNL     1       3.429 -35.148  16.439  1.00  0.00     0.006 C 
BRANCH  13  14
ATOM     14  C   UNL     1       4.059 -36.326  15.683  1.00  0.00     0.053 C 
BRANCH  14  15
ATOM     15  C   UNL     1       3.067 -36.951  14.754  1.00  0.00     0.041 C 
ATOM     16  O   UNL     1       3.437 -37.824  13.923  1.00  0.00    -0.550 OA
ATOM     17  O   UNL     1       1.723 -36.601  14.830  1.00  0.00    -0.550 OA
ENDBRANCH  14  15
ENDBRANCH  13  14
ENDBRANCH  12  13
ENDBRANCH  11  12
ENDBRANCH  10  11
ENDBRANCH   9  10
ENDBRANCH   8   9
ENDBRANCH   7   8
ENDBRANCH   6   7
ENDBRANCH   5   6
ENDBRANCH   4   5
ENDBRANCH   3   4
ENDBRANCH   2   3
ENDBRANCH   1   2
BRANCH   1  18
ATOM     18  C   UNL     1       5.368 -37.869  25.485  1.00  0.00     0.000 C 
BRANCH  18  19
ATOM     19  C   UNL     1       4.344 -38.424  26.499  1.00  0.00     0.000 C 
BRANCH  19  20
ATOM     20  C   UNL     1       3.019 -37.642  26.546  1.00  0.00     0.000 C 
BRANCH  20  21
ATOM     21  C   UNL     1       2.520 -37.261  27.954  1.00  0.00     0.000 C 
BRANCH  21  22
ATOM     22  C   UNL     1       1.523 -36.085  28.006  1.00  0.00     0.000 C 
BRANCH  22  23
ATOM     23  C   UNL     1       2.131 -34.753  28.504  1.00  0.00     0.000 C 
BRANCH  23  24
ATOM     24  C   UNL     1       1.808 -34.439  29.976  1.00  0.00    -0.000 C 
BRANCH  24  25
ATOM     25  C   UNL     1       0.304 -34.396  30.308  1.00  0.00    -0.000 C 
BRANCH  25  26
ATOM     26  C   UNL     1      -0.569 -33.617  29.302  1.00  0.00    -0.000 C 
BRANCH  26  27
ATOM     27  C   UNL     1      -1.985 -33.265  29.792  1.00  0.00    -0.000 C 
BRANCH  27  28
ATOM     28  C   UNL     1      -2.939 -34.473  29.784  1.00  0.00    -0.000 C 
BRANCH  28  29
ATOM     29  C   UNL     1      -3.987 -34.389  28.661  1.00  0.00    -0.000 C 
BRANCH  29  30
ATOM     30  C   UNL     1      -4.876 -35.643  28.591  1.00  0.00    -0.000 C 
BRANCH  30  31
ATOM     31  C   UNL     1      -4.740 -36.387  27.252  1.00  0.00    -0.003 C 
ATOM     32  C   UNL     1      -4.176 -37.799  27.410  1.00  0.00     0.004 C 
ENDBRANCH  30  31
ENDBRANCH  29  30
ENDBRANCH  28  29
ENDBRANCH  27  28
ENDBRANCH  26  27
ENDBRANCH  25  26
ENDBRANCH  24  25
ENDBRANCH  23  24
ENDBRANCH  22  23
ENDBRANCH  21  22
ENDBRANCH  20  21
ENDBRANCH  19  20
ENDBRANCH  18  19
ENDBRANCH   1  18
TORSDOF 28
ENDMDL
