MODEL 1
REMARK VINA RESULT:    -4.908      0.000      0.000
REMARK INTER + INTRA:          -5.402
REMARK INTER:                  -5.195
REMARK INTRA:                  -0.207
REMARK UNBOUND:                -0.207
REMARK SMILES C=C(C)[C@H]1CC[C@@H](C)[C@@]12CC=C(C)CC2
REMARK SMILES IDX 8 1 7 2 6 3 5 4 4 5 9 6 15 7 14 8 12 9 11 10 10 11 13 12
REMARK SMILES IDX 2 13 1 14 3 15
REMARK H PARENT
REMARK Flexibility Score: inf
ROOT
ATOM      1  C   UNL     1     134.223 136.579 137.454  1.00  0.00     0.008 C 
ATOM      2  C   UNL     1     133.017 136.265 136.547  1.00  0.00    -0.007 C 
ATOM      3  C   UNL     1     132.860 134.742 136.368  1.00  0.00     0.004 C 
ATOM      4  C   UNL     1     132.662 134.484 134.883  1.00  0.00     0.009 C 
ATOM      5  C   UNL     1     132.214 135.821 134.300  1.00  0.00     0.021 C 
ATOM      6  C   UNL     1     132.999 136.898 135.107  1.00  0.00    -0.017 C 
ATOM      7  C   UNL     1     132.233 138.248 135.065  1.00  0.00     0.012 C 
ATOM      8  C   UNL     1     132.950 139.361 135.839  1.00  0.00     0.031 C 
ATOM      9  C   UNL     1     134.443 139.407 135.581  1.00  0.00    -0.077 C 
ATOM     10  C   UNL     1     135.112 138.357 135.062  1.00  0.00    -0.027 C 
ATOM     11  C   UNL     1     134.422 137.132 134.514  1.00  0.00     0.035 C 
ATOM     12  C   UNL     1     135.220 140.605 136.053  1.00  0.00     0.039 C 
ENDROOT
BRANCH   5  13
ATOM     13  C   UNL     1     132.298 135.905 132.773  1.00  0.00    -0.077 C 
ATOM     14  C   UNL     1     131.526 136.789 132.118  1.00  0.00     0.008 C 
ATOM     15  C   UNL     1     133.140 134.938 131.971  1.00  0.00     0.039 C 
ENDBRANCH   5  13
TORSDOF 1
ENDMDL
MODEL 2
REMARK VINA RESULT:    -4.860      3.795      5.322
REMARK INTER + INTRA:          -5.351
REMARK INTER:                  -5.142
REMARK INTRA:                  -0.209
REMARK UNBOUND:                -0.207
REMARK SMILES C=C(C)[C@H]1CC[C@@H](C)[C@@]12CC=C(C)CC2
REMARK SMILES IDX 8 1 7 2 6 3 5 4 4 5 9 6 15 7 14 8 12 9 11 10 10 11 13 12
REMARK SMILES IDX 2 13 1 14 3 15
REMARK H PARENT
REMARK Flexibility Score: inf
ROOT
ATOM      1  C   UNL     1     136.539 138.555 137.410  1.00  0.00     0.008 C 
ATOM      2  C   UNL     1     136.244 139.751 136.483  1.00  0.00    -0.007 C 
ATOM      3  C   UNL     1     134.724 139.930 136.302  1.00  0.00     0.004 C 
ATOM      4  C   UNL     1     134.469 140.108 134.814  1.00  0.00     0.009 C 
ATOM      5  C   UNL     1     135.813 140.523 134.223  1.00  0.00     0.021 C 
ATOM      6  C   UNL     1     136.877 139.734 135.043  1.00  0.00    -0.017 C 
ATOM      7  C   UNL     1     138.239 140.475 134.988  1.00  0.00     0.012 C 
ATOM      8  C   UNL     1     139.340 139.753 135.773  1.00  0.00     0.031 C 
ATOM      9  C   UNL     1     139.361 138.256 135.540  1.00  0.00    -0.077 C 
ATOM     10  C   UNL     1     138.299 137.596 135.034  1.00  0.00    -0.027 C 
ATOM     11  C   UNL     1     137.086 138.297 134.474  1.00  0.00     0.035 C 
ATOM     12  C   UNL     1     140.546 137.466 136.025  1.00  0.00     0.039 C 
ENDROOT
BRANCH   5  13
ATOM     13  C   UNL     1     135.894 140.412 132.698  1.00  0.00    -0.077 C 
ATOM     14  C   UNL     1     136.778 141.171 132.028  1.00  0.00     0.008 C 
ATOM     15  C   UNL     1     134.925 139.556 131.913  1.00  0.00     0.039 C 
ENDBRANCH   5  13
TORSDOF 1
ENDMDL
MODEL 3
REMARK VINA RESULT:    -4.860      5.469      7.500
REMARK INTER + INTRA:          -5.351
REMARK INTER:                  -5.144
REMARK INTRA:                  -0.208
REMARK UNBOUND:                -0.207
REMARK SMILES C=C(C)[C@H]1CC[C@@H](C)[C@@]12CC=C(C)CC2
REMARK SMILES IDX 8 1 7 2 6 3 5 4 4 5 9 6 15 7 14 8 12 9 11 10 10 11 13 12
REMARK SMILES IDX 2 13 1 14 3 15
REMARK H PARENT
REMARK Flexibility Score: inf
ROOT
ATOM      1  C   UNL     1     138.614 136.171 137.399  1.00  0.00     0.008 C 
ATOM      2  C   UNL     1     139.774 136.484 136.434  1.00  0.00    -0.007 C 
ATOM      3  C   UNL     1     139.939 138.008 136.267  1.00  0.00     0.004 C 
ATOM      4  C   UNL     1     140.062 138.284 134.777  1.00  0.00     0.009 C 
ATOM      5  C   UNL     1     140.463 136.950 134.154  1.00  0.00     0.021 C 
ATOM      6  C   UNL     1     139.709 135.871 134.987  1.00  0.00    -0.017 C 
ATOM      7  C   UNL     1     140.455 134.514 134.887  1.00  0.00     0.012 C 
ATOM      8  C   UNL     1     139.766 133.398 135.682  1.00  0.00     0.031 C 
ATOM      9  C   UNL     1     138.262 133.372 135.502  1.00  0.00    -0.077 C 
ATOM     10  C   UNL     1     137.579 134.437 135.034  1.00  0.00    -0.027 C 
ATOM     11  C   UNL     1     138.254 135.661 134.466  1.00  0.00     0.035 C 
ATOM     12  C   UNL     1     137.496 132.176 135.998  1.00  0.00     0.039 C 
ENDROOT
BRANCH   5  13
ATOM     13  C   UNL     1     140.298 136.889 132.633  1.00  0.00    -0.077 C 
ATOM     14  C   UNL     1     141.030 136.012 131.925  1.00  0.00     0.008 C 
ATOM     15  C   UNL     1     139.418 137.871 131.890  1.00  0.00     0.039 C 
ENDBRANCH   5  13
TORSDOF 1
ENDMDL
MODEL 4
REMARK VINA RESULT:    -4.858      3.790      5.349
REMARK INTER + INTRA:          -5.349
REMARK INTER:                  -5.141
REMARK INTRA:                  -0.208
REMARK UNBOUND:                -0.207
REMARK SMILES C=C(C)[C@H]1CC[C@@H](C)[C@@]12CC=C(C)CC2
REMARK SMILES IDX 8 1 7 2 6 3 5 4 4 5 9 6 15 7 14 8 12 9 11 10 10 11 13 12
REMARK SMILES IDX 2 13 1 14 3 15
REMARK H PARENT
REMARK Flexibility Score: inf
ROOT
ATOM      1  C   UNL     1     136.158 134.108 137.397  1.00  0.00     0.008 C 
ATOM      2  C   UNL     1     136.434 132.905 136.474  1.00  0.00    -0.007 C 
ATOM      3  C   UNL     1     137.950 132.724 136.264  1.00  0.00     0.004 C 
ATOM      4  C   UNL     1     138.174 132.534 134.772  1.00  0.00     0.009 C 
ATOM      5  C   UNL     1     136.819 132.114 134.213  1.00  0.00     0.021 C 
ATOM      6  C   UNL     1     135.772 132.910 135.047  1.00  0.00    -0.017 C 
ATOM      7  C   UNL     1     134.409 132.168 135.026  1.00  0.00     0.012 C 
ATOM      8  C   UNL     1     133.324 132.896 135.827  1.00  0.00     0.031 C 
ATOM      9  C   UNL     1     133.297 134.392 135.582  1.00  0.00    -0.077 C 
ATOM     10  C   UNL     1     134.349 135.047 135.048  1.00  0.00    -0.027 C 
ATOM     11  C   UNL     1     135.551 134.341 134.470  1.00  0.00     0.035 C 
ATOM     12  C   UNL     1     132.122 135.185 136.084  1.00  0.00     0.039 C 
ENDROOT
BRANCH   5  13
ATOM     13  C   UNL     1     136.707 132.211 132.688  1.00  0.00    -0.077 C 
ATOM     14  C   UNL     1     135.803 131.454 132.044  1.00  0.00     0.008 C 
ATOM     15  C   UNL     1     137.666 133.053 131.875  1.00  0.00     0.039 C 
ENDBRANCH   5  13
TORSDOF 1
ENDMDL
MODEL 5
REMARK VINA RESULT:    -4.775      2.038      3.522
REMARK INTER + INTRA:          -5.262
REMARK INTER:                  -5.059
REMARK INTRA:                  -0.203
REMARK UNBOUND:                -0.207
REMARK SMILES C=C(C)[C@H]1CC[C@@H](C)[C@@]12CC=C(C)CC2
REMARK SMILES IDX 8 1 7 2 6 3 5 4 4 5 9 6 15 7 14 8 12 9 11 10 10 11 13 12
REMARK SMILES IDX 2 13 1 14 3 15
REMARK H PARENT
REMARK Flexibility Score: inf
ROOT
ATOM      1  C   UNL     1     135.203 140.033 137.439  1.00  0.00     0.008 C 
ATOM      2  C   UNL     1     134.423 140.036 136.110  1.00  0.00    -0.007 C 
ATOM      3  C   UNL     1     132.994 139.496 136.322  1.00  0.00     0.004 C 
ATOM      4  C   UNL     1     132.732 138.483 135.220  1.00  0.00     0.009 C 
ATOM      5  C   UNL     1     133.755 138.798 134.133  1.00  0.00     0.021 C 
ATOM      6  C   UNL     1     135.036 139.241 134.899  1.00  0.00    -0.017 C 
ATOM      7  C   UNL     1     135.911 140.140 133.985  1.00  0.00     0.012 C 
ATOM      8  C   UNL     1     137.196 140.614 134.673  1.00  0.00     0.031 C 
ATOM      9  C   UNL     1     137.906 139.519 135.443  1.00  0.00    -0.077 C 
ATOM     10  C   UNL     1     137.278 138.384 135.813  1.00  0.00    -0.027 C 
ATOM     11  C   UNL     1     135.896 138.014 135.333  1.00  0.00     0.035 C 
ATOM     12  C   UNL     1     139.305 139.770 135.933  1.00  0.00     0.039 C 
ENDROOT
BRANCH   5  13
ATOM     13  C   UNL     1     133.923 137.694 133.085  1.00  0.00    -0.077 C 
ATOM     14  C   UNL     1     134.420 138.003 131.875  1.00  0.00     0.008 C 
ATOM     15  C   UNL     1     133.437 136.283 133.334  1.00  0.00     0.039 C 
ENDBRANCH   5  13
TORSDOF 1
ENDMDL
MODEL 6
REMARK VINA RESULT:    -4.740      4.679      6.873
REMARK INTER + INTRA:          -5.224
REMARK INTER:                  -5.063
REMARK INTRA:                  -0.162
REMARK UNBOUND:                -0.207
REMARK SMILES C=C(C)[C@H]1CC[C@@H](C)[C@@]12CC=C(C)CC2
REMARK SMILES IDX 8 1 7 2 6 3 5 4 4 5 9 6 15 7 14 8 12 9 11 10 10 11 13 12
REMARK SMILES IDX 2 13 1 14 3 15
REMARK H PARENT
REMARK Flexibility Score: inf
ROOT
ATOM      1  C   UNL     1     140.104 137.520 137.428  1.00  0.00     0.008 C 
ATOM      2  C   UNL     1     140.061 138.285 136.091  1.00  0.00    -0.007 C 
ATOM      3  C   UNL     1     139.513 139.710 136.304  1.00  0.00     0.004 C 
ATOM      4  C   UNL     1     138.466 139.951 135.228  1.00  0.00     0.009 C 
ATOM      5  C   UNL     1     138.760 138.920 134.144  1.00  0.00     0.021 C 
ATOM      6  C   UNL     1     139.239 137.651 134.910  1.00  0.00    -0.017 C 
ATOM      7  C   UNL     1     140.120 136.776 133.980  1.00  0.00     0.012 C 
ATOM      8  C   UNL     1     140.627 135.503 134.667  1.00  0.00     0.031 C 
ATOM      9  C   UNL     1     139.562 134.790 135.475  1.00  0.00    -0.077 C 
ATOM     10  C   UNL     1     138.431 135.411 135.871  1.00  0.00    -0.027 C 
ATOM     11  C   UNL     1     138.034 136.784 135.388  1.00  0.00     0.035 C 
ATOM     12  C   UNL     1     139.842 133.399 135.972  1.00  0.00     0.039 C 
ENDROOT
BRANCH   5  13
ATOM     13  C   UNL     1     137.628 138.729 133.130  1.00  0.00    -0.077 C 
ATOM     14  C   UNL     1     136.406 139.215 133.406  1.00  0.00     0.008 C 
ATOM     15  C   UNL     1     137.819 137.905 131.875  1.00  0.00     0.039 C 
ENDBRANCH   5  13
TORSDOF 1
ENDMDL
MODEL 7
REMARK VINA RESULT:    -4.698      1.661      4.911
REMARK INTER + INTRA:          -5.181
REMARK INTER:                  -5.039
REMARK INTRA:                  -0.141
REMARK UNBOUND:                -0.207
REMARK SMILES C=C(C)[C@H]1CC[C@@H](C)[C@@]12CC=C(C)CC2
REMARK SMILES IDX 8 1 7 2 6 3 5 4 4 5 9 6 15 7 14 8 12 9 11 10 10 11 13 12
REMARK SMILES IDX 2 13 1 14 3 15
REMARK H PARENT
REMARK Flexibility Score: inf
ROOT
ATOM      1  C   UNL     1     132.843 134.893 132.375  1.00  0.00     0.008 C 
ATOM      2  C   UNL     1     132.248 135.566 133.628  1.00  0.00    -0.007 C 
ATOM      3  C   UNL     1     131.886 137.034 133.330  1.00  0.00     0.004 C 
ATOM      4  C   UNL     1     132.437 137.871 134.473  1.00  0.00     0.009 C 
ATOM      5  C   UNL     1     132.655 136.890 135.620  1.00  0.00     0.021 C 
ATOM      6  C   UNL     1     133.115 135.566 134.940  1.00  0.00    -0.017 C 
ATOM      7  C   UNL     1     132.792 134.360 135.862  1.00  0.00     0.012 C 
ATOM      8  C   UNL     1     133.222 133.019 135.257  1.00  0.00     0.031 C 
ATOM      9  C   UNL     1     134.601 133.055 134.630  1.00  0.00    -0.077 C 
ATOM     10  C   UNL     1     135.199 134.215 134.287  1.00  0.00    -0.027 C 
ATOM     11  C   UNL     1     134.651 135.568 134.669  1.00  0.00     0.035 C 
ATOM     12  C   UNL     1     135.255 131.756 134.248  1.00  0.00     0.039 C 
ENDROOT
BRANCH   5  13
ATOM     13  C   UNL     1     133.534 137.427 136.753  1.00  0.00    -0.077 C 
ATOM     14  C   UNL     1     134.201 138.581 136.580  1.00  0.00     0.008 C 
ATOM     15  C   UNL     1     133.765 136.634 138.021  1.00  0.00     0.039 C 
ENDBRANCH   5  13
TORSDOF 1
ENDMDL
MODEL 8
REMARK VINA RESULT:    -4.683      2.245      5.574
REMARK INTER + INTRA:          -5.164
REMARK INTER:                  -4.958
REMARK INTRA:                  -0.206
REMARK UNBOUND:                -0.207
REMARK SMILES C=C(C)[C@H]1CC[C@@H](C)[C@@]12CC=C(C)CC2
REMARK SMILES IDX 8 1 7 2 6 3 5 4 4 5 9 6 15 7 14 8 12 9 11 10 10 11 13 12
REMARK SMILES IDX 2 13 1 14 3 15
REMARK H PARENT
REMARK Flexibility Score: inf
ROOT
ATOM      1  C   UNL     1     134.953 140.074 132.624  1.00  0.00     0.008 C 
ATOM      2  C   UNL     1     135.637 140.484 133.943  1.00  0.00    -0.007 C 
ATOM      3  C   UNL     1     137.114 140.850 133.692  1.00  0.00     0.004 C 
ATOM      4  C   UNL     1     137.937 140.135 134.751  1.00  0.00     0.009 C 
ATOM      5  C   UNL     1     136.951 139.790 135.861  1.00  0.00     0.021 C 
ATOM      6  C   UNL     1     135.618 139.451 135.129  1.00  0.00    -0.017 C 
ATOM      7  C   UNL     1     134.419 139.677 136.089  1.00  0.00     0.012 C 
ATOM      8  C   UNL     1     133.069 139.359 135.436  1.00  0.00     0.031 C 
ATOM      9  C   UNL     1     133.076 138.074 134.633  1.00  0.00    -0.077 C 
ATOM     10  C   UNL     1     134.222 137.502 134.211  1.00  0.00    -0.027 C 
ATOM     11  C   UNL     1     135.587 137.965 134.659  1.00  0.00     0.035 C 
ATOM     12  C   UNL     1     131.763 137.504 134.171  1.00  0.00     0.039 C 
ENDROOT
BRANCH   5  13
ATOM     13  C   UNL     1     137.468 138.758 136.868  1.00  0.00    -0.077 C 
ATOM     14  C   UNL     1     136.948 138.726 138.107  1.00  0.00     0.008 C 
ATOM     15  C   UNL     1     138.631 137.847 136.542  1.00  0.00     0.039 C 
ENDBRANCH   5  13
TORSDOF 1
ENDMDL
MODEL 9
REMARK VINA RESULT:    -4.668      1.075      4.426
REMARK INTER + INTRA:          -5.148
REMARK INTER:                  -4.951
REMARK INTRA:                  -0.198
REMARK UNBOUND:                -0.207
REMARK SMILES C=C(C)[C@H]1CC[C@@H](C)[C@@]12CC=C(C)CC2
REMARK SMILES IDX 8 1 7 2 6 3 5 4 4 5 9 6 15 7 14 8 12 9 11 10 10 11 13 12
REMARK SMILES IDX 2 13 1 14 3 15
REMARK H PARENT
REMARK Flexibility Score: inf
ROOT
ATOM      1  C   UNL     1     132.146 135.507 136.153  1.00  0.00     0.008 C 
ATOM      2  C   UNL     1     133.545 136.146 136.255  1.00  0.00    -0.007 C 
ATOM      3  C   UNL     1     133.797 136.666 137.684  1.00  0.00     0.004 C 
ATOM      4  C   UNL     1     134.354 138.074 137.556  1.00  0.00     0.009 C 
ATOM      5  C   UNL     1     134.878 138.170 136.127  1.00  0.00     0.021 C 
ATOM      6  C   UNL     1     133.884 137.328 135.273  1.00  0.00    -0.017 C 
ATOM      7  C   UNL     1     134.586 136.837 133.979  1.00  0.00     0.012 C 
ATOM      8  C   UNL     1     133.664 136.001 133.084  1.00  0.00     0.031 C 
ATOM      9  C   UNL     1     132.276 136.590 132.933  1.00  0.00    -0.077 C 
ATOM     10  C   UNL     1     131.790 137.505 133.797  1.00  0.00    -0.027 C 
ATOM     11  C   UNL     1     132.637 138.166 134.857  1.00  0.00     0.035 C 
ATOM     12  C   UNL     1     131.364 136.029 131.877  1.00  0.00     0.039 C 
ENDROOT
BRANCH   5  13
ATOM     13  C   UNL     1     135.160 139.598 135.651  1.00  0.00    -0.077 C 
ATOM     14  C   UNL     1     135.996 139.796 134.618  1.00  0.00     0.008 C 
ATOM     15  C   UNL     1     134.613 140.801 136.387  1.00  0.00     0.039 C 
ENDBRANCH   5  13
TORSDOF 1
ENDMDL
