MODEL 1
REMARK VINA RESULT:    -3.801      0.000      0.000
REMARK INTER + INTRA:          -6.150
REMARK INTER:                  -5.579
REMARK INTRA:                  -0.572
REMARK UNBOUND:                -0.572
REMARK SMILES O=C([O-])CCCCCCCC(=O)[O-]
REMARK SMILES IDX 7 1 6 2 5 3 4 4 2 5 1 6 3 7 8 8 9 9 10 10 11 11 12 12 13 13
REMARK H PARENT
REMARK Flexibility Score: inf
ROOT
ATOM      1  C   UNL     1      -7.272   3.256  52.892  1.00  0.00     0.000 C 
ENDROOT
BRANCH   1   2
ATOM      2  C   UNL     1      -5.870   3.666  53.367  1.00  0.00     0.000 C 
BRANCH   2   3
ATOM      3  C   UNL     1      -5.889   4.074  54.845  1.00  0.00     0.006 C 
BRANCH   3   4
ATOM      4  C   UNL     1      -6.988   5.105  55.118  1.00  0.00     0.053 C 
BRANCH   4   5
ATOM      5  C   UNL     1      -6.789   5.741  56.456  1.00  0.00     0.041 C 
ATOM      6  O   UNL     1      -7.580   6.636  56.856  1.00  0.00    -0.550 OA
ATOM      7  O   UNL     1      -5.702   5.382  57.243  1.00  0.00    -0.550 OA
ENDBRANCH   4   5
ENDBRANCH   3   4
ENDBRANCH   2   3
ENDBRANCH   1   2
BRANCH   1   8
ATOM      8  C   UNL     1      -7.499   3.542  51.398  1.00  0.00     0.000 C 
BRANCH   8   9
ATOM      9  C   UNL     1      -7.559   5.048  51.086  1.00  0.00     0.006 C 
BRANCH   9  10
ATOM     10  C   UNL     1      -8.640   5.766  51.903  1.00  0.00     0.053 C 
BRANCH  10  11
ATOM     11  C   UNL     1     -10.014   5.486  51.377  1.00  0.00     0.041 C 
ATOM     12  O   UNL     1     -10.506   6.206  50.469  1.00  0.00    -0.550 OA
ATOM     13  O   UNL     1     -10.764   4.444  51.910  1.00  0.00    -0.550 OA
ENDBRANCH  10  11
ENDBRANCH   9  10
ENDBRANCH   8   9
ENDBRANCH   1   8
TORSDOF 8
ENDMDL
MODEL 2
REMARK VINA RESULT:    -3.775      9.343     10.678
REMARK INTER + INTRA:          -6.112
REMARK INTER:                  -5.619
REMARK INTRA:                  -0.493
REMARK UNBOUND:                -0.572
REMARK SMILES O=C([O-])CCCCCCCC(=O)[O-]
REMARK SMILES IDX 7 1 6 2 5 3 4 4 2 5 1 6 3 7 8 8 9 9 10 10 11 11 12 12 13 13
REMARK H PARENT
REMARK Flexibility Score: inf
ROOT
ATOM      1  C   UNL     1       0.701  -2.726  53.576  1.00  0.00     0.000 C 
ENDROOT
BRANCH   1   2
ATOM      2  C   UNL     1       2.133  -2.978  54.074  1.00  0.00     0.000 C 
BRANCH   2   3
ATOM      3  C   UNL     1       3.047  -1.793  53.738  1.00  0.00     0.006 C 
BRANCH   3   4
ATOM      4  C   UNL     1       2.234  -0.592  53.248  1.00  0.00     0.053 C 
BRANCH   4   5
ATOM      5  C   UNL     1       2.552   0.623  54.060  1.00  0.00     0.041 C 
ATOM      6  O   UNL     1       3.176   0.512  55.148  1.00  0.00    -0.550 OA
ATOM      7  O   UNL     1       2.115   1.873  53.642  1.00  0.00    -0.550 OA
ENDBRANCH   4   5
ENDBRANCH   3   4
ENDBRANCH   2   3
ENDBRANCH   1   2
BRANCH   1   8
ATOM      8  C   UNL     1       0.085  -3.957  52.892  1.00  0.00     0.000 C 
BRANCH   8   9
ATOM      9  C   UNL     1      -0.803  -3.585  51.691  1.00  0.00     0.006 C 
BRANCH   9  10
ATOM     10  C   UNL     1      -1.285  -2.130  51.757  1.00  0.00     0.053 C 
BRANCH  10  11
ATOM     11  C   UNL     1      -2.695  -1.989  51.270  1.00  0.00     0.041 C 
ATOM     12  O   UNL     1      -3.023  -1.007  50.554  1.00  0.00    -0.550 OA
ATOM     13  O   UNL     1      -3.653  -2.927  51.633  1.00  0.00    -0.550 OA
ENDBRANCH  10  11
ENDBRANCH   9  10
ENDBRANCH   8   9
ENDBRANCH   1   8
TORSDOF 8
ENDMDL
MODEL 3
REMARK VINA RESULT:    -3.762      0.229      5.321
REMARK INTER + INTRA:          -6.092
REMARK INTER:                  -5.505
REMARK INTRA:                  -0.587
REMARK UNBOUND:                -0.572
REMARK SMILES O=C([O-])CCCCCCCC(=O)[O-]
REMARK SMILES IDX 7 1 6 2 5 3 4 4 2 5 1 6 3 7 8 8 9 9 10 10 11 11 12 12 13 13
REMARK H PARENT
REMARK Flexibility Score: inf
ROOT
ATOM      1  C   UNL     1      -7.336   3.413  52.797  1.00  0.00     0.000 C 
ENDROOT
BRANCH   1   2
ATOM      2  C   UNL     1      -7.457   3.734  51.300  1.00  0.00     0.000 C 
BRANCH   2   3
ATOM      3  C   UNL     1      -7.687   5.235  51.078  1.00  0.00     0.006 C 
BRANCH   3   4
ATOM      4  C   UNL     1      -8.744   5.778  52.042  1.00  0.00     0.053 C 
BRANCH   4   5
ATOM      5  C   UNL     1     -10.117   5.560  51.492  1.00  0.00     0.041 C 
ATOM      6  O   UNL     1     -10.510   6.213  50.489  1.00  0.00    -0.550 OA
ATOM      7  O   UNL     1     -10.983   4.670  52.115  1.00  0.00    -0.550 OA
ENDBRANCH   4   5
ENDBRANCH   3   4
ENDBRANCH   2   3
ENDBRANCH   1   2
BRANCH   1   8
ATOM      8  C   UNL     1      -5.896   3.549  53.318  1.00  0.00     0.000 C 
BRANCH   8   9
ATOM      9  C   UNL     1      -5.839   3.927  54.809  1.00  0.00     0.006 C 
BRANCH   9  10
ATOM     10  C   UNL     1      -6.796   5.077  55.151  1.00  0.00     0.053 C 
BRANCH  10  11
ATOM     11  C   UNL     1      -6.618   5.548  56.561  1.00  0.00     0.041 C 
ATOM     12  O   UNL     1      -5.703   5.068  57.280  1.00  0.00    -0.550 OA
ATOM     13  O   UNL     1      -7.483   6.497  57.091  1.00  0.00    -0.550 OA
ENDBRANCH  10  11
ENDBRANCH   9  10
ENDBRANCH   8   9
ENDBRANCH   1   8
TORSDOF 8
ENDMDL
MODEL 4
REMARK VINA RESULT:    -3.749     10.146     11.341
REMARK INTER + INTRA:          -6.073
REMARK INTER:                  -5.700
REMARK INTRA:                  -0.373
REMARK UNBOUND:                -0.572
REMARK SMILES O=C([O-])CCCCCCCC(=O)[O-]
REMARK SMILES IDX 7 1 6 2 5 3 4 4 2 5 1 6 3 7 8 8 9 9 10 10 11 11 12 12 13 13
REMARK H PARENT
REMARK Flexibility Score: inf
ROOT
ATOM      1  C   UNL     1       0.978   0.576  56.469  1.00  0.00     0.000 C 
ENDROOT
BRANCH   1   2
ATOM      2  C   UNL     1       0.052   1.503  57.270  1.00  0.00     0.000 C 
BRANCH   2   3
ATOM      3  C   UNL     1       0.800   2.145  58.445  1.00  0.00     0.006 C 
BRANCH   3   4
ATOM      4  C   UNL     1       1.389   1.078  59.372  1.00  0.00     0.053 C 
BRANCH   4   5
ATOM      5  C   UNL     1       0.669   1.065  60.682  1.00  0.00     0.041 C 
ATOM      6  O   UNL     1       0.283  -0.023  61.182  1.00  0.00    -0.550 OA
ATOM      7  O   UNL     1       0.380   2.260  61.329  1.00  0.00    -0.550 OA
ENDBRANCH   4   5
ENDBRANCH   3   4
ENDBRANCH   2   3
ENDBRANCH   1   2
BRANCH   1   8
ATOM      8  C   UNL     1       1.716   1.309  55.338  1.00  0.00     0.000 C 
BRANCH   8   9
ATOM      9  C   UNL     1       3.035   0.618  54.946  1.00  0.00     0.006 C 
BRANCH   9  10
ATOM     10  C   UNL     1       2.983   0.036  53.528  1.00  0.00     0.053 C 
BRANCH  10  11
ATOM     11  C   UNL     1       2.435  -1.358  53.518  1.00  0.00     0.041 C 
ATOM     12  O   UNL     1       3.164  -2.329  53.852  1.00  0.00    -0.550 OA
ATOM     13  O   UNL     1       1.127  -1.588  53.112  1.00  0.00    -0.550 OA
ENDBRANCH  10  11
ENDBRANCH   9  10
ENDBRANCH   8   9
ENDBRANCH   1   8
TORSDOF 8
ENDMDL
MODEL 5
REMARK VINA RESULT:    -3.707     10.339     12.095
REMARK INTER + INTRA:          -6.012
REMARK INTER:                  -5.783
REMARK INTRA:                  -0.229
REMARK UNBOUND:                -0.572
REMARK SMILES O=C([O-])CCCCCCCC(=O)[O-]
REMARK SMILES IDX 7 1 6 2 5 3 4 4 2 5 1 6 3 7 8 8 9 9 10 10 11 11 12 12 13 13
REMARK H PARENT
REMARK Flexibility Score: inf
ROOT
ATOM      1  C   UNL     1       1.578   0.811  55.841  1.00  0.00     0.000 C 
ENDROOT
BRANCH   1   2
ATOM      2  C   UNL     1       2.259   1.396  54.595  1.00  0.00     0.000 C 
BRANCH   2   3
ATOM      3  C   UNL     1       2.933   0.293  53.770  1.00  0.00     0.006 C 
BRANCH   3   4
ATOM      4  C   UNL     1       1.908  -0.732  53.278  1.00  0.00     0.053 C 
BRANCH   4   5
ATOM      5  C   UNL     1       2.304  -2.112  53.694  1.00  0.00     0.041 C 
ATOM      6  O   UNL     1       3.472  -2.339  54.107  1.00  0.00    -0.550 OA
ATOM      7  O   UNL     1       1.400  -3.160  53.581  1.00  0.00    -0.550 OA
ENDBRANCH   4   5
ENDBRANCH   3   4
ENDBRANCH   2   3
ENDBRANCH   1   2
BRANCH   1   8
ATOM      8  C   UNL     1       0.902   1.886  56.707  1.00  0.00     0.000 C 
BRANCH   8   9
ATOM      9  C   UNL     1       0.553   1.378  58.118  1.00  0.00     0.006 C 
BRANCH   9  10
ATOM     10  C   UNL     1       0.928   2.392  59.206  1.00  0.00     0.053 C 
BRANCH  10  11
ATOM     11  C   UNL     1       0.203   2.125  60.489  1.00  0.00     0.041 C 
ATOM     12  O   UNL     1      -0.511   3.020  61.014  1.00  0.00    -0.550 OA
ATOM     13  O   UNL     1       0.339   0.895  61.121  1.00  0.00    -0.550 OA
ENDBRANCH  10  11
ENDBRANCH   9  10
ENDBRANCH   8   9
ENDBRANCH   1   8
TORSDOF 8
ENDMDL
MODEL 6
REMARK VINA RESULT:    -3.704      1.166      1.923
REMARK INTER + INTRA:          -6.008
REMARK INTER:                  -5.470
REMARK INTRA:                  -0.538
REMARK UNBOUND:                -0.572
REMARK SMILES O=C([O-])CCCCCCCC(=O)[O-]
REMARK SMILES IDX 7 1 6 2 5 3 4 4 2 5 1 6 3 7 8 8 9 9 10 10 11 11 12 12 13 13
REMARK H PARENT
REMARK Flexibility Score: inf
ROOT
ATOM      1  C   UNL     1      -5.882   3.814  53.180  1.00  0.00     0.000 C 
ENDROOT
BRANCH   1   2
ATOM      2  C   UNL     1      -5.872   3.860  54.715  1.00  0.00     0.000 C 
BRANCH   2   3
ATOM      3  C   UNL     1      -6.895   4.875  55.240  1.00  0.00     0.006 C 
BRANCH   3   4
ATOM      4  C   UNL     1      -6.317   5.689  56.400  1.00  0.00     0.053 C 
BRANCH   4   5
ATOM      5  C   UNL     1      -6.290   4.873  57.653  1.00  0.00     0.041 C 
ATOM      6  O   UNL     1      -5.243   4.816  58.350  1.00  0.00    -0.550 OA
ATOM      7  O   UNL     1      -7.405   4.133  58.026  1.00  0.00    -0.550 OA
ENDBRANCH   4   5
ENDBRANCH   3   4
ENDBRANCH   2   3
ENDBRANCH   1   2
BRANCH   1   8
ATOM      8  C   UNL     1      -6.982   2.897  52.621  1.00  0.00     0.000 C 
BRANCH   8   9
ATOM      9  C   UNL     1      -7.695   3.503  51.399  1.00  0.00     0.006 C 
BRANCH   9  10
ATOM     10  C   UNL     1      -7.559   5.030  51.349  1.00  0.00     0.053 C 
BRANCH  10  11
ATOM     11  C   UNL     1      -8.848   5.716  51.684  1.00  0.00     0.041 C 
ATOM     12  O   UNL     1      -9.145   5.960  52.882  1.00  0.00    -0.550 OA
ATOM     13  O   UNL     1      -9.736   6.058  50.671  1.00  0.00    -0.550 OA
ENDBRANCH  10  11
ENDBRANCH   9  10
ENDBRANCH   8   9
ENDBRANCH   1   8
TORSDOF 8
ENDMDL
MODEL 7
REMARK VINA RESULT:    -3.689      2.192      6.515
REMARK INTER + INTRA:          -5.986
REMARK INTER:                  -5.547
REMARK INTRA:                  -0.439
REMARK UNBOUND:                -0.572
REMARK SMILES O=C([O-])CCCCCCCC(=O)[O-]
REMARK SMILES IDX 7 1 6 2 5 3 4 4 2 5 1 6 3 7 8 8 9 9 10 10 11 11 12 12 13 13
REMARK H PARENT
REMARK Flexibility Score: inf
ROOT
ATOM      1  C   UNL     1      -6.888   4.562  55.587  1.00  0.00     0.000 C 
ENDROOT
BRANCH   1   2
ATOM      2  C   UNL     1      -5.812   4.092  54.596  1.00  0.00     0.000 C 
BRANCH   2   3
ATOM      3  C   UNL     1      -6.413   3.857  53.205  1.00  0.00     0.006 C 
BRANCH   3   4
ATOM      4  C   UNL     1      -7.598   4.793  52.952  1.00  0.00     0.053 C 
BRANCH   4   5
ATOM      5  C   UNL     1      -7.658   5.187  51.511  1.00  0.00     0.041 C 
ATOM      6  O   UNL     1      -6.639   5.071  50.780  1.00  0.00    -0.550 OA
ATOM      7  O   UNL     1      -8.824   5.728  50.984  1.00  0.00    -0.550 OA
ENDBRANCH   4   5
ENDBRANCH   3   4
ENDBRANCH   2   3
ENDBRANCH   1   2
BRANCH   1   8
ATOM      8  C   UNL     1      -6.481   5.836  56.345  1.00  0.00     0.000 C 
BRANCH   8   9
ATOM      9  C   UNL     1      -6.487   5.644  57.872  1.00  0.00     0.006 C 
BRANCH   9  10
ATOM     10  C   UNL     1      -5.070   5.514  58.444  1.00  0.00     0.053 C 
BRANCH  10  11
ATOM     11  C   UNL     1      -4.696   4.084  58.688  1.00  0.00     0.041 C 
ATOM     12  O   UNL     1      -4.286   3.365  57.741  1.00  0.00    -0.550 OA
ATOM     13  O   UNL     1      -4.831   3.538  59.958  1.00  0.00    -0.550 OA
ENDBRANCH  10  11
ENDBRANCH   9  10
ENDBRANCH   8   9
ENDBRANCH   1   8
TORSDOF 8
ENDMDL
MODEL 8
REMARK VINA RESULT:    -3.625     10.873     11.678
REMARK INTER + INTRA:          -5.892
REMARK INTER:                  -5.557
REMARK INTRA:                  -0.335
REMARK UNBOUND:                -0.572
REMARK SMILES O=C([O-])CCCCCCCC(=O)[O-]
REMARK SMILES IDX 7 1 6 2 5 3 4 4 2 5 1 6 3 7 8 8 9 9 10 10 11 11 12 12 13 13
REMARK H PARENT
REMARK Flexibility Score: inf
ROOT
ATOM      1  C   UNL     1       2.411   0.808  55.522  1.00  0.00     0.000 C 
ENDROOT
BRANCH   1   2
ATOM      2  C   UNL     1       1.212   1.425  56.257  1.00  0.00     0.000 C 
BRANCH   2   3
ATOM      3  C   UNL     1       1.113   0.891  57.691  1.00  0.00     0.006 C 
BRANCH   3   4
ATOM      4  C   UNL     1       0.694   1.996  58.663  1.00  0.00     0.053 C 
BRANCH   4   5
ATOM      5  C   UNL     1       1.320   1.782  60.004  1.00  0.00     0.041 C 
ATOM      6  O   UNL     1       2.356   1.074  60.113  1.00  0.00    -0.550 OA
ATOM      7  O   UNL     1       0.733   2.322  61.141  1.00  0.00    -0.550 OA
ENDBRANCH   4   5
ENDBRANCH   3   4
ENDBRANCH   2   3
ENDBRANCH   1   2
BRANCH   1   8
ATOM      8  C   UNL     1       2.345   1.014  54.000  1.00  0.00     0.000 C 
BRANCH   8   9
ATOM      9  C   UNL     1       2.778  -0.235  53.213  1.00  0.00     0.006 C 
BRANCH   9  10
ATOM     10  C   UNL     1       1.765  -1.380  53.343  1.00  0.00     0.053 C 
BRANCH  10  11
ATOM     11  C   UNL     1       2.390  -2.614  53.919  1.00  0.00     0.041 C 
ATOM     12  O   UNL     1       3.590  -2.599  54.300  1.00  0.00    -0.550 OA
ATOM     13  O   UNL     1       1.655  -3.789  54.008  1.00  0.00    -0.550 OA
ENDBRANCH  10  11
ENDBRANCH   9  10
ENDBRANCH   8   9
ENDBRANCH   1   8
TORSDOF 8
ENDMDL
MODEL 9
REMARK VINA RESULT:    -3.594      1.307      5.806
REMARK INTER + INTRA:          -5.846
REMARK INTER:                  -5.305
REMARK INTRA:                  -0.542
REMARK UNBOUND:                -0.572
REMARK SMILES O=C([O-])CCCCCCCC(=O)[O-]
REMARK SMILES IDX 7 1 6 2 5 3 4 4 2 5 1 6 3 7 8 8 9 9 10 10 11 11 12 12 13 13
REMARK H PARENT
REMARK Flexibility Score: inf
ROOT
ATOM      1  C   UNL     1      -6.651   3.790  52.494  1.00  0.00     0.000 C 
ENDROOT
BRANCH   1   2
ATOM      2  C   UNL     1      -7.113   4.764  51.400  1.00  0.00     0.000 C 
BRANCH   2   3
ATOM      3  C   UNL     1      -8.161   5.744  51.944  1.00  0.00     0.006 C 
BRANCH   3   4
ATOM      4  C   UNL     1      -9.435   5.713  51.096  1.00  0.00     0.053 C 
BRANCH   4   5
ATOM      5  C   UNL     1     -10.166   4.424  51.294  1.00  0.00     0.041 C 
ATOM      6  O   UNL     1     -10.440   4.022  52.456  1.00  0.00    -0.550 OA
ATOM      7  O   UNL     1     -10.502   3.639  50.198  1.00  0.00    -0.550 OA
ENDBRANCH   4   5
ENDBRANCH   3   4
ENDBRANCH   2   3
ENDBRANCH   1   2
BRANCH   1   8
ATOM      8  C   UNL     1      -7.170   4.176  53.889  1.00  0.00     0.000 C 
BRANCH   8   9
ATOM      9  C   UNL     1      -6.041   4.295  54.928  1.00  0.00     0.006 C 
BRANCH   9  10
ATOM     10  C   UNL     1      -6.318   5.398  55.958  1.00  0.00     0.053 C 
BRANCH  10  11
ATOM     11  C   UNL     1      -6.110   4.916  57.361  1.00  0.00     0.041 C 
ATOM     12  O   UNL     1      -6.413   3.735  57.677  1.00  0.00    -0.550 OA
ATOM     13  O   UNL     1      -5.609   5.780  58.326  1.00  0.00    -0.550 OA
ENDBRANCH  10  11
ENDBRANCH   9  10
ENDBRANCH   8   9
ENDBRANCH   1   8
TORSDOF 8
ENDMDL
