MODEL 1
REMARK VINA RESULT:    -5.375      0.000      0.000
REMARK INTER + INTRA:          -8.560
REMARK INTER:                  -7.417
REMARK INTRA:                  -1.143
REMARK UNBOUND:                -1.143
REMARK SMILES C=C(CC[C@H](C(=O)[O-])[C@@H]1CC[C@@]2(C)C3=C(CC[C@]12C)[C@@]1(C)CC[C@@H](O)C(C)(C)[C@@H]1CC3)C(C)C
REMARK SMILES IDX 4 1 5 2 6 3 7 4 8 5 9 6 10 7 18 8 11 9 12 10 17 11 19 12
REMARK SMILES IDX 13 13 14 14 16 15 15 16 31 17 20 18 30 19 29 20 22 21 21 22
REMARK SMILES IDX 26 23 23 24 24 25 27 26 28 27 25 28 3 30 2 31 1 32 32 33
REMARK SMILES IDX 33 34 34 35
REMARK H PARENT 25 29
REMARK Flexibility Score: inf
ROOT
ATOM      1  C   UNL     1      13.431  27.630  14.950  1.00  0.00     0.014 C 
ENDROOT
BRANCH   1   2
ATOM      2  C   UNL     1      12.157  26.734  15.066  1.00  0.00     0.039 C 
BRANCH   2   3
ATOM      3  C   UNL     1      12.598  25.293  15.169  1.00  0.00     0.045 C 
ATOM      4  O   UNL     1      13.224  24.885  16.183  1.00  0.00    -0.550 OA
ATOM      5  O   UNL     1      12.298  24.395  14.150  1.00  0.00    -0.550 OA
ENDBRANCH   2   3
BRANCH   2   6
ATOM      6  C   UNL     1      11.177  26.935  13.858  1.00  0.00     0.004 C 
ATOM      7  C   UNL     1      11.241  28.358  13.233  1.00  0.00     0.006 C 
ATOM      8  C   UNL     1       9.638  26.695  14.105  1.00  0.00    -0.020 C 
ATOM      9  C   UNL     1       9.801  28.854  13.060  1.00  0.00     0.012 C 
ATOM     10  C   UNL     1       9.023  28.126  14.160  1.00  0.00    -0.006 C 
ATOM     11  C   UNL     1       9.173  25.951  15.375  1.00  0.00     0.012 C 
ATOM     12  C   UNL     1       9.127  25.863  12.875  1.00  0.00     0.012 C 
ATOM     13  C   UNL     1       9.267  28.907  15.493  1.00  0.00     0.017 C 
ATOM     14  C   UNL     1       7.511  28.029  14.008  1.00  0.00    -0.064 C 
ATOM     15  C   UNL     1       7.628  26.014  15.558  1.00  0.00     0.032 C 
ATOM     16  C   UNL     1       6.845  27.089  14.760  1.00  0.00    -0.064 C 
ATOM     17  C   UNL     1       6.799  29.112  13.207  1.00  0.00     0.032 C 
ATOM     18  C   UNL     1       5.306  26.975  14.696  1.00  0.00    -0.008 C 
ATOM     19  C   UNL     1       5.275  28.979  13.126  1.00  0.00     0.009 C 
ATOM     20  C   UNL     1       4.707  28.407  14.437  1.00  0.00     0.007 C 
ATOM     21  C   UNL     1       4.749  26.448  16.050  1.00  0.00     0.014 C 
ATOM     22  C   UNL     1       5.003  25.946  13.573  1.00  0.00     0.016 C 
ATOM     23  C   UNL     1       3.142  28.586  14.620  1.00  0.00    -0.006 C 
ATOM     24  C   UNL     1       3.220  26.504  16.139  1.00  0.00     0.033 C 
ATOM     25  C   UNL     1       2.695  27.941  15.972  1.00  0.00     0.120 C 
ATOM     26  C   UNL     1       2.297  27.999  13.454  1.00  0.00     0.014 C 
ATOM     27  C   UNL     1       2.800  30.103  14.683  1.00  0.00     0.014 C 
BRANCH  25  28
ATOM     28  O   UNL     1       3.139  28.720  17.057  1.00  0.00    -0.393 OA
ATOM     29  H   UNL     1       4.012  29.115  16.795  1.00  0.00     0.210 HD
ENDBRANCH  25  28
ENDBRANCH   2   6
ENDBRANCH   1   2
BRANCH   1  30
ATOM     30  C   UNL     1      14.450  27.110  13.923  1.00  0.00     0.031 C 
BRANCH  30  31
ATOM     31  C   UNL     1      15.870  27.136  14.447  1.00  0.00    -0.075 C 
ATOM     32  C   UNL     1      16.464  28.315  14.703  1.00  0.00     0.008 C 
BRANCH  31  33
ATOM     33  C   UNL     1      16.612  25.821  14.641  1.00  0.00     0.008 C 
ATOM     34  C   UNL     1      16.680  25.439  16.125  1.00  0.00     0.012 C 
ATOM     35  C   UNL     1      15.995  24.689  13.810  1.00  0.00     0.012 C 
ENDBRANCH  31  33
ENDBRANCH  30  31
ENDBRANCH   1  30
TORSDOF 7
ENDMDL
MODEL 2
REMARK VINA RESULT:    -5.235      2.657      4.171
REMARK INTER + INTRA:          -8.366
REMARK INTER:                  -7.043
REMARK INTRA:                  -1.324
REMARK UNBOUND:                -1.143
REMARK SMILES C=C(CC[C@H](C(=O)[O-])[C@@H]1CC[C@@]2(C)C3=C(CC[C@]12C)[C@@]1(C)CC[C@@H](O)C(C)(C)[C@@H]1CC3)C(C)C
REMARK SMILES IDX 4 1 5 2 6 3 7 4 8 5 9 6 10 7 18 8 11 9 12 10 17 11 19 12
REMARK SMILES IDX 13 13 14 14 16 15 15 16 31 17 20 18 30 19 29 20 22 21 21 22
REMARK SMILES IDX 26 23 23 24 24 25 27 26 28 27 25 28 3 30 2 31 1 32 32 33
REMARK SMILES IDX 33 34 34 35
REMARK H PARENT 25 29
REMARK Flexibility Score: inf
ROOT
ATOM      1  C   UNL     1      11.119  28.049  14.625  1.00  0.00     0.014 C 
ENDROOT
BRANCH   1   2
ATOM      2  C   UNL     1      10.211  28.848  13.636  1.00  0.00     0.039 C 
BRANCH   2   3
ATOM      3  C   UNL     1      10.997  30.028  13.117  1.00  0.00     0.045 C 
ATOM      4  O   UNL     1      10.425  31.125  12.878  1.00  0.00    -0.550 OA
ATOM      5  O   UNL     1      12.369  29.920  12.915  1.00  0.00    -0.550 OA
ENDBRANCH   2   3
BRANCH   2   6
ATOM      6  C   UNL     1       8.872  29.317  14.306  1.00  0.00     0.004 C 
ATOM      7  C   UNL     1       8.949  29.407  15.858  1.00  0.00     0.006 C 
ATOM      8  C   UNL     1       7.572  28.467  14.037  1.00  0.00    -0.020 C 
ATOM      9  C   UNL     1       7.705  28.715  16.425  1.00  0.00     0.012 C 
ATOM     10  C   UNL     1       7.340  27.677  15.359  1.00  0.00    -0.006 C 
ATOM     11  C   UNL     1       7.553  27.440  12.884  1.00  0.00     0.012 C 
ATOM     12  C   UNL     1       6.430  29.505  13.744  1.00  0.00     0.012 C 
ATOM     13  C   UNL     1       8.280  26.445  15.575  1.00  0.00     0.017 C 
ATOM     14  C   UNL     1       5.922  27.122  15.372  1.00  0.00    -0.064 C 
ATOM     15  C   UNL     1       6.281  26.543  12.919  1.00  0.00     0.032 C 
ATOM     16  C   UNL     1       5.466  26.490  14.238  1.00  0.00    -0.064 C 
ATOM     17  C   UNL     1       5.170  27.101  16.698  1.00  0.00     0.032 C 
ATOM     18  C   UNL     1       4.057  25.855  14.203  1.00  0.00    -0.008 C 
ATOM     19  C   UNL     1       3.765  26.494  16.650  1.00  0.00     0.009 C 
ATOM     20  C   UNL     1       3.707  25.330  15.644  1.00  0.00     0.007 C 
ATOM     21  C   UNL     1       4.037  24.648  13.222  1.00  0.00     0.014 C 
ATOM     22  C   UNL     1       3.105  26.966  13.680  1.00  0.00     0.016 C 
ATOM     23  C   UNL     1       2.440  24.387  15.787  1.00  0.00    -0.006 C 
ATOM     24  C   UNL     1       2.737  23.838  13.286  1.00  0.00     0.033 C 
ATOM     25  C   UNL     1       2.491  23.271  14.695  1.00  0.00     0.120 C 
ATOM     26  C   UNL     1       1.080  25.137  15.707  1.00  0.00     0.014 C 
ATOM     27  C   UNL     1       2.470  23.691  17.179  1.00  0.00     0.014 C 
BRANCH  25  28
ATOM     28  O   UNL     1       3.502  22.338  14.996  1.00  0.00    -0.393 OA
ATOM     29  H   UNL     1       3.327  21.529  14.447  1.00  0.00     0.210 HD
ENDBRANCH  25  28
ENDBRANCH   2   6
ENDBRANCH   1   2
BRANCH   1  30
ATOM     30  C   UNL     1      11.547  26.675  14.085  1.00  0.00     0.031 C 
BRANCH  30  31
ATOM     31  C   UNL     1      12.318  25.863  15.103  1.00  0.00    -0.075 C 
ATOM     32  C   UNL     1      13.122  26.487  15.983  1.00  0.00     0.008 C 
BRANCH  31  33
ATOM     33  C   UNL     1      12.194  24.346  15.089  1.00  0.00     0.008 C 
ATOM     34  C   UNL     1      11.835  23.808  16.480  1.00  0.00     0.012 C 
ATOM     35  C   UNL     1      11.186  23.865  14.037  1.00  0.00     0.012 C 
ENDBRANCH  31  33
ENDBRANCH  30  31
ENDBRANCH   1  30
TORSDOF 7
ENDMDL
MODEL 3
REMARK VINA RESULT:    -5.183      2.385      4.614
REMARK INTER + INTRA:          -8.295
REMARK INTER:                  -7.850
REMARK INTRA:                  -0.445
REMARK UNBOUND:                -1.143
REMARK SMILES C=C(CC[C@H](C(=O)[O-])[C@@H]1CC[C@@]2(C)C3=C(CC[C@]12C)[C@@]1(C)CC[C@@H](O)C(C)(C)[C@@H]1CC3)C(C)C
REMARK SMILES IDX 4 1 5 2 6 3 7 4 8 5 9 6 10 7 18 8 11 9 12 10 17 11 19 12
REMARK SMILES IDX 13 13 14 14 16 15 15 16 31 17 20 18 30 19 29 20 22 21 21 22
REMARK SMILES IDX 26 23 23 24 24 25 27 26 28 27 25 28 3 30 2 31 1 32 32 33
REMARK SMILES IDX 33 34 34 35
REMARK H PARENT 25 29
REMARK Flexibility Score: inf
ROOT
ATOM      1  C   UNL     1      17.278  24.624  16.024  1.00  0.00     0.014 C 
ENDROOT
BRANCH   1   2
ATOM      2  C   UNL     1      15.823  24.363  15.520  1.00  0.00     0.039 C 
BRANCH   2   3
ATOM      3  C   UNL     1      15.801  23.034  14.802  1.00  0.00     0.045 C 
ATOM      4  O   UNL     1      15.383  21.997  15.384  1.00  0.00    -0.550 OA
ATOM      5  O   UNL     1      16.223  22.947  13.480  1.00  0.00    -0.550 OA
ENDBRANCH   2   3
BRANCH   2   6
ATOM      6  C   UNL     1      15.301  25.513  14.590  1.00  0.00     0.004 C 
ATOM      7  C   UNL     1      15.774  26.930  15.023  1.00  0.00     0.006 C 
ATOM      8  C   UNL     1      13.742  25.669  14.410  1.00  0.00    -0.020 C 
ATOM      9  C   UNL     1      14.552  27.854  15.003  1.00  0.00     0.012 C 
ATOM     10  C   UNL     1      13.372  26.915  15.270  1.00  0.00    -0.006 C 
ATOM     11  C   UNL     1      12.802  24.523  14.841  1.00  0.00     0.012 C 
ATOM     12  C   UNL     1      13.506  25.901  12.875  1.00  0.00     0.012 C 
ATOM     13  C   UNL     1      13.318  26.668  16.814  1.00  0.00     0.017 C 
ATOM     14  C   UNL     1      11.983  27.400  14.880  1.00  0.00    -0.064 C 
ATOM     15  C   UNL     1      11.305  24.948  14.803  1.00  0.00     0.032 C 
ATOM     16  C   UNL     1      10.980  26.464  14.765  1.00  0.00    -0.064 C 
ATOM     17  C   UNL     1      11.727  28.902  14.855  1.00  0.00     0.032 C 
ATOM     18  C   UNL     1       9.535  26.894  14.428  1.00  0.00    -0.008 C 
ATOM     19  C   UNL     1      10.299  29.323  14.495  1.00  0.00     0.009 C 
ATOM     20  C   UNL     1       9.276  28.315  15.052  1.00  0.00     0.007 C 
ATOM     21  C   UNL     1       8.518  25.893  15.047  1.00  0.00     0.014 C 
ATOM     22  C   UNL     1       9.431  26.851  12.878  1.00  0.00     0.016 C 
ATOM     23  C   UNL     1       7.778  28.834  15.084  1.00  0.00    -0.006 C 
ATOM     24  C   UNL     1       7.063  26.362  14.935  1.00  0.00     0.033 C 
ATOM     25  C   UNL     1       6.846  27.711  15.642  1.00  0.00     0.120 C 
ATOM     26  C   UNL     1       7.246  29.320  13.706  1.00  0.00     0.014 C 
ATOM     27  C   UNL     1       7.676  30.056  16.043  1.00  0.00     0.014 C 
BRANCH  25  28
ATOM     28  O   UNL     1       7.056  27.543  17.024  1.00  0.00    -0.393 OA
ATOM     29  H   UNL     1       6.868  26.591  17.235  1.00  0.00     0.210 HD
ENDBRANCH  25  28
ENDBRANCH   2   6
ENDBRANCH   1   2
BRANCH   1  30
ATOM     30  C   UNL     1      18.287  24.844  14.885  1.00  0.00     0.031 C 
BRANCH  30  31
ATOM     31  C   UNL     1      19.705  24.502  15.289  1.00  0.00    -0.075 C 
ATOM     32  C   UNL     1      20.677  25.421  15.151  1.00  0.00     0.008 C 
BRANCH  31  33
ATOM     33  C   UNL     1      20.011  23.106  15.814  1.00  0.00     0.008 C 
ATOM     34  C   UNL     1      20.852  22.309  14.808  1.00  0.00     0.012 C 
ATOM     35  C   UNL     1      20.692  23.150  17.188  1.00  0.00     0.012 C 
ENDBRANCH  31  33
ENDBRANCH  30  31
ENDBRANCH   1  30
TORSDOF 7
ENDMDL
MODEL 4
REMARK VINA RESULT:    -2.800      3.160     11.371
REMARK INTER + INTRA:          -5.006
REMARK INTER:                  -6.497
REMARK INTRA:                   1.491
REMARK UNBOUND:                -1.143
REMARK SMILES C=C(CC[C@H](C(=O)[O-])[C@@H]1CC[C@@]2(C)C3=C(CC[C@]12C)[C@@]1(C)CC[C@@H](O)C(C)(C)[C@@H]1CC3)C(C)C
REMARK SMILES IDX 4 1 5 2 6 3 7 4 8 5 9 6 10 7 18 8 11 9 12 10 17 11 19 12
REMARK SMILES IDX 13 13 14 14 16 15 15 16 31 17 20 18 30 19 29 20 22 21 21 22
REMARK SMILES IDX 26 23 23 24 24 25 27 26 28 27 25 28 3 30 2 31 1 32 32 33
REMARK SMILES IDX 33 34 34 35
REMARK H PARENT 25 29
REMARK Flexibility Score: inf
ROOT
ATOM      1  C   UNL     1      10.973  26.928  14.508  1.00  0.00     0.014 C 
ENDROOT
BRANCH   1   2
ATOM      2  C   UNL     1      12.195  26.093  15.007  1.00  0.00     0.039 C 
BRANCH   2   3
ATOM      3  C   UNL     1      13.009  26.955  15.943  1.00  0.00     0.045 C 
ATOM      4  O   UNL     1      13.378  26.513  17.063  1.00  0.00    -0.550 OA
ATOM      5  O   UNL     1      13.377  28.242  15.565  1.00  0.00    -0.550 OA
ENDBRANCH   2   3
BRANCH   2   6
ATOM      6  C   UNL     1      13.076  25.564  13.822  1.00  0.00     0.004 C 
ATOM      7  C   UNL     1      12.561  24.230  13.208  1.00  0.00     0.006 C 
ATOM      8  C   UNL     1      14.604  25.291  14.101  1.00  0.00    -0.020 C 
ATOM      9  C   UNL     1      13.762  23.288  13.070  1.00  0.00     0.012 C 
ATOM     10  C   UNL     1      14.716  23.739  14.181  1.00  0.00    -0.006 C 
ATOM     11  C   UNL     1      15.264  25.861  15.374  1.00  0.00     0.012 C 
ATOM     12  C   UNL     1      15.380  25.892  12.875  1.00  0.00     0.012 C 
ATOM     13  C   UNL     1      14.206  23.101  15.515  1.00  0.00     0.017 C 
ATOM     14  C   UNL     1      16.179  23.333  14.061  1.00  0.00    -0.064 C 
ATOM     15  C   UNL     1      16.700  25.299  15.592  1.00  0.00     0.032 C 
ATOM     16  C   UNL     1      17.102  24.016  14.819  1.00  0.00    -0.064 C 
ATOM     17  C   UNL     1      16.511  22.065  13.284  1.00  0.00     0.032 C 
ATOM     18  C   UNL     1      18.595  23.618  14.788  1.00  0.00    -0.008 C 
ATOM     19  C   UNL     1      17.996  21.691  13.235  1.00  0.00     0.009 C 
ATOM     20  C   UNL     1      18.697  22.066  14.554  1.00  0.00     0.007 C 
ATOM     21  C   UNL     1      19.269  23.955  16.149  1.00  0.00     0.014 C 
ATOM     22  C   UNL     1      19.237  24.476  13.663  1.00  0.00     0.016 C 
ATOM     23  C   UNL     1      20.113  21.388  14.772  1.00  0.00    -0.006 C 
ATOM     24  C   UNL     1      20.694  23.403  16.272  1.00  0.00     0.033 C 
ATOM     25  C   UNL     1      20.723  21.871  16.128  1.00  0.00     0.120 C 
ATOM     26  C   UNL     1      21.125  21.649  13.620  1.00  0.00     0.014 C 
ATOM     27  C   UNL     1      19.939  19.843  14.855  1.00  0.00     0.014 C 
BRANCH  25  28
ATOM     28  O   UNL     1      20.029  21.296  17.209  1.00  0.00    -0.393 OA
ATOM     29  H   UNL     1      19.135  21.729  17.246  1.00  0.00     0.210 HD
ENDBRANCH  25  28
ENDBRANCH   2   6
ENDBRANCH   1   2
BRANCH   1  30
ATOM     30  C   UNL     1       9.884  26.074  13.838  1.00  0.00     0.031 C 
BRANCH  30  31
ATOM     31  C   UNL     1       8.493  26.411  14.330  1.00  0.00    -0.075 C 
ATOM     32  C   UNL     1       7.546  25.456  14.356  1.00  0.00     0.008 C 
BRANCH  31  33
ATOM     33  C   UNL     1       8.183  27.839  14.756  1.00  0.00     0.008 C 
ATOM     34  C   UNL     1       7.428  28.593  13.654  1.00  0.00     0.012 C 
ATOM     35  C   UNL     1       7.411  27.884  16.081  1.00  0.00     0.012 C 
ENDBRANCH  31  33
ENDBRANCH  30  31
ENDBRANCH   1  30
TORSDOF 7
ENDMDL
MODEL 5
REMARK VINA RESULT:    -2.547      1.799      3.167
REMARK INTER + INTRA:          -4.657
REMARK INTER:                  -3.952
REMARK INTRA:                  -0.706
REMARK UNBOUND:                -1.143
REMARK SMILES C=C(CC[C@H](C(=O)[O-])[C@@H]1CC[C@@]2(C)C3=C(CC[C@]12C)[C@@]1(C)CC[C@@H](O)C(C)(C)[C@@H]1CC3)C(C)C
REMARK SMILES IDX 4 1 5 2 6 3 7 4 8 5 9 6 10 7 18 8 11 9 12 10 17 11 19 12
REMARK SMILES IDX 13 13 14 14 16 15 15 16 31 17 20 18 30 19 29 20 22 21 21 22
REMARK SMILES IDX 26 23 23 24 24 25 27 26 28 27 25 28 3 30 2 31 1 32 32 33
REMARK SMILES IDX 33 34 34 35
REMARK H PARENT 25 29
REMARK Flexibility Score: inf
ROOT
ATOM      1  C   UNL     1      14.644  24.836  13.741  1.00  0.00     0.014 C 
ENDROOT
BRANCH   1   2
ATOM      2  C   UNL     1      13.522  25.749  14.329  1.00  0.00     0.039 C 
BRANCH   2   3
ATOM      3  C   UNL     1      14.142  26.653  15.368  1.00  0.00     0.045 C 
ATOM      4  O   UNL     1      14.404  27.856  15.097  1.00  0.00    -0.550 OA
ATOM      5  O   UNL     1      14.410  26.171  16.644  1.00  0.00    -0.550 OA
ENDBRANCH   2   3
BRANCH   2   6
ATOM      6  C   UNL     1      12.340  24.919  14.941  1.00  0.00     0.004 C 
ATOM      7  C   UNL     1      11.834  23.776  14.014  1.00  0.00     0.006 C 
ATOM      8  C   UNL     1      11.027  25.690  15.348  1.00  0.00    -0.020 C 
ATOM      9  C   UNL     1      10.304  23.853  13.975  1.00  0.00     0.012 C 
ATOM     10  C   UNL     1      10.001  25.333  14.231  1.00  0.00    -0.006 C 
ATOM     11  C   UNL     1      11.049  27.229  15.471  1.00  0.00     0.012 C 
ATOM     12  C   UNL     1      10.613  25.125  16.754  1.00  0.00     0.012 C 
ATOM     13  C   UNL     1      10.201  26.087  12.875  1.00  0.00     0.017 C 
ATOM     14  C   UNL     1       8.599  25.693  14.702  1.00  0.00    -0.064 C 
ATOM     15  C   UNL     1       9.621  27.822  15.651  1.00  0.00     0.032 C 
ATOM     16  C   UNL     1       8.409  26.927  15.282  1.00  0.00    -0.064 C 
ATOM     17  C   UNL     1       7.450  24.771  14.312  1.00  0.00     0.032 C 
ATOM     18  C   UNL     1       7.002  27.379  15.731  1.00  0.00    -0.008 C 
ATOM     19  C   UNL     1       6.061  25.211  14.782  1.00  0.00     0.009 C 
ATOM     20  C   UNL     1       5.938  26.746  14.760  1.00  0.00     0.007 C 
ATOM     21  C   UNL     1       6.882  28.927  15.648  1.00  0.00     0.014 C 
ATOM     22  C   UNL     1       6.863  26.925  17.210  1.00  0.00     0.016 C 
ATOM     23  C   UNL     1       4.454  27.297  14.847  1.00  0.00    -0.006 C 
ATOM     24  C   UNL     1       5.455  29.438  15.876  1.00  0.00     0.033 C 
ATOM     25  C   UNL     1       4.474  28.860  14.842  1.00  0.00     0.120 C 
ATOM     26  C   UNL     1       3.659  26.787  16.082  1.00  0.00     0.014 C 
ATOM     27  C   UNL     1       3.656  26.829  13.595  1.00  0.00     0.014 C 
BRANCH  25  28
ATOM     28  O   UNL     1       4.819  29.341  13.564  1.00  0.00    -0.393 OA
ATOM     29  H   UNL     1       3.981  29.387  13.033  1.00  0.00     0.210 HD
ENDBRANCH  25  28
ENDBRANCH   2   6
ENDBRANCH   1   2
BRANCH   1  30
ATOM     30  C   UNL     1      15.667  25.601  12.885  1.00  0.00     0.031 C 
BRANCH  30  31
ATOM     31  C   UNL     1      17.006  25.753  13.574  1.00  0.00    -0.075 C 
ATOM     32  C   UNL     1      17.646  26.935  13.533  1.00  0.00     0.008 C 
BRANCH  31  33
ATOM     33  C   UNL     1      17.621  24.548  14.273  1.00  0.00     0.008 C 
ATOM     34  C   UNL     1      18.767  23.954  13.445  1.00  0.00     0.012 C 
ATOM     35  C   UNL     1      18.089  24.892  15.693  1.00  0.00     0.012 C 
ENDBRANCH  31  33
ENDBRANCH  30  31
ENDBRANCH   1  30
TORSDOF 7
ENDMDL
