MODEL 1
REMARK VINA RESULT:    -3.211      0.000      0.000
REMARK INTER + INTRA:          -3.493
REMARK INTER:                  -3.493
REMARK INTRA:                   0.000
REMARK UNBOUND:                 0.000
REMARK SMILES Oc1cccc(O)c1O
REMARK SMILES IDX 4 1 5 2 6 3 8 4 2 5 3 6 7 7 1 9 9 11
REMARK H PARENT 7 8 1 10 9 12
REMARK Flexibility Score: inf
ROOT
ATOM      1  C   UNL     1       9.660  14.026  -0.524  1.00  0.00     0.008 A 
ATOM      2  C   UNL     1       9.484  15.092   0.358  1.00  0.00     0.050 A 
ATOM      3  C   UNL     1      10.510  15.461   1.233  1.00  0.00     0.161 A 
ATOM      4  C   UNL     1      11.730  14.758   1.229  1.00  0.00     0.200 A 
ATOM      5  C   UNL     1      11.905  13.673   0.331  1.00  0.00     0.161 A 
ATOM      6  C   UNL     1      10.863  13.322  -0.536  1.00  0.00     0.050 A 
ENDROOT
BRANCH   3   7
ATOM      7  O   UNL     1      10.298  16.533   2.100  1.00  0.00    -0.504 OA
ATOM      8  H   UNL     1      10.925  16.739   2.868  1.00  0.00     0.293 HD
ENDBRANCH   3   7
BRANCH   5   9
ATOM      9  O   UNL     1      13.083  12.928   0.267  1.00  0.00    -0.504 OA
ATOM     10  H   UNL     1      13.129  11.927   0.400  1.00  0.00     0.293 HD
ENDBRANCH   5   9
BRANCH   4  11
ATOM     11  O   UNL     1      12.731  15.157   2.118  1.00  0.00    -0.502 OA
ATOM     12  H   UNL     1      13.676  15.383   1.844  1.00  0.00     0.293 HD
ENDBRANCH   4  11
TORSDOF 3
ENDMDL
MODEL 2
REMARK VINA RESULT:    -3.012      1.487      2.603
REMARK INTER + INTRA:          -3.276
REMARK INTER:                  -3.276
REMARK INTRA:                   0.000
REMARK UNBOUND:                 0.000
REMARK SMILES Oc1cccc(O)c1O
REMARK SMILES IDX 4 1 5 2 6 3 8 4 2 5 3 6 7 7 1 9 9 11
REMARK H PARENT 7 8 1 10 9 12
REMARK Flexibility Score: inf
ROOT
ATOM      1  C   UNL     1       9.777  15.087   1.489  1.00  0.00     0.008 A 
ATOM      2  C   UNL     1      11.002  14.886   2.125  1.00  0.00     0.050 A 
ATOM      3  C   UNL     1      12.049  14.246   1.454  1.00  0.00     0.161 A 
ATOM      4  C   UNL     1      11.873  13.801   0.130  1.00  0.00     0.200 A 
ATOM      5  C   UNL     1      10.626  14.007  -0.514  1.00  0.00     0.161 A 
ATOM      6  C   UNL     1       9.592  14.650   0.177  1.00  0.00     0.050 A 
ENDROOT
BRANCH   3   7
ATOM      7  O   UNL     1      13.260  14.063   2.122  1.00  0.00    -0.504 OA
ATOM      8  H   UNL     1      13.698  13.154   2.207  1.00  0.00     0.293 HD
ENDBRANCH   3   7
BRANCH   5   9
ATOM      9  O   UNL     1      10.374  13.595  -1.824  1.00  0.00    -0.504 OA
ATOM     10  H   UNL     1       9.610  12.991  -2.091  1.00  0.00     0.293 HD
ENDBRANCH   5   9
BRANCH   4  11
ATOM     11  O   UNL     1      12.943  13.167  -0.507  1.00  0.00    -0.502 OA
ATOM     12  H   UNL     1      13.256  13.382  -1.442  1.00  0.00     0.293 HD
ENDBRANCH   4  11
TORSDOF 3
ENDMDL
MODEL 3
REMARK VINA RESULT:    -2.884      1.360      2.701
REMARK INTER + INTRA:          -3.137
REMARK INTER:                  -3.137
REMARK INTRA:                   0.000
REMARK UNBOUND:                 0.000
REMARK SMILES Oc1cccc(O)c1O
REMARK SMILES IDX 4 1 5 2 6 3 8 4 2 5 3 6 7 7 1 9 9 11
REMARK H PARENT 7 8 1 10 9 12
REMARK Flexibility Score: inf
ROOT
ATOM      1  C   UNL     1       9.842  15.450   1.532  1.00  0.00     0.008 A 
ATOM      2  C   UNL     1       9.573  14.722   0.373  1.00  0.00     0.050 A 
ATOM      3  C   UNL     1      10.576  13.958  -0.229  1.00  0.00     0.161 A 
ATOM      4  C   UNL     1      11.867  13.917   0.332  1.00  0.00     0.200 A 
ATOM      5  C   UNL     1      12.138  14.659   1.509  1.00  0.00     0.161 A 
ATOM      6  C   UNL     1      11.118  15.418   2.096  1.00  0.00     0.050 A 
ENDROOT
BRANCH   3   7
ATOM      7  O   UNL     1      10.270  13.241  -1.387  1.00  0.00    -0.504 OA
ATOM      8  H   UNL     1      10.054  12.252  -1.369  1.00  0.00     0.293 HD
ENDBRANCH   3   7
BRANCH   5   9
ATOM      9  O   UNL     1      13.391  14.671   2.125  1.00  0.00    -0.504 OA
ATOM     10  H   UNL     1      14.265  14.779   1.630  1.00  0.00     0.293 HD
ENDBRANCH   5   9
BRANCH   4  11
ATOM     11  O   UNL     1      12.844  13.141  -0.300  1.00  0.00    -0.502 OA
ATOM     12  H   UNL     1      13.396  12.436   0.165  1.00  0.00     0.293 HD
ENDBRANCH   4  11
TORSDOF 3
ENDMDL
MODEL 4
REMARK VINA RESULT:    -2.490      1.854      3.264
REMARK INTER + INTRA:          -2.708
REMARK INTER:                  -2.708
REMARK INTRA:                   0.000
REMARK UNBOUND:                 0.000
REMARK SMILES Oc1cccc(O)c1O
REMARK SMILES IDX 4 1 5 2 6 3 8 4 2 5 3 6 7 7 1 9 9 11
REMARK H PARENT 7 8 1 10 9 12
REMARK Flexibility Score: inf
ROOT
ATOM      1  C   UNL     1       9.914  13.793   1.996  1.00  0.00     0.008 A 
ATOM      2  C   UNL     1      11.303  13.742   2.113  1.00  0.00     0.050 A 
ATOM      3  C   UNL     1      12.065  14.909   2.001  1.00  0.00     0.161 A 
ATOM      4  C   UNL     1      11.433  16.146   1.772  1.00  0.00     0.200 A 
ATOM      5  C   UNL     1      10.021  16.195   1.653  1.00  0.00     0.161 A 
ATOM      6  C   UNL     1       9.278  15.013   1.768  1.00  0.00     0.050 A 
ENDROOT
BRANCH   3   7
ATOM      7  O   UNL     1      13.452  14.818   2.124  1.00  0.00    -0.504 OA
ATOM      8  H   UNL     1      13.917  13.953   2.369  1.00  0.00     0.293 HD
ENDBRANCH   3   7
BRANCH   5   9
ATOM      9  O   UNL     1       9.321  17.381   1.425  1.00  0.00    -0.504 OA
ATOM     10  H   UNL     1       8.702  17.812   2.096  1.00  0.00     0.293 HD
ENDBRANCH   5   9
BRANCH   4  11
ATOM     11  O   UNL     1      12.229  17.290   1.667  1.00  0.00    -0.502 OA
ATOM     12  H   UNL     1      12.306  17.996   2.385  1.00  0.00     0.293 HD
ENDBRANCH   4  11
TORSDOF 3
ENDMDL
MODEL 5
REMARK VINA RESULT:    -2.377      1.958      3.033
REMARK INTER + INTRA:          -2.586
REMARK INTER:                  -2.586
REMARK INTRA:                   0.000
REMARK UNBOUND:                 0.000
REMARK SMILES Oc1cccc(O)c1O
REMARK SMILES IDX 4 1 5 2 6 3 8 4 2 5 3 6 7 7 1 9 9 11
REMARK H PARENT 7 8 1 10 9 12
REMARK Flexibility Score: inf
ROOT
ATOM      1  C   UNL     1       9.646  16.323   1.635  1.00  0.00     0.008 A 
ATOM      2  C   UNL     1       9.755  14.933   1.634  1.00  0.00     0.050 A 
ATOM      3  C   UNL     1      11.001  14.322   1.796  1.00  0.00     0.161 A 
ATOM      4  C   UNL     1      12.158  15.108   1.963  1.00  0.00     0.200 A 
ATOM      5  C   UNL     1      12.045  16.522   1.964  1.00  0.00     0.161 A 
ATOM      6  C   UNL     1      10.785  17.112   1.800  1.00  0.00     0.050 A 
ENDROOT
BRANCH   3   7
ATOM      7  O   UNL     1      11.071  12.928   1.790  1.00  0.00    -0.504 OA
ATOM      8  H   UNL     1      10.243  12.346   1.776  1.00  0.00     0.293 HD
ENDBRANCH   3   7
BRANCH   5   9
ATOM      9  O   UNL     1      13.142  17.369   2.124  1.00  0.00    -0.504 OA
ATOM     10  H   UNL     1      14.031  17.239   1.661  1.00  0.00     0.293 HD
ENDBRANCH   5   9
BRANCH   4  11
ATOM     11  O   UNL     1      13.386  14.460   2.123  1.00  0.00    -0.502 OA
ATOM     12  H   UNL     1      13.999  14.210   1.361  1.00  0.00     0.293 HD
ENDBRANCH   4  11
TORSDOF 3
ENDMDL
MODEL 6
REMARK VINA RESULT:    -2.318      2.248      3.551
REMARK INTER + INTRA:          -2.521
REMARK INTER:                  -2.521
REMARK INTRA:                   0.000
REMARK UNBOUND:                 0.000
REMARK SMILES Oc1cccc(O)c1O
REMARK SMILES IDX 4 1 5 2 6 3 8 4 2 5 3 6 7 7 1 9 9 11
REMARK H PARENT 7 8 1 10 9 12
REMARK Flexibility Score: inf
ROOT
ATOM      1  C   UNL     1      10.144  17.409   2.054  1.00  0.00     0.008 A 
ATOM      2  C   UNL     1      11.432  16.873   2.059  1.00  0.00     0.050 A 
ATOM      3  C   UNL     1      11.620  15.488   2.083  1.00  0.00     0.161 A 
ATOM      4  C   UNL     1      10.508  14.624   2.101  1.00  0.00     0.200 A 
ATOM      5  C   UNL     1       9.200  15.172   2.096  1.00  0.00     0.161 A 
ATOM      6  C   UNL     1       9.036  16.563   2.072  1.00  0.00     0.050 A 
ENDROOT
BRANCH   3   7
ATOM      7  O   UNL     1      12.923  14.988   2.087  1.00  0.00    -0.504 OA
ATOM      8  H   UNL     1      13.425  14.797   2.945  1.00  0.00     0.293 HD
ENDBRANCH   3   7
BRANCH   5   9
ATOM      9  O   UNL     1       8.049  14.383   2.113  1.00  0.00    -0.504 OA
ATOM     10  H   UNL     1       8.005  13.438   1.760  1.00  0.00     0.293 HD
ENDBRANCH   5   9
BRANCH   4  11
ATOM     11  O   UNL     1      10.737  13.245   2.124  1.00  0.00    -0.502 OA
ATOM     12  H   UNL     1      10.795  12.693   2.968  1.00  0.00     0.293 HD
ENDBRANCH   4  11
TORSDOF 3
ENDMDL
MODEL 7
REMARK VINA RESULT:    -2.279      2.230      2.949
REMARK INTER + INTRA:          -2.479
REMARK INTER:                  -2.479
REMARK INTRA:                   0.000
REMARK UNBOUND:                 0.000
REMARK SMILES Oc1cccc(O)c1O
REMARK SMILES IDX 4 1 5 2 6 3 8 4 2 5 3 6 7 7 1 9 9 11
REMARK H PARENT 7 8 1 10 9 12
REMARK Flexibility Score: inf
ROOT
ATOM      1  C   UNL     1      10.469  17.443   2.102  1.00  0.00     0.008 A 
ATOM      2  C   UNL     1       9.328  16.642   2.108  1.00  0.00     0.050 A 
ATOM      3  C   UNL     1       9.444  15.249   2.115  1.00  0.00     0.161 A 
ATOM      4  C   UNL     1      10.716  14.645   2.117  1.00  0.00     0.200 A 
ATOM      5  C   UNL     1      11.874  15.463   2.111  1.00  0.00     0.161 A 
ATOM      6  C   UNL     1      11.734  16.856   2.104  1.00  0.00     0.050 A 
ENDROOT
BRANCH   3   7
ATOM      7  O   UNL     1       8.280  14.479   2.122  1.00  0.00    -0.504 OA
ATOM      8  H   UNL     1       7.560  14.594   2.825  1.00  0.00     0.293 HD
ENDBRANCH   3   7
BRANCH   5   9
ATOM      9  O   UNL     1      13.169  14.941   2.112  1.00  0.00    -0.504 OA
ATOM     10  H   UNL     1      13.859  15.138   2.823  1.00  0.00     0.293 HD
ENDBRANCH   5   9
BRANCH   4  11
ATOM     11  O   UNL     1      10.791  13.249   2.125  1.00  0.00    -0.502 OA
ATOM     12  H   UNL     1      10.905  12.682   1.298  1.00  0.00     0.293 HD
ENDBRANCH   4  11
TORSDOF 3
ENDMDL
