MODEL 1
REMARK VINA RESULT:    -3.318      0.000      0.000
REMARK INTER + INTRA:         -11.798
REMARK INTER:                  -8.361
REMARK INTRA:                  -3.437
REMARK UNBOUND:                -3.437
REMARK SMILES CCCCCCCCCCCCCCCCCCCCCCCCCCCC(=O)[O-]
REMARK SMILES IDX 15 1 16 2 17 3 18 4 19 5 20 6 21 7 22 8 23 9 24 10 25 11
REMARK SMILES IDX 26 12 27 13 28 14 29 15 30 16 14 17 13 18 12 19 11 20 10 21
REMARK SMILES IDX 9 22 8 23 7 24 6 25 5 26 4 27 3 28 2 29 1 30
REMARK H PARENT
REMARK Flexibility Score: inf
ROOT
ATOM      1  C   UNL     1      50.612  47.634  23.603  1.00  0.00     0.000 C 
ENDROOT
BRANCH   1   2
ATOM      2  C   UNL     1      50.604  49.137  23.274  1.00  0.00     0.000 C 
BRANCH   2   3
ATOM      3  C   UNL     1      49.813  49.492  21.998  1.00  0.00     0.000 C 
BRANCH   3   4
ATOM      4  C   UNL     1      50.648  50.333  21.015  1.00  0.00     0.000 C 
BRANCH   4   5
ATOM      5  C   UNL     1      51.911  50.931  21.658  1.00  0.00     0.000 C 
BRANCH   5   6
ATOM      6  C   UNL     1      52.682  51.935  20.777  1.00  0.00     0.000 C 
BRANCH   6   7
ATOM      7  C   UNL     1      51.938  53.252  20.475  1.00  0.00     0.000 C 
BRANCH   7   8
ATOM      8  C   UNL     1      52.756  54.298  19.697  1.00  0.00     0.000 C 
BRANCH   8   9
ATOM      9  C   UNL     1      52.195  55.719  19.841  1.00  0.00     0.000 C 
BRANCH   9  10
ATOM     10  C   UNL     1      52.766  56.405  21.092  1.00  0.00     0.000 C 
BRANCH  10  11
ATOM     11  C   UNL     1      52.332  55.722  22.398  1.00  0.00     0.000 C 
BRANCH  11  12
ATOM     12  C   UNL     1      53.508  55.084  23.151  1.00  0.00     0.006 C 
BRANCH  12  13
ATOM     13  C   UNL     1      53.017  54.259  24.344  1.00  0.00     0.053 C 
BRANCH  13  14
ATOM     14  C   UNL     1      53.712  52.935  24.387  1.00  0.00     0.041 C 
ATOM     15  O   UNL     1      53.402  52.086  25.264  1.00  0.00    -0.550 OA
ATOM     16  O   UNL     1      54.668  52.619  23.430  1.00  0.00    -0.550 OA
ENDBRANCH  13  14
ENDBRANCH  12  13
ENDBRANCH  11  12
ENDBRANCH  10  11
ENDBRANCH   9  10
ENDBRANCH   8   9
ENDBRANCH   7   8
ENDBRANCH   6   7
ENDBRANCH   5   6
ENDBRANCH   4   5
ENDBRANCH   3   4
ENDBRANCH   2   3
ENDBRANCH   1   2
BRANCH   1  17
ATOM     17  C   UNL     1      49.849  47.300  24.894  1.00  0.00     0.000 C 
BRANCH  17  18
ATOM     18  C   UNL     1      48.369  46.972  24.632  1.00  0.00     0.000 C 
BRANCH  18  19
ATOM     19  C   UNL     1      47.425  48.008  25.270  1.00  0.00     0.000 C 
BRANCH  19  20
ATOM     20  C   UNL     1      47.552  49.398  24.615  1.00  0.00     0.000 C 
BRANCH  20  21
ATOM     21  C   UNL     1      46.260  50.237  24.678  1.00  0.00     0.000 C 
BRANCH  21  22
ATOM     22  C   UNL     1      46.182  51.404  23.673  1.00  0.00    -0.000 C 
BRANCH  22  23
ATOM     23  C   UNL     1      45.876  52.767  24.323  1.00  0.00    -0.000 C 
BRANCH  23  24
ATOM     24  C   UNL     1      45.960  52.721  25.865  1.00  0.00    -0.000 C 
BRANCH  24  25
ATOM     25  C   UNL     1      47.138  53.535  26.425  1.00  0.00    -0.000 C 
BRANCH  25  26
ATOM     26  C   UNL     1      48.464  52.765  26.318  1.00  0.00    -0.000 C 
BRANCH  26  27
ATOM     27  C   UNL     1      49.474  53.516  25.439  1.00  0.00    -0.000 C 
BRANCH  27  28
ATOM     28  C   UNL     1      49.964  52.676  24.244  1.00  0.00    -0.000 C 
BRANCH  28  29
ATOM     29  C   UNL     1      49.770  53.329  22.865  1.00  0.00    -0.003 C 
ATOM     30  C   UNL     1      48.562  52.781  22.107  1.00  0.00     0.004 C 
ENDBRANCH  28  29
ENDBRANCH  27  28
ENDBRANCH  26  27
ENDBRANCH  25  26
ENDBRANCH  24  25
ENDBRANCH  23  24
ENDBRANCH  22  23
ENDBRANCH  21  22
ENDBRANCH  20  21
ENDBRANCH  19  20
ENDBRANCH  18  19
ENDBRANCH  17  18
ENDBRANCH   1  17
TORSDOF 26
ENDMDL
MODEL 2
REMARK VINA RESULT:    -3.108      1.708      7.157
REMARK INTER + INTRA:         -11.270
REMARK INTER:                  -6.963
REMARK INTRA:                  -4.307
REMARK UNBOUND:                -3.437
REMARK SMILES CCCCCCCCCCCCCCCCCCCCCCCCCCCC(=O)[O-]
REMARK SMILES IDX 15 1 16 2 17 3 18 4 19 5 20 6 21 7 22 8 23 9 24 10 25 11
REMARK SMILES IDX 26 12 27 13 28 14 29 15 30 16 14 17 13 18 12 19 11 20 10 21
REMARK SMILES IDX 9 22 8 23 7 24 6 25 5 26 4 27 3 28 2 29 1 30
REMARK H PARENT
REMARK Flexibility Score: inf
ROOT
ATOM      1  C   UNL     1      49.732  53.456  23.476  1.00  0.00     0.000 C 
ENDROOT
BRANCH   1   2
ATOM      2  C   UNL     1      49.469  53.911  24.922  1.00  0.00     0.000 C 
BRANCH   2   3
ATOM      3  C   UNL     1      49.201  52.751  25.903  1.00  0.00     0.000 C 
BRANCH   3   4
ATOM      4  C   UNL     1      47.991  53.029  26.812  1.00  0.00     0.000 C 
BRANCH   4   5
ATOM      5  C   UNL     1      46.905  53.875  26.124  1.00  0.00     0.000 C 
BRANCH   5   6
ATOM      6  C   UNL     1      45.875  53.073  25.302  1.00  0.00     0.000 C 
BRANCH   6   7
ATOM      7  C   UNL     1      45.883  51.549  25.541  1.00  0.00     0.000 C 
BRANCH   7   8
ATOM      8  C   UNL     1      46.310  50.703  24.328  1.00  0.00     0.000 C 
BRANCH   8   9
ATOM      9  C   UNL     1      47.256  49.556  24.708  1.00  0.00     0.000 C 
BRANCH   9  10
ATOM     10  C   UNL     1      46.694  48.756  25.893  1.00  0.00     0.000 C 
BRANCH  10  11
ATOM     11  C   UNL     1      47.124  47.282  25.875  1.00  0.00     0.000 C 
BRANCH  11  12
ATOM     12  C   UNL     1      48.035  46.946  24.686  1.00  0.00     0.006 C 
BRANCH  12  13
ATOM     13  C   UNL     1      49.503  46.875  25.118  1.00  0.00     0.053 C 
BRANCH  13  14
ATOM     14  C   UNL     1      50.385  47.494  24.080  1.00  0.00     0.041 C 
ATOM     15  O   UNL     1      51.636  47.370  24.157  1.00  0.00    -0.550 OA
ATOM     16  O   UNL     1      49.825  48.166  23.000  1.00  0.00    -0.550 OA
ENDBRANCH  13  14
ENDBRANCH  12  13
ENDBRANCH  11  12
ENDBRANCH  10  11
ENDBRANCH   9  10
ENDBRANCH   8   9
ENDBRANCH   7   8
ENDBRANCH   6   7
ENDBRANCH   5   6
ENDBRANCH   4   5
ENDBRANCH   3   4
ENDBRANCH   2   3
ENDBRANCH   1   2
BRANCH   1  17
ATOM     17  C   UNL     1      49.642  51.932  23.303  1.00  0.00     0.000 C 
BRANCH  17  18
ATOM     18  C   UNL     1      49.029  51.530  21.951  1.00  0.00     0.000 C 
BRANCH  18  19
ATOM     19  C   UNL     1      50.071  50.901  21.008  1.00  0.00     0.000 C 
BRANCH  19  20
ATOM     20  C   UNL     1      51.443  50.719  21.688  1.00  0.00     0.000 C 
BRANCH  20  21
ATOM     21  C   UNL     1      52.518  51.709  21.197  1.00  0.00     0.000 C 
BRANCH  21  22
ATOM     22  C   UNL     1      52.165  52.478  19.907  1.00  0.00    -0.000 C 
BRANCH  22  23
ATOM     23  C   UNL     1      52.607  53.953  19.919  1.00  0.00    -0.000 C 
BRANCH  23  24
ATOM     24  C   UNL     1      51.804  54.805  20.929  1.00  0.00    -0.000 C 
BRANCH  24  25
ATOM     25  C   UNL     1      52.484  56.144  21.258  1.00  0.00    -0.000 C 
BRANCH  25  26
ATOM     26  C   UNL     1      53.417  56.025  22.474  1.00  0.00    -0.000 C 
BRANCH  26  27
ATOM     27  C   UNL     1      53.119  54.754  23.281  1.00  0.00    -0.000 C 
BRANCH  27  28
ATOM     28  C   UNL     1      54.308  53.775  23.315  1.00  0.00    -0.000 C 
BRANCH  28  29
ATOM     29  C   UNL     1      54.205  52.659  24.368  1.00  0.00    -0.003 C 
ATOM     30  C   UNL     1      52.814  52.549  24.990  1.00  0.00     0.004 C 
ENDBRANCH  28  29
ENDBRANCH  27  28
ENDBRANCH  26  27
ENDBRANCH  25  26
ENDBRANCH  24  25
ENDBRANCH  23  24
ENDBRANCH  22  23
ENDBRANCH  21  22
ENDBRANCH  20  21
ENDBRANCH  19  20
ENDBRANCH  18  19
ENDBRANCH  17  18
ENDBRANCH   1  17
TORSDOF 26
ENDMDL
MODEL 3
REMARK VINA RESULT:    -2.543      1.973      6.869
REMARK INTER + INTRA:          -9.845
REMARK INTER:                  -7.535
REMARK INTRA:                  -2.310
REMARK UNBOUND:                -3.437
REMARK SMILES CCCCCCCCCCCCCCCCCCCCCCCCCCCC(=O)[O-]
REMARK SMILES IDX 15 1 16 2 17 3 18 4 19 5 20 6 21 7 22 8 23 9 24 10 25 11
REMARK SMILES IDX 26 12 27 13 28 14 29 15 30 16 14 17 13 18 12 19 11 20 10 21
REMARK SMILES IDX 9 22 8 23 7 24 6 25 5 26 4 27 3 28 2 29 1 30
REMARK H PARENT
REMARK Flexibility Score: inf
ROOT
ATOM      1  C   UNL     1      50.812  51.002  21.479  1.00  0.00     0.000 C 
ENDROOT
BRANCH   1   2
ATOM      2  C   UNL     1      50.674  49.470  21.526  1.00  0.00     0.000 C 
BRANCH   2   3
ATOM      3  C   UNL     1      50.627  48.891  22.955  1.00  0.00     0.000 C 
BRANCH   3   4
ATOM      4  C   UNL     1      51.139  47.440  23.009  1.00  0.00     0.000 C 
BRANCH   4   5
ATOM      5  C   UNL     1      51.201  46.878  24.439  1.00  0.00     0.000 C 
BRANCH   5   6
ATOM      6  C   UNL     1      49.942  47.126  25.295  1.00  0.00     0.000 C 
BRANCH   6   7
ATOM      7  C   UNL     1      48.602  47.046  24.534  1.00  0.00     0.000 C 
BRANCH   7   8
ATOM      8  C   UNL     1      47.346  47.185  25.412  1.00  0.00     0.000 C 
BRANCH   8   9
ATOM      9  C   UNL     1      46.868  48.638  25.537  1.00  0.00     0.000 C 
BRANCH   9  10
ATOM     10  C   UNL     1      47.646  49.552  24.578  1.00  0.00     0.000 C 
BRANCH  10  11
ATOM     11  C   UNL     1      46.732  50.492  23.778  1.00  0.00     0.000 C 
BRANCH  11  12
ATOM     12  C   UNL     1      45.978  51.487  24.672  1.00  0.00     0.006 C 
BRANCH  12  13
ATOM     13  C   UNL     1      46.638  51.601  26.049  1.00  0.00     0.053 C 
BRANCH  13  14
ATOM     14  C   UNL     1      47.050  53.014  26.317  1.00  0.00     0.041 C 
ATOM     15  O   UNL     1      48.207  53.265  26.751  1.00  0.00    -0.550 OA
ATOM     16  O   UNL     1      46.177  54.059  26.042  1.00  0.00    -0.550 OA
ENDBRANCH  13  14
ENDBRANCH  12  13
ENDBRANCH  11  12
ENDBRANCH  10  11
ENDBRANCH   9  10
ENDBRANCH   8   9
ENDBRANCH   7   8
ENDBRANCH   6   7
ENDBRANCH   5   6
ENDBRANCH   4   5
ENDBRANCH   3   4
ENDBRANCH   2   3
ENDBRANCH   1   2
BRANCH   1  17
ATOM     17  C   UNL     1      49.493  51.711  21.138  1.00  0.00     0.000 C 
BRANCH  17  18
ATOM     18  C   UNL     1      48.890  52.445  22.348  1.00  0.00     0.000 C 
BRANCH  18  19
ATOM     19  C   UNL     1      49.833  52.423  23.565  1.00  0.00     0.000 C 
BRANCH  19  20
ATOM     20  C   UNL     1      50.170  53.841  24.071  1.00  0.00     0.000 C 
BRANCH  20  21
ATOM     21  C   UNL     1      51.335  53.881  25.080  1.00  0.00     0.000 C 
BRANCH  21  22
ATOM     22  C   UNL     1      52.683  54.371  24.513  1.00  0.00    -0.000 C 
BRANCH  22  23
ATOM     23  C   UNL     1      53.715  53.249  24.300  1.00  0.00    -0.000 C 
BRANCH  23  24
ATOM     24  C   UNL     1      54.218  53.173  22.840  1.00  0.00    -0.000 C 
BRANCH  24  25
ATOM     25  C   UNL     1      53.226  52.467  21.901  1.00  0.00    -0.000 C 
BRANCH  25  26
ATOM     26  C   UNL     1      52.809  53.371  20.730  1.00  0.00    -0.000 C 
BRANCH  26  27
ATOM     27  C   UNL     1      51.894  54.508  21.204  1.00  0.00    -0.000 C 
BRANCH  27  28
ATOM     28  C   UNL     1      52.101  55.812  20.409  1.00  0.00    -0.000 C 
BRANCH  28  29
ATOM     29  C   UNL     1      53.373  56.599  20.765  1.00  0.00    -0.003 C 
ATOM     30  C   UNL     1      53.289  57.288  22.126  1.00  0.00     0.004 C 
ENDBRANCH  28  29
ENDBRANCH  27  28
ENDBRANCH  26  27
ENDBRANCH  25  26
ENDBRANCH  24  25
ENDBRANCH  23  24
ENDBRANCH  22  23
ENDBRANCH  21  22
ENDBRANCH  20  21
ENDBRANCH  19  20
ENDBRANCH  18  19
ENDBRANCH  17  18
ENDBRANCH   1  17
TORSDOF 26
ENDMDL
MODEL 4
REMARK VINA RESULT:    -2.469      0.968      5.283
REMARK INTER + INTRA:          -9.660
REMARK INTER:                  -6.794
REMARK INTRA:                  -2.865
REMARK UNBOUND:                -3.437
REMARK SMILES CCCCCCCCCCCCCCCCCCCCCCCCCCCC(=O)[O-]
REMARK SMILES IDX 15 1 16 2 17 3 18 4 19 5 20 6 21 7 22 8 23 9 24 10 25 11
REMARK SMILES IDX 26 12 27 13 28 14 29 15 30 16 14 17 13 18 12 19 11 20 10 21
REMARK SMILES IDX 9 22 8 23 7 24 6 25 5 26 4 27 3 28 2 29 1 30
REMARK H PARENT
REMARK Flexibility Score: inf
ROOT
ATOM      1  C   UNL     1      48.143  47.004  24.620  1.00  0.00     0.000 C 
ENDROOT
BRANCH   1   2
ATOM      2  C   UNL     1      47.082  47.876  25.312  1.00  0.00     0.000 C 
BRANCH   2   3
ATOM      3  C   UNL     1      47.392  49.387  25.271  1.00  0.00     0.000 C 
BRANCH   3   4
ATOM      4  C   UNL     1      46.112  50.242  25.284  1.00  0.00     0.000 C 
BRANCH   4   5
ATOM      5  C   UNL     1      45.892  51.012  23.971  1.00  0.00     0.000 C 
BRANCH   5   6
ATOM      6  C   UNL     1      46.228  52.516  24.030  1.00  0.00     0.000 C 
BRANCH   6   7
ATOM      7  C   UNL     1      45.929  53.206  25.377  1.00  0.00     0.000 C 
BRANCH   7   8
ATOM      8  C   UNL     1      47.135  53.899  26.035  1.00  0.00     0.000 C 
BRANCH   8   9
ATOM      9  C   UNL     1      48.056  52.917  26.771  1.00  0.00     0.000 C 
BRANCH   9  10
ATOM     10  C   UNL     1      49.286  52.578  25.913  1.00  0.00     0.000 C 
BRANCH  10  11
ATOM     11  C   UNL     1      49.637  53.687  24.910  1.00  0.00     0.000 C 
BRANCH  11  12
ATOM     12  C   UNL     1      51.129  54.049  24.926  1.00  0.00     0.006 C 
BRANCH  12  13
ATOM     13  C   UNL     1      51.909  53.220  23.902  1.00  0.00     0.053 C 
BRANCH  13  14
ATOM     14  C   UNL     1      53.307  52.978  24.379  1.00  0.00     0.041 C 
ATOM     15  O   UNL     1      54.286  53.408  23.713  1.00  0.00    -0.550 OA
ATOM     16  O   UNL     1      53.528  52.320  25.582  1.00  0.00    -0.550 OA
ENDBRANCH  13  14
ENDBRANCH  12  13
ENDBRANCH  11  12
ENDBRANCH  10  11
ENDBRANCH   9  10
ENDBRANCH   8   9
ENDBRANCH   7   8
ENDBRANCH   6   7
ENDBRANCH   5   6
ENDBRANCH   4   5
ENDBRANCH   3   4
ENDBRANCH   2   3
ENDBRANCH   1   2
BRANCH   1  17
ATOM     17  C   UNL     1      49.541  47.160  25.238  1.00  0.00     0.000 C 
BRANCH  17  18
ATOM     18  C   UNL     1      50.654  47.177  24.177  1.00  0.00     0.000 C 
BRANCH  18  19
ATOM     19  C   UNL     1      50.316  48.112  23.000  1.00  0.00     0.000 C 
BRANCH  19  20
ATOM     20  C   UNL     1      50.553  49.597  23.344  1.00  0.00     0.000 C 
BRANCH  20  21
ATOM     21  C   UNL     1      49.286  50.470  23.237  1.00  0.00     0.000 C 
BRANCH  21  22
ATOM     22  C   UNL     1      49.256  51.443  22.041  1.00  0.00    -0.000 C 
BRANCH  22  23
ATOM     23  C   UNL     1      49.403  50.753  20.672  1.00  0.00    -0.000 C 
BRANCH  23  24
ATOM     24  C   UNL     1      50.849  50.814  20.129  1.00  0.00    -0.000 C 
BRANCH  24  25
ATOM     25  C   UNL     1      51.855  51.346  21.162  1.00  0.00    -0.000 C 
BRANCH  25  26
ATOM     26  C   UNL     1      52.997  52.130  20.495  1.00  0.00    -0.000 C 
BRANCH  26  27
ATOM     27  C   UNL     1      52.952  53.615  20.880  1.00  0.00    -0.000 C 
BRANCH  27  28
ATOM     28  C   UNL     1      52.209  54.478  19.842  1.00  0.00    -0.000 C 
BRANCH  28  29
ATOM     29  C   UNL     1      52.383  55.997  20.013  1.00  0.00    -0.003 C 
ATOM     30  C   UNL     1      52.608  56.415  21.465  1.00  0.00     0.004 C 
ENDBRANCH  28  29
ENDBRANCH  27  28
ENDBRANCH  26  27
ENDBRANCH  25  26
ENDBRANCH  24  25
ENDBRANCH  23  24
ENDBRANCH  22  23
ENDBRANCH  21  22
ENDBRANCH  20  21
ENDBRANCH  19  20
ENDBRANCH  18  19
ENDBRANCH  17  18
ENDBRANCH   1  17
TORSDOF 26
ENDMDL
MODEL 5
REMARK VINA RESULT:    -2.114      1.829      4.808
REMARK INTER + INTRA:          -8.765
REMARK INTER:                  -7.810
REMARK INTRA:                  -0.956
REMARK UNBOUND:                -3.437
REMARK SMILES CCCCCCCCCCCCCCCCCCCCCCCCCCCC(=O)[O-]
REMARK SMILES IDX 15 1 16 2 17 3 18 4 19 5 20 6 21 7 22 8 23 9 24 10 25 11
REMARK SMILES IDX 26 12 27 13 28 14 29 15 30 16 14 17 13 18 12 19 11 20 10 21
REMARK SMILES IDX 9 22 8 23 7 24 6 25 5 26 4 27 3 28 2 29 1 30
REMARK H PARENT
REMARK Flexibility Score: inf
ROOT
ATOM      1  C   UNL     1      50.812  53.109  24.664  1.00  0.00     0.000 C 
ENDROOT
BRANCH   1   2
ATOM      2  C   UNL     1      52.128  53.894  24.800  1.00  0.00     0.000 C 
BRANCH   2   3
ATOM      3  C   UNL     1      53.378  53.000  24.936  1.00  0.00     0.000 C 
BRANCH   3   4
ATOM      4  C   UNL     1      54.169  52.906  23.619  1.00  0.00     0.000 C 
BRANCH   4   5
ATOM      5  C   UNL     1      53.277  53.040  22.373  1.00  0.00     0.000 C 
BRANCH   5   6
ATOM      6  C   UNL     1      53.558  52.014  21.255  1.00  0.00     0.000 C 
BRANCH   6   7
ATOM      7  C   UNL     1      52.318  51.548  20.462  1.00  0.00     0.000 C 
BRANCH   7   8
ATOM      8  C   UNL     1      51.465  50.476  21.162  1.00  0.00     0.000 C 
BRANCH   8   9
ATOM      9  C   UNL     1      50.459  51.074  22.156  1.00  0.00     0.000 C 
BRANCH   9  10
ATOM     10  C   UNL     1      49.490  52.029  21.441  1.00  0.00     0.000 C 
BRANCH  10  11
ATOM     11  C   UNL     1      49.687  53.496  21.853  1.00  0.00     0.000 C 
BRANCH  11  12
ATOM     12  C   UNL     1      51.034  54.066  21.383  1.00  0.00     0.006 C 
BRANCH  12  13
ATOM     13  C   UNL     1      51.091  55.583  21.585  1.00  0.00     0.053 C 
BRANCH  13  14
ATOM     14  C   UNL     1      52.269  56.163  20.868  1.00  0.00     0.041 C 
ATOM     15  O   UNL     1      52.543  55.789  19.697  1.00  0.00    -0.550 OA
ATOM     16  O   UNL     1      53.036  57.150  21.473  1.00  0.00    -0.550 OA
ENDBRANCH  13  14
ENDBRANCH  12  13
ENDBRANCH  11  12
ENDBRANCH  10  11
ENDBRANCH   9  10
ENDBRANCH   8   9
ENDBRANCH   7   8
ENDBRANCH   6   7
ENDBRANCH   5   6
ENDBRANCH   4   5
ENDBRANCH   3   4
ENDBRANCH   2   3
ENDBRANCH   1   2
BRANCH   1  17
ATOM     17  C   UNL     1      49.634  53.787  25.380  1.00  0.00     0.000 C 
BRANCH  17  18
ATOM     18  C   UNL     1      48.655  52.770  25.993  1.00  0.00     0.000 C 
BRANCH  18  19
ATOM     19  C   UNL     1      47.472  53.459  26.697  1.00  0.00     0.000 C 
BRANCH  19  20
ATOM     20  C   UNL     1      46.114  53.074  26.074  1.00  0.00     0.000 C 
BRANCH  20  21
ATOM     21  C   UNL     1      46.159  52.898  24.543  1.00  0.00     0.000 C 
BRANCH  21  22
ATOM     22  C   UNL     1      45.875  51.469  24.035  1.00  0.00    -0.000 C 
BRANCH  22  23
ATOM     23  C   UNL     1      47.096  50.781  23.397  1.00  0.00    -0.000 C 
BRANCH  23  24
ATOM     24  C   UNL     1      47.907  49.947  24.416  1.00  0.00    -0.000 C 
BRANCH  24  25
ATOM     25  C   UNL     1      47.018  49.092  25.333  1.00  0.00    -0.000 C 
BRANCH  25  26
ATOM     26  C   UNL     1      47.376  47.600  25.242  1.00  0.00    -0.000 C 
BRANCH  26  27
ATOM     27  C   UNL     1      48.572  47.370  24.308  1.00  0.00    -0.000 C 
BRANCH  27  28
ATOM     28  C   UNL     1      49.848  46.953  25.064  1.00  0.00    -0.000 C 
BRANCH  28  29
ATOM     29  C   UNL     1      51.138  46.974  24.227  1.00  0.00    -0.003 C 
ATOM     30  C   UNL     1      51.009  47.800  22.947  1.00  0.00     0.004 C 
ENDBRANCH  28  29
ENDBRANCH  27  28
ENDBRANCH  26  27
ENDBRANCH  25  26
ENDBRANCH  24  25
ENDBRANCH  23  24
ENDBRANCH  22  23
ENDBRANCH  21  22
ENDBRANCH  20  21
ENDBRANCH  19  20
ENDBRANCH  18  19
ENDBRANCH  17  18
ENDBRANCH   1  17
TORSDOF 26
ENDMDL
MODEL 6
REMARK VINA RESULT:    -2.062      1.900      6.872
REMARK INTER + INTRA:          -8.632
REMARK INTER:                  -6.945
REMARK INTRA:                  -1.688
REMARK UNBOUND:                -3.437
REMARK SMILES CCCCCCCCCCCCCCCCCCCCCCCCCCCC(=O)[O-]
REMARK SMILES IDX 15 1 16 2 17 3 18 4 19 5 20 6 21 7 22 8 23 9 24 10 25 11
REMARK SMILES IDX 26 12 27 13 28 14 29 15 30 16 14 17 13 18 12 19 11 20 10 21
REMARK SMILES IDX 9 22 8 23 7 24 6 25 5 26 4 27 3 28 2 29 1 30
REMARK H PARENT
REMARK Flexibility Score: inf
ROOT
ATOM      1  C   UNL     1      46.871  52.753  27.257  1.00  0.00     0.000 C 
ENDROOT
BRANCH   1   2
ATOM      2  C   UNL     1      45.875  51.658  27.679  1.00  0.00     0.000 C 
BRANCH   2   3
ATOM      3  C   UNL     1      46.169  50.275  27.062  1.00  0.00     0.000 C 
BRANCH   3   4
ATOM      4  C   UNL     1      46.028  50.283  25.529  1.00  0.00     0.000 C 
BRANCH   4   5
ATOM      5  C   UNL     1      47.004  49.320  24.832  1.00  0.00     0.000 C 
BRANCH   5   6
ATOM      6  C   UNL     1      47.103  47.917  25.465  1.00  0.00     0.000 C 
BRANCH   6   7
ATOM      7  C   UNL     1      48.148  46.978  24.828  1.00  0.00     0.000 C 
BRANCH   7   8
ATOM      8  C   UNL     1      49.610  47.283  25.201  1.00  0.00     0.000 C 
BRANCH   8   9
ATOM      9  C   UNL     1      50.583  47.029  24.042  1.00  0.00     0.000 C 
BRANCH   9  10
ATOM     10  C   UNL     1      50.343  48.029  22.901  1.00  0.00     0.000 C 
BRANCH  10  11
ATOM     11  C   UNL     1      50.627  49.482  23.311  1.00  0.00     0.000 C 
BRANCH  11  12
ATOM     12  C   UNL     1      51.045  50.361  22.123  1.00  0.00     0.006 C 
BRANCH  12  13
ATOM     13  C   UNL     1      49.866  50.605  21.176  1.00  0.00     0.053 C 
BRANCH  13  14
ATOM     14  C   UNL     1      48.814  51.428  21.851  1.00  0.00     0.041 C 
ATOM     15  O   UNL     1      47.909  50.868  22.526  1.00  0.00    -0.550 OA
ATOM     16  O   UNL     1      48.860  52.814  21.777  1.00  0.00    -0.550 OA
ENDBRANCH  13  14
ENDBRANCH  12  13
ENDBRANCH  11  12
ENDBRANCH  10  11
ENDBRANCH   9  10
ENDBRANCH   8   9
ENDBRANCH   7   8
ENDBRANCH   6   7
ENDBRANCH   5   6
ENDBRANCH   4   5
ENDBRANCH   3   4
ENDBRANCH   2   3
ENDBRANCH   1   2
BRANCH   1  17
ATOM     17  C   UNL     1      46.559  53.342  25.873  1.00  0.00     0.000 C 
BRANCH  17  18
ATOM     18  C   UNL     1      47.736  53.194  24.893  1.00  0.00     0.000 C 
BRANCH  18  19
ATOM     19  C   UNL     1      49.097  53.342  25.598  1.00  0.00     0.000 C 
BRANCH  19  20
ATOM     20  C   UNL     1      50.270  53.416  24.599  1.00  0.00     0.000 C 
BRANCH  20  21
ATOM     21  C   UNL     1      51.194  54.631  24.813  1.00  0.00     0.000 C 
BRANCH  21  22
ATOM     22  C   UNL     1      52.691  54.377  24.541  1.00  0.00    -0.000 C 
BRANCH  22  23
ATOM     23  C   UNL     1      53.089  52.890  24.586  1.00  0.00    -0.000 C 
BRANCH  23  24
ATOM     24  C   UNL     1      54.345  52.586  23.738  1.00  0.00    -0.000 C 
BRANCH  24  25
ATOM     25  C   UNL     1      54.171  52.956  22.256  1.00  0.00    -0.000 C 
BRANCH  25  26
ATOM     26  C   UNL     1      52.799  52.517  21.717  1.00  0.00    -0.000 C 
BRANCH  26  27
ATOM     27  C   UNL     1      51.932  53.729  21.351  1.00  0.00    -0.000 C 
BRANCH  27  28
ATOM     28  C   UNL     1      52.495  54.529  20.161  1.00  0.00    -0.000 C 
BRANCH  28  29
ATOM     29  C   UNL     1      52.307  56.053  20.251  1.00  0.00    -0.003 C 
ATOM     30  C   UNL     1      52.956  56.664  21.492  1.00  0.00     0.004 C 
ENDBRANCH  28  29
ENDBRANCH  27  28
ENDBRANCH  26  27
ENDBRANCH  25  26
ENDBRANCH  24  25
ENDBRANCH  23  24
ENDBRANCH  22  23
ENDBRANCH  21  22
ENDBRANCH  20  21
ENDBRANCH  19  20
ENDBRANCH  18  19
ENDBRANCH  17  18
ENDBRANCH   1  17
TORSDOF 26
ENDMDL
MODEL 7
REMARK VINA RESULT:    -2.018      3.121      6.154
REMARK INTER + INTRA:          -8.524
REMARK INTER:                  -5.988
REMARK INTRA:                  -2.536
REMARK UNBOUND:                -3.437
REMARK SMILES CCCCCCCCCCCCCCCCCCCCCCCCCCCC(=O)[O-]
REMARK SMILES IDX 15 1 16 2 17 3 18 4 19 5 20 6 21 7 22 8 23 9 24 10 25 11
REMARK SMILES IDX 26 12 27 13 28 14 29 15 30 16 14 17 13 18 12 19 11 20 10 21
REMARK SMILES IDX 9 22 8 23 7 24 6 25 5 26 4 27 3 28 2 29 1 30
REMARK H PARENT
REMARK Flexibility Score: inf
ROOT
ATOM      1  C   UNL     1      47.494  49.849  24.283  1.00  0.00     0.000 C 
ENDROOT
BRANCH   1   2
ATOM      2  C   UNL     1      46.742  49.073  25.378  1.00  0.00     0.000 C 
BRANCH   2   3
ATOM      3  C   UNL     1      47.341  47.683  25.680  1.00  0.00     0.000 C 
BRANCH   3   4
ATOM      4  C   UNL     1      48.191  47.152  24.512  1.00  0.00     0.000 C 
BRANCH   4   5
ATOM      5  C   UNL     1      49.667  46.942  24.891  1.00  0.00     0.000 C 
BRANCH   5   6
ATOM      6  C   UNL     1      50.643  47.995  24.327  1.00  0.00     0.000 C 
BRANCH   6   7
ATOM      7  C   UNL     1      50.728  48.056  22.787  1.00  0.00     0.000 C 
BRANCH   7   8
ATOM      8  C   UNL     1      50.098  49.308  22.151  1.00  0.00     0.000 C 
BRANCH   8   9
ATOM      9  C   UNL     1      51.133  50.396  21.831  1.00  0.00     0.000 C 
BRANCH   9  10
ATOM     10  C   UNL     1      51.074  50.783  20.345  1.00  0.00     0.000 C 
BRANCH  10  11
ATOM     11  C   UNL     1      49.658  50.680  19.758  1.00  0.00     0.000 C 
BRANCH  11  12
ATOM     12  C   UNL     1      49.642  50.813  18.228  1.00  0.00     0.006 C 
BRANCH  12  13
ATOM     13  C   UNL     1      49.518  49.442  17.556  1.00  0.00     0.053 C 
BRANCH  13  14
ATOM     14  C   UNL     1      48.482  49.479  16.478  1.00  0.00     0.041 C 
ATOM     15  O   UNL     1      48.014  48.405  16.013  1.00  0.00    -0.550 OA
ATOM     16  O   UNL     1      47.997  50.697  16.019  1.00  0.00    -0.550 OA
ENDBRANCH  13  14
ENDBRANCH  12  13
ENDBRANCH  11  12
ENDBRANCH  10  11
ENDBRANCH   9  10
ENDBRANCH   8   9
ENDBRANCH   7   8
ENDBRANCH   6   7
ENDBRANCH   5   6
ENDBRANCH   4   5
ENDBRANCH   3   4
ENDBRANCH   2   3
ENDBRANCH   1   2
BRANCH   1  17
ATOM     17  C   UNL     1      46.609  50.879  23.565  1.00  0.00     0.000 C 
BRANCH  17  18
ATOM     18  C   UNL     1      45.876  51.810  24.546  1.00  0.00     0.000 C 
BRANCH  18  19
ATOM     19  C   UNL     1      46.533  53.200  24.624  1.00  0.00     0.000 C 
BRANCH  19  20
ATOM     20  C   UNL     1      46.777  53.653  26.078  1.00  0.00     0.000 C 
BRANCH  20  21
ATOM     21  C   UNL     1      48.186  53.318  26.606  1.00  0.00     0.000 C 
BRANCH  21  22
ATOM     22  C   UNL     1      49.134  52.658  25.584  1.00  0.00    -0.000 C 
BRANCH  22  23
ATOM     23  C   UNL     1      50.135  53.636  24.941  1.00  0.00    -0.000 C 
BRANCH  23  24
ATOM     24  C   UNL     1      51.246  52.912  24.146  1.00  0.00    -0.000 C 
BRANCH  24  25
ATOM     25  C   UNL     1      52.661  53.302  24.603  1.00  0.00    -0.000 C 
BRANCH  25  26
ATOM     26  C   UNL     1      53.473  53.934  23.461  1.00  0.00    -0.000 C 
BRANCH  26  27
ATOM     27  C   UNL     1      53.214  53.216  22.130  1.00  0.00    -0.000 C 
BRANCH  27  28
ATOM     28  C   UNL     1      52.068  53.853  21.321  1.00  0.00    -0.000 C 
BRANCH  28  29
ATOM     29  C   UNL     1      51.925  55.376  21.480  1.00  0.00    -0.003 C 
ATOM     30  C   UNL     1      52.735  56.165  20.453  1.00  0.00     0.004 C 
ENDBRANCH  28  29
ENDBRANCH  27  28
ENDBRANCH  26  27
ENDBRANCH  25  26
ENDBRANCH  24  25
ENDBRANCH  23  24
ENDBRANCH  22  23
ENDBRANCH  21  22
ENDBRANCH  20  21
ENDBRANCH  19  20
ENDBRANCH  18  19
ENDBRANCH  17  18
ENDBRANCH   1  17
TORSDOF 26
ENDMDL
MODEL 8
REMARK VINA RESULT:    -1.972      1.769      7.044
REMARK INTER + INTRA:          -8.407
REMARK INTER:                  -6.799
REMARK INTRA:                  -1.607
REMARK UNBOUND:                -3.437
REMARK SMILES CCCCCCCCCCCCCCCCCCCCCCCCCCCC(=O)[O-]
REMARK SMILES IDX 15 1 16 2 17 3 18 4 19 5 20 6 21 7 22 8 23 9 24 10 25 11
REMARK SMILES IDX 26 12 27 13 28 14 29 15 30 16 14 17 13 18 12 19 11 20 10 21
REMARK SMILES IDX 9 22 8 23 7 24 6 25 5 26 4 27 3 28 2 29 1 30
REMARK H PARENT
REMARK Flexibility Score: inf
ROOT
ATOM      1  C   UNL     1      48.649  53.227  26.777  1.00  0.00     0.000 C 
ENDROOT
BRANCH   1   2
ATOM      2  C   UNL     1      47.160  53.609  26.740  1.00  0.00     0.000 C 
BRANCH   2   3
ATOM      3  C   UNL     1      46.287  52.641  25.914  1.00  0.00     0.000 C 
BRANCH   3   4
ATOM      4  C   UNL     1      46.253  53.021  24.422  1.00  0.00     0.000 C 
BRANCH   4   5
ATOM      5  C   UNL     1      45.875  51.841  23.511  1.00  0.00     0.000 C 
BRANCH   5   6
ATOM      6  C   UNL     1      46.940  50.731  23.401  1.00  0.00     0.000 C 
BRANCH   6   7
ATOM      7  C   UNL     1      47.003  49.758  24.597  1.00  0.00     0.000 C 
BRANCH   7   8
ATOM      8  C   UNL     1      48.385  49.133  24.856  1.00  0.00     0.000 C 
BRANCH   8   9
ATOM      9  C   UNL     1      48.414  47.623  24.585  1.00  0.00     0.000 C 
BRANCH   9  10
ATOM     10  C   UNL     1      49.850  47.144  24.321  1.00  0.00     0.000 C 
BRANCH  10  11
ATOM     11  C   UNL     1      50.759  48.257  23.775  1.00  0.00     0.000 C 
BRANCH  11  12
ATOM     12  C   UNL     1      50.127  49.010  22.595  1.00  0.00     0.006 C 
BRANCH  12  13
ATOM     13  C   UNL     1      50.489  50.498  22.634  1.00  0.00     0.053 C 
BRANCH  13  14
ATOM     14  C   UNL     1      49.998  51.188  21.400  1.00  0.00     0.041 C 
ATOM     15  O   UNL     1      49.283  52.221  21.495  1.00  0.00    -0.550 OA
ATOM     16  O   UNL     1      50.370  50.721  20.146  1.00  0.00    -0.550 OA
ENDBRANCH  13  14
ENDBRANCH  12  13
ENDBRANCH  11  12
ENDBRANCH  10  11
ENDBRANCH   9  10
ENDBRANCH   8   9
ENDBRANCH   7   8
ENDBRANCH   6   7
ENDBRANCH   5   6
ENDBRANCH   4   5
ENDBRANCH   3   4
ENDBRANCH   2   3
ENDBRANCH   1   2
BRANCH   1  17
ATOM     17  C   UNL     1      49.168  52.712  25.425  1.00  0.00     0.000 C 
BRANCH  17  18
ATOM     18  C   UNL     1      49.641  53.850  24.506  1.00  0.00     0.000 C 
BRANCH  18  19
ATOM     19  C   UNL     1      51.170  54.029  24.547  1.00  0.00     0.000 C 
BRANCH  19  20
ATOM     20  C   UNL     1      51.901  52.735  24.957  1.00  0.00     0.000 C 
BRANCH  20  21
ATOM     21  C   UNL     1      53.435  52.818  24.825  1.00  0.00     0.000 C 
BRANCH  21  22
ATOM     22  C   UNL     1      53.953  53.319  23.461  1.00  0.00    -0.000 C 
BRANCH  22  23
ATOM     23  C   UNL     1      54.269  52.190  22.462  1.00  0.00    -0.000 C 
BRANCH  23  24
ATOM     24  C   UNL     1      53.399  52.266  21.186  1.00  0.00    -0.000 C 
BRANCH  24  25
ATOM     25  C   UNL     1      52.524  53.529  21.132  1.00  0.00    -0.000 C 
BRANCH  25  26
ATOM     26  C   UNL     1      52.178  53.920  19.687  1.00  0.00    -0.000 C 
BRANCH  26  27
ATOM     27  C   UNL     1      52.274  55.439  19.484  1.00  0.00    -0.000 C 
BRANCH  27  28
ATOM     28  C   UNL     1      51.863  56.235  20.738  1.00  0.00    -0.000 C 
BRANCH  28  29
ATOM     29  C   UNL     1      53.025  56.889  21.505  1.00  0.00    -0.003 C 
ATOM     30  C   UNL     1      53.588  56.000  22.612  1.00  0.00     0.004 C 
ENDBRANCH  28  29
ENDBRANCH  27  28
ENDBRANCH  26  27
ENDBRANCH  25  26
ENDBRANCH  24  25
ENDBRANCH  23  24
ENDBRANCH  22  23
ENDBRANCH  21  22
ENDBRANCH  20  21
ENDBRANCH  19  20
ENDBRANCH  18  19
ENDBRANCH  17  18
ENDBRANCH   1  17
TORSDOF 26
ENDMDL
