MODEL 1
REMARK VINA RESULT:    -6.152      0.000      0.000
REMARK INTER + INTRA:         -10.669
REMARK INTER:                  -9.389
REMARK INTRA:                  -1.280
REMARK UNBOUND:                -1.280
REMARK SMILES CC(=O)CCC=C(C)CCC=C(C)CCC=C(C)C
REMARK SMILES IDX 10 1 11 2 12 3 13 4 14 5 15 6 16 7 18 8 17 9 19 10 9 11 7 12
REMARK SMILES IDX 6 13 8 14 5 15 4 16 2 17 3 18 1 19
REMARK H PARENT
REMARK Flexibility Score: inf
ROOT
ATOM      1  C   UNL     1      -9.051  22.364  65.127  1.00  0.00     0.032 C 
ENDROOT
BRANCH   1   2
ATOM      2  C   UNL     1      -8.308  23.154  66.177  1.00  0.00    -0.028 C 
ATOM      3  C   UNL     1      -8.076  22.737  67.443  1.00  0.00    -0.077 C 
ATOM      4  C   UNL     1      -7.385  23.684  68.390  1.00  0.00     0.039 C 
BRANCH   3   5
ATOM      5  C   UNL     1      -8.466  21.357  67.943  1.00  0.00     0.034 C 
BRANCH   5   6
ATOM      6  C   UNL     1      -7.244  20.550  68.404  1.00  0.00     0.032 C 
BRANCH   6   7
ATOM      7  C   UNL     1      -7.606  19.542  69.469  1.00  0.00    -0.028 C 
ATOM      8  C   UNL     1      -8.030  18.697  71.737  1.00  0.00     0.039 C 
ATOM      9  C   UNL     1      -7.711  19.823  70.787  1.00  0.00    -0.080 C 
ATOM     10  C   UNL     1      -7.538  21.224  71.324  1.00  0.00     0.039 C 
ENDBRANCH   6   7
ENDBRANCH   5   6
ENDBRANCH   3   5
ENDBRANCH   1   2
BRANCH   1  11
ATOM     11  C   UNL     1      -8.252  22.251  63.819  1.00  0.00     0.034 C 
BRANCH  11  12
ATOM     12  C   UNL     1      -7.436  20.970  63.761  1.00  0.00    -0.077 C 
ATOM     13  C   UNL     1      -6.339  20.821  62.982  1.00  0.00    -0.028 C 
ATOM     14  C   UNL     1      -7.834  19.826  64.655  1.00  0.00     0.039 C 
BRANCH  13  15
ATOM     15  C   UNL     1      -5.807  21.857  62.024  1.00  0.00     0.035 C 
BRANCH  15  16
ATOM     16  C   UNL     1      -4.801  21.239  61.047  1.00  0.00     0.079 C 
BRANCH  16  17
ATOM     17  C   UNL     1      -3.649  20.619  61.795  1.00  0.00     0.130 C 
ATOM     18  O   UNL     1      -3.374  19.444  61.606  1.00  0.00    -0.300 OA
ATOM     19  C   UNL     1      -2.837  21.411  62.777  1.00  0.00     0.087 C 
ENDBRANCH  16  17
ENDBRANCH  15  16
ENDBRANCH  13  15
ENDBRANCH  11  12
ENDBRANCH   1  11
TORSDOF 9
ENDMDL
MODEL 2
REMARK VINA RESULT:    -6.055      2.481      6.966
REMARK INTER + INTRA:         -10.521
REMARK INTER:                  -9.254
REMARK INTRA:                  -1.266
REMARK UNBOUND:                -1.280
REMARK SMILES CC(=O)CCC=C(C)CCC=C(C)CCC=C(C)C
REMARK SMILES IDX 10 1 11 2 12 3 13 4 14 5 15 6 16 7 18 8 17 9 19 10 9 11 7 12
REMARK SMILES IDX 6 13 8 14 5 15 4 16 2 17 3 18 1 19
REMARK H PARENT
REMARK Flexibility Score: inf
ROOT
ATOM      1  C   UNL     1      -8.161  22.238  65.844  1.00  0.00     0.032 C 
ENDROOT
BRANCH   1   2
ATOM      2  C   UNL     1      -8.377  23.194  64.695  1.00  0.00    -0.028 C 
ATOM      3  C   UNL     1      -8.273  22.871  63.386  1.00  0.00    -0.077 C 
ATOM      4  C   UNL     1      -8.444  23.968  62.366  1.00  0.00     0.039 C 
BRANCH   3   5
ATOM      5  C   UNL     1      -8.009  21.456  62.902  1.00  0.00     0.034 C 
BRANCH   5   6
ATOM      6  C   UNL     1      -6.914  21.416  61.826  1.00  0.00     0.032 C 
BRANCH   6   7
ATOM      7  C   UNL     1      -5.549  21.164  62.422  1.00  0.00    -0.028 C 
ATOM      8  C   UNL     1      -3.095  21.150  62.536  1.00  0.00     0.039 C 
ATOM      9  C   UNL     1      -4.382  21.516  61.841  1.00  0.00    -0.080 C 
ATOM     10  C   UNL     1      -4.333  22.275  60.535  1.00  0.00     0.039 C 
ENDBRANCH   6   7
ENDBRANCH   5   6
ENDBRANCH   3   5
ENDBRANCH   1   2
BRANCH   1  11
ATOM     11  C   UNL     1      -8.801  22.746  67.144  1.00  0.00     0.034 C 
BRANCH  11  12
ATOM     12  C   UNL     1      -7.815  23.530  67.995  1.00  0.00    -0.077 C 
ATOM     13  C   UNL     1      -7.086  22.974  68.992  1.00  0.00    -0.028 C 
ATOM     14  C   UNL     1      -7.597  24.986  67.681  1.00  0.00     0.039 C 
BRANCH  13  15
ATOM     15  C   UNL     1      -7.186  21.539  69.444  1.00  0.00     0.035 C 
BRANCH  15  16
ATOM     16  C   UNL     1      -6.313  20.626  68.576  1.00  0.00     0.079 C 
BRANCH  16  17
ATOM     17  C   UNL     1      -7.041  19.347  68.254  1.00  0.00     0.130 C 
ATOM     18  O   UNL     1      -7.443  18.640  69.166  1.00  0.00    -0.300 OA
ATOM     19  C   UNL     1      -7.276  18.916  66.837  1.00  0.00     0.087 C 
ENDBRANCH  16  17
ENDBRANCH  15  16
ENDBRANCH  13  15
ENDBRANCH  11  12
ENDBRANCH   1  11
TORSDOF 9
ENDMDL
MODEL 3
REMARK VINA RESULT:    -6.027      1.341      2.436
REMARK INTER + INTRA:         -10.478
REMARK INTER:                  -9.294
REMARK INTRA:                  -1.184
REMARK UNBOUND:                -1.280
REMARK SMILES CC(=O)CCC=C(C)CCC=C(C)CCC=C(C)C
REMARK SMILES IDX 10 1 11 2 12 3 13 4 14 5 15 6 16 7 18 8 17 9 19 10 9 11 7 12
REMARK SMILES IDX 6 13 8 14 5 15 4 16 2 17 3 18 1 19
REMARK H PARENT
REMARK Flexibility Score: inf
ROOT
ATOM      1  C   UNL     1      -7.984  22.043  64.331  1.00  0.00     0.032 C 
ENDROOT
BRANCH   1   2
ATOM      2  C   UNL     1      -8.029  20.552  64.564  1.00  0.00    -0.028 C 
ATOM      3  C   UNL     1      -8.033  19.956  65.778  1.00  0.00    -0.077 C 
ATOM      4  C   UNL     1      -8.001  18.450  65.832  1.00  0.00     0.039 C 
BRANCH   3   5
ATOM      5  C   UNL     1      -8.085  20.734  67.081  1.00  0.00     0.034 C 
BRANCH   5   6
ATOM      6  C   UNL     1      -6.908  20.384  68.003  1.00  0.00     0.032 C 
BRANCH   6   7
ATOM      7  C   UNL     1      -7.377  19.845  69.333  1.00  0.00    -0.028 C 
ATOM      8  C   UNL     1      -8.034  19.912  71.700  1.00  0.00     0.039 C 
ATOM      9  C   UNL     1      -7.619  20.602  70.425  1.00  0.00    -0.080 C 
ATOM     10  C   UNL     1      -7.505  22.108  70.398  1.00  0.00     0.039 C 
ENDBRANCH   6   7
ENDBRANCH   5   6
ENDBRANCH   3   5
ENDBRANCH   1   2
BRANCH   1  11
ATOM     11  C   UNL     1      -8.458  22.420  62.919  1.00  0.00     0.034 C 
BRANCH  11  12
ATOM     12  C   UNL     1      -7.442  23.282  62.189  1.00  0.00    -0.077 C 
ATOM     13  C   UNL     1      -6.487  22.777  61.373  1.00  0.00    -0.028 C 
ATOM     14  C   UNL     1      -7.533  24.778  62.338  1.00  0.00     0.039 C 
BRANCH  13  15
ATOM     15  C   UNL     1      -6.249  21.310  61.119  1.00  0.00     0.035 C 
BRANCH  15  16
ATOM     16  C   UNL     1      -4.798  21.052  60.698  1.00  0.00     0.079 C 
BRANCH  16  17
ATOM     17  C   UNL     1      -4.093  20.202  61.723  1.00  0.00     0.130 C 
ATOM     18  O   UNL     1      -3.232  19.415  61.360  1.00  0.00    -0.300 OA
ATOM     19  C   UNL     1      -4.431  20.294  63.182  1.00  0.00     0.087 C 
ENDBRANCH  16  17
ENDBRANCH  15  16
ENDBRANCH  13  15
ENDBRANCH  11  12
ENDBRANCH   1  11
TORSDOF 9
ENDMDL
MODEL 4
REMARK VINA RESULT:    -5.990      1.846      3.278
REMARK INTER + INTRA:         -10.422
REMARK INTER:                  -8.658
REMARK INTRA:                  -1.764
REMARK UNBOUND:                -1.280
REMARK SMILES CC(=O)CCC=C(C)CCC=C(C)CCC=C(C)C
REMARK SMILES IDX 10 1 11 2 12 3 13 4 14 5 15 6 16 7 18 8 17 9 19 10 9 11 7 12
REMARK SMILES IDX 6 13 8 14 5 15 4 16 2 17 3 18 1 19
REMARK H PARENT
REMARK Flexibility Score: inf
ROOT
ATOM      1  C   UNL     1      -7.768  20.289  64.611  1.00  0.00     0.032 C 
ENDROOT
BRANCH   1   2
ATOM      2  C   UNL     1      -6.965  20.007  65.858  1.00  0.00    -0.028 C 
ATOM      3  C   UNL     1      -7.453  20.036  67.119  1.00  0.00    -0.077 C 
ATOM      4  C   UNL     1      -6.495  19.806  68.260  1.00  0.00     0.039 C 
BRANCH   3   5
ATOM      5  C   UNL     1      -8.921  20.272  67.433  1.00  0.00     0.034 C 
BRANCH   5   6
ATOM      6  C   UNL     1      -9.125  21.520  68.304  1.00  0.00     0.032 C 
BRANCH   6   7
ATOM      7  C   UNL     1      -8.979  22.793  67.504  1.00  0.00    -0.028 C 
ATOM      8  C   UNL     1      -8.041  24.973  66.868  1.00  0.00     0.039 C 
ATOM      9  C   UNL     1      -8.026  23.727  67.716  1.00  0.00    -0.080 C 
ATOM     10  C   UNL     1      -6.947  23.549  68.759  1.00  0.00     0.039 C 
ENDBRANCH   6   7
ENDBRANCH   5   6
ENDBRANCH   3   5
ENDBRANCH   1   2
BRANCH   1  11
ATOM     11  C   UNL     1      -6.869  20.568  63.398  1.00  0.00     0.034 C 
BRANCH  11  12
ATOM     12  C   UNL     1      -7.244  21.865  62.699  1.00  0.00    -0.077 C 
ATOM     13  C   UNL     1      -6.946  22.125  61.404  1.00  0.00    -0.028 C 
ATOM     14  C   UNL     1      -8.034  22.891  63.467  1.00  0.00     0.039 C 
BRANCH  13  15
ATOM     15  C   UNL     1      -6.156  21.218  60.495  1.00  0.00     0.035 C 
BRANCH  15  16
ATOM     16  C   UNL     1      -4.755  21.781  60.236  1.00  0.00     0.079 C 
BRANCH  16  17
ATOM     17  C   UNL     1      -3.884  21.618  61.454  1.00  0.00     0.130 C 
ATOM     18  O   UNL     1      -3.439  22.610  62.011  1.00  0.00    -0.300 OA
ATOM     19  C   UNL     1      -3.543  20.261  61.995  1.00  0.00     0.087 C 
ENDBRANCH  16  17
ENDBRANCH  15  16
ENDBRANCH  13  15
ENDBRANCH  11  12
ENDBRANCH   1  11
TORSDOF 9
ENDMDL
MODEL 5
REMARK VINA RESULT:    -5.990      3.263      6.794
REMARK INTER + INTRA:         -10.422
REMARK INTER:                  -9.073
REMARK INTRA:                  -1.348
REMARK UNBOUND:                -1.280
REMARK SMILES CC(=O)CCC=C(C)CCC=C(C)CCC=C(C)C
REMARK SMILES IDX 10 1 11 2 12 3 13 4 14 5 15 6 16 7 18 8 17 9 19 10 9 11 7 12
REMARK SMILES IDX 6 13 8 14 5 15 4 16 2 17 3 18 1 19
REMARK H PARENT
REMARK Flexibility Score: inf
ROOT
ATOM      1  C   UNL     1      -7.485  23.122  69.974  1.00  0.00     0.032 C 
ENDROOT
BRANCH   1   2
ATOM      2  C   UNL     1      -7.460  23.585  68.537  1.00  0.00    -0.028 C 
ATOM      3  C   UNL     1      -8.086  24.688  68.066  1.00  0.00    -0.077 C 
ATOM      4  C   UNL     1      -8.024  24.964  66.586  1.00  0.00     0.039 C 
BRANCH   3   5
ATOM      5  C   UNL     1      -8.831  25.662  68.962  1.00  0.00     0.034 C 
BRANCH   5   6
ATOM      6  C   UNL     1      -8.750  27.101  68.433  1.00  0.00     0.032 C 
BRANCH   6   7
ATOM      7  C   UNL     1      -8.361  28.077  69.518  1.00  0.00    -0.028 C 
ATOM      8  C   UNL     1      -7.387  30.112  70.491  1.00  0.00     0.039 C 
ATOM      9  C   UNL     1      -7.762  29.268  69.300  1.00  0.00    -0.080 C 
ATOM     10  C   UNL     1      -7.478  29.779  67.907  1.00  0.00     0.039 C 
ENDBRANCH   6   7
ENDBRANCH   5   6
ENDBRANCH   3   5
ENDBRANCH   1   2
BRANCH   1  11
ATOM     11  C   UNL     1      -8.559  22.050  70.215  1.00  0.00     0.034 C 
BRANCH  11  12
ATOM     12  C   UNL     1      -7.958  20.745  70.710  1.00  0.00    -0.077 C 
ATOM     13  C   UNL     1      -7.683  19.697  69.899  1.00  0.00    -0.028 C 
ATOM     14  C   UNL     1      -7.599  20.629  72.168  1.00  0.00     0.039 C 
BRANCH  13  15
ATOM     15  C   UNL     1      -7.985  19.639  68.423  1.00  0.00     0.035 C 
BRANCH  15  16
ATOM     16  C   UNL     1      -6.750  20.010  67.594  1.00  0.00     0.079 C 
BRANCH  16  17
ATOM     17  C   UNL     1      -7.120  20.190  66.144  1.00  0.00     0.130 C 
ATOM     18  O   UNL     1      -6.693  19.403  65.313  1.00  0.00    -0.300 OA
ATOM     19  C   UNL     1      -7.996  21.322  65.696  1.00  0.00     0.087 C 
ENDBRANCH  16  17
ENDBRANCH  15  16
ENDBRANCH  13  15
ENDBRANCH  11  12
ENDBRANCH   1  11
TORSDOF 9
ENDMDL
MODEL 6
REMARK VINA RESULT:    -5.844      2.974      7.656
REMARK INTER + INTRA:         -10.198
REMARK INTER:                  -8.943
REMARK INTRA:                  -1.255
REMARK UNBOUND:                -1.280
REMARK SMILES CC(=O)CCC=C(C)CCC=C(C)CCC=C(C)C
REMARK SMILES IDX 10 1 11 2 12 3 13 4 14 5 15 6 16 7 18 8 17 9 19 10 9 11 7 12
REMARK SMILES IDX 6 13 8 14 5 15 4 16 2 17 3 18 1 19
REMARK H PARENT
REMARK Flexibility Score: inf
ROOT
ATOM      1  C   UNL     1      -7.370  21.018  63.913  1.00  0.00     0.032 C 
ENDROOT
BRANCH   1   2
ATOM      2  C   UNL     1      -5.992  20.448  63.676  1.00  0.00    -0.028 C 
ATOM      3  C   UNL     1      -5.147  20.842  62.697  1.00  0.00    -0.077 C 
ATOM      4  C   UNL     1      -3.836  20.113  62.551  1.00  0.00     0.039 C 
BRANCH   3   5
ATOM      5  C   UNL     1      -5.455  21.990  61.751  1.00  0.00     0.034 C 
BRANCH   5   6
ATOM      6  C   UNL     1      -4.206  22.450  60.985  1.00  0.00     0.032 C 
BRANCH   6   7
ATOM      7  C   UNL     1      -3.822  23.868  61.336  1.00  0.00    -0.028 C 
ATOM      8  C   UNL     1      -2.600  25.668  62.477  1.00  0.00     0.039 C 
ATOM      9  C   UNL     1      -2.830  24.206  62.187  1.00  0.00    -0.080 C 
ATOM     10  C   UNL     1      -1.942  23.170  62.835  1.00  0.00     0.039 C 
ENDBRANCH   6   7
ENDBRANCH   5   6
ENDBRANCH   3   5
ENDBRANCH   1   2
BRANCH   1  11
ATOM     11  C   UNL     1      -7.706  21.111  65.409  1.00  0.00     0.034 C 
BRANCH  11  12
ATOM     12  C   UNL     1      -7.769  19.741  66.064  1.00  0.00    -0.077 C 
ATOM     13  C   UNL     1      -7.262  19.478  67.291  1.00  0.00    -0.028 C 
ATOM     14  C   UNL     1      -8.478  18.630  65.335  1.00  0.00     0.039 C 
BRANCH  13  15
ATOM     15  C   UNL     1      -6.515  20.466  68.152  1.00  0.00     0.035 C 
BRANCH  15  16
ATOM     16  C   UNL     1      -7.343  20.863  69.379  1.00  0.00     0.079 C 
BRANCH  16  17
ATOM     17  C   UNL     1      -7.407  22.362  69.513  1.00  0.00     0.130 C 
ATOM     18  O   UNL     1      -7.620  22.859  70.609  1.00  0.00    -0.300 OA
ATOM     19  C   UNL     1      -7.223  23.261  68.326  1.00  0.00     0.087 C 
ENDBRANCH  16  17
ENDBRANCH  15  16
ENDBRANCH  13  15
ENDBRANCH  11  12
ENDBRANCH   1  11
TORSDOF 9
ENDMDL
MODEL 7
REMARK VINA RESULT:    -5.756      1.712      3.626
REMARK INTER + INTRA:         -10.065
REMARK INTER:                  -8.413
REMARK INTRA:                  -1.652
REMARK UNBOUND:                -1.280
REMARK SMILES CC(=O)CCC=C(C)CCC=C(C)CCC=C(C)C
REMARK SMILES IDX 10 1 11 2 12 3 13 4 14 5 15 6 16 7 18 8 17 9 19 10 9 11 7 12
REMARK SMILES IDX 6 13 8 14 5 15 4 16 2 17 3 18 1 19
REMARK H PARENT
REMARK Flexibility Score: inf
ROOT
ATOM      1  C   UNL     1      -7.746  22.638  62.371  1.00  0.00     0.032 C 
ENDROOT
BRANCH   1   2
ATOM      2  C   UNL     1      -7.243  21.440  63.139  1.00  0.00    -0.028 C 
ATOM      3  C   UNL     1      -7.746  21.004  64.316  1.00  0.00    -0.077 C 
ATOM      4  C   UNL     1      -7.074  19.836  64.990  1.00  0.00     0.039 C 
BRANCH   3   5
ATOM      5  C   UNL     1      -8.963  21.629  64.977  1.00  0.00     0.034 C 
BRANCH   5   6
ATOM      6  C   UNL     1      -8.996  21.357  66.488  1.00  0.00     0.032 C 
BRANCH   6   7
ATOM      7  C   UNL     1      -8.357  22.476  67.274  1.00  0.00    -0.028 C 
ATOM      8  C   UNL     1      -6.885  23.520  68.942  1.00  0.00     0.039 C 
ATOM      9  C   UNL     1      -7.388  22.308  68.200  1.00  0.00    -0.080 C 
ATOM     10  C   UNL     1      -6.789  20.952  68.496  1.00  0.00     0.039 C 
ENDBRANCH   6   7
ENDBRANCH   5   6
ENDBRANCH   3   5
ENDBRANCH   1   2
BRANCH   1  11
ATOM     11  C   UNL     1      -6.793  23.036  61.233  1.00  0.00     0.034 C 
BRANCH  11  12
ATOM     12  C   UNL     1      -5.990  24.280  61.574  1.00  0.00    -0.077 C 
ATOM     13  C   UNL     1      -4.656  24.385  61.364  1.00  0.00    -0.028 C 
ATOM     14  C   UNL     1      -6.720  25.477  62.122  1.00  0.00     0.039 C 
BRANCH  13  15
ATOM     15  C   UNL     1      -3.771  23.286  60.834  1.00  0.00     0.035 C 
BRANCH  15  16
ATOM     16  C   UNL     1      -3.287  22.373  61.966  1.00  0.00     0.079 C 
BRANCH  16  17
ATOM     17  C   UNL     1      -3.830  20.979  61.792  1.00  0.00     0.130 C 
ATOM     18  O   UNL     1      -4.239  20.627  60.695  1.00  0.00    -0.300 OA
ATOM     19  C   UNL     1      -3.889  20.013  62.938  1.00  0.00     0.087 C 
ENDBRANCH  16  17
ENDBRANCH  15  16
ENDBRANCH  13  15
ENDBRANCH  11  12
ENDBRANCH   1  11
TORSDOF 9
ENDMDL
MODEL 8
REMARK VINA RESULT:    -5.744      2.502      7.266
REMARK INTER + INTRA:         -10.046
REMARK INTER:                  -8.396
REMARK INTRA:                  -1.650
REMARK UNBOUND:                -1.280
REMARK SMILES CC(=O)CCC=C(C)CCC=C(C)CCC=C(C)C
REMARK SMILES IDX 10 1 11 2 12 3 13 4 14 5 15 6 16 7 18 8 17 9 19 10 9 11 7 12
REMARK SMILES IDX 6 13 8 14 5 15 4 16 2 17 3 18 1 19
REMARK H PARENT
REMARK Flexibility Score: inf
ROOT
ATOM      1  C   UNL     1      -7.513  21.397  62.383  1.00  0.00     0.032 C 
ENDROOT
BRANCH   1   2
ATOM      2  C   UNL     1      -6.174  21.090  63.009  1.00  0.00    -0.028 C 
ATOM      3  C   UNL     1      -5.067  20.711  62.330  1.00  0.00    -0.077 C 
ATOM      4  C   UNL     1      -3.830  20.367  63.119  1.00  0.00     0.039 C 
BRANCH   3   5
ATOM      5  C   UNL     1      -5.013  20.633  60.815  1.00  0.00     0.034 C 
BRANCH   5   6
ATOM      6  C   UNL     1      -5.021  22.026  60.169  1.00  0.00     0.032 C 
BRANCH   6   7
ATOM      7  C   UNL     1      -3.966  22.927  60.766  1.00  0.00    -0.028 C 
ATOM      8  C   UNL     1      -3.054  24.915  61.884  1.00  0.00     0.039 C 
ATOM      9  C   UNL     1      -4.219  24.100  61.385  1.00  0.00    -0.080 C 
ATOM     10  C   UNL     1      -5.627  24.602  61.606  1.00  0.00     0.039 C 
ENDBRANCH   6   7
ENDBRANCH   5   6
ENDBRANCH   3   5
ENDBRANCH   1   2
BRANCH   1  11
ATOM     11  C   UNL     1      -8.649  21.385  63.417  1.00  0.00     0.034 C 
BRANCH  11  12
ATOM     12  C   UNL     1      -8.453  22.446  64.488  1.00  0.00    -0.077 C 
ATOM     13  C   UNL     1      -8.341  22.160  65.806  1.00  0.00    -0.028 C 
ATOM     14  C   UNL     1      -8.325  23.883  64.058  1.00  0.00     0.039 C 
BRANCH  13  15
ATOM     15  C   UNL     1      -8.454  20.783  66.409  1.00  0.00     0.035 C 
BRANCH  15  16
ATOM     16  C   UNL     1      -7.080  20.113  66.515  1.00  0.00     0.079 C 
BRANCH  16  17
ATOM     17  C   UNL     1      -6.714  19.879  67.958  1.00  0.00     0.130 C 
ATOM     18  O   UNL     1      -6.615  18.735  68.374  1.00  0.00    -0.300 OA
ATOM     19  C   UNL     1      -6.479  21.023  68.899  1.00  0.00     0.087 C 
ENDBRANCH  16  17
ENDBRANCH  15  16
ENDBRANCH  13  15
ENDBRANCH  11  12
ENDBRANCH   1  11
TORSDOF 9
ENDMDL
MODEL 9
REMARK VINA RESULT:    -5.673      2.646      4.844
REMARK INTER + INTRA:          -9.938
REMARK INTER:                  -8.190
REMARK INTRA:                  -1.748
REMARK UNBOUND:                -1.280
REMARK SMILES CC(=O)CCC=C(C)CCC=C(C)CCC=C(C)C
REMARK SMILES IDX 10 1 11 2 12 3 13 4 14 5 15 6 16 7 18 8 17 9 19 10 9 11 7 12
REMARK SMILES IDX 6 13 8 14 5 15 4 16 2 17 3 18 1 19
REMARK H PARENT
REMARK Flexibility Score: inf
ROOT
ATOM      1  C   UNL     1      -6.196  20.755  60.664  1.00  0.00     0.032 C 
ENDROOT
BRANCH   1   2
ATOM      2  C   UNL     1      -6.934  21.940  61.238  1.00  0.00    -0.028 C 
ATOM      3  C   UNL     1      -7.394  22.028  62.507  1.00  0.00    -0.077 C 
ATOM      4  C   UNL     1      -8.181  23.253  62.896  1.00  0.00     0.039 C 
BRANCH   3   5
ATOM      5  C   UNL     1      -7.140  20.959  63.554  1.00  0.00     0.034 C 
BRANCH   5   6
ATOM      6  C   UNL     1      -8.101  21.085  64.745  1.00  0.00     0.032 C 
BRANCH   6   7
ATOM      7  C   UNL     1      -7.439  20.695  66.045  1.00  0.00    -0.028 C 
ATOM      8  C   UNL     1      -6.827  19.241  67.928  1.00  0.00     0.039 C 
ATOM      9  C   UNL     1      -7.497  19.463  66.596  1.00  0.00    -0.080 C 
ATOM     10  C   UNL     1      -8.193  18.311  65.911  1.00  0.00     0.039 C 
ENDBRANCH   6   7
ENDBRANCH   5   6
ENDBRANCH   3   5
ENDBRANCH   1   2
BRANCH   1  11
ATOM     11  C   UNL     1      -4.736  21.094  60.326  1.00  0.00     0.034 C 
BRANCH  11  12
ATOM     12  C   UNL     1      -3.930  21.433  61.569  1.00  0.00    -0.077 C 
ATOM     13  C   UNL     1      -3.481  22.680  61.847  1.00  0.00    -0.028 C 
ATOM     14  C   UNL     1      -3.661  20.340  62.569  1.00  0.00     0.039 C 
BRANCH  13  15
ATOM     15  C   UNL     1      -3.652  23.884  60.956  1.00  0.00     0.035 C 
BRANCH  15  16
ATOM     16  C   UNL     1      -4.019  25.127  61.773  1.00  0.00     0.079 C 
BRANCH  16  17
ATOM     17  C   UNL     1      -5.425  25.569  61.463  1.00  0.00     0.130 C 
ATOM     18  O   UNL     1      -5.940  25.234  60.407  1.00  0.00    -0.300 OA
ATOM     19  C   UNL     1      -6.207  26.419  62.420  1.00  0.00     0.087 C 
ENDBRANCH  16  17
ENDBRANCH  15  16
ENDBRANCH  13  15
ENDBRANCH  11  12
ENDBRANCH   1  11
TORSDOF 9
ENDMDL
