MODEL 1
REMARK VINA RESULT:    -5.045      0.000      0.000
REMARK INTER + INTRA:          -5.572
REMARK INTER:                  -5.340
REMARK INTRA:                  -0.232
REMARK UNBOUND:                -0.232
REMARK SMILES O=c1cc(-c2ccccc2)oc2ccccc12
REMARK SMILES IDX 4 1 3 2 2 3 1 4 17 5 16 6 15 7 14 8 13 9 12 10 11 11 5 12
REMARK SMILES IDX 8 13 7 14 9 15 6 16 10 17
REMARK H PARENT
REMARK Flexibility Score: inf
ROOT
ATOM      1  C   UNL     1       9.789 -18.347   7.630  1.00  0.00     0.138 A 
ATOM      2  C   UNL     1       9.566 -18.963   6.381  1.00  0.00     0.100 A 
ATOM      3  C   UNL     1       8.331 -19.561   6.119  1.00  0.00     0.193 A 
ATOM      4  O   UNL     1       8.132 -20.111   5.002  1.00  0.00    -0.289 OA
ATOM      5  C   UNL     1       7.332 -19.540   7.102  1.00  0.00     0.065 A 
ATOM      6  C   UNL     1       6.068 -20.123   6.902  1.00  0.00     0.016 A 
ATOM      7  C   UNL     1       5.107 -20.074   7.917  1.00  0.00     0.001 A 
ATOM      8  C   UNL     1       5.397 -19.446   9.132  1.00  0.00     0.004 A 
ATOM      9  C   UNL     1       6.651 -18.864   9.339  1.00  0.00     0.048 A 
ATOM     10  C   UNL     1       7.621 -18.908   8.330  1.00  0.00     0.138 A 
ATOM     11  O   UNL     1       8.810 -18.352   8.536  1.00  0.00    -0.456 OA
ENDROOT
BRANCH   1  12
ATOM     12  C   UNL     1      11.081 -17.685   7.992  1.00  0.00     0.017 A 
ATOM     13  C   UNL     1      13.506 -16.374   8.600  1.00  0.00     0.000 A 
ATOM     14  C   UNL     1      13.080 -17.452   9.377  1.00  0.00     0.001 A 
ATOM     15  C   UNL     1      12.732 -15.946   7.523  1.00  0.00     0.001 A 
ATOM     16  C   UNL     1      11.880 -18.105   9.080  1.00  0.00     0.012 A 
ATOM     17  C   UNL     1      11.531 -16.593   7.219  1.00  0.00     0.012 A 
ENDBRANCH   1  12
TORSDOF 1
ENDMDL
MODEL 2
REMARK VINA RESULT:    -3.369      1.209      5.783
REMARK INTER + INTRA:          -3.798
REMARK INTER:                  -3.549
REMARK INTRA:                  -0.248
REMARK UNBOUND:                -0.232
REMARK SMILES O=c1cc(-c2ccccc2)oc2ccccc12
REMARK SMILES IDX 4 1 3 2 2 3 1 4 17 5 16 6 15 7 14 8 13 9 12 10 11 11 5 12
REMARK SMILES IDX 8 13 7 14 9 15 6 16 10 17
REMARK H PARENT
REMARK Flexibility Score: inf
ROOT
ATOM      1  C   UNL     1       7.717 -19.380   8.256  1.00  0.00     0.138 A 
ATOM      2  C   UNL     1       8.014 -19.925   6.989  1.00  0.00     0.100 A 
ATOM      3  C   UNL     1       9.239 -19.633   6.385  1.00  0.00     0.193 A 
ATOM      4  O   UNL     1       9.505 -20.121   5.252  1.00  0.00    -0.289 OA
ATOM      5  C   UNL     1      10.155 -18.803   7.046  1.00  0.00     0.065 A 
ATOM      6  C   UNL     1      11.405 -18.471   6.493  1.00  0.00     0.016 A 
ATOM      7  C   UNL     1      12.282 -17.638   7.196  1.00  0.00     0.001 A 
ATOM      8  C   UNL     1      11.920 -17.133   8.448  1.00  0.00     0.004 A 
ATOM      9  C   UNL     1      10.680 -17.458   9.005  1.00  0.00     0.048 A 
ATOM     10  C   UNL     1       9.795 -18.291   8.310  1.00  0.00     0.138 A 
ATOM     11  O   UNL     1       8.618 -18.594   8.848  1.00  0.00    -0.456 OA
ENDROOT
BRANCH   1  12
ATOM     12  C   UNL     1       6.430 -19.640   8.973  1.00  0.00     0.017 A 
ATOM     13  C   UNL     1       3.954 -20.123  10.239  1.00  0.00     0.000 A 
ATOM     14  C   UNL     1       5.131 -20.102  10.989  1.00  0.00     0.001 A 
ATOM     15  C   UNL     1       4.004 -19.905   8.864  1.00  0.00     0.001 A 
ATOM     16  C   UNL     1       6.360 -19.863  10.367  1.00  0.00     0.012 A 
ATOM     17  C   UNL     1       5.228 -19.666   8.233  1.00  0.00     0.012 A 
ENDBRANCH   1  12
TORSDOF 1
ENDMDL
