MODEL 1
REMARK VINA RESULT:    -4.256      0.000      0.000
REMARK INTER + INTRA:         -10.107
REMARK INTER:                  -7.988
REMARK INTRA:                  -2.119
REMARK UNBOUND:                -2.119
REMARK SMILES CCCCCCCCC=CCCCCCCCC(=O)[O-]
REMARK SMILES IDX 10 1 9 2 11 3 12 4 13 5 14 6 15 7 16 8 17 9 18 10 19 11
REMARK SMILES IDX 20 12 8 13 7 14 6 15 5 16 4 17 3 18 2 19 1 20
REMARK H PARENT
REMARK Flexibility Score: inf
ROOT
ATOM      1  C   UNL     1      -2.314  -3.878  -7.120  1.00  0.00    -0.031 C 
ATOM      2  C   UNL     1      -1.295  -2.998  -7.092  1.00  0.00    -0.031 C 
ENDROOT
BRANCH   1   3
ATOM      3  C   UNL     1      -3.290  -4.032  -8.259  1.00  0.00     0.027 C 
BRANCH   3   4
ATOM      4  C   UNL     1      -3.211  -5.440  -8.861  1.00  0.00     0.004 C 
BRANCH   4   5
ATOM      5  C   UNL     1      -4.455  -6.261  -8.501  1.00  0.00     0.000 C 
BRANCH   5   6
ATOM      6  C   UNL     1      -5.662  -5.383  -8.123  1.00  0.00     0.000 C 
BRANCH   6   7
ATOM      7  C   UNL     1      -6.246  -5.710  -6.733  1.00  0.00     0.000 C 
BRANCH   7   8
ATOM      8  C   UNL     1      -6.064  -4.550  -5.738  1.00  0.00     0.006 C 
BRANCH   8   9
ATOM      9  C   UNL     1      -7.357  -3.749  -5.539  1.00  0.00     0.053 C 
BRANCH   9  10
ATOM     10  C   UNL     1      -7.199  -2.323  -5.978  1.00  0.00     0.041 C 
ATOM     11  O   UNL     1      -6.968  -2.053  -7.186  1.00  0.00    -0.550 OA
ATOM     12  O   UNL     1      -7.274  -1.295  -5.045  1.00  0.00    -0.550 OA
ENDBRANCH   9  10
ENDBRANCH   8   9
ENDBRANCH   7   8
ENDBRANCH   6   7
ENDBRANCH   5   6
ENDBRANCH   4   5
ENDBRANCH   3   4
ENDBRANCH   1   3
BRANCH   2  13
ATOM     13  C   UNL     1      -0.994  -1.980  -8.166  1.00  0.00     0.027 C 
BRANCH  13  14
ATOM     14  C   UNL     1       0.336  -2.284  -8.865  1.00  0.00     0.004 C 
BRANCH  14  15
ATOM     15  C   UNL     1       0.348  -3.685  -9.494  1.00  0.00     0.000 C 
BRANCH  15  16
ATOM     16  C   UNL     1       1.770  -4.259  -9.534  1.00  0.00     0.000 C 
BRANCH  16  17
ATOM     17  C   UNL     1       1.901  -5.471  -8.599  1.00  0.00    -0.000 C 
BRANCH  17  18
ATOM     18  C   UNL     1       2.097  -5.052  -7.127  1.00  0.00    -0.000 C 
BRANCH  18  19
ATOM     19  C   UNL     1       0.974  -5.537  -6.196  1.00  0.00    -0.003 C 
ATOM     20  C   UNL     1       0.156  -6.681  -6.792  1.00  0.00     0.004 C 
ENDBRANCH  18  19
ENDBRANCH  17  18
ENDBRANCH  16  17
ENDBRANCH  15  16
ENDBRANCH  14  15
ENDBRANCH  13  14
ENDBRANCH   2  13
TORSDOF 15
ENDMDL
MODEL 2
REMARK VINA RESULT:    -4.205      1.399      3.663
REMARK INTER + INTRA:         -10.010
REMARK INTER:                  -7.830
REMARK INTRA:                  -2.180
REMARK UNBOUND:                -2.119
REMARK SMILES CCCCCCCCC=CCCCCCCCC(=O)[O-]
REMARK SMILES IDX 10 1 9 2 11 3 12 4 13 5 14 6 15 7 16 8 17 9 18 10 19 11
REMARK SMILES IDX 20 12 8 13 7 14 6 15 5 16 4 17 3 18 2 19 1 20
REMARK H PARENT
REMARK Flexibility Score: inf
ROOT
ATOM      1  C   UNL     1       0.198  -5.639  -6.279  1.00  0.00    -0.031 C 
ATOM      2  C   UNL     1       1.360  -4.970  -6.401  1.00  0.00    -0.031 C 
ENDROOT
BRANCH   1   3
ATOM      3  C   UNL     1      -0.171  -6.875  -7.060  1.00  0.00     0.027 C 
BRANCH   3   4
ATOM      4  C   UNL     1      -1.224  -6.553  -8.128  1.00  0.00     0.004 C 
BRANCH   4   5
ATOM      5  C   UNL     1      -1.943  -5.237  -7.811  1.00  0.00     0.000 C 
BRANCH   5   6
ATOM      6  C   UNL     1      -3.339  -5.149  -8.453  1.00  0.00     0.000 C 
BRANCH   6   7
ATOM      7  C   UNL     1      -3.891  -3.709  -8.527  1.00  0.00     0.000 C 
BRANCH   7   8
ATOM      8  C   UNL     1      -5.257  -3.573  -7.832  1.00  0.00     0.006 C 
BRANCH   8   9
ATOM      9  C   UNL     1      -5.237  -4.125  -6.401  1.00  0.00     0.053 C 
BRANCH   9  10
ATOM     10  C   UNL     1      -6.483  -3.762  -5.649  1.00  0.00     0.041 C 
ATOM     11  O   UNL     1      -6.630  -2.600  -5.187  1.00  0.00    -0.550 OA
ATOM     12  O   UNL     1      -7.467  -4.719  -5.430  1.00  0.00    -0.550 OA
ENDBRANCH   9  10
ENDBRANCH   8   9
ENDBRANCH   7   8
ENDBRANCH   6   7
ENDBRANCH   5   6
ENDBRANCH   4   5
ENDBRANCH   3   4
ENDBRANCH   1   3
BRANCH   2  13
ATOM     13  C   UNL     1       2.461  -5.306  -7.379  1.00  0.00     0.027 C 
BRANCH  13  14
ATOM     14  C   UNL     1       2.069  -4.922  -8.811  1.00  0.00     0.004 C 
BRANCH  14  15
ATOM     15  C   UNL     1       1.434  -3.526  -8.880  1.00  0.00     0.000 C 
BRANCH  15  16
ATOM     16  C   UNL     1       0.312  -3.481  -9.926  1.00  0.00     0.000 C 
BRANCH  16  17
ATOM     17  C   UNL     1      -0.582  -2.249  -9.722  1.00  0.00    -0.000 C 
BRANCH  17  18
ATOM     18  C   UNL     1      -0.577  -1.762  -8.257  1.00  0.00    -0.000 C 
BRANCH  18  19
ATOM     19  C   UNL     1      -1.194  -0.366  -8.072  1.00  0.00    -0.003 C 
ATOM     20  C   UNL     1      -2.272  -0.048  -9.106  1.00  0.00     0.004 C 
ENDBRANCH  18  19
ENDBRANCH  17  18
ENDBRANCH  16  17
ENDBRANCH  15  16
ENDBRANCH  14  15
ENDBRANCH  13  14
ENDBRANCH   2  13
TORSDOF 15
ENDMDL
MODEL 3
REMARK VINA RESULT:    -4.197     14.435     16.132
REMARK INTER + INTRA:          -9.995
REMARK INTER:                  -8.142
REMARK INTRA:                  -1.853
REMARK UNBOUND:                -2.119
REMARK SMILES CCCCCCCCC=CCCCCCCCC(=O)[O-]
REMARK SMILES IDX 10 1 9 2 11 3 12 4 13 5 14 6 15 7 16 8 17 9 18 10 19 11
REMARK SMILES IDX 20 12 8 13 7 14 6 15 5 16 4 17 3 18 2 19 1 20
REMARK H PARENT
REMARK Flexibility Score: inf
ROOT
ATOM      1  C   UNL     1       7.242   5.032  -3.062  1.00  0.00    -0.031 C 
ATOM      2  C   UNL     1       7.538   5.701  -4.193  1.00  0.00    -0.031 C 
ENDROOT
BRANCH   1   3
ATOM      3  C   UNL     1       8.256   4.554  -2.053  1.00  0.00     0.027 C 
BRANCH   3   4
ATOM      4  C   UNL     1       7.708   4.680  -0.626  1.00  0.00     0.004 C 
BRANCH   4   5
ATOM      5  C   UNL     1       8.696   5.428   0.277  1.00  0.00     0.000 C 
BRANCH   5   6
ATOM      6  C   UNL     1       9.276   6.690  -0.388  1.00  0.00     0.000 C 
BRANCH   6   7
ATOM      7  C   UNL     1       9.000   7.984   0.407  1.00  0.00     0.000 C 
BRANCH   7   8
ATOM      8  C   UNL     1       8.506   9.128  -0.496  1.00  0.00     0.006 C 
BRANCH   8   9
ATOM      9  C   UNL     1       7.917   8.612  -1.815  1.00  0.00     0.053 C 
BRANCH   9  10
ATOM     10  C   UNL     1       6.428   8.786  -1.864  1.00  0.00     0.041 C 
ATOM     11  O   UNL     1       5.676   7.786  -2.009  1.00  0.00    -0.550 OA
ATOM     12  O   UNL     1       5.873  10.058  -1.783  1.00  0.00    -0.550 OA
ENDBRANCH   9  10
ENDBRANCH   8   9
ENDBRANCH   7   8
ENDBRANCH   6   7
ENDBRANCH   5   6
ENDBRANCH   4   5
ENDBRANCH   3   4
ENDBRANCH   1   3
BRANCH   2  13
ATOM     13  C   UNL     1       8.932   6.033  -4.669  1.00  0.00     0.027 C 
BRANCH  13  14
ATOM     14  C   UNL     1       8.923   6.512  -6.126  1.00  0.00     0.004 C 
BRANCH  14  15
ATOM     15  C   UNL     1       7.555   6.303  -6.792  1.00  0.00     0.000 C 
BRANCH  15  16
ATOM     16  C   UNL     1       7.692   5.494  -8.089  1.00  0.00     0.000 C 
BRANCH  16  17
ATOM     17  C   UNL     1       9.142   5.507  -8.596  1.00  0.00    -0.000 C 
BRANCH  17  18
ATOM     18  C   UNL     1       9.676   4.084  -8.868  1.00  0.00    -0.000 C 
BRANCH  18  19
ATOM     19  C   UNL     1       9.579   3.149  -7.651  1.00  0.00    -0.003 C 
ATOM     20  C   UNL     1      10.772   2.202  -7.529  1.00  0.00     0.004 C 
ENDBRANCH  18  19
ENDBRANCH  17  18
ENDBRANCH  16  17
ENDBRANCH  15  16
ENDBRANCH  14  15
ENDBRANCH  13  14
ENDBRANCH   2  13
TORSDOF 15
ENDMDL
MODEL 4
REMARK VINA RESULT:    -4.190      2.397      5.534
REMARK INTER + INTRA:          -9.983
REMARK INTER:                  -7.353
REMARK INTRA:                  -2.630
REMARK UNBOUND:                -2.119
REMARK SMILES CCCCCCCCC=CCCCCCCCC(=O)[O-]
REMARK SMILES IDX 10 1 9 2 11 3 12 4 13 5 14 6 15 7 16 8 17 9 18 10 19 11
REMARK SMILES IDX 20 12 8 13 7 14 6 15 5 16 4 17 3 18 2 19 1 20
REMARK H PARENT
REMARK Flexibility Score: inf
ROOT
ATOM      1  C   UNL     1       2.013  -4.966  -6.871  1.00  0.00    -0.031 C 
ATOM      2  C   UNL     1       0.937  -5.322  -6.144  1.00  0.00    -0.031 C 
ENDROOT
BRANCH   1   3
ATOM      3  C   UNL     1       2.118  -5.084  -8.370  1.00  0.00     0.027 C 
BRANCH   3   4
ATOM      4  C   UNL     1       1.624  -3.804  -9.056  1.00  0.00     0.004 C 
BRANCH   4   5
ATOM      5  C   UNL     1       0.334  -4.067  -9.844  1.00  0.00     0.000 C 
BRANCH   5   6
ATOM      6  C   UNL     1      -0.809  -3.113  -9.452  1.00  0.00     0.000 C 
BRANCH   6   7
ATOM      7  C   UNL     1      -0.640  -2.496  -8.048  1.00  0.00     0.000 C 
BRANCH   7   8
ATOM      8  C   UNL     1      -0.866  -0.974  -8.050  1.00  0.00     0.006 C 
BRANCH   8   9
ATOM      9  C   UNL     1      -1.536  -0.489  -9.341  1.00  0.00     0.053 C 
BRANCH   9  10
ATOM     10  C   UNL     1      -2.752   0.341  -9.057  1.00  0.00     0.041 C 
ATOM     11  O   UNL     1      -3.877  -0.005  -9.504  1.00  0.00    -0.550 OA
ATOM     12  O   UNL     1      -2.636   1.518  -8.325  1.00  0.00    -0.550 OA
ENDBRANCH   9  10
ENDBRANCH   8   9
ENDBRANCH   7   8
ENDBRANCH   6   7
ENDBRANCH   5   6
ENDBRANCH   4   5
ENDBRANCH   3   4
ENDBRANCH   1   3
BRANCH   2  13
ATOM     13  C   UNL     1      -0.319  -5.953  -6.698  1.00  0.00     0.027 C 
BRANCH  13  14
ATOM     14  C   UNL     1      -0.067  -7.400  -7.140  1.00  0.00     0.004 C 
BRANCH  14  15
ATOM     15  C   UNL     1      -1.017  -7.831  -8.266  1.00  0.00     0.000 C 
BRANCH  15  16
ATOM     16  C   UNL     1      -1.888  -6.658  -8.733  1.00  0.00     0.000 C 
BRANCH  16  17
ATOM     17  C   UNL     1      -3.366  -7.069  -8.816  1.00  0.00    -0.000 C 
BRANCH  17  18
ATOM     18  C   UNL     1      -4.315  -5.864  -8.644  1.00  0.00    -0.000 C 
BRANCH  18  19
ATOM     19  C   UNL     1      -3.655  -4.654  -7.964  1.00  0.00    -0.003 C 
ATOM     20  C   UNL     1      -4.343  -3.331  -8.298  1.00  0.00     0.004 C 
ENDBRANCH  18  19
ENDBRANCH  17  18
ENDBRANCH  16  17
ENDBRANCH  15  16
ENDBRANCH  14  15
ENDBRANCH  13  14
ENDBRANCH   2  13
TORSDOF 15
ENDMDL
MODEL 5
REMARK VINA RESULT:    -4.184     15.370     17.938
REMARK INTER + INTRA:          -9.972
REMARK INTER:                  -7.272
REMARK INTRA:                  -2.700
REMARK UNBOUND:                -2.119
REMARK SMILES CCCCCCCCC=CCCCCCCCC(=O)[O-]
REMARK SMILES IDX 10 1 9 2 11 3 12 4 13 5 14 6 15 7 16 8 17 9 18 10 19 11
REMARK SMILES IDX 20 12 8 13 7 14 6 15 5 16 4 17 3 18 2 19 1 20
REMARK H PARENT
REMARK Flexibility Score: inf
ROOT
ATOM      1  C   UNL     1       6.787   5.381  -3.017  1.00  0.00    -0.031 C 
ATOM      2  C   UNL     1       7.406   5.513  -4.205  1.00  0.00    -0.031 C 
ENDROOT
BRANCH   1   3
ATOM      3  C   UNL     1       7.422   5.657  -1.677  1.00  0.00     0.027 C 
BRANCH   3   4
ATOM      4  C   UNL     1       8.081   4.393  -1.113  1.00  0.00     0.004 C 
BRANCH   4   5
ATOM      5  C   UNL     1       9.597   4.577  -0.981  1.00  0.00     0.000 C 
BRANCH   5   6
ATOM      6  C   UNL     1       9.980   5.755  -0.067  1.00  0.00     0.000 C 
BRANCH   6   7
ATOM      7  C   UNL     1       9.467   5.600   1.380  1.00  0.00     0.000 C 
BRANCH   7   8
ATOM      8  C   UNL     1       9.372   6.951   2.112  1.00  0.00     0.006 C 
BRANCH   8   9
ATOM      9  C   UNL     1       9.247   8.129   1.139  1.00  0.00     0.053 C 
BRANCH   9  10
ATOM     10  C   UNL     1       8.953   9.413   1.856  1.00  0.00     0.041 C 
ATOM     11  O   UNL     1       8.954   9.452   3.115  1.00  0.00    -0.550 OA
ATOM     12  O   UNL     1       8.645  10.560   1.133  1.00  0.00    -0.550 OA
ENDBRANCH   9  10
ENDBRANCH   8   9
ENDBRANCH   7   8
ENDBRANCH   6   7
ENDBRANCH   5   6
ENDBRANCH   4   5
ENDBRANCH   3   4
ENDBRANCH   1   3
BRANCH   2  13
ATOM     13  C   UNL     1       8.854   5.900  -4.394  1.00  0.00     0.027 C 
BRANCH  13  14
ATOM     14  C   UNL     1       9.032   7.423  -4.364  1.00  0.00     0.004 C 
BRANCH  14  15
ATOM     15  C   UNL     1       9.921   7.877  -3.198  1.00  0.00     0.000 C 
BRANCH  15  16
ATOM     16  C   UNL     1       9.264   9.022  -2.416  1.00  0.00     0.000 C 
BRANCH  16  17
ATOM     17  C   UNL     1       7.797   9.202  -2.834  1.00  0.00    -0.000 C 
BRANCH  17  18
ATOM     18  C   UNL     1       6.862   9.369  -1.617  1.00  0.00    -0.000 C 
BRANCH  18  19
ATOM     19  C   UNL     1       5.395   9.026  -1.918  1.00  0.00    -0.003 C 
ATOM     20  C   UNL     1       4.417  10.083  -1.406  1.00  0.00     0.004 C 
ENDBRANCH  18  19
ENDBRANCH  17  18
ENDBRANCH  16  17
ENDBRANCH  15  16
ENDBRANCH  14  15
ENDBRANCH  13  14
ENDBRANCH   2  13
TORSDOF 15
ENDMDL
MODEL 6
REMARK VINA RESULT:    -4.175     14.546     16.912
REMARK INTER + INTRA:          -9.955
REMARK INTER:                  -7.592
REMARK INTRA:                  -2.363
REMARK UNBOUND:                -2.119
REMARK SMILES CCCCCCCCC=CCCCCCCCC(=O)[O-]
REMARK SMILES IDX 10 1 9 2 11 3 12 4 13 5 14 6 15 7 16 8 17 9 18 10 19 11
REMARK SMILES IDX 20 12 8 13 7 14 6 15 5 16 4 17 3 18 2 19 1 20
REMARK H PARENT
REMARK Flexibility Score: inf
ROOT
ATOM      1  C   UNL     1       7.888   4.611  -1.107  1.00  0.00    -0.031 C 
ATOM      2  C   UNL     1       8.420   5.260  -0.055  1.00  0.00    -0.031 C 
ENDROOT
BRANCH   1   3
ATOM      3  C   UNL     1       8.311   4.802  -2.542  1.00  0.00     0.027 C 
BRANCH   3   4
ATOM      4  C   UNL     1       7.103   5.122  -3.431  1.00  0.00     0.004 C 
BRANCH   4   5
ATOM      5  C   UNL     1       7.539   5.846  -4.710  1.00  0.00     0.000 C 
BRANCH   5   6
ATOM      6  C   UNL     1       9.061   6.065  -4.783  1.00  0.00     0.000 C 
BRANCH   6   7
ATOM      7  C   UNL     1       9.727   5.349  -5.977  1.00  0.00     0.000 C 
BRANCH   7   8
ATOM      8  C   UNL     1       8.700   4.638  -6.876  1.00  0.00     0.006 C 
BRANCH   8   9
ATOM      9  C   UNL     1       8.827   5.061  -8.345  1.00  0.00     0.053 C 
BRANCH   9  10
ATOM     10  C   UNL     1       7.889   6.181  -8.683  1.00  0.00     0.041 C 
ATOM     11  O   UNL     1       6.828   6.342  -8.025  1.00  0.00    -0.550 OA
ATOM     12  O   UNL     1       8.172   7.027  -9.749  1.00  0.00    -0.550 OA
ENDBRANCH   9  10
ENDBRANCH   8   9
ENDBRANCH   7   8
ENDBRANCH   6   7
ENDBRANCH   5   6
ENDBRANCH   4   5
ENDBRANCH   3   4
ENDBRANCH   1   3
BRANCH   2  13
ATOM     13  C   UNL     1       9.485   6.329  -0.137  1.00  0.00     0.027 C 
BRANCH  13  14
ATOM     14  C   UNL     1       9.066   7.593   0.622  1.00  0.00     0.004 C 
BRANCH  14  15
ATOM     15  C   UNL     1       8.883   8.794  -0.317  1.00  0.00     0.000 C 
BRANCH  15  16
ATOM     16  C   UNL     1       8.933   8.358  -1.787  1.00  0.00     0.000 C 
BRANCH  16  17
ATOM     17  C   UNL     1       7.743   8.930  -2.572  1.00  0.00    -0.000 C 
BRANCH  17  18
ATOM     18  C   UNL     1       6.393   8.387  -2.059  1.00  0.00    -0.000 C 
BRANCH  18  19
ATOM     19  C   UNL     1       5.429   9.486  -1.583  1.00  0.00    -0.003 C 
ATOM     20  C   UNL     1       5.498  10.752  -2.436  1.00  0.00     0.004 C 
ENDBRANCH  18  19
ENDBRANCH  17  18
ENDBRANCH  16  17
ENDBRANCH  15  16
ENDBRANCH  14  15
ENDBRANCH  13  14
ENDBRANCH   2  13
TORSDOF 15
ENDMDL
MODEL 7
REMARK VINA RESULT:    -4.140     14.645     16.546
REMARK INTER + INTRA:          -9.890
REMARK INTER:                  -7.963
REMARK INTRA:                  -1.926
REMARK UNBOUND:                -2.119
REMARK SMILES CCCCCCCCC=CCCCCCCCC(=O)[O-]
REMARK SMILES IDX 10 1 9 2 11 3 12 4 13 5 14 6 15 7 16 8 17 9 18 10 19 11
REMARK SMILES IDX 20 12 8 13 7 14 6 15 5 16 4 17 3 18 2 19 1 20
REMARK H PARENT
REMARK Flexibility Score: inf
ROOT
ATOM      1  C   UNL     1       6.975   5.522  -3.639  1.00  0.00    -0.031 C 
ATOM      2  C   UNL     1       7.698   5.462  -4.773  1.00  0.00    -0.031 C 
ENDROOT
BRANCH   1   3
ATOM      3  C   UNL     1       7.519   5.919  -2.290  1.00  0.00     0.027 C 
BRANCH   3   4
ATOM      4  C   UNL     1       7.003   7.303  -1.878  1.00  0.00     0.004 C 
BRANCH   4   5
ATOM      5  C   UNL     1       8.086   8.094  -1.135  1.00  0.00     0.000 C 
BRANCH   5   6
ATOM      6  C   UNL     1       8.097   9.588  -1.507  1.00  0.00     0.000 C 
BRANCH   6   7
ATOM      7  C   UNL     1       7.649   9.862  -2.958  1.00  0.00     0.000 C 
BRANCH   7   8
ATOM      8  C   UNL     1       6.481  10.861  -3.028  1.00  0.00     0.006 C 
BRANCH   8   9
ATOM      9  C   UNL     1       5.704  10.938  -1.708  1.00  0.00     0.053 C 
BRANCH   9  10
ATOM     10  C   UNL     1       4.255  10.602  -1.897  1.00  0.00     0.041 C 
ATOM     11  O   UNL     1       3.598  10.073  -0.961  1.00  0.00    -0.550 OA
ATOM     12  O   UNL     1       3.638  10.844  -3.119  1.00  0.00    -0.550 OA
ENDBRANCH   9  10
ENDBRANCH   8   9
ENDBRANCH   7   8
ENDBRANCH   6   7
ENDBRANCH   5   6
ENDBRANCH   4   5
ENDBRANCH   3   4
ENDBRANCH   1   3
BRANCH   2  13
ATOM     13  C   UNL     1       9.183   5.724  -4.875  1.00  0.00     0.027 C 
BRANCH  13  14
ATOM     14  C   UNL     1       9.745   5.227  -6.212  1.00  0.00     0.004 C 
BRANCH  14  15
ATOM     15  C   UNL     1       8.649   4.650  -7.119  1.00  0.00     0.000 C 
BRANCH  15  16
ATOM     16  C   UNL     1       8.549   5.436  -8.433  1.00  0.00     0.000 C 
BRANCH  16  17
ATOM     17  C   UNL     1       7.378   6.430  -8.393  1.00  0.00    -0.000 C 
BRANCH  17  18
ATOM     18  C   UNL     1       7.734   7.775  -9.060  1.00  0.00    -0.000 C 
BRANCH  18  19
ATOM     19  C   UNL     1       8.763   8.599  -8.269  1.00  0.00    -0.003 C 
ATOM     20  C   UNL     1       8.398   8.755  -6.794  1.00  0.00     0.004 C 
ENDBRANCH  18  19
ENDBRANCH  17  18
ENDBRANCH  16  17
ENDBRANCH  15  16
ENDBRANCH  14  15
ENDBRANCH  13  14
ENDBRANCH   2  13
TORSDOF 15
ENDMDL
MODEL 8
REMARK VINA RESULT:    -4.096     15.593     17.832
REMARK INTER + INTRA:          -9.807
REMARK INTER:                  -7.439
REMARK INTRA:                  -2.368
REMARK UNBOUND:                -2.119
REMARK SMILES CCCCCCCCC=CCCCCCCCC(=O)[O-]
REMARK SMILES IDX 10 1 9 2 11 3 12 4 13 5 14 6 15 7 16 8 17 9 18 10 19 11
REMARK SMILES IDX 20 12 8 13 7 14 6 15 5 16 4 17 3 18 2 19 1 20
REMARK H PARENT
REMARK Flexibility Score: inf
ROOT
ATOM      1  C   UNL     1       7.849   4.867  -0.408  1.00  0.00    -0.031 C 
ATOM      2  C   UNL     1       8.657   5.559   0.417  1.00  0.00    -0.031 C 
ENDROOT
BRANCH   1   3
ATOM      3  C   UNL     1       8.234   4.375  -1.780  1.00  0.00     0.027 C 
BRANCH   3   4
ATOM      4  C   UNL     1       7.402   5.069  -2.865  1.00  0.00     0.004 C 
BRANCH   4   5
ATOM      5  C   UNL     1       8.305   5.688  -3.938  1.00  0.00     0.000 C 
BRANCH   5   6
ATOM      6  C   UNL     1       8.134   7.213  -4.057  1.00  0.00     0.000 C 
BRANCH   6   7
ATOM      7  C   UNL     1       8.255   7.951  -2.707  1.00  0.00     0.000 C 
BRANCH   7   8
ATOM      8  C   UNL     1       7.360   9.202  -2.644  1.00  0.00     0.006 C 
BRANCH   8   9
ATOM      9  C   UNL     1       6.128   8.989  -1.757  1.00  0.00     0.053 C 
BRANCH   9  10
ATOM     10  C   UNL     1       5.095  10.053  -1.977  1.00  0.00     0.041 C 
ATOM     11  O   UNL     1       5.347  11.040  -2.718  1.00  0.00    -0.550 OA
ATOM     12  O   UNL     1       3.864   9.972  -1.336  1.00  0.00    -0.550 OA
ENDBRANCH   9  10
ENDBRANCH   8   9
ENDBRANCH   7   8
ENDBRANCH   6   7
ENDBRANCH   5   6
ENDBRANCH   4   5
ENDBRANCH   3   4
ENDBRANCH   1   3
BRANCH   2  13
ATOM     13  C   UNL     1      10.060   6.009   0.086  1.00  0.00     0.027 C 
BRANCH  13  14
ATOM     14  C   UNL     1      10.271   7.484   0.450  1.00  0.00     0.004 C 
BRANCH  14  15
ATOM     15  C   UNL     1       8.943   8.210   0.708  1.00  0.00     0.000 C 
BRANCH  15  16
ATOM     16  C   UNL     1       9.021   9.069   1.976  1.00  0.00     0.000 C 
BRANCH  16  17
ATOM     17  C   UNL     1      10.065   8.511   2.956  1.00  0.00    -0.000 C 
BRANCH  17  18
ATOM     18  C   UNL     1       9.415   7.712   4.106  1.00  0.00    -0.000 C 
BRANCH  18  19
ATOM     19  C   UNL     1      10.064   6.339   4.343  1.00  0.00    -0.003 C 
ATOM     20  C   UNL     1       9.080   5.180   4.197  1.00  0.00     0.004 C 
ENDBRANCH  18  19
ENDBRANCH  17  18
ENDBRANCH  16  17
ENDBRANCH  15  16
ENDBRANCH  14  15
ENDBRANCH  13  14
ENDBRANCH   2  13
TORSDOF 15
ENDMDL
MODEL 9
REMARK VINA RESULT:    -4.062     15.148     17.808
REMARK INTER + INTRA:          -9.743
REMARK INTER:                  -7.765
REMARK INTRA:                  -1.978
REMARK UNBOUND:                -2.119
REMARK SMILES CCCCCCCCC=CCCCCCCCC(=O)[O-]
REMARK SMILES IDX 10 1 9 2 11 3 12 4 13 5 14 6 15 7 16 8 17 9 18 10 19 11
REMARK SMILES IDX 20 12 8 13 7 14 6 15 5 16 4 17 3 18 2 19 1 20
REMARK H PARENT
REMARK Flexibility Score: inf
ROOT
ATOM      1  C   UNL     1       6.976   5.300  -3.626  1.00  0.00    -0.031 C 
ATOM      2  C   UNL     1       7.667   5.760  -4.686  1.00  0.00    -0.031 C 
ENDROOT
BRANCH   1   3
ATOM      3  C   UNL     1       7.294   5.615  -2.186  1.00  0.00     0.027 C 
BRANCH   3   4
ATOM      4  C   UNL     1       7.779   4.362  -1.446  1.00  0.00     0.004 C 
BRANCH   4   5
ATOM      5  C   UNL     1       9.271   4.467  -1.108  1.00  0.00     0.000 C 
BRANCH   5   6
ATOM      6  C   UNL     1       9.808   5.905  -1.217  1.00  0.00     0.000 C 
BRANCH   6   7
ATOM      7  C   UNL     1      10.432   6.428   0.094  1.00  0.00     0.000 C 
BRANCH   7   8
ATOM      8  C   UNL     1       9.418   6.453   1.252  1.00  0.00     0.006 C 
BRANCH   8   9
ATOM      9  C   UNL     1       9.858   5.569   2.426  1.00  0.00     0.053 C 
BRANCH   9  10
ATOM     10  C   UNL     1       9.261   6.030   3.722  1.00  0.00     0.041 C 
ATOM     11  O   UNL     1       9.197   7.258   3.990  1.00  0.00    -0.550 OA
ATOM     12  O   UNL     1       8.805   5.099   4.648  1.00  0.00    -0.550 OA
ENDBRANCH   9  10
ENDBRANCH   8   9
ENDBRANCH   7   8
ENDBRANCH   6   7
ENDBRANCH   5   6
ENDBRANCH   4   5
ENDBRANCH   3   4
ENDBRANCH   1   3
BRANCH   2  13
ATOM     13  C   UNL     1       8.909   6.616  -4.611  1.00  0.00     0.027 C 
BRANCH  13  14
ATOM     14  C   UNL     1       8.560   8.108  -4.669  1.00  0.00     0.004 C 
BRANCH  14  15
ATOM     15  C   UNL     1       8.782   8.804  -3.318  1.00  0.00     0.000 C 
BRANCH  15  16
ATOM     16  C   UNL     1       7.571   9.665  -2.936  1.00  0.00     0.000 C 
BRANCH  16  17
ATOM     17  C   UNL     1       6.838   9.075  -1.721  1.00  0.00    -0.000 C 
BRANCH  17  18
ATOM     18  C   UNL     1       5.322   9.366  -1.760  1.00  0.00    -0.000 C 
BRANCH  18  19
ATOM     19  C   UNL     1       4.983  10.802  -2.190  1.00  0.00    -0.003 C 
ATOM     20  C   UNL     1       3.608  10.920  -2.845  1.00  0.00     0.004 C 
ENDBRANCH  18  19
ENDBRANCH  17  18
ENDBRANCH  16  17
ENDBRANCH  15  16
ENDBRANCH  14  15
ENDBRANCH  13  14
ENDBRANCH   2  13
TORSDOF 15
ENDMDL
