MODEL 1
REMARK VINA RESULT:    -5.993      0.000      0.000
REMARK INTER + INTRA:          -7.618
REMARK INTER:                  -7.219
REMARK INTRA:                  -0.399
REMARK UNBOUND:                -0.399
REMARK SMILES Oc1cc(O)c2c(c1)O[C@@H](c1ccc(O)c(O)c1)[C@H](O)C2
REMARK SMILES IDX 21 1 19 2 10 3 9 4 7 5 8 6 2 7 3 8 4 9 6 10 20 11 11 13
REMARK SMILES IDX 18 14 12 15 16 16 13 17 14 18 17 19 15 21 5 23 1 25
REMARK H PARENT 20 12 17 20 15 22 5 24 1 26
REMARK Flexibility Score: inf
ROOT
ATOM      1  C   UNL     1     -24.596   4.769  21.059  1.00  0.00     0.079 C 
ATOM      2  C   UNL     1     -24.366   3.771  19.906  1.00  0.00     0.164 C 
ATOM      3  C   UNL     1     -24.863   2.355  20.272  1.00  0.00     0.232 C 
ATOM      4  O   UNL     1     -24.335   1.939  21.536  1.00  0.00    -0.482 OA
ATOM      5  C   UNL     1     -24.053   2.826  22.584  1.00  0.00     0.131 A 
ATOM      6  C   UNL     1     -23.658   2.304  23.818  1.00  0.00     0.093 A 
ATOM      7  C   UNL     1     -23.396   3.155  24.893  1.00  0.00     0.122 A 
ATOM      8  C   UNL     1     -23.534   4.537  24.734  1.00  0.00     0.092 A 
ATOM      9  C   UNL     1     -23.934   5.080  23.507  1.00  0.00     0.126 A 
ATOM     10  C   UNL     1     -24.166   4.223  22.404  1.00  0.00     0.039 A 
ENDROOT
BRANCH   2  11
ATOM     11  O   UNL     1     -23.009   3.739  19.533  1.00  0.00    -0.389 OA
ATOM     12  H   UNL     1     -22.956   3.414  18.596  1.00  0.00     0.211 HD
ENDBRANCH   2  11
BRANCH   3  13
ATOM     13  C   UNL     1     -26.378   2.272  20.244  1.00  0.00    -0.001 A 
ATOM     14  C   UNL     1     -27.042   2.316  19.006  1.00  0.00     0.057 A 
ATOM     15  C   UNL     1     -27.144   2.183  21.422  1.00  0.00     0.012 A 
ATOM     16  C   UNL     1     -28.438   2.257  18.938  1.00  0.00     0.157 A 
ATOM     17  C   UNL     1     -28.539   2.120  21.357  1.00  0.00     0.050 A 
ATOM     18  C   UNL     1     -29.192   2.156  20.119  1.00  0.00     0.157 A 
BRANCH  16  19
ATOM     19  O   UNL     1     -29.058   2.295  17.689  1.00  0.00    -0.504 OA
ATOM     20  H   UNL     1     -29.822   1.675  17.448  1.00  0.00     0.293 HD
ENDBRANCH  16  19
BRANCH  18  21
ATOM     21  O   UNL     1     -30.584   2.096  20.058  1.00  0.00    -0.504 OA
ATOM     22  H   UNL     1     -31.167   2.644  20.680  1.00  0.00     0.293 HD
ENDBRANCH  18  21
ENDBRANCH   3  13
BRANCH   9  23
ATOM     23  O   UNL     1     -24.104   6.464  23.427  1.00  0.00    -0.507 OA
ATOM     24  H   UNL     1     -24.932   6.946  23.754  1.00  0.00     0.293 HD
ENDBRANCH   9  23
BRANCH   7  25
ATOM     25  O   UNL     1     -23.002   2.616  26.117  1.00  0.00    -0.508 OA
ATOM     26  H   UNL     1     -23.675   2.424  26.850  1.00  0.00     0.293 HD
ENDBRANCH   7  25
TORSDOF 6
ENDMDL
MODEL 2
REMARK VINA RESULT:    -5.810      5.814      9.098
REMARK INTER + INTRA:          -7.397
REMARK INTER:                  -6.918
REMARK INTRA:                  -0.479
REMARK UNBOUND:                -0.399
REMARK SMILES Oc1cc(O)c2c(c1)O[C@@H](c1ccc(O)c(O)c1)[C@H](O)C2
REMARK SMILES IDX 21 1 19 2 10 3 9 4 7 5 8 6 2 7 3 8 4 9 6 10 20 11 11 13
REMARK SMILES IDX 18 14 12 15 16 16 13 17 14 18 17 19 15 21 5 23 1 25
REMARK H PARENT 20 12 17 20 15 22 5 24 1 26
REMARK Flexibility Score: inf
ROOT
ATOM      1  C   UNL     1     -32.218   3.736  23.061  1.00  0.00     0.079 C 
ATOM      2  C   UNL     1     -31.628   4.687  22.001  1.00  0.00     0.164 C 
ATOM      3  C   UNL     1     -31.198   6.034  22.623  1.00  0.00     0.232 C 
ATOM      4  O   UNL     1     -32.255   6.596  23.407  1.00  0.00    -0.482 OA
ATOM      5  C   UNL     1     -33.193   5.822  24.104  1.00  0.00     0.131 A 
ATOM      6  C   UNL     1     -34.109   6.468  24.940  1.00  0.00     0.093 A 
ATOM      7  C   UNL     1     -35.040   5.729  25.671  1.00  0.00     0.122 A 
ATOM      8  C   UNL     1     -35.053   4.334  25.570  1.00  0.00     0.092 A 
ATOM      9  C   UNL     1     -34.141   3.668  24.743  1.00  0.00     0.126 A 
ATOM     10  C   UNL     1     -33.219   4.416  23.972  1.00  0.00     0.039 A 
ENDROOT
BRANCH   2  11
ATOM     11  O   UNL     1     -32.541   4.896  20.950  1.00  0.00    -0.389 OA
ATOM     12  H   UNL     1     -32.890   5.822  21.026  1.00  0.00     0.211 HD
ENDBRANCH   2  11
BRANCH   3  13
ATOM     13  C   UNL     1     -29.918   5.893  23.427  1.00  0.00    -0.001 A 
ATOM     14  C   UNL     1     -29.648   6.819  24.449  1.00  0.00     0.057 A 
ATOM     15  C   UNL     1     -28.975   4.882  23.160  1.00  0.00     0.012 A 
ATOM     16  C   UNL     1     -28.472   6.733  25.203  1.00  0.00     0.157 A 
ATOM     17  C   UNL     1     -27.802   4.791  23.914  1.00  0.00     0.050 A 
ATOM     18  C   UNL     1     -27.545   5.712  24.937  1.00  0.00     0.157 A 
BRANCH  16  19
ATOM     19  O   UNL     1     -28.246   7.666  26.214  1.00  0.00    -0.504 OA
ATOM     20  H   UNL     1     -27.654   8.477  26.078  1.00  0.00     0.293 HD
ENDBRANCH  16  19
BRANCH  18  21
ATOM     21  O   UNL     1     -26.372   5.620  25.685  1.00  0.00    -0.504 OA
ATOM     22  H   UNL     1     -26.391   5.544  26.695  1.00  0.00     0.293 HD
ENDBRANCH  18  21
ENDBRANCH   3  13
BRANCH   9  23
ATOM     23  O   UNL     1     -34.170   2.271  24.725  1.00  0.00    -0.507 OA
ATOM     24  H   UNL     1     -34.447   1.707  25.518  1.00  0.00     0.293 HD
ENDBRANCH   9  23
BRANCH   7  25
ATOM     25  O   UNL     1     -35.945   6.390  26.499  1.00  0.00    -0.508 OA
ATOM     26  H   UNL     1     -36.547   7.124  26.144  1.00  0.00     0.293 HD
ENDBRANCH   7  25
TORSDOF 6
ENDMDL
MODEL 3
REMARK VINA RESULT:    -5.800      8.258     10.095
REMARK INTER + INTRA:          -7.385
REMARK INTER:                  -6.899
REMARK INTRA:                  -0.485
REMARK UNBOUND:                -0.399
REMARK SMILES Oc1cc(O)c2c(c1)O[C@@H](c1ccc(O)c(O)c1)[C@H](O)C2
REMARK SMILES IDX 21 1 19 2 10 3 9 4 7 5 8 6 2 7 3 8 4 9 6 10 20 11 11 13
REMARK SMILES IDX 18 14 12 15 16 16 13 17 14 18 17 19 15 21 5 23 1 25
REMARK H PARENT 20 12 17 20 15 22 5 24 1 26
REMARK Flexibility Score: inf
ROOT
ATOM      1  C   UNL     1     -28.204  -2.785  16.157  1.00  0.00     0.079 C 
ATOM      2  C   UNL     1     -29.302  -3.328  15.221  1.00  0.00     0.164 C 
ATOM      3  C   UNL     1     -29.531  -4.841  15.430  1.00  0.00     0.232 C 
ATOM      4  O   UNL     1     -28.293  -5.558  15.378  1.00  0.00    -0.482 OA
ATOM      5  C   UNL     1     -27.070  -5.016  15.796  1.00  0.00     0.131 A 
ATOM      6  C   UNL     1     -25.942  -5.841  15.818  1.00  0.00     0.093 A 
ATOM      7  C   UNL     1     -24.713  -5.345  16.255  1.00  0.00     0.122 A 
ATOM      8  C   UNL     1     -24.611  -4.015  16.676  1.00  0.00     0.092 A 
ATOM      9  C   UNL     1     -25.730  -3.174  16.666  1.00  0.00     0.126 A 
ATOM     10  C   UNL     1     -26.970  -3.663  16.190  1.00  0.00     0.039 A 
ENDROOT
BRANCH   2  11
ATOM     11  O   UNL     1     -28.993  -3.056  13.875  1.00  0.00    -0.389 OA
ATOM     12  H   UNL     1     -29.619  -3.574  13.305  1.00  0.00     0.211 HD
ENDBRANCH   2  11
BRANCH   3  13
ATOM     13  C   UNL     1     -30.283  -5.118  16.720  1.00  0.00    -0.001 A 
ATOM     14  C   UNL     1     -31.537  -4.516  16.922  1.00  0.00     0.057 A 
ATOM     15  C   UNL     1     -29.750  -5.934  17.736  1.00  0.00     0.012 A 
ATOM     16  C   UNL     1     -32.255  -4.733  18.104  1.00  0.00     0.157 A 
ATOM     17  C   UNL     1     -30.467  -6.156  18.915  1.00  0.00     0.050 A 
ATOM     18  C   UNL     1     -31.719  -5.560  19.105  1.00  0.00     0.157 A 
BRANCH  16  19
ATOM     19  O   UNL     1     -33.500  -4.125  18.261  1.00  0.00    -0.504 OA
ATOM     20  H   UNL     1     -34.199  -4.485  18.900  1.00  0.00     0.293 HD
ENDBRANCH  16  19
BRANCH  18  21
ATOM     21  O   UNL     1     -32.430  -5.781  20.284  1.00  0.00    -0.504 OA
ATOM     22  H   UNL     1     -32.478  -6.699  20.710  1.00  0.00     0.293 HD
ENDBRANCH  18  21
ENDBRANCH   3  13
BRANCH   9  23
ATOM     23  O   UNL     1     -25.576  -1.871  17.147  1.00  0.00    -0.507 OA
ATOM     24  H   UNL     1     -25.674  -1.046  16.570  1.00  0.00     0.293 HD
ENDBRANCH   9  23
BRANCH   7  25
ATOM     25  O   UNL     1     -23.599  -6.182  16.271  1.00  0.00    -0.508 OA
ATOM     26  H   UNL     1     -23.506  -6.925  16.954  1.00  0.00     0.293 HD
ENDBRANCH   7  25
TORSDOF 6
ENDMDL
MODEL 4
REMARK VINA RESULT:    -5.785      4.569      6.946
REMARK INTER + INTRA:          -7.367
REMARK INTER:                  -6.842
REMARK INTRA:                  -0.525
REMARK UNBOUND:                -0.399
REMARK SMILES Oc1cc(O)c2c(c1)O[C@@H](c1ccc(O)c(O)c1)[C@H](O)C2
REMARK SMILES IDX 21 1 19 2 10 3 9 4 7 5 8 6 2 7 3 8 4 9 6 10 20 11 11 13
REMARK SMILES IDX 18 14 12 15 16 16 13 17 14 18 17 19 15 21 5 23 1 25
REMARK H PARENT 20 12 17 20 15 22 5 24 1 26
REMARK Flexibility Score: inf
ROOT
ATOM      1  C   UNL     1     -21.818   0.907  25.546  1.00  0.00     0.079 C 
ATOM      2  C   UNL     1     -20.632   1.833  25.881  1.00  0.00     0.164 C 
ATOM      3  C   UNL     1     -20.640   3.106  25.004  1.00  0.00     0.232 C 
ATOM      4  O   UNL     1     -20.764   2.770  23.618  1.00  0.00    -0.482 OA
ATOM      5  C   UNL     1     -21.469   1.651  23.156  1.00  0.00     0.131 A 
ATOM      6  C   UNL     1     -21.633   1.484  21.778  1.00  0.00     0.093 A 
ATOM      7  C   UNL     1     -22.353   0.396  21.281  1.00  0.00     0.122 A 
ATOM      8  C   UNL     1     -22.916  -0.528  22.166  1.00  0.00     0.092 A 
ATOM      9  C   UNL     1     -22.767  -0.375  23.550  1.00  0.00     0.126 A 
ATOM     10  C   UNL     1     -22.007   0.706  24.057  1.00  0.00     0.039 A 
ENDROOT
BRANCH   2  11
ATOM     11  O   UNL     1     -19.408   1.151  25.750  1.00  0.00    -0.389 OA
ATOM     12  H   UNL     1     -19.604   0.223  25.457  1.00  0.00     0.211 HD
ENDBRANCH   2  11
BRANCH   3  13
ATOM     13  C   UNL     1     -21.720   4.078  25.444  1.00  0.00    -0.001 A 
ATOM     14  C   UNL     1     -22.502   4.718  24.467  1.00  0.00     0.057 A 
ATOM     15  C   UNL     1     -21.943   4.385  26.800  1.00  0.00     0.012 A 
ATOM     16  C   UNL     1     -23.496   5.633  24.831  1.00  0.00     0.157 A 
ATOM     17  C   UNL     1     -22.938   5.294  27.166  1.00  0.00     0.050 A 
ATOM     18  C   UNL     1     -23.719   5.921  26.187  1.00  0.00     0.157 A 
BRANCH  16  19
ATOM     19  O   UNL     1     -24.257   6.239  23.831  1.00  0.00    -0.504 OA
ATOM     20  H   UNL     1     -24.368   5.826  22.912  1.00  0.00     0.293 HD
ENDBRANCH  16  19
BRANCH  18  21
ATOM     21  O   UNL     1     -24.709   6.831  26.556  1.00  0.00    -0.504 OA
ATOM     22  H   UNL     1     -25.692   6.635  26.406  1.00  0.00     0.293 HD
ENDBRANCH  18  21
ENDBRANCH   3  13
BRANCH   9  23
ATOM     23  O   UNL     1     -23.397  -1.302  24.384  1.00  0.00    -0.507 OA
ATOM     24  H   UNL     1     -24.332  -1.653  24.225  1.00  0.00     0.293 HD
ENDBRANCH   9  23
BRANCH   7  25
ATOM     25  O   UNL     1     -22.506   0.245  19.903  1.00  0.00    -0.508 OA
ATOM     26  H   UNL     1     -22.104   0.907  19.251  1.00  0.00     0.293 HD
ENDBRANCH   7  25
TORSDOF 6
ENDMDL
MODEL 5
REMARK VINA RESULT:    -5.750     11.443     13.668
REMARK INTER + INTRA:          -7.325
REMARK INTER:                  -6.814
REMARK INTRA:                  -0.510
REMARK UNBOUND:                -0.399
REMARK SMILES Oc1cc(O)c2c(c1)O[C@@H](c1ccc(O)c(O)c1)[C@H](O)C2
REMARK SMILES IDX 21 1 19 2 10 3 9 4 7 5 8 6 2 7 3 8 4 9 6 10 20 11 11 13
REMARK SMILES IDX 18 14 12 15 16 16 13 17 14 18 17 19 15 21 5 23 1 25
REMARK H PARENT 20 12 17 20 15 22 5 24 1 26
REMARK Flexibility Score: inf
ROOT
ATOM      1  C   UNL     1     -28.983   8.228  31.454  1.00  0.00     0.079 C 
ATOM      2  C   UNL     1     -28.358   8.873  32.707  1.00  0.00     0.164 C 
ATOM      3  C   UNL     1     -28.516   7.970  33.950  1.00  0.00     0.232 C 
ATOM      4  O   UNL     1     -29.876   7.552  34.109  1.00  0.00    -0.482 OA
ATOM      5  C   UNL     1     -30.749   7.344  33.032  1.00  0.00     0.131 A 
ATOM      6  C   UNL     1     -32.018   6.817  33.289  1.00  0.00     0.093 A 
ATOM      7  C   UNL     1     -32.905   6.571  32.240  1.00  0.00     0.122 A 
ATOM      8  C   UNL     1     -32.519   6.849  30.924  1.00  0.00     0.092 A 
ATOM      9  C   UNL     1     -31.251   7.372  30.646  1.00  0.00     0.126 A 
ATOM     10  C   UNL     1     -30.362   7.657  31.710  1.00  0.00     0.039 A 
ENDROOT
BRANCH   2  11
ATOM     11  O   UNL     1     -28.911  10.145  32.945  1.00  0.00    -0.389 OA
ATOM     12  H   UNL     1     -29.281  10.485  32.089  1.00  0.00     0.211 HD
ENDBRANCH   2  11
BRANCH   3  13
ATOM     13  C   UNL     1     -27.568   6.785  33.903  1.00  0.00    -0.001 A 
ATOM     14  C   UNL     1     -26.214   7.005  33.599  1.00  0.00     0.057 A 
ATOM     15  C   UNL     1     -28.009   5.466  34.123  1.00  0.00     0.012 A 
ATOM     16  C   UNL     1     -25.312   5.938  33.530  1.00  0.00     0.157 A 
ATOM     17  C   UNL     1     -27.109   4.399  34.059  1.00  0.00     0.050 A 
ATOM     18  C   UNL     1     -25.760   4.627  33.764  1.00  0.00     0.157 A 
BRANCH  16  19
ATOM     19  O   UNL     1     -23.974   6.200  33.234  1.00  0.00    -0.504 OA
ATOM     20  H   UNL     1     -23.303   5.459  33.068  1.00  0.00     0.293 HD
ENDBRANCH  16  19
BRANCH  18  21
ATOM     21  O   UNL     1     -24.865   3.560  33.698  1.00  0.00    -0.504 OA
ATOM     22  H   UNL     1     -23.885   3.701  33.483  1.00  0.00     0.293 HD
ENDBRANCH  18  21
ENDBRANCH   3  13
BRANCH   9  23
ATOM     23  O   UNL     1     -30.906   7.579  29.308  1.00  0.00    -0.507 OA
ATOM     24  H   UNL     1     -31.227   8.369  28.763  1.00  0.00     0.293 HD
ENDBRANCH   9  23
BRANCH   7  25
ATOM     25  O   UNL     1     -34.166   6.046  32.515  1.00  0.00    -0.508 OA
ATOM     26  H   UNL     1     -35.006   6.602  32.406  1.00  0.00     0.293 HD
ENDBRANCH   7  25
TORSDOF 6
ENDMDL
MODEL 6
REMARK VINA RESULT:    -5.688      8.505     11.314
REMARK INTER + INTRA:          -7.251
REMARK INTER:                  -6.778
REMARK INTRA:                  -0.473
REMARK UNBOUND:                -0.399
REMARK SMILES Oc1cc(O)c2c(c1)O[C@@H](c1ccc(O)c(O)c1)[C@H](O)C2
REMARK SMILES IDX 21 1 19 2 10 3 9 4 7 5 8 6 2 7 3 8 4 9 6 10 20 11 11 13
REMARK SMILES IDX 18 14 12 15 16 16 13 17 14 18 17 19 15 21 5 23 1 25
REMARK H PARENT 20 12 17 20 15 22 5 24 1 26
REMARK Flexibility Score: inf
ROOT
ATOM      1  C   UNL     1     -36.554   1.438  24.227  1.00  0.00     0.079 C 
ATOM      2  C   UNL     1     -35.167   1.987  24.615  1.00  0.00     0.164 C 
ATOM      3  C   UNL     1     -34.029   1.137  24.009  1.00  0.00     0.232 C 
ATOM      4  O   UNL     1     -34.222  -0.252  24.294  1.00  0.00    -0.482 OA
ATOM      5  C   UNL     1     -35.485  -0.845  24.422  1.00  0.00     0.131 A 
ATOM      6  C   UNL     1     -35.564  -2.232  24.578  1.00  0.00     0.093 A 
ATOM      7  C   UNL     1     -36.806  -2.860  24.682  1.00  0.00     0.122 A 
ATOM      8  C   UNL     1     -37.977  -2.098  24.625  1.00  0.00     0.092 A 
ATOM      9  C   UNL     1     -37.920  -0.709  24.465  1.00  0.00     0.126 A 
ATOM     10  C   UNL     1     -36.662  -0.063  24.396  1.00  0.00     0.039 A 
ENDROOT
BRANCH   2  11
ATOM     11  O   UNL     1     -35.033   2.069  26.014  1.00  0.00    -0.389 OA
ATOM     12  H   UNL     1     -34.766   2.998  26.243  1.00  0.00     0.211 HD
ENDBRANCH   2  11
BRANCH   3  13
ATOM     13  C   UNL     1     -33.878   1.388  22.519  1.00  0.00    -0.001 A 
ATOM     14  C   UNL     1     -33.612   2.692  22.069  1.00  0.00     0.057 A 
ATOM     15  C   UNL     1     -34.029   0.359  21.569  1.00  0.00     0.012 A 
ATOM     16  C   UNL     1     -33.482   2.967  20.703  1.00  0.00     0.157 A 
ATOM     17  C   UNL     1     -33.895   0.631  20.205  1.00  0.00     0.050 A 
ATOM     18  C   UNL     1     -33.622   1.931  19.765  1.00  0.00     0.157 A 
BRANCH  16  19
ATOM     19  O   UNL     1     -33.208   4.273  20.299  1.00  0.00    -0.504 OA
ATOM     20  H   UNL     1     -32.814   4.485  19.390  1.00  0.00     0.293 HD
ENDBRANCH  16  19
BRANCH  18  21
ATOM     21  O   UNL     1     -33.492   2.198  18.403  1.00  0.00    -0.504 OA
ATOM     22  H   UNL     1     -32.584   2.252  17.957  1.00  0.00     0.293 HD
ENDBRANCH  18  21
ENDBRANCH   3  13
BRANCH   9  23
ATOM     23  O   UNL     1     -39.125  -0.010  24.364  1.00  0.00    -0.507 OA
ATOM     24  H   UNL     1     -39.770  -0.115  23.592  1.00  0.00     0.293 HD
ENDBRANCH   9  23
BRANCH   7  25
ATOM     25  O   UNL     1     -36.865  -4.244  24.836  1.00  0.00    -0.508 OA
ATOM     26  H   UNL     1     -37.749  -4.739  24.830  1.00  0.00     0.293 HD
ENDBRANCH   7  25
TORSDOF 6
ENDMDL
MODEL 7
REMARK VINA RESULT:    -5.677      6.643      9.828
REMARK INTER + INTRA:          -7.237
REMARK INTER:                  -6.712
REMARK INTRA:                  -0.525
REMARK UNBOUND:                -0.399
REMARK SMILES Oc1cc(O)c2c(c1)O[C@@H](c1ccc(O)c(O)c1)[C@H](O)C2
REMARK SMILES IDX 21 1 19 2 10 3 9 4 7 5 8 6 2 7 3 8 4 9 6 10 20 11 11 13
REMARK SMILES IDX 18 14 12 15 16 16 13 17 14 18 17 19 15 21 5 23 1 25
REMARK H PARENT 20 12 17 20 15 22 5 24 1 26
REMARK Flexibility Score: inf
ROOT
ATOM      1  C   UNL     1     -24.204   4.241  31.850  1.00  0.00     0.079 C 
ATOM      2  C   UNL     1     -24.134   3.000  30.938  1.00  0.00     0.164 C 
ATOM      3  C   UNL     1     -25.168   3.077  29.793  1.00  0.00     0.232 C 
ATOM      4  O   UNL     1     -26.473   3.372  30.302  1.00  0.00    -0.482 OA
ATOM      5  C   UNL     1     -26.697   4.157  31.441  1.00  0.00     0.131 A 
ATOM      6  C   UNL     1     -28.012   4.487  31.781  1.00  0.00     0.093 A 
ATOM      7  C   UNL     1     -28.273   5.289  32.893  1.00  0.00     0.122 A 
ATOM      8  C   UNL     1     -27.212   5.769  33.668  1.00  0.00     0.092 A 
ATOM      9  C   UNL     1     -25.888   5.453  33.341  1.00  0.00     0.126 A 
ATOM     10  C   UNL     1     -25.621   4.610  32.236  1.00  0.00     0.039 A 
ENDROOT
BRANCH   2  11
ATOM     11  O   UNL     1     -24.309   1.819  31.683  1.00  0.00    -0.389 OA
ATOM     12  H   UNL     1     -23.784   1.904  32.522  1.00  0.00     0.211 HD
ENDBRANCH   2  11
BRANCH   3  13
ATOM     13  C   UNL     1     -24.745   4.071  28.726  1.00  0.00    -0.001 A 
ATOM     14  C   UNL     1     -25.732   4.794  28.035  1.00  0.00     0.057 A 
ATOM     15  C   UNL     1     -23.394   4.270  28.384  1.00  0.00     0.012 A 
ATOM     16  C   UNL     1     -25.384   5.707  27.034  1.00  0.00     0.157 A 
ATOM     17  C   UNL     1     -23.043   5.185  27.388  1.00  0.00     0.050 A 
ATOM     18  C   UNL     1     -24.032   5.907  26.710  1.00  0.00     0.157 A 
BRANCH  16  19
ATOM     19  O   UNL     1     -26.394   6.411  26.378  1.00  0.00    -0.504 OA
ATOM     20  H   UNL     1     -27.093   6.945  26.881  1.00  0.00     0.293 HD
ENDBRANCH  16  19
BRANCH  18  21
ATOM     21  O   UNL     1     -23.679   6.817  25.714  1.00  0.00    -0.504 OA
ATOM     22  H   UNL     1     -24.301   7.566  25.435  1.00  0.00     0.293 HD
ENDBRANCH  18  21
ENDBRANCH   3  13
BRANCH   9  23
ATOM     23  O   UNL     1     -24.870   6.005  34.123  1.00  0.00    -0.507 OA
ATOM     24  H   UNL     1     -24.309   5.468  34.772  1.00  0.00     0.293 HD
ENDBRANCH   9  23
BRANCH   7  25
ATOM     25  O   UNL     1     -29.590   5.608  33.217  1.00  0.00    -0.508 OA
ATOM     26  H   UNL     1     -29.997   6.500  32.959  1.00  0.00     0.293 HD
ENDBRANCH   7  25
TORSDOF 6
ENDMDL
MODEL 8
REMARK VINA RESULT:    -5.639      6.109      9.220
REMARK INTER + INTRA:          -7.192
REMARK INTER:                  -6.669
REMARK INTRA:                  -0.523
REMARK UNBOUND:                -0.399
REMARK SMILES Oc1cc(O)c2c(c1)O[C@@H](c1ccc(O)c(O)c1)[C@H](O)C2
REMARK SMILES IDX 21 1 19 2 10 3 9 4 7 5 8 6 2 7 3 8 4 9 6 10 20 11 11 13
REMARK SMILES IDX 18 14 12 15 16 16 13 17 14 18 17 19 15 21 5 23 1 25
REMARK H PARENT 20 12 17 20 15 22 5 24 1 26
REMARK Flexibility Score: inf
ROOT
ATOM      1  C   UNL     1     -25.818   5.623  27.473  1.00  0.00     0.079 C 
ATOM      2  C   UNL     1     -26.916   4.678  28.000  1.00  0.00     0.164 C 
ATOM      3  C   UNL     1     -26.345   3.637  28.988  1.00  0.00     0.232 C 
ATOM      4  O   UNL     1     -25.204   2.976  28.431  1.00  0.00    -0.482 OA
ATOM      5  C   UNL     1     -24.315   3.591  27.540  1.00  0.00     0.131 A 
ATOM      6  C   UNL     1     -23.165   2.897  27.152  1.00  0.00     0.093 A 
ATOM      7  C   UNL     1     -22.243   3.488  26.287  1.00  0.00     0.122 A 
ATOM      8  C   UNL     1     -22.468   4.784  25.811  1.00  0.00     0.092 A 
ATOM      9  C   UNL     1     -23.610   5.497  26.192  1.00  0.00     0.126 A 
ATOM     10  C   UNL     1     -24.567   4.888  27.040  1.00  0.00     0.039 A 
ENDROOT
BRANCH   2  11
ATOM     11  O   UNL     1     -27.581   4.038  26.937  1.00  0.00    -0.389 OA
ATOM     12  H   UNL     1     -27.865   3.139  27.249  1.00  0.00     0.211 HD
ENDBRANCH   2  11
BRANCH   3  13
ATOM     13  C   UNL     1     -26.026   4.264  30.334  1.00  0.00    -0.001 A 
ATOM     14  C   UNL     1     -24.814   3.942  30.968  1.00  0.00     0.057 A 
ATOM     15  C   UNL     1     -26.922   5.134  30.984  1.00  0.00     0.012 A 
ATOM     16  C   UNL     1     -24.491   4.485  32.216  1.00  0.00     0.157 A 
ATOM     17  C   UNL     1     -26.599   5.682  32.229  1.00  0.00     0.050 A 
ATOM     18  C   UNL     1     -25.386   5.362  32.850  1.00  0.00     0.157 A 
BRANCH  16  19
ATOM     19  O   UNL     1     -23.273   4.147  32.807  1.00  0.00    -0.504 OA
ATOM     20  H   UNL     1     -23.094   3.223  33.181  1.00  0.00     0.293 HD
ENDBRANCH  16  19
BRANCH  18  21
ATOM     21  O   UNL     1     -25.069   5.909  34.093  1.00  0.00    -0.504 OA
ATOM     22  H   UNL     1     -25.171   5.376  34.948  1.00  0.00     0.293 HD
ENDBRANCH  18  21
ENDBRANCH   3  13
BRANCH   9  23
ATOM     23  O   UNL     1     -23.753   6.806  25.724  1.00  0.00    -0.507 OA
ATOM     24  H   UNL     1     -23.161   7.214  25.012  1.00  0.00     0.293 HD
ENDBRANCH   9  23
BRANCH   7  25
ATOM     25  O   UNL     1     -21.102   2.781  25.911  1.00  0.00    -0.508 OA
ATOM     26  H   UNL     1     -21.031   1.780  26.050  1.00  0.00     0.293 HD
ENDBRANCH   7  25
TORSDOF 6
ENDMDL
MODEL 9
REMARK VINA RESULT:    -5.589      8.008     10.034
REMARK INTER + INTRA:          -7.132
REMARK INTER:                  -6.604
REMARK INTRA:                  -0.528
REMARK UNBOUND:                -0.399
REMARK SMILES Oc1cc(O)c2c(c1)O[C@@H](c1ccc(O)c(O)c1)[C@H](O)C2
REMARK SMILES IDX 21 1 19 2 10 3 9 4 7 5 8 6 2 7 3 8 4 9 6 10 20 11 11 13
REMARK SMILES IDX 18 14 12 15 16 16 13 17 14 18 17 19 15 21 5 23 1 25
REMARK H PARENT 20 12 17 20 15 22 5 24 1 26
REMARK Flexibility Score: inf
ROOT
ATOM      1  C   UNL     1     -32.609  -4.228  20.214  1.00  0.00     0.079 C 
ATOM      2  C   UNL     1     -31.945  -3.744  21.518  1.00  0.00     0.164 C 
ATOM      3  C   UNL     1     -31.246  -2.380  21.328  1.00  0.00     0.232 C 
ATOM      4  O   UNL     1     -30.378  -2.405  20.190  1.00  0.00    -0.482 OA
ATOM      5  C   UNL     1     -30.625  -3.179  19.049  1.00  0.00     0.131 A 
ATOM      6  C   UNL     1     -29.781  -3.036  17.944  1.00  0.00     0.093 A 
ATOM      7  C   UNL     1     -30.012  -3.770  16.780  1.00  0.00     0.122 A 
ATOM      8  C   UNL     1     -31.098  -4.650  16.717  1.00  0.00     0.092 A 
ATOM      9  C   UNL     1     -31.958  -4.804  17.811  1.00  0.00     0.126 A 
ATOM     10  C   UNL     1     -31.706  -4.088  19.006  1.00  0.00     0.039 A 
ENDROOT
BRANCH   2  11
ATOM     11  O   UNL     1     -31.037  -4.702  22.005  1.00  0.00    -0.389 OA
ATOM     12  H   UNL     1     -30.683  -5.212  21.230  1.00  0.00     0.211 HD
ENDBRANCH   2  11
BRANCH   3  13
ATOM     13  C   UNL     1     -32.251  -1.245  21.241  1.00  0.00    -0.001 A 
ATOM     14  C   UNL     1     -32.056  -0.230  20.289  1.00  0.00     0.057 A 
ATOM     15  C   UNL     1     -33.359  -1.160  22.107  1.00  0.00     0.012 A 
ATOM     16  C   UNL     1     -32.950   0.841  20.188  1.00  0.00     0.157 A 
ATOM     17  C   UNL     1     -34.256  -0.094  22.005  1.00  0.00     0.050 A 
ATOM     18  C   UNL     1     -34.059   0.908  21.048  1.00  0.00     0.157 A 
BRANCH  16  19
ATOM     19  O   UNL     1     -32.725   1.823  19.224  1.00  0.00    -0.504 OA
ATOM     20  H   UNL     1     -32.342   2.731  19.458  1.00  0.00     0.293 HD
ENDBRANCH  16  19
BRANCH  18  21
ATOM     21  O   UNL     1     -34.955   1.972  20.951  1.00  0.00    -0.504 OA
ATOM     22  H   UNL     1     -34.876   2.789  21.545  1.00  0.00     0.293 HD
ENDBRANCH  18  21
ENDBRANCH   3  13
BRANCH   9  23
ATOM     23  O   UNL     1     -33.054  -5.658  17.668  1.00  0.00    -0.507 OA
ATOM     24  H   UNL     1     -33.697  -5.618  16.888  1.00  0.00     0.293 HD
ENDBRANCH   9  23
BRANCH   7  25
ATOM     25  O   UNL     1     -29.159  -3.615  15.688  1.00  0.00    -0.508 OA
ATOM     26  H   UNL     1     -29.269  -2.846  15.038  1.00  0.00     0.293 HD
ENDBRANCH   7  25
TORSDOF 6
ENDMDL
