MODEL 1
REMARK VINA RESULT:    -5.809      0.000      0.000
REMARK INTER + INTRA:          -7.112
REMARK INTER:                  -6.828
REMARK INTRA:                  -0.285
REMARK UNBOUND:                -0.285
REMARK SMILES COc1cc2ccc(=O)oc2c(OC)c1OC
REMARK SMILES IDX 3 1 15 2 12 3 11 4 5 5 4 6 6 7 7 8 8 9 9 10 10 11 2 12 1 13
REMARK SMILES IDX 16 14 17 15 13 16 14 17
REMARK H PARENT
REMARK Flexibility Score: inf
ROOT
ATOM      1  C   UNL     1      -3.642  14.480   8.541  1.00  0.00     0.165 A 
ATOM      2  C   UNL     1      -4.722  14.849   9.386  1.00  0.00     0.207 A 
ATOM      3  C   UNL     1      -6.043  14.814   8.901  1.00  0.00     0.208 A 
ATOM      4  C   UNL     1      -6.295  14.410   7.568  1.00  0.00     0.184 A 
ATOM      5  C   UNL     1      -5.216  14.045   6.734  1.00  0.00     0.025 A 
ATOM      6  C   UNL     1      -3.908  14.081   7.219  1.00  0.00     0.062 A 
ATOM      7  C   UNL     1      -5.485  13.648   5.419  1.00  0.00     0.020 A 
ATOM      8  C   UNL     1      -6.801  13.623   4.965  1.00  0.00     0.094 A 
ATOM      9  C   UNL     1      -7.821  13.997   5.841  1.00  0.00     0.336 A 
ATOM     10  O   UNL     1      -9.018  13.983   5.454  1.00  0.00    -0.246 OA
ATOM     11  O   UNL     1      -7.535  14.369   7.085  1.00  0.00    -0.419 OA
ENDROOT
BRANCH   1  12
ATOM     12  O   UNL     1      -2.326  14.517   9.030  1.00  0.00    -0.493 OA
ATOM     13  C   UNL     1      -1.341  15.476   8.659  1.00  0.00     0.278 C 
ENDBRANCH   1  12
BRANCH   2  14
ATOM     14  O   UNL     1      -4.557  15.263  10.723  1.00  0.00    -0.490 OA
ATOM     15  C   UNL     1      -4.137  16.548  11.171  1.00  0.00     0.278 C 
ENDBRANCH   2  14
BRANCH   3  16
ATOM     16  O   UNL     1      -7.060  15.196   9.799  1.00  0.00    -0.490 OA
ATOM     17  C   UNL     1      -7.733  16.449   9.833  1.00  0.00     0.278 C 
ENDBRANCH   3  16
TORSDOF 3
ENDMDL
MODEL 2
REMARK VINA RESULT:    -5.462      2.473      5.300
REMARK INTER + INTRA:          -6.705
REMARK INTER:                  -6.436
REMARK INTRA:                  -0.269
REMARK UNBOUND:                -0.285
REMARK SMILES COc1cc2ccc(=O)oc2c(OC)c1OC
REMARK SMILES IDX 3 1 15 2 12 3 11 4 5 5 4 6 6 7 7 8 8 9 9 10 10 11 2 12 1 13
REMARK SMILES IDX 16 14 17 15 13 16 14 17
REMARK H PARENT
REMARK Flexibility Score: inf
ROOT
ATOM      1  C   UNL     1      -9.878  16.123   6.263  1.00  0.00     0.165 A 
ATOM      2  C   UNL     1      -9.331  16.587   7.488  1.00  0.00     0.207 A 
ATOM      3  C   UNL     1      -8.039  16.190   7.881  1.00  0.00     0.208 A 
ATOM      4  C   UNL     1      -7.284  15.327   7.052  1.00  0.00     0.184 A 
ATOM      5  C   UNL     1      -7.834  14.869   5.837  1.00  0.00     0.025 A 
ATOM      6  C   UNL     1      -9.116  15.265   5.450  1.00  0.00     0.062 A 
ATOM      7  C   UNL     1      -7.072  14.016   5.030  1.00  0.00     0.020 A 
ATOM      8  C   UNL     1      -5.797  13.639   5.442  1.00  0.00     0.094 A 
ATOM      9  C   UNL     1      -5.312  14.127   6.658  1.00  0.00     0.336 A 
ATOM     10  O   UNL     1      -4.163  13.801   7.052  1.00  0.00    -0.246 OA
ATOM     11  O   UNL     1      -6.059  14.937   7.402  1.00  0.00    -0.419 OA
ENDROOT
BRANCH   1  12
ATOM     12  O   UNL     1     -11.168  16.521   5.875  1.00  0.00    -0.493 OA
ATOM     13  C   UNL     1     -12.371  15.831   6.199  1.00  0.00     0.278 C 
ENDBRANCH   1  12
BRANCH   2  14
ATOM     14  O   UNL     1     -10.017  17.447   8.369  1.00  0.00    -0.490 OA
ATOM     15  C   UNL     1     -10.980  17.072   9.349  1.00  0.00     0.278 C 
ENDBRANCH   2  14
BRANCH   3  16
ATOM     16  O   UNL     1      -7.567  16.692   9.110  1.00  0.00    -0.490 OA
ATOM     17  C   UNL     1      -7.523  15.993  10.350  1.00  0.00     0.278 C 
ENDBRANCH   3  16
TORSDOF 3
ENDMDL
MODEL 3
REMARK VINA RESULT:    -5.417      1.267      1.279
REMARK INTER + INTRA:          -6.652
REMARK INTER:                  -6.379
REMARK INTRA:                  -0.272
REMARK UNBOUND:                -0.285
REMARK SMILES COc1cc2ccc(=O)oc2c(OC)c1OC
REMARK SMILES IDX 3 1 15 2 12 3 11 4 5 5 4 6 6 7 7 8 8 9 9 10 10 11 2 12 1 13
REMARK SMILES IDX 16 14 17 15 13 16 14 17
REMARK H PARENT
REMARK Flexibility Score: inf
ROOT
ATOM      1  C   UNL     1      -3.933  15.323   7.371  1.00  0.00     0.165 A 
ATOM      2  C   UNL     1      -4.850  15.991   8.226  1.00  0.00     0.207 A 
ATOM      3  C   UNL     1      -6.236  15.862   8.016  1.00  0.00     0.208 A 
ATOM      4  C   UNL     1      -6.716  15.064   6.951  1.00  0.00     0.184 A 
ATOM      5  C   UNL     1      -5.800  14.403   6.105  1.00  0.00     0.025 A 
ATOM      6  C   UNL     1      -4.426  14.534   6.316  1.00  0.00     0.062 A 
ATOM      7  C   UNL     1      -6.294  13.618   5.057  1.00  0.00     0.020 A 
ATOM      8  C   UNL     1      -7.670  13.508   4.872  1.00  0.00     0.094 A 
ATOM      9  C   UNL     1      -8.522  14.188   5.744  1.00  0.00     0.336 A 
ATOM     10  O   UNL     1      -9.769  14.104   5.597  1.00  0.00    -0.246 OA
ATOM     11  O   UNL     1      -8.023  14.926   6.731  1.00  0.00    -0.419 OA
ENDROOT
BRANCH   1  12
ATOM     12  O   UNL     1      -2.552  15.455   7.584  1.00  0.00    -0.493 OA
ATOM     13  C   UNL     1      -1.729  16.469   7.016  1.00  0.00     0.278 C 
ENDBRANCH   1  12
BRANCH   2  14
ATOM     14  O   UNL     1      -4.453  16.804   9.307  1.00  0.00    -0.490 OA
ATOM     15  C   UNL     1      -3.993  16.363  10.580  1.00  0.00     0.278 C 
ENDBRANCH   2  14
BRANCH   3  16
ATOM     16  O   UNL     1      -7.080  16.556   8.905  1.00  0.00    -0.490 OA
ATOM     17  C   UNL     1      -7.775  16.004  10.018  1.00  0.00     0.278 C 
ENDBRANCH   3  16
TORSDOF 3
ENDMDL
MODEL 4
REMARK VINA RESULT:    -5.001      1.618      4.879
REMARK INTER + INTRA:          -6.163
REMARK INTER:                  -5.918
REMARK INTRA:                  -0.245
REMARK UNBOUND:                -0.285
REMARK SMILES COc1cc2ccc(=O)oc2c(OC)c1OC
REMARK SMILES IDX 3 1 15 2 12 3 11 4 5 5 4 6 6 7 7 8 8 9 9 10 10 11 2 12 1 13
REMARK SMILES IDX 16 14 17 15 13 16 14 17
REMARK H PARENT
REMARK Flexibility Score: inf
ROOT
ATOM      1  C   UNL     1      -7.381  14.832   6.213  1.00  0.00     0.165 A 
ATOM      2  C   UNL     1      -7.855  15.558   7.338  1.00  0.00     0.207 A 
ATOM      3  C   UNL     1      -6.969  15.918   8.371  1.00  0.00     0.208 A 
ATOM      4  C   UNL     1      -5.603  15.556   8.288  1.00  0.00     0.184 A 
ATOM      5  C   UNL     1      -5.140  14.834   7.167  1.00  0.00     0.025 A 
ATOM      6  C   UNL     1      -6.022  14.479   6.145  1.00  0.00     0.062 A 
ATOM      7  C   UNL     1      -3.786  14.485   7.102  1.00  0.00     0.020 A 
ATOM      8  C   UNL     1      -2.932  14.854   8.138  1.00  0.00     0.094 A 
ATOM      9  C   UNL     1      -3.454  15.567   9.219  1.00  0.00     0.336 A 
ATOM     10  O   UNL     1      -2.703  15.912  10.167  1.00  0.00    -0.246 OA
ATOM     11  O   UNL     1      -4.745  15.885   9.252  1.00  0.00    -0.419 OA
ENDROOT
BRANCH   1  12
ATOM     12  O   UNL     1      -8.269  14.474   5.185  1.00  0.00    -0.493 OA
ATOM     13  C   UNL     1      -8.982  13.244   5.110  1.00  0.00     0.278 C 
ENDBRANCH   1  12
BRANCH   2  14
ATOM     14  O   UNL     1      -9.197  15.955   7.497  1.00  0.00    -0.490 OA
ATOM     15  C   UNL     1      -9.833  17.074   6.888  1.00  0.00     0.278 C 
ENDBRANCH   2  14
BRANCH   3  16
ATOM     16  O   UNL     1      -7.515  16.636   9.453  1.00  0.00    -0.490 OA
ATOM     17  C   UNL     1      -7.916  16.100  10.709  1.00  0.00     0.278 C 
ENDBRANCH   3  16
TORSDOF 3
ENDMDL
MODEL 5
REMARK VINA RESULT:    -4.869      3.143      4.995
REMARK INTER + INTRA:          -6.007
REMARK INTER:                  -5.782
REMARK INTRA:                  -0.225
REMARK UNBOUND:                -0.285
REMARK SMILES COc1cc2ccc(=O)oc2c(OC)c1OC
REMARK SMILES IDX 3 1 15 2 12 3 11 4 5 5 4 6 6 7 7 8 8 9 9 10 10 11 2 12 1 13
REMARK SMILES IDX 16 14 17 15 13 16 14 17
REMARK H PARENT
REMARK Flexibility Score: inf
ROOT
ATOM      1  C   UNL     1      -7.895  15.500   6.078  1.00  0.00     0.165 A 
ATOM      2  C   UNL     1      -7.451  15.723   7.408  1.00  0.00     0.207 A 
ATOM      3  C   UNL     1      -8.338  16.237   8.373  1.00  0.00     0.208 A 
ATOM      4  C   UNL     1      -9.675  16.533   8.016  1.00  0.00     0.184 A 
ATOM      5  C   UNL     1     -10.109  16.309   6.692  1.00  0.00     0.025 A 
ATOM      6  C   UNL     1      -9.227  15.799   5.738  1.00  0.00     0.062 A 
ATOM      7  C   UNL     1     -11.435  16.607   6.358  1.00  0.00     0.020 A 
ATOM      8  C   UNL     1     -12.291  17.116   7.331  1.00  0.00     0.094 A 
ATOM      9  C   UNL     1     -11.797  17.314   8.622  1.00  0.00     0.336 A 
ATOM     10  O   UNL     1     -12.551  17.772   9.519  1.00  0.00    -0.246 OA
ATOM     11  O   UNL     1     -10.533  17.021   8.910  1.00  0.00    -0.419 OA
ENDROOT
BRANCH   1  12
ATOM     12  O   UNL     1      -7.007  14.987   5.119  1.00  0.00    -0.493 OA
ATOM     13  C   UNL     1      -6.630  13.619   5.001  1.00  0.00     0.278 C 
ENDBRANCH   1  12
BRANCH   2  14
ATOM     14  O   UNL     1      -6.138  15.456   7.844  1.00  0.00    -0.490 OA
ATOM     15  C   UNL     1      -4.987  16.266   7.628  1.00  0.00     0.278 C 
ENDBRANCH   2  14
BRANCH   3  16
ATOM     16  O   UNL     1      -7.822  16.431   9.670  1.00  0.00    -0.490 OA
ATOM     17  C   UNL     1      -7.981  15.560  10.784  1.00  0.00     0.278 C 
ENDBRANCH   3  16
TORSDOF 3
ENDMDL
MODEL 6
REMARK VINA RESULT:    -4.808      1.887      5.804
REMARK INTER + INTRA:          -5.936
REMARK INTER:                  -5.689
REMARK INTRA:                  -0.247
REMARK UNBOUND:                -0.285
REMARK SMILES COc1cc2ccc(=O)oc2c(OC)c1OC
REMARK SMILES IDX 3 1 15 2 12 3 11 4 5 5 4 6 6 7 7 8 8 9 9 10 10 11 2 12 1 13
REMARK SMILES IDX 16 14 17 15 13 16 14 17
REMARK H PARENT
REMARK Flexibility Score: inf
ROOT
ATOM      1  C   UNL     1      -8.336  16.237   8.081  1.00  0.00     0.165 A 
ATOM      2  C   UNL     1      -7.663  15.756   6.927  1.00  0.00     0.207 A 
ATOM      3  C   UNL     1      -6.270  15.551   6.953  1.00  0.00     0.208 A 
ATOM      4  C   UNL     1      -5.539  15.826   8.133  1.00  0.00     0.184 A 
ATOM      5  C   UNL     1      -6.215  16.304   9.276  1.00  0.00     0.025 A 
ATOM      6  C   UNL     1      -7.596  16.506   9.247  1.00  0.00     0.062 A 
ATOM      7  C   UNL     1      -5.475  16.571  10.434  1.00  0.00     0.020 A 
ATOM      8  C   UNL     1      -4.098  16.360  10.433  1.00  0.00     0.094 A 
ATOM      9  C   UNL     1      -3.492  15.886   9.268  1.00  0.00     0.336 A 
ATOM     10  O   UNL     1      -2.250  15.688   9.242  1.00  0.00    -0.246 OA
ATOM     11  O   UNL     1      -4.221  15.642   8.183  1.00  0.00    -0.419 OA
ENDROOT
BRANCH   1  12
ATOM     12  O   UNL     1      -9.725  16.439   8.050  1.00  0.00    -0.493 OA
ATOM     13  C   UNL     1     -10.377  17.554   7.450  1.00  0.00     0.278 C 
ENDBRANCH   1  12
BRANCH   2  14
ATOM     14  O   UNL     1      -8.316  15.459   5.714  1.00  0.00    -0.490 OA
ATOM     15  C   UNL     1      -9.082  14.295   5.421  1.00  0.00     0.278 C 
ENDBRANCH   2  14
BRANCH   3  16
ATOM     16  O   UNL     1      -5.676  15.073   5.768  1.00  0.00    -0.490 OA
ATOM     17  C   UNL     1      -5.346  13.721   5.472  1.00  0.00     0.278 C 
ENDBRANCH   3  16
TORSDOF 3
ENDMDL
MODEL 7
REMARK VINA RESULT:    -4.760      4.523      6.026
REMARK INTER + INTRA:          -5.879
REMARK INTER:                  -5.641
REMARK INTRA:                  -0.238
REMARK UNBOUND:                -0.285
REMARK SMILES COc1cc2ccc(=O)oc2c(OC)c1OC
REMARK SMILES IDX 3 1 15 2 12 3 11 4 5 5 4 6 6 7 7 8 8 9 9 10 10 11 2 12 1 13
REMARK SMILES IDX 16 14 17 15 13 16 14 17
REMARK H PARENT
REMARK Flexibility Score: inf
ROOT
ATOM      1  C   UNL     1      -7.054  11.517  12.712  1.00  0.00     0.165 A 
ATOM      2  C   UNL     1      -8.423  11.880  12.820  1.00  0.00     0.207 A 
ATOM      3  C   UNL     1      -8.886  13.075  12.237  1.00  0.00     0.208 A 
ATOM      4  C   UNL     1      -7.985  13.916  11.541  1.00  0.00     0.184 A 
ATOM      5  C   UNL     1      -6.626  13.548  11.438  1.00  0.00     0.025 A 
ATOM      6  C   UNL     1      -6.171  12.363  12.018  1.00  0.00     0.062 A 
ATOM      7  C   UNL     1      -5.750  14.393  10.746  1.00  0.00     0.020 A 
ATOM      8  C   UNL     1      -6.234  15.569  10.179  1.00  0.00     0.094 A 
ATOM      9  C   UNL     1      -7.589  15.874  10.319  1.00  0.00     0.336 A 
ATOM     10  O   UNL     1      -8.051  16.930   9.816  1.00  0.00    -0.246 OA
ATOM     11  O   UNL     1      -8.398  15.051  10.982  1.00  0.00    -0.419 OA
ENDROOT
BRANCH   1  12
ATOM     12  O   UNL     1      -6.597  10.324  13.295  1.00  0.00    -0.493 OA
ATOM     13  C   UNL     1      -6.213  10.173  14.658  1.00  0.00     0.278 C 
ENDBRANCH   1  12
BRANCH   2  14
ATOM     14  O   UNL     1      -9.383  11.100  13.495  1.00  0.00    -0.490 OA
ATOM     15  C   UNL     1     -10.056   9.952  12.990  1.00  0.00     0.278 C 
ENDBRANCH   2  14
BRANCH   3  16
ATOM     16  O   UNL     1     -10.256  13.366  12.389  1.00  0.00    -0.490 OA
ATOM     17  C   UNL     1     -10.841  14.192  13.389  1.00  0.00     0.278 C 
ENDBRANCH   3  16
TORSDOF 3
ENDMDL
MODEL 8
REMARK VINA RESULT:    -4.724      1.531      3.487
REMARK INTER + INTRA:          -5.837
REMARK INTER:                  -5.568
REMARK INTRA:                  -0.270
REMARK UNBOUND:                -0.285
REMARK SMILES COc1cc2ccc(=O)oc2c(OC)c1OC
REMARK SMILES IDX 3 1 15 2 12 3 11 4 5 5 4 6 6 7 7 8 8 9 9 10 10 11 2 12 1 13
REMARK SMILES IDX 16 14 17 15 13 16 14 17
REMARK H PARENT
REMARK Flexibility Score: inf
ROOT
ATOM      1  C   UNL     1      -5.617  15.641   9.888  1.00  0.00     0.165 A 
ATOM      2  C   UNL     1      -5.292  14.714   8.863  1.00  0.00     0.207 A 
ATOM      3  C   UNL     1      -6.137  14.571   7.745  1.00  0.00     0.208 A 
ATOM      4  C   UNL     1      -7.312  15.353   7.644  1.00  0.00     0.184 A 
ATOM      5  C   UNL     1      -7.629  16.271   8.667  1.00  0.00     0.025 A 
ATOM      6  C   UNL     1      -6.789  16.411   9.774  1.00  0.00     0.062 A 
ATOM      7  C   UNL     1      -8.795  17.036   8.550  1.00  0.00     0.020 A 
ATOM      8  C   UNL     1      -9.613  16.874   7.435  1.00  0.00     0.094 A 
ATOM      9  C   UNL     1      -9.243  15.947   6.459  1.00  0.00     0.336 A 
ATOM     10  O   UNL     1      -9.964  15.782   5.442  1.00  0.00    -0.246 OA
ATOM     11  O   UNL     1      -8.128  15.235   6.598  1.00  0.00    -0.419 OA
ENDROOT
BRANCH   1  12
ATOM     12  O   UNL     1      -4.772  15.780  11.001  1.00  0.00    -0.493 OA
ATOM     13  C   UNL     1      -4.015  16.945  11.313  1.00  0.00     0.278 C 
ENDBRANCH   1  12
BRANCH   2  14
ATOM     14  O   UNL     1      -4.143  13.899   8.887  1.00  0.00    -0.490 OA
ATOM     15  C   UNL     1      -2.828  14.267   8.484  1.00  0.00     0.278 C 
ENDBRANCH   2  14
BRANCH   3  16
ATOM     16  O   UNL     1      -5.747  13.630   6.771  1.00  0.00    -0.490 OA
ATOM     17  C   UNL     1      -5.151  13.915   5.510  1.00  0.00     0.278 C 
ENDBRANCH   3  16
TORSDOF 3
ENDMDL
