MODEL 1
REMARK VINA RESULT:    -4.567      0.000      0.000
REMARK INTER + INTRA:          -7.563
REMARK INTER:                  -6.970
REMARK INTRA:                  -0.593
REMARK UNBOUND:                -0.593
REMARK SMILES CCCCCCCCCCC(=O)[O-]
REMARK SMILES IDX 7 1 8 2 9 3 10 4 11 5 12 6 13 7 6 8 5 9 4 10 3 11 2 12 1 13
REMARK H PARENT
REMARK Flexibility Score: inf
ROOT
ATOM      1  C   UNL     1      10.092   2.422  -0.393  1.00  0.00     0.000 C 
ENDROOT
BRANCH   1   2
ATOM      2  C   UNL     1       9.829   3.219   0.897  1.00  0.00     0.000 C 
BRANCH   2   3
ATOM      3  C   UNL     1       9.926   4.741   0.686  1.00  0.00     0.006 C 
BRANCH   3   4
ATOM      4  C   UNL     1       8.804   5.548   1.359  1.00  0.00     0.053 C 
BRANCH   4   5
ATOM      5  C   UNL     1       9.269   6.221   2.614  1.00  0.00     0.041 C 
ATOM      6  O   UNL     1       8.439   6.781   3.378  1.00  0.00    -0.550 OA
ATOM      7  O   UNL     1      10.616   6.201   2.957  1.00  0.00    -0.550 OA
ENDBRANCH   4   5
ENDBRANCH   3   4
ENDBRANCH   2   3
ENDBRANCH   1   2
BRANCH   1   8
ATOM      8  C   UNL     1      11.407   1.629  -0.339  1.00  0.00     0.000 C 
BRANCH   8   9
ATOM      9  C   UNL     1      12.278   1.846  -1.590  1.00  0.00    -0.000 C 
BRANCH   9  10
ATOM     10  C   UNL     1      11.755   2.982  -2.484  1.00  0.00    -0.000 C 
BRANCH  10  11
ATOM     11  C   UNL     1      11.441   2.513  -3.916  1.00  0.00    -0.000 C 
BRANCH  11  12
ATOM     12  C   UNL     1      11.457   0.982  -4.051  1.00  0.00    -0.003 C 
ATOM     13  C   UNL     1      11.671   0.515  -5.491  1.00  0.00     0.004 C 
ENDBRANCH  11  12
ENDBRANCH  10  11
ENDBRANCH   9  10
ENDBRANCH   8   9
ENDBRANCH   1   8
TORSDOF 9
ENDMDL
MODEL 2
REMARK VINA RESULT:    -4.507      1.861      2.165
REMARK INTER + INTRA:          -7.471
REMARK INTER:                  -6.630
REMARK INTRA:                  -0.840
REMARK UNBOUND:                -0.593
REMARK SMILES CCCCCCCCCCC(=O)[O-]
REMARK SMILES IDX 7 1 8 2 9 3 10 4 11 5 12 6 13 7 6 8 5 9 4 10 3 11 2 12 1 13
REMARK H PARENT
REMARK Flexibility Score: inf
ROOT
ATOM      1  C   UNL     1       9.905   2.082  -0.459  1.00  0.00     0.000 C 
ENDROOT
BRANCH   1   2
ATOM      2  C   UNL     1       9.343   2.985   0.652  1.00  0.00     0.000 C 
BRANCH   2   3
ATOM      3  C   UNL     1       9.872   4.429   0.571  1.00  0.00     0.006 C 
BRANCH   3   4
ATOM      4  C   UNL     1       9.500   5.171  -0.724  1.00  0.00     0.053 C 
BRANCH   4   5
ATOM      5  C   UNL     1      10.370   6.367  -0.957  1.00  0.00     0.041 C 
ATOM      6  O   UNL     1      10.226   7.402  -0.253  1.00  0.00    -0.550 OA
ATOM      7  O   UNL     1      11.363   6.328  -1.928  1.00  0.00    -0.550 OA
ENDBRANCH   4   5
ENDBRANCH   3   4
ENDBRANCH   2   3
ENDBRANCH   1   2
BRANCH   1   8
ATOM      8  C   UNL     1      11.370   1.687  -0.214  1.00  0.00     0.000 C 
BRANCH   8   9
ATOM      9  C   UNL     1      12.201   1.666  -1.510  1.00  0.00    -0.000 C 
BRANCH   9  10
ATOM     10  C   UNL     1      11.937   2.890  -2.401  1.00  0.00    -0.000 C 
BRANCH  10  11
ATOM     11  C   UNL     1      11.408   2.507  -3.794  1.00  0.00    -0.000 C 
BRANCH  11  12
ATOM     12  C   UNL     1      11.479   0.994  -4.055  1.00  0.00    -0.003 C 
ATOM     13  C   UNL     1      11.625   0.654  -5.539  1.00  0.00     0.004 C 
ENDBRANCH  11  12
ENDBRANCH  10  11
ENDBRANCH   9  10
ENDBRANCH   8   9
ENDBRANCH   1   8
TORSDOF 9
ENDMDL
MODEL 3
REMARK VINA RESULT:    -4.499      4.281      6.320
REMARK INTER + INTRA:          -7.459
REMARK INTER:                  -6.452
REMARK INTRA:                  -1.008
REMARK UNBOUND:                -0.593
REMARK SMILES CCCCCCCCCCC(=O)[O-]
REMARK SMILES IDX 7 1 8 2 9 3 10 4 11 5 12 6 13 7 6 8 5 9 4 10 3 11 2 12 1 13
REMARK H PARENT
REMARK Flexibility Score: inf
ROOT
ATOM      1  C   UNL     1      10.692   1.672  -0.667  1.00  0.00     0.000 C 
ENDROOT
BRANCH   1   2
ATOM      2  C   UNL     1      12.114   1.819  -1.235  1.00  0.00     0.000 C 
BRANCH   2   3
ATOM      3  C   UNL     1      12.125   2.099  -2.749  1.00  0.00     0.006 C 
BRANCH   3   4
ATOM      4  C   UNL     1      11.149   1.234  -3.563  1.00  0.00     0.053 C 
BRANCH   4   5
ATOM      5  C   UNL     1      11.507   1.197  -5.017  1.00  0.00     0.041 C 
ATOM      6  O   UNL     1      11.818   0.107  -5.566  1.00  0.00    -0.550 OA
ATOM      7  O   UNL     1      11.465   2.361  -5.774  1.00  0.00    -0.550 OA
ENDBRANCH   4   5
ENDBRANCH   3   4
ENDBRANCH   2   3
ENDBRANCH   1   2
BRANCH   1   8
ATOM      8  C   UNL     1      10.373   2.727   0.404  1.00  0.00     0.000 C 
BRANCH   8   9
ATOM      9  C   UNL     1       9.265   3.701  -0.039  1.00  0.00    -0.000 C 
BRANCH   9  10
ATOM     10  C   UNL     1       8.907   3.551  -1.527  1.00  0.00    -0.000 C 
BRANCH  10  11
ATOM     11  C   UNL     1       9.300   4.784  -2.358  1.00  0.00    -0.000 C 
BRANCH  11  12
ATOM     12  C   UNL     1      10.691   5.324  -1.990  1.00  0.00    -0.003 C 
ATOM     13  C   UNL     1      10.674   6.810  -1.630  1.00  0.00     0.004 C 
ENDBRANCH  11  12
ENDBRANCH  10  11
ENDBRANCH   9  10
ENDBRANCH   8   9
ENDBRANCH   1   8
TORSDOF 9
ENDMDL
MODEL 4
REMARK VINA RESULT:    -4.483      3.699      5.941
REMARK INTER + INTRA:          -7.434
REMARK INTER:                  -6.534
REMARK INTRA:                  -0.900
REMARK UNBOUND:                -0.593
REMARK SMILES CCCCCCCCCCC(=O)[O-]
REMARK SMILES IDX 7 1 8 2 9 3 10 4 11 5 12 6 13 7 6 8 5 9 4 10 3 11 2 12 1 13
REMARK H PARENT
REMARK Flexibility Score: inf
ROOT
ATOM      1  C   UNL     1      10.239   2.428  -0.341  1.00  0.00     0.000 C 
ENDROOT
BRANCH   1   2
ATOM      2  C   UNL     1      11.527   1.593  -0.242  1.00  0.00     0.000 C 
BRANCH   2   3
ATOM      3  C   UNL     1      12.309   1.546  -1.568  1.00  0.00     0.006 C 
BRANCH   3   4
ATOM      4  C   UNL     1      11.949   2.665  -2.558  1.00  0.00     0.053 C 
BRANCH   4   5
ATOM      5  C   UNL     1      11.640   2.132  -3.923  1.00  0.00     0.041 C 
ATOM      6  O   UNL     1      11.704   0.895  -4.149  1.00  0.00    -0.550 OA
ATOM      7  O   UNL     1      11.247   2.997  -4.937  1.00  0.00    -0.550 OA
ENDBRANCH   4   5
ENDBRANCH   3   4
ENDBRANCH   2   3
ENDBRANCH   1   2
BRANCH   1   8
ATOM      8  C   UNL     1       9.940   3.207   0.951  1.00  0.00     0.000 C 
BRANCH   8   9
ATOM      9  C   UNL     1       9.127   4.489   0.692  1.00  0.00    -0.000 C 
BRANCH   9  10
ATOM     10  C   UNL     1       9.926   5.767   0.995  1.00  0.00    -0.000 C 
BRANCH  10  11
ATOM     11  C   UNL     1      10.051   6.692  -0.227  1.00  0.00    -0.000 C 
BRANCH  11  12
ATOM     12  C   UNL     1      10.879   6.063  -1.359  1.00  0.00    -0.003 C 
ATOM     13  C   UNL     1      10.079   5.879  -2.649  1.00  0.00     0.004 C 
ENDBRANCH  11  12
ENDBRANCH  10  11
ENDBRANCH   9  10
ENDBRANCH   8   9
ENDBRANCH   1   8
TORSDOF 9
ENDMDL
MODEL 5
REMARK VINA RESULT:    -4.462      1.656      3.200
REMARK INTER + INTRA:          -7.402
REMARK INTER:                  -6.601
REMARK INTRA:                  -0.801
REMARK UNBOUND:                -0.593
REMARK SMILES CCCCCCCCCCC(=O)[O-]
REMARK SMILES IDX 7 1 8 2 9 3 10 4 11 5 12 6 13 7 6 8 5 9 4 10 3 11 2 12 1 13
REMARK H PARENT
REMARK Flexibility Score: inf
ROOT
ATOM      1  C   UNL     1      11.111   4.214  -2.212  1.00  0.00     0.000 C 
ENDROOT
BRANCH   1   2
ATOM      2  C   UNL     1       9.879   4.848  -1.544  1.00  0.00     0.000 C 
BRANCH   2   3
ATOM      3  C   UNL     1       9.166   3.887  -0.575  1.00  0.00     0.006 C 
BRANCH   3   4
ATOM      4  C   UNL     1       9.756   3.860   0.844  1.00  0.00     0.053 C 
BRANCH   4   5
ATOM      5  C   UNL     1       9.494   5.134   1.587  1.00  0.00     0.041 C 
ATOM      6  O   UNL     1       8.338   5.634   1.599  1.00  0.00    -0.550 OA
ATOM      7  O   UNL     1      10.518   5.750   2.296  1.00  0.00    -0.550 OA
ENDBRANCH   4   5
ENDBRANCH   3   4
ENDBRANCH   2   3
ENDBRANCH   1   2
BRANCH   1   8
ATOM      8  C   UNL     1      10.739   3.071  -3.171  1.00  0.00     0.000 C 
BRANCH   8   9
ATOM      9  C   UNL     1      11.153   1.690  -2.630  1.00  0.00    -0.000 C 
BRANCH   9  10
ATOM     10  C   UNL     1      12.343   1.767  -1.659  1.00  0.00    -0.000 C 
BRANCH  10  11
ATOM     11  C   UNL     1      12.038   1.124  -0.296  1.00  0.00    -0.000 C 
BRANCH  11  12
ATOM     12  C   UNL     1      13.119   0.120   0.136  1.00  0.00    -0.003 C 
ATOM     13  C   UNL     1      12.794  -0.568   1.463  1.00  0.00     0.004 C 
ENDBRANCH  11  12
ENDBRANCH  10  11
ENDBRANCH   9  10
ENDBRANCH   8   9
ENDBRANCH   1   8
TORSDOF 9
ENDMDL
MODEL 6
REMARK VINA RESULT:    -4.431      1.903      2.223
REMARK INTER + INTRA:          -7.355
REMARK INTER:                  -6.575
REMARK INTRA:                  -0.780
REMARK UNBOUND:                -0.593
REMARK SMILES CCCCCCCCCCC(=O)[O-]
REMARK SMILES IDX 7 1 8 2 9 3 10 4 11 5 12 6 13 7 6 8 5 9 4 10 3 11 2 12 1 13
REMARK H PARENT
REMARK Flexibility Score: inf
ROOT
ATOM      1  C   UNL     1      10.045   2.443  -0.437  1.00  0.00     0.000 C 
ENDROOT
BRANCH   1   2
ATOM      2  C   UNL     1       9.715   3.084   0.922  1.00  0.00     0.000 C 
BRANCH   2   3
ATOM      3  C   UNL     1       9.726   4.623   0.873  1.00  0.00     0.006 C 
BRANCH   3   4
ATOM      4  C   UNL     1       9.386   5.217  -0.503  1.00  0.00     0.053 C 
BRANCH   4   5
ATOM      5  C   UNL     1       7.927   5.533  -0.635  1.00  0.00     0.041 C 
ATOM      6  O   UNL     1       7.453   5.883  -1.748  1.00  0.00    -0.550 OA
ATOM      7  O   UNL     1       7.085   5.406   0.463  1.00  0.00    -0.550 OA
ENDBRANCH   4   5
ENDBRANCH   3   4
ENDBRANCH   2   3
ENDBRANCH   1   2
BRANCH   1   8
ATOM      8  C   UNL     1      11.332   1.603  -0.397  1.00  0.00     0.000 C 
BRANCH   8   9
ATOM      9  C   UNL     1      12.267   1.900  -1.584  1.00  0.00    -0.000 C 
BRANCH   9  10
ATOM     10  C   UNL     1      11.733   3.021  -2.491  1.00  0.00    -0.000 C 
BRANCH  10  11
ATOM     11  C   UNL     1      11.390   2.526  -3.906  1.00  0.00    -0.000 C 
BRANCH  11  12
ATOM     12  C   UNL     1      11.489   0.998  -4.036  1.00  0.00    -0.003 C 
ATOM     13  C   UNL     1      11.687   0.536  -5.480  1.00  0.00     0.004 C 
ENDBRANCH  11  12
ENDBRANCH  10  11
ENDBRANCH   9  10
ENDBRANCH   8   9
ENDBRANCH   1   8
TORSDOF 9
ENDMDL
MODEL 7
REMARK VINA RESULT:    -4.421      3.785      6.652
REMARK INTER + INTRA:          -7.340
REMARK INTER:                  -6.717
REMARK INTRA:                  -0.623
REMARK UNBOUND:                -0.593
REMARK SMILES CCCCCCCCCCC(=O)[O-]
REMARK SMILES IDX 7 1 8 2 9 3 10 4 11 5 12 6 13 7 6 8 5 9 4 10 3 11 2 12 1 13
REMARK H PARENT
REMARK Flexibility Score: inf
ROOT
ATOM      1  C   UNL     1      10.237   2.322  -0.404  1.00  0.00     0.000 C 
ENDROOT
BRANCH   1   2
ATOM      2  C   UNL     1      11.607   1.621  -0.407  1.00  0.00     0.000 C 
BRANCH   2   3
ATOM      3  C   UNL     1      12.292   1.659  -1.786  1.00  0.00     0.006 C 
BRANCH   3   4
ATOM      4  C   UNL     1      11.676   2.663  -2.774  1.00  0.00     0.053 C 
BRANCH   4   5
ATOM      5  C   UNL     1      11.551   2.091  -4.153  1.00  0.00     0.041 C 
ATOM      6  O   UNL     1      11.602   0.846  -4.329  1.00  0.00    -0.550 OA
ATOM      7  O   UNL     1      11.344   2.933  -5.239  1.00  0.00    -0.550 OA
ENDBRANCH   4   5
ENDBRANCH   3   4
ENDBRANCH   2   3
ENDBRANCH   1   2
BRANCH   1   8
ATOM      8  C   UNL     1       9.948   3.045   0.922  1.00  0.00     0.000 C 
BRANCH   8   9
ATOM      9  C   UNL     1       8.664   3.893   0.862  1.00  0.00    -0.000 C 
BRANCH   9  10
ATOM     10  C   UNL     1       8.844   5.179   0.039  1.00  0.00    -0.000 C 
BRANCH  10  11
ATOM     11  C   UNL     1       9.929   6.105   0.614  1.00  0.00    -0.000 C 
BRANCH  11  12
ATOM     12  C   UNL     1       9.615   6.561   2.048  1.00  0.00    -0.003 C 
ATOM     13  C   UNL     1      10.699   6.161   3.049  1.00  0.00     0.004 C 
ENDBRANCH  11  12
ENDBRANCH  10  11
ENDBRANCH   9  10
ENDBRANCH   8   9
ENDBRANCH   1   8
TORSDOF 9
ENDMDL
MODEL 8
REMARK VINA RESULT:    -4.364      1.993      3.431
REMARK INTER + INTRA:          -7.253
REMARK INTER:                  -6.103
REMARK INTRA:                  -1.149
REMARK UNBOUND:                -0.593
REMARK SMILES CCCCCCCCCCC(=O)[O-]
REMARK SMILES IDX 7 1 8 2 9 3 10 4 11 5 12 6 13 7 6 8 5 9 4 10 3 11 2 12 1 13
REMARK H PARENT
REMARK Flexibility Score: inf
ROOT
ATOM      1  C   UNL     1      12.108   1.700  -1.904  1.00  0.00     0.000 C 
ENDROOT
BRANCH   1   2
ATOM      2  C   UNL     1      11.573   1.680  -0.462  1.00  0.00     0.000 C 
BRANCH   2   3
ATOM      3  C   UNL     1      10.218   2.398  -0.320  1.00  0.00     0.006 C 
BRANCH   3   4
ATOM      4  C   UNL     1      10.017   3.117   1.024  1.00  0.00     0.053 C 
BRANCH   4   5
ATOM      5  C   UNL     1       9.127   4.315   0.894  1.00  0.00     0.041 C 
ATOM      6  O   UNL     1       9.412   5.384   1.495  1.00  0.00    -0.550 OA
ATOM      7  O   UNL     1       8.001   4.261   0.082  1.00  0.00    -0.550 OA
ENDBRANCH   4   5
ENDBRANCH   3   4
ENDBRANCH   2   3
ENDBRANCH   1   2
BRANCH   1   8
ATOM      8  C   UNL     1      10.983   1.767  -2.950  1.00  0.00     0.000 C 
BRANCH   8   9
ATOM      9  C   UNL     1      11.424   2.474  -4.245  1.00  0.00    -0.000 C 
BRANCH   9  10
ATOM     10  C   UNL     1      10.714   3.821  -4.455  1.00  0.00    -0.000 C 
BRANCH  10  11
ATOM     11  C   UNL     1       9.754   4.171  -3.304  1.00  0.00    -0.000 C 
BRANCH  11  12
ATOM     12  C   UNL     1       9.957   5.602  -2.782  1.00  0.00    -0.003 C 
ATOM     13  C   UNL     1      11.145   5.723  -1.827  1.00  0.00     0.004 C 
ENDBRANCH  11  12
ENDBRANCH  10  11
ENDBRANCH   9  10
ENDBRANCH   8   9
ENDBRANCH   1   8
TORSDOF 9
ENDMDL
MODEL 9
REMARK VINA RESULT:    -4.312      3.433      5.735
REMARK INTER + INTRA:          -7.174
REMARK INTER:                  -6.171
REMARK INTRA:                  -1.003
REMARK UNBOUND:                -0.593
REMARK SMILES CCCCCCCCCCC(=O)[O-]
REMARK SMILES IDX 7 1 8 2 9 3 10 4 11 5 12 6 13 7 6 8 5 9 4 10 3 11 2 12 1 13
REMARK H PARENT
REMARK Flexibility Score: inf
ROOT
ATOM      1  C   UNL     1      10.383   2.779  -2.624  1.00  0.00     0.000 C 
ENDROOT
BRANCH   1   2
ATOM      2  C   UNL     1      11.349   1.594  -2.452  1.00  0.00     0.000 C 
BRANCH   2   3
ATOM      3  C   UNL     1      12.274   1.751  -1.231  1.00  0.00     0.006 C 
BRANCH   3   4
ATOM      4  C   UNL     1      11.785   1.026   0.034  1.00  0.00     0.053 C 
BRANCH   4   5
ATOM      5  C   UNL     1      12.820   0.092   0.582  1.00  0.00     0.041 C 
ATOM      6  O   UNL     1      12.658  -0.439   1.712  1.00  0.00    -0.550 OA
ATOM      7  O   UNL     1      13.946  -0.219  -0.171  1.00  0.00    -0.550 OA
ENDBRANCH   4   5
ENDBRANCH   3   4
ENDBRANCH   2   3
ENDBRANCH   1   2
BRANCH   1   8
ATOM      8  C   UNL     1      11.072   4.137  -2.418  1.00  0.00     0.000 C 
BRANCH   8   9
ATOM      9  C   UNL     1      10.070   5.268  -2.120  1.00  0.00    -0.000 C 
BRANCH   9  10
ATOM     10  C   UNL     1      10.372   5.990  -0.797  1.00  0.00    -0.000 C 
BRANCH  10  11
ATOM     11  C   UNL     1       9.386   5.612   0.323  1.00  0.00    -0.000 C 
BRANCH  11  12
ATOM     12  C   UNL     1       9.805   4.336   1.070  1.00  0.00    -0.003 C 
ATOM     13  C   UNL     1       8.867   3.158   0.805  1.00  0.00     0.004 C 
ENDBRANCH  11  12
ENDBRANCH  10  11
ENDBRANCH   9  10
ENDBRANCH   8   9
ENDBRANCH   1   8
TORSDOF 9
ENDMDL
