MODEL 1
REMARK VINA RESULT:    -4.028      0.000      0.000
REMARK INTER + INTRA:          -4.854
REMARK INTER:                  -4.852
REMARK INTRA:                  -0.002
REMARK UNBOUND:                -0.002
REMARK SMILES OCC(O)CO
REMARK SMILES IDX 3 1 5 2 6 3 2 5 1 6 4 8
REMARK H PARENT 6 4 1 7 4 9
REMARK Flexibility Score: inf
ROOT
ATOM      1  C   UNL     1      10.651  21.971  30.914  1.00  0.00     0.165 C 
ENDROOT
BRANCH   1   2
ATOM      2  C   UNL     1      10.017  20.590  30.696  1.00  0.00     0.190 C 
BRANCH   2   3
ATOM      3  O   UNL     1      10.061  20.243  29.337  1.00  0.00    -0.394 OA
ATOM      4  H   UNL     1      10.237  21.080  28.833  1.00  0.00     0.210 HD
ENDBRANCH   2   3
ENDBRANCH   1   2
BRANCH   1   5
ATOM      5  C   UNL     1      12.030  21.849  31.580  1.00  0.00     0.190 C 
BRANCH   5   6
ATOM      6  O   UNL     1      12.504  23.114  31.954  1.00  0.00    -0.394 OA
ATOM      7  H   UNL     1      12.618  23.625  31.111  1.00  0.00     0.210 HD
ENDBRANCH   5   6
ENDBRANCH   1   5
BRANCH   1   8
ATOM      8  O   UNL     1      10.769  22.634  29.682  1.00  0.00    -0.388 OA
ATOM      9  H   UNL     1      11.361  22.076  29.112  1.00  0.00     0.211 HD
ENDBRANCH   1   8
TORSDOF 5
ENDMDL
MODEL 2
REMARK VINA RESULT:    -4.023      1.242      3.138
REMARK INTER + INTRA:          -4.849
REMARK INTER:                  -4.816
REMARK INTRA:                  -0.033
REMARK UNBOUND:                -0.002
REMARK SMILES OCC(O)CO
REMARK SMILES IDX 3 1 5 2 6 3 2 5 1 6 4 8
REMARK H PARENT 6 4 1 7 4 9
REMARK Flexibility Score: inf
ROOT
ATOM      1  C   UNL     1      11.306  21.374  31.462  1.00  0.00     0.165 C 
ENDROOT
BRANCH   1   2
ATOM      2  C   UNL     1      12.345  22.452  31.121  1.00  0.00     0.190 C 
BRANCH   2   3
ATOM      3  O   UNL     1      12.679  23.187  32.268  1.00  0.00    -0.394 OA
ATOM      4  H   UNL     1      11.856  23.246  32.821  1.00  0.00     0.210 HD
ENDBRANCH   2   3
ENDBRANCH   1   2
BRANCH   1   5
ATOM      5  C   UNL     1       9.985  21.622  30.719  1.00  0.00     0.190 C 
BRANCH   5   6
ATOM      6  O   UNL     1      10.110  22.720  29.856  1.00  0.00    -0.394 OA
ATOM      7  H   UNL     1      11.078  22.939  29.829  1.00  0.00     0.210 HD
ENDBRANCH   5   6
ENDBRANCH   1   5
BRANCH   1   8
ATOM      8  O   UNL     1      11.816  20.109  31.129  1.00  0.00    -0.388 OA
ATOM      9  H   UNL     1      12.369  20.229  30.313  1.00  0.00     0.211 HD
ENDBRANCH   1   8
TORSDOF 5
ENDMDL
MODEL 3
REMARK VINA RESULT:    -3.898      1.602      2.209
REMARK INTER + INTRA:          -4.697
REMARK INTER:                  -4.483
REMARK INTRA:                  -0.215
REMARK UNBOUND:                -0.002
REMARK SMILES OCC(O)CO
REMARK SMILES IDX 3 1 5 2 6 3 2 5 1 6 4 8
REMARK H PARENT 6 4 1 7 4 9
REMARK Flexibility Score: inf
ROOT
ATOM      1  C   UNL     1      10.085  20.597  31.430  1.00  0.00     0.165 C 
ENDROOT
BRANCH   1   2
ATOM      2  C   UNL     1      10.162  19.410  30.459  1.00  0.00     0.190 C 
BRANCH   2   3
ATOM      3  O   UNL     1      10.120  19.862  29.132  1.00  0.00    -0.394 OA
ATOM      4  H   UNL     1       9.939  19.068  28.564  1.00  0.00     0.210 HD
ENDBRANCH   2   3
ENDBRANCH   1   2
BRANCH   1   5
ATOM      5  C   UNL     1      10.733  21.851  30.824  1.00  0.00     0.190 C 
BRANCH   5   6
ATOM      6  O   UNL     1       9.814  22.532  30.014  1.00  0.00    -0.394 OA
ATOM      7  H   UNL     1       9.044  21.915  29.894  1.00  0.00     0.210 HD
ENDBRANCH   5   6
ENDBRANCH   1   5
BRANCH   1   8
ATOM      8  O   UNL     1       8.743  20.856  31.750  1.00  0.00    -0.388 OA
ATOM      9  H   UNL     1       8.201  20.566  30.969  1.00  0.00     0.211 HD
ENDBRANCH   1   8
TORSDOF 5
ENDMDL
MODEL 4
REMARK VINA RESULT:    -3.740      1.610      2.943
REMARK INTER + INTRA:          -4.508
REMARK INTER:                  -4.317
REMARK INTRA:                  -0.191
REMARK UNBOUND:                -0.002
REMARK SMILES OCC(O)CO
REMARK SMILES IDX 3 1 5 2 6 3 2 5 1 6 4 8
REMARK H PARENT 6 4 1 7 4 9
REMARK Flexibility Score: inf
ROOT
ATOM      1  C   UNL     1      10.352  20.201  30.724  1.00  0.00     0.165 C 
ENDROOT
BRANCH   1   2
ATOM      2  C   UNL     1      10.542  21.702  30.985  1.00  0.00     0.190 C 
BRANCH   2   3
ATOM      3  O   UNL     1       9.780  22.454  30.079  1.00  0.00    -0.394 OA
ATOM      4  H   UNL     1       8.971  21.917  29.869  1.00  0.00     0.210 HD
ENDBRANCH   2   3
ENDBRANCH   1   2
BRANCH   1   5
ATOM      5  C   UNL     1       9.252  19.617  31.623  1.00  0.00     0.190 C 
BRANCH   5   6
ATOM      6  O   UNL     1       8.630  20.636  32.358  1.00  0.00    -0.394 OA
ATOM      7  H   UNL     1       9.130  20.702  33.213  1.00  0.00     0.210 HD
ENDBRANCH   5   6
ENDBRANCH   1   5
BRANCH   1   8
ATOM      8  O   UNL     1      10.028  19.997  29.373  1.00  0.00    -0.388 OA
ATOM      9  H   UNL     1       9.224  20.549  29.185  1.00  0.00     0.211 HD
ENDBRANCH   1   8
TORSDOF 5
ENDMDL
MODEL 5
REMARK VINA RESULT:    -3.723      1.908      2.629
REMARK INTER + INTRA:          -4.488
REMARK INTER:                  -4.471
REMARK INTRA:                  -0.017
REMARK UNBOUND:                -0.002
REMARK SMILES OCC(O)CO
REMARK SMILES IDX 3 1 5 2 6 3 2 5 1 6 4 8
REMARK H PARENT 6 4 1 7 4 9
REMARK Flexibility Score: inf
ROOT
ATOM      1  C   UNL     1       9.751  20.702  30.850  1.00  0.00     0.165 C 
ENDROOT
BRANCH   1   2
ATOM      2  C   UNL     1      10.536  22.006  30.656  1.00  0.00     0.190 C 
BRANCH   2   3
ATOM      3  O   UNL     1       9.899  22.824  29.711  1.00  0.00    -0.394 OA
ATOM      4  H   UNL     1      10.597  23.417  29.327  1.00  0.00     0.210 HD
ENDBRANCH   2   3
ENDBRANCH   1   2
BRANCH   1   5
ATOM      5  C   UNL     1      10.687  19.540  31.214  1.00  0.00     0.190 C 
BRANCH   5   6
ATOM      6  O   UNL     1      12.026  19.947  31.130  1.00  0.00    -0.394 OA
ATOM      7  H   UNL     1      12.087  20.794  31.644  1.00  0.00     0.210 HD
ENDBRANCH   5   6
ENDBRANCH   1   5
BRANCH   1   8
ATOM      8  O   UNL     1       8.789  20.878  31.857  1.00  0.00    -0.388 OA
ATOM      9  H   UNL     1       8.022  21.353  31.441  1.00  0.00     0.211 HD
ENDBRANCH   1   8
TORSDOF 5
ENDMDL
MODEL 6
REMARK VINA RESULT:    -3.618      1.816      3.217
REMARK INTER + INTRA:          -4.360
REMARK INTER:                  -4.171
REMARK INTRA:                  -0.189
REMARK UNBOUND:                -0.002
REMARK SMILES OCC(O)CO
REMARK SMILES IDX 3 1 5 2 6 3 2 5 1 6 4 8
REMARK H PARENT 6 4 1 7 4 9
REMARK Flexibility Score: inf
ROOT
ATOM      1  C   UNL     1      10.601  19.840  31.197  1.00  0.00     0.165 C 
ENDROOT
BRANCH   1   2
ATOM      2  C   UNL     1       9.826  21.137  30.923  1.00  0.00     0.190 C 
BRANCH   2   3
ATOM      3  O   UNL     1      10.361  21.798  29.808  1.00  0.00    -0.394 OA
ATOM      4  H   UNL     1       9.602  22.239  29.344  1.00  0.00     0.210 HD
ENDBRANCH   2   3
ENDBRANCH   1   2
BRANCH   1   5
ATOM      5  C   UNL     1      10.215  18.741  30.196  1.00  0.00     0.190 C 
BRANCH   5   6
ATOM      6  O   UNL     1      10.261  19.238  28.885  1.00  0.00    -0.394 OA
ATOM      7  H   UNL     1       9.316  19.314  28.588  1.00  0.00     0.210 HD
ENDBRANCH   5   6
ENDBRANCH   1   5
BRANCH   1   8
ATOM      8  O   UNL     1      11.980  20.094  31.125  1.00  0.00    -0.388 OA
ATOM      9  H   UNL     1      12.287  19.760  30.241  1.00  0.00     0.211 HD
ENDBRANCH   1   8
TORSDOF 5
ENDMDL
MODEL 7
REMARK VINA RESULT:    -3.613      1.880      2.741
REMARK INTER + INTRA:          -4.355
REMARK INTER:                  -4.179
REMARK INTRA:                  -0.176
REMARK UNBOUND:                -0.002
REMARK SMILES OCC(O)CO
REMARK SMILES IDX 3 1 5 2 6 3 2 5 1 6 4 8
REMARK H PARENT 6 4 1 7 4 9
REMARK Flexibility Score: inf
ROOT
ATOM      1  C   UNL     1      10.178  20.155  30.745  1.00  0.00     0.165 C 
ENDROOT
BRANCH   1   2
ATOM      2  C   UNL     1       9.238  19.621  31.834  1.00  0.00     0.190 C 
BRANCH   2   3
ATOM      3  O   UNL     1       8.610  20.683  32.500  1.00  0.00    -0.394 OA
ATOM      4  H   UNL     1       8.028  20.281  33.198  1.00  0.00     0.210 HD
ENDBRANCH   2   3
ENDBRANCH   1   2
BRANCH   1   5
ATOM      5  C   UNL     1      10.486  21.644  30.961  1.00  0.00     0.190 C 
BRANCH   5   6
ATOM      6  O   UNL     1       9.718  22.432  30.092  1.00  0.00    -0.394 OA
ATOM      7  H   UNL     1      10.044  22.230  29.177  1.00  0.00     0.210 HD
ENDBRANCH   5   6
ENDBRANCH   1   5
BRANCH   1   8
ATOM      8  O   UNL     1      11.369  19.412  30.747  1.00  0.00    -0.388 OA
ATOM      9  H   UNL     1      12.018  19.913  31.308  1.00  0.00     0.211 HD
ENDBRANCH   1   8
TORSDOF 5
ENDMDL
MODEL 8
REMARK VINA RESULT:    -3.563      1.440      2.863
REMARK INTER + INTRA:          -4.295
REMARK INTER:                  -4.292
REMARK INTRA:                  -0.003
REMARK UNBOUND:                -0.002
REMARK SMILES OCC(O)CO
REMARK SMILES IDX 3 1 5 2 6 3 2 5 1 6 4 8
REMARK H PARENT 6 4 1 7 4 9
REMARK Flexibility Score: inf
ROOT
ATOM      1  C   UNL     1      10.918  21.618  30.776  1.00  0.00     0.165 C 
ENDROOT
BRANCH   1   2
ATOM      2  C   UNL     1      12.155  22.323  31.351  1.00  0.00     0.190 C 
BRANCH   2   3
ATOM      3  O   UNL     1      12.756  23.127  30.371  1.00  0.00    -0.394 OA
ATOM      4  H   UNL     1      13.711  22.857  30.324  1.00  0.00     0.210 HD
ENDBRANCH   2   3
ENDBRANCH   1   2
BRANCH   1   5
ATOM      5  C   UNL     1      10.135  20.887  31.877  1.00  0.00     0.190 C 
BRANCH   5   6
ATOM      6  O   UNL     1       8.763  20.899  31.589  1.00  0.00    -0.394 OA
ATOM      7  H   UNL     1       8.383  20.096  32.032  1.00  0.00     0.210 HD
ENDBRANCH   5   6
ENDBRANCH   1   5
BRANCH   1   8
ATOM      8  O   UNL     1      10.092  22.561  30.143  1.00  0.00    -0.388 OA
ATOM      9  H   UNL     1       9.783  23.190  30.848  1.00  0.00     0.211 HD
ENDBRANCH   1   8
TORSDOF 5
ENDMDL
MODEL 9
REMARK VINA RESULT:    -3.371     16.579     17.392
REMARK INTER + INTRA:          -4.063
REMARK INTER:                  -3.852
REMARK INTRA:                  -0.211
REMARK UNBOUND:                -0.002
REMARK SMILES OCC(O)CO
REMARK SMILES IDX 3 1 5 2 6 3 2 5 1 6 4 8
REMARK H PARENT 6 4 1 7 4 9
REMARK Flexibility Score: inf
ROOT
ATOM      1  C   UNL     1      21.500  34.414  36.741  1.00  0.00     0.165 C 
ENDROOT
BRANCH   1   2
ATOM      2  C   UNL     1      20.693  35.469  35.970  1.00  0.00     0.190 C 
BRANCH   2   3
ATOM      3  O   UNL     1      19.768  36.092  36.821  1.00  0.00    -0.394 OA
ATOM      4  H   UNL     1      19.946  35.752  37.737  1.00  0.00     0.210 HD
ENDBRANCH   2   3
ENDBRANCH   1   2
BRANCH   1   5
ATOM      5  C   UNL     1      20.602  33.255  37.198  1.00  0.00     0.190 C 
BRANCH   5   6
ATOM      6  O   UNL     1      19.764  33.670  38.242  1.00  0.00    -0.394 OA
ATOM      7  H   UNL     1      19.034  32.999  38.291  1.00  0.00     0.210 HD
ENDBRANCH   5   6
ENDBRANCH   1   5
BRANCH   1   8
ATOM      8  O   UNL     1      22.535  33.929  35.927  1.00  0.00    -0.388 OA
ATOM      9  H   UNL     1      22.973  34.721  35.517  1.00  0.00     0.211 HD
ENDBRANCH   1   8
TORSDOF 5
ENDMDL
