MODEL 1
REMARK VINA RESULT:    -3.393      0.000      0.000
REMARK INTER + INTRA:          -4.865
REMARK INTER:                  -4.583
REMARK INTRA:                  -0.282
REMARK UNBOUND:                -0.282
REMARK SMILES CCCCCCCC(=O)[O-]
REMARK SMILES IDX 5 1 6 2 7 3 8 4 9 5 10 6 4 7 3 8 2 9 1 10
REMARK H PARENT
REMARK Flexibility Score: inf
ROOT
ATOM      1  C   UNL     1      -4.687  16.018  23.008  1.00  0.00     0.000 C 
ENDROOT
BRANCH   1   2
ATOM      2  C   UNL     1      -3.733  17.225  23.046  1.00  0.00     0.006 C 
BRANCH   2   3
ATOM      3  C   UNL     1      -2.255  16.816  23.037  1.00  0.00     0.053 C 
BRANCH   3   4
ATOM      4  C   UNL     1      -1.739  16.755  21.634  1.00  0.00     0.041 C 
ATOM      5  O   UNL     1      -1.525  17.817  20.991  1.00  0.00    -0.550 OA
ATOM      6  O   UNL     1      -1.542  15.526  21.018  1.00  0.00    -0.550 OA
ENDBRANCH   3   4
ENDBRANCH   2   3
ENDBRANCH   1   2
BRANCH   1   7
ATOM      7  C   UNL     1      -5.217  15.648  21.607  1.00  0.00     0.000 C 
BRANCH   7   8
ATOM      8  C   UNL     1      -6.268  14.524  21.583  1.00  0.00    -0.000 C 
BRANCH   8   9
ATOM      9  C   UNL     1      -7.709  15.054  21.605  1.00  0.00    -0.003 C 
ATOM     10  C   UNL     1      -7.808  16.405  20.902  1.00  0.00     0.004 C 
ENDBRANCH   8   9
ENDBRANCH   7   8
ENDBRANCH   1   7
TORSDOF 6
ENDMDL
MODEL 2
REMARK VINA RESULT:    -3.362      3.206      5.345
REMARK INTER + INTRA:          -4.824
REMARK INTER:                  -4.493
REMARK INTRA:                  -0.330
REMARK UNBOUND:                -0.282
REMARK SMILES CCCCCCCC(=O)[O-]
REMARK SMILES IDX 5 1 6 2 7 3 8 4 9 5 10 6 4 7 3 8 2 9 1 10
REMARK H PARENT
REMARK Flexibility Score: inf
ROOT
ATOM      1  C   UNL     1      -5.097  16.168  22.608  1.00  0.00     0.000 C 
ENDROOT
BRANCH   1   2
ATOM      2  C   UNL     1      -5.440  15.352  21.348  1.00  0.00     0.006 C 
BRANCH   2   3
ATOM      3  C   UNL     1      -6.774  14.605  21.467  1.00  0.00     0.053 C 
BRANCH   3   4
ATOM      4  C   UNL     1      -7.916  15.571  21.445  1.00  0.00     0.041 C 
ATOM      5  O   UNL     1      -8.897  15.411  22.218  1.00  0.00    -0.550 OA
ATOM      6  O   UNL     1      -7.920  16.621  20.534  1.00  0.00    -0.550 OA
ENDBRANCH   3   4
ENDBRANCH   2   3
ENDBRANCH   1   2
BRANCH   1   7
ATOM      7  C   UNL     1      -3.594  16.245  22.948  1.00  0.00     0.000 C 
BRANCH   7   8
ATOM      8  C   UNL     1      -2.852  17.454  22.352  1.00  0.00    -0.000 C 
BRANCH   8   9
ATOM      9  C   UNL     1      -1.624  17.052  21.523  1.00  0.00    -0.003 C 
ATOM     10  C   UNL     1      -1.683  15.577  21.134  1.00  0.00     0.004 C 
ENDBRANCH   8   9
ENDBRANCH   7   8
ENDBRANCH   1   7
TORSDOF 6
ENDMDL
MODEL 3
REMARK VINA RESULT:    -3.273     10.401     13.443
REMARK INTER + INTRA:          -4.703
REMARK INTER:                  -4.368
REMARK INTRA:                  -0.335
REMARK UNBOUND:                -0.282
REMARK SMILES CCCCCCCC(=O)[O-]
REMARK SMILES IDX 5 1 6 2 7 3 8 4 9 5 10 6 4 7 3 8 2 9 1 10
REMARK H PARENT
REMARK Flexibility Score: inf
ROOT
ATOM      1  C   UNL     1       8.648  17.213  20.872  1.00  0.00     0.000 C 
ENDROOT
BRANCH   1   2
ATOM      2  C   UNL     1       8.376  16.030  21.819  1.00  0.00     0.006 C 
BRANCH   2   3
ATOM      3  C   UNL     1       7.120  16.231  22.677  1.00  0.00     0.053 C 
BRANCH   3   4
ATOM      4  C   UNL     1       5.909  15.742  21.948  1.00  0.00     0.041 C 
ATOM      5  O   UNL     1       5.211  16.542  21.271  1.00  0.00    -0.550 OA
ATOM      6  O   UNL     1       5.521  14.412  22.057  1.00  0.00    -0.550 OA
ENDBRANCH   3   4
ENDBRANCH   2   3
ENDBRANCH   1   2
BRANCH   1   7
ATOM      7  C   UNL     1       9.987  17.143  20.108  1.00  0.00     0.000 C 
BRANCH   7   8
ATOM      8  C   UNL     1      10.883  15.946  20.472  1.00  0.00    -0.000 C 
BRANCH   8   9
ATOM      9  C   UNL     1      10.977  14.907  19.345  1.00  0.00    -0.003 C 
ATOM     10  C   UNL     1      10.355  13.580  19.769  1.00  0.00     0.004 C 
ENDBRANCH   8   9
ENDBRANCH   7   8
ENDBRANCH   1   7
TORSDOF 6
ENDMDL
MODEL 4
REMARK VINA RESULT:    -3.164     13.750     15.344
REMARK INTER + INTRA:          -4.556
REMARK INTER:                  -4.277
REMARK INTRA:                  -0.279
REMARK UNBOUND:                -0.282
REMARK SMILES CCCCCCCC(=O)[O-]
REMARK SMILES IDX 5 1 6 2 7 3 8 4 9 5 10 6 4 7 3 8 2 9 1 10
REMARK H PARENT
REMARK Flexibility Score: inf
ROOT
ATOM      1  C   UNL     1       9.624  13.732  20.565  1.00  0.00     0.000 C 
ENDROOT
BRANCH   1   2
ATOM      2  C   UNL     1      10.544  13.316  19.402  1.00  0.00     0.006 C 
BRANCH   2   3
ATOM      3  C   UNL     1      11.125  11.908  19.578  1.00  0.00     0.053 C 
BRANCH   3   4
ATOM      4  C   UNL     1      10.635  11.003  18.492  1.00  0.00     0.041 C 
ATOM      5  O   UNL     1      10.027  11.478  17.497  1.00  0.00    -0.550 OA
ATOM      6  O   UNL     1      10.806   9.628  18.602  1.00  0.00    -0.550 OA
ENDBRANCH   3   4
ENDBRANCH   2   3
ENDBRANCH   1   2
BRANCH   1   7
ATOM      7  C   UNL     1       9.995  15.066  21.246  1.00  0.00     0.000 C 
BRANCH   7   8
ATOM      8  C   UNL     1      10.709  16.085  20.340  1.00  0.00    -0.000 C 
BRANCH   8   9
ATOM      9  C   UNL     1       9.982  17.436  20.274  1.00  0.00    -0.003 C 
ATOM     10  C   UNL     1       8.636  17.371  20.988  1.00  0.00     0.004 C 
ENDBRANCH   8   9
ENDBRANCH   7   8
ENDBRANCH   1   7
TORSDOF 6
ENDMDL
MODEL 5
REMARK VINA RESULT:    -3.119      3.851      5.490
REMARK INTER + INTRA:          -4.495
REMARK INTER:                  -4.077
REMARK INTRA:                  -0.419
REMARK UNBOUND:                -0.282
REMARK SMILES CCCCCCCC(=O)[O-]
REMARK SMILES IDX 5 1 6 2 7 3 8 4 9 5 10 6 4 7 3 8 2 9 1 10
REMARK H PARENT
REMARK Flexibility Score: inf
ROOT
ATOM      1  C   UNL     1      -7.804  15.298  21.283  1.00  0.00     0.000 C 
ENDROOT
BRANCH   1   2
ATOM      2  C   UNL     1      -8.396  16.719  21.303  1.00  0.00     0.006 C 
BRANCH   2   3
ATOM      3  C   UNL     1      -8.177  17.473  19.986  1.00  0.00     0.053 C 
BRANCH   3   4
ATOM      4  C   UNL     1      -8.695  18.872  20.094  1.00  0.00     0.041 C 
ATOM      5  O   UNL     1      -9.125  19.305  21.196  1.00  0.00    -0.550 OA
ATOM      6  O   UNL     1      -8.750  19.683  18.967  1.00  0.00    -0.550 OA
ENDBRANCH   3   4
ENDBRANCH   2   3
ENDBRANCH   1   2
BRANCH   1   7
ATOM      7  C   UNL     1      -6.521  15.113  22.120  1.00  0.00     0.000 C 
BRANCH   7   8
ATOM      8  C   UNL     1      -5.207  15.388  21.367  1.00  0.00    -0.000 C 
BRANCH   8   9
ATOM      9  C   UNL     1      -4.290  16.373  22.107  1.00  0.00    -0.003 C 
ATOM     10  C   UNL     1      -4.941  17.748  22.223  1.00  0.00     0.004 C 
ENDBRANCH   8   9
ENDBRANCH   7   8
ENDBRANCH   1   7
TORSDOF 6
ENDMDL
MODEL 6
REMARK VINA RESULT:    -3.004      2.066      3.358
REMARK INTER + INTRA:          -4.340
REMARK INTER:                  -4.025
REMARK INTRA:                  -0.314
REMARK UNBOUND:                -0.282
REMARK SMILES CCCCCCCC(=O)[O-]
REMARK SMILES IDX 5 1 6 2 7 3 8 4 9 5 10 6 4 7 3 8 2 9 1 10
REMARK H PARENT
REMARK Flexibility Score: inf
ROOT
ATOM      1  C   UNL     1      -7.334  15.165  21.899  1.00  0.00     0.000 C 
ENDROOT
BRANCH   1   2
ATOM      2  C   UNL     1      -6.019  15.558  21.200  1.00  0.00     0.006 C 
BRANCH   2   3
ATOM      3  C   UNL     1      -4.854  15.737  22.181  1.00  0.00     0.053 C 
BRANCH   3   4
ATOM      4  C   UNL     1      -4.443  17.174  22.246  1.00  0.00     0.041 C 
ATOM      5  O   UNL     1      -3.298  17.524  21.855  1.00  0.00    -0.550 OA
ATOM      6  O   UNL     1      -5.307  18.120  22.783  1.00  0.00    -0.550 OA
ENDBRANCH   3   4
ENDBRANCH   2   3
ENDBRANCH   1   2
BRANCH   1   7
ATOM      7  C   UNL     1      -8.542  16.065  21.569  1.00  0.00     0.000 C 
BRANCH   7   8
ATOM      8  C   UNL     1      -8.187  17.466  21.041  1.00  0.00    -0.000 C 
BRANCH   8   9
ATOM      9  C   UNL     1      -8.896  17.804  19.721  1.00  0.00    -0.003 C 
ATOM     10  C   UNL     1      -8.764  19.288  19.391  1.00  0.00     0.004 C 
ENDBRANCH   8   9
ENDBRANCH   7   8
ENDBRANCH   1   7
TORSDOF 6
ENDMDL
MODEL 7
REMARK VINA RESULT:    -2.945     10.171     13.069
REMARK INTER + INTRA:          -4.261
REMARK INTER:                  -3.800
REMARK INTRA:                  -0.461
REMARK UNBOUND:                -0.282
REMARK SMILES CCCCCCCC(=O)[O-]
REMARK SMILES IDX 5 1 6 2 7 3 8 4 9 5 10 6 4 7 3 8 2 9 1 10
REMARK H PARENT
REMARK Flexibility Score: inf
ROOT
ATOM      1  C   UNL     1       9.158  13.744  22.002  1.00  0.00     0.000 C 
ENDROOT
BRANCH   1   2
ATOM      2  C   UNL     1       7.730  14.119  21.568  1.00  0.00     0.006 C 
BRANCH   2   3
ATOM      3  C   UNL     1       6.995  14.971  22.612  1.00  0.00     0.053 C 
BRANCH   3   4
ATOM      4  C   UNL     1       5.629  15.332  22.122  1.00  0.00     0.041 C 
ATOM      5  O   UNL     1       4.631  14.644  22.463  1.00  0.00    -0.550 OA
ATOM      6  O   UNL     1       5.464  16.398  21.247  1.00  0.00    -0.550 OA
ENDBRANCH   3   4
ENDBRANCH   2   3
ENDBRANCH   1   2
BRANCH   1   7
ATOM      7  C   UNL     1      10.246  14.771  21.626  1.00  0.00     0.000 C 
BRANCH   7   8
ATOM      8  C   UNL     1      10.084  15.414  20.237  1.00  0.00    -0.000 C 
BRANCH   8   9
ATOM      9  C   UNL     1      10.256  16.939  20.261  1.00  0.00    -0.003 C 
ATOM     10  C   UNL     1       8.976  17.629  20.723  1.00  0.00     0.004 C 
ENDBRANCH   8   9
ENDBRANCH   7   8
ENDBRANCH   1   7
TORSDOF 6
ENDMDL
MODEL 8
REMARK VINA RESULT:    -2.866     11.833     13.385
REMARK INTER + INTRA:          -4.154
REMARK INTER:                  -3.617
REMARK INTRA:                  -0.537
REMARK UNBOUND:                -0.282
REMARK SMILES CCCCCCCC(=O)[O-]
REMARK SMILES IDX 5 1 6 2 7 3 8 4 9 5 10 6 4 7 3 8 2 9 1 10
REMARK H PARENT
REMARK Flexibility Score: inf
ROOT
ATOM      1  C   UNL     1       8.441  17.090  20.744  1.00  0.00     0.000 C 
ENDROOT
BRANCH   1   2
ATOM      2  C   UNL     1       9.965  16.991  20.553  1.00  0.00     0.006 C 
BRANCH   2   3
ATOM      3  C   UNL     1      10.385  15.757  19.744  1.00  0.00     0.053 C 
BRANCH   3   4
ATOM      4  C   UNL     1      10.360  14.535  20.606  1.00  0.00     0.041 C 
ATOM      5  O   UNL     1      10.811  14.579  21.781  1.00  0.00    -0.550 OA
ATOM      6  O   UNL     1       9.884  13.334  20.095  1.00  0.00    -0.550 OA
ENDBRANCH   3   4
ENDBRANCH   2   3
ENDBRANCH   1   2
BRANCH   1   7
ATOM      7  C   UNL     1       7.930  16.683  22.142  1.00  0.00     0.000 C 
BRANCH   7   8
ATOM      8  C   UNL     1       6.610  15.891  22.149  1.00  0.00    -0.000 C 
BRANCH   8   9
ATOM      9  C   UNL     1       6.778  14.447  21.653  1.00  0.00    -0.003 C 
ATOM     10  C   UNL     1       7.413  13.569  22.727  1.00  0.00     0.004 C 
ENDBRANCH   8   9
ENDBRANCH   7   8
ENDBRANCH   1   7
TORSDOF 6
ENDMDL
