MODEL 1
REMARK VINA RESULT:    -0.859      0.000      0.000
REMARK INTER + INTRA:          -1.400
REMARK INTER:                  -1.135
REMARK INTRA:                  -0.265
REMARK UNBOUND:                -0.265
REMARK SMILES CCCCC=CC=CCO
REMARK SMILES IDX 5 1 6 2 4 3 3 4 2 5 1 6 7 7 8 8 9 9 10 10
REMARK H PARENT 10 11
REMARK Flexibility Score: inf
ROOT
ATOM      1  C   UNL     1     -38.663   6.094 -53.326  1.00  0.00    -0.027 C 
ATOM      2  C   UNL     1     -39.601   5.794 -54.230  1.00  0.00    -0.005 C 
ENDROOT
BRANCH   1   3
ATOM      3  C   UNL     1     -37.909   7.391 -53.376  1.00  0.00     0.027 C 
BRANCH   3   4
ATOM      4  C   UNL     1     -37.038   7.480 -54.634  1.00  0.00     0.004 C 
BRANCH   4   5
ATOM      5  C   UNL     1     -35.798   6.589 -54.508  1.00  0.00    -0.003 C 
ATOM      6  C   UNL     1     -34.533   7.345 -54.909  1.00  0.00     0.004 C 
ENDBRANCH   4   5
ENDBRANCH   3   4
ENDBRANCH   1   3
BRANCH   2   7
ATOM      7  C   UNL     1     -40.341   4.525 -54.161  1.00  0.00    -0.002 C 
ATOM      8  C   UNL     1     -40.176   3.686 -53.135  1.00  0.00     0.001 C 
BRANCH   8   9
ATOM      9  C   UNL     1     -40.923   2.388 -53.063  1.00  0.00     0.183 C 
BRANCH   9  10
ATOM     10  O   UNL     1     -40.279   1.499 -52.194  1.00  0.00    -0.392 OA
ATOM     11  H   UNL     1     -40.875   0.710 -52.101  1.00  0.00     0.210 HD
ENDBRANCH   9  10
ENDBRANCH   8   9
ENDBRANCH   2   7
TORSDOF 6
ENDMDL
MODEL 2
REMARK VINA RESULT:    -0.715      3.495      5.492
REMARK INTER + INTRA:          -1.210
REMARK INTER:                  -0.862
REMARK INTRA:                  -0.348
REMARK UNBOUND:                -0.265
REMARK SMILES CCCCC=CC=CCO
REMARK SMILES IDX 5 1 6 2 4 3 3 4 2 5 1 6 7 7 8 8 9 9 10 10
REMARK H PARENT 10 11
REMARK Flexibility Score: inf
ROOT
ATOM      1  C   UNL     1     -39.108   5.593 -54.512  1.00  0.00    -0.027 C 
ATOM      2  C   UNL     1     -38.598   6.758 -54.104  1.00  0.00    -0.005 C 
ENDROOT
BRANCH   1   3
ATOM      3  C   UNL     1     -40.554   5.456 -54.891  1.00  0.00     0.027 C 
BRANCH   3   4
ATOM      4  C   UNL     1     -41.081   6.739 -55.545  1.00  0.00     0.004 C 
BRANCH   4   5
ATOM      5  C   UNL     1     -40.862   6.712 -57.061  1.00  0.00    -0.003 C 
ATOM      6  C   UNL     1     -40.510   8.099 -57.593  1.00  0.00     0.004 C 
ENDBRANCH   4   5
ENDBRANCH   3   4
ENDBRANCH   1   3
BRANCH   2   7
ATOM      7  C   UNL     1     -37.176   6.881 -53.748  1.00  0.00    -0.002 C 
ATOM      8  C   UNL     1     -36.240   7.017 -54.692  1.00  0.00     0.001 C 
BRANCH   8   9
ATOM      9  C   UNL     1     -34.789   7.135 -54.335  1.00  0.00     0.183 C 
BRANCH   9  10
ATOM     10  O   UNL     1     -34.024   7.406 -55.478  1.00  0.00    -0.392 OA
ATOM     11  H   UNL     1     -34.630   7.849 -56.127  1.00  0.00     0.210 HD
ENDBRANCH   9  10
ENDBRANCH   8   9
ENDBRANCH   2   7
TORSDOF 6
ENDMDL
MODEL 3
REMARK VINA RESULT:    -0.680      2.932      5.901
REMARK INTER + INTRA:          -1.164
REMARK INTER:                  -0.949
REMARK INTRA:                  -0.215
REMARK UNBOUND:                -0.265
REMARK SMILES CCCCC=CC=CCO
REMARK SMILES IDX 5 1 6 2 4 3 3 4 2 5 1 6 7 7 8 8 9 9 10 10
REMARK H PARENT 10 11
REMARK Flexibility Score: inf
ROOT
ATOM      1  C   UNL     1     -39.493   5.689 -54.621  1.00  0.00    -0.027 C 
ATOM      2  C   UNL     1     -38.505   6.056 -53.800  1.00  0.00    -0.005 C 
ENDROOT
BRANCH   1   3
ATOM      3  C   UNL     1     -40.499   4.648 -54.225  1.00  0.00     0.027 C 
BRANCH   3   4
ATOM      4  C   UNL     1     -40.091   3.947 -52.924  1.00  0.00     0.004 C 
BRANCH   4   5
ATOM      5  C   UNL     1     -40.714   2.549 -52.834  1.00  0.00    -0.003 C 
ATOM      6  C   UNL     1     -40.336   1.860 -51.526  1.00  0.00     0.004 C 
ENDBRANCH   4   5
ENDBRANCH   3   4
ENDBRANCH   1   3
BRANCH   2   7
ATOM      7  C   UNL     1     -37.534   7.087 -54.196  1.00  0.00    -0.002 C 
ATOM      8  C   UNL     1     -36.315   6.755 -54.629  1.00  0.00     0.001 C 
BRANCH   8   9
ATOM      9  C   UNL     1     -35.320   7.802 -55.028  1.00  0.00     0.183 C 
BRANCH   9  10
ATOM     10  O   UNL     1     -34.027   7.263 -55.060  1.00  0.00    -0.392 OA
ATOM     11  H   UNL     1     -33.509   7.804 -55.712  1.00  0.00     0.210 HD
ENDBRANCH   9  10
ENDBRANCH   8   9
ENDBRANCH   2   7
TORSDOF 6
ENDMDL
MODEL 4
REMARK VINA RESULT:    -0.374     21.380     22.241
REMARK INTER + INTRA:          -0.759
REMARK INTER:                  -1.007
REMARK INTRA:                   0.248
REMARK UNBOUND:                -0.265
REMARK SMILES CCCCC=CC=CCO
REMARK SMILES IDX 5 1 6 2 4 3 3 4 2 5 1 6 7 7 8 8 9 9 10 10
REMARK H PARENT 10 11
REMARK Flexibility Score: inf
ROOT
ATOM      1  C   UNL     1     -23.406 -11.478 -53.299  1.00  0.00    -0.027 C 
ATOM      2  C   UNL     1     -24.469 -12.124 -52.811  1.00  0.00    -0.005 C 
ENDROOT
BRANCH   1   3
ATOM      3  C   UNL     1     -22.052 -12.123 -53.355  1.00  0.00     0.027 C 
BRANCH   3   4
ATOM      4  C   UNL     1     -21.029 -11.343 -52.521  1.00  0.00     0.004 C 
BRANCH   4   5
ATOM      5  C   UNL     1     -21.239 -11.590 -51.023  1.00  0.00    -0.003 C 
ATOM      6  C   UNL     1     -22.396 -10.755 -50.483  1.00  0.00     0.004 C 
ENDBRANCH   4   5
ENDBRANCH   3   4
ENDBRANCH   1   3
BRANCH   2   7
ATOM      7  C   UNL     1     -25.793 -11.485 -52.774  1.00  0.00    -0.002 C 
ATOM      8  C   UNL     1     -26.799 -11.940 -53.526  1.00  0.00     0.001 C 
BRANCH   8   9
ATOM      9  C   UNL     1     -28.148 -11.288 -53.496  1.00  0.00     0.183 C 
BRANCH   9  10
ATOM     10  O   UNL     1     -29.062 -12.015 -54.271  1.00  0.00    -0.392 OA
ATOM     11  H   UNL     1     -29.024 -11.634 -55.187  1.00  0.00     0.210 HD
ENDBRANCH   9  10
ENDBRANCH   8   9
ENDBRANCH   2   7
TORSDOF 6
ENDMDL
MODEL 5
REMARK VINA RESULT:    -0.341     21.048     21.870
REMARK INTER + INTRA:          -0.715
REMARK INTER:                  -1.033
REMARK INTRA:                   0.317
REMARK UNBOUND:                -0.265
REMARK SMILES CCCCC=CC=CCO
REMARK SMILES IDX 5 1 6 2 4 3 3 4 2 5 1 6 7 7 8 8 9 9 10 10
REMARK H PARENT 10 11
REMARK Flexibility Score: inf
ROOT
ATOM      1  C   UNL     1     -24.395 -11.022 -52.738  1.00  0.00    -0.027 C 
ATOM      2  C   UNL     1     -25.041 -12.124 -53.129  1.00  0.00    -0.005 C 
ENDROOT
BRANCH   1   3
ATOM      3  C   UNL     1     -23.085 -11.096 -52.010  1.00  0.00     0.027 C 
BRANCH   3   4
ATOM      4  C   UNL     1     -22.115 -12.059 -52.706  1.00  0.00     0.004 C 
BRANCH   4   5
ATOM      5  C   UNL     1     -22.331 -12.054 -54.223  1.00  0.00    -0.003 C 
ATOM      6  C   UNL     1     -21.001 -12.123 -54.969  1.00  0.00     0.004 C 
ENDBRANCH   4   5
ENDBRANCH   3   4
ENDBRANCH   1   3
BRANCH   2   7
ATOM      7  C   UNL     1     -26.319 -12.037 -53.853  1.00  0.00    -0.002 C 
ATOM      8  C   UNL     1     -27.467 -11.831 -53.202  1.00  0.00     0.001 C 
BRANCH   8   9
ATOM      9  C   UNL     1     -28.772 -11.748 -53.935  1.00  0.00     0.183 C 
BRANCH   9  10
ATOM     10  O   UNL     1     -29.233 -10.425 -53.965  1.00  0.00    -0.392 OA
ATOM     11  H   UNL     1     -28.796  -9.954 -53.209  1.00  0.00     0.210 HD
ENDBRANCH   9  10
ENDBRANCH   8   9
ENDBRANCH   2   7
TORSDOF 6
ENDMDL
MODEL 6
REMARK VINA RESULT:     1.069      1.563      2.398
REMARK INTER + INTRA:           1.148
REMARK INTER:                   1.404
REMARK INTRA:                  -0.255
REMARK UNBOUND:                -0.265
REMARK SMILES CCCCC=CC=CCO
REMARK SMILES IDX 5 1 6 2 4 3 3 4 2 5 1 6 7 7 8 8 9 9 10 10
REMARK H PARENT 10 11
REMARK Flexibility Score: inf
ROOT
ATOM      1  C   UNL     1     -37.479   7.322 -55.070  1.00  0.00    -0.027 C 
ATOM      2  C   UNL     1     -37.821   6.987 -53.822  1.00  0.00    -0.005 C 
ENDROOT
BRANCH   1   3
ATOM      3  C   UNL     1     -36.244   8.125 -55.357  1.00  0.00     0.027 C 
BRANCH   3   4
ATOM      4  C   UNL     1     -35.043   7.604 -54.557  1.00  0.00     0.004 C 
BRANCH   4   5
ATOM      5  C   UNL     1     -34.681   6.175 -54.978  1.00  0.00    -0.003 C 
ATOM      6  C   UNL     1     -34.755   5.216 -53.793  1.00  0.00     0.004 C 
ENDBRANCH   4   5
ENDBRANCH   3   4
ENDBRANCH   1   3
BRANCH   2   7
ATOM      7  C   UNL     1     -39.028   6.189 -53.556  1.00  0.00    -0.002 C 
ATOM      8  C   UNL     1     -39.849   5.831 -54.547  1.00  0.00     0.001 C 
BRANCH   8   9
ATOM      9  C   UNL     1     -41.083   5.023 -54.281  1.00  0.00     0.183 C 
BRANCH   9  10
ATOM     10  O   UNL     1     -40.742   3.718 -53.902  1.00  0.00    -0.392 OA
ATOM     11  H   UNL     1     -40.303   3.786 -53.014  1.00  0.00     0.210 HD
ENDBRANCH   9  10
ENDBRANCH   8   9
ENDBRANCH   2   7
TORSDOF 6
ENDMDL
MODEL 7
REMARK VINA RESULT:     1.178     11.932     15.326
REMARK INTER + INTRA:           1.292
REMARK INTER:                   1.358
REMARK INTRA:                  -0.065
REMARK UNBOUND:                -0.265
REMARK SMILES CCCCC=CC=CCO
REMARK SMILES IDX 5 1 6 2 4 3 3 4 2 5 1 6 7 7 8 8 9 9 10 10
REMARK H PARENT 10 11
REMARK Flexibility Score: inf
ROOT
ATOM      1  C   UNL     1     -23.018   7.235 -57.959  1.00  0.00    -0.027 C 
ATOM      2  C   UNL     1     -23.895   6.862 -57.024  1.00  0.00    -0.005 C 
ENDROOT
BRANCH   1   3
ATOM      3  C   UNL     1     -21.537   7.126 -57.736  1.00  0.00     0.027 C 
BRANCH   3   4
ATOM      4  C   UNL     1     -21.105   5.664 -57.576  1.00  0.00     0.004 C 
BRANCH   4   5
ATOM      5  C   UNL     1     -21.951   4.741 -58.461  1.00  0.00    -0.003 C 
ATOM      6  C   UNL     1     -21.194   4.344 -59.725  1.00  0.00     0.004 C 
ENDBRANCH   4   5
ENDBRANCH   3   4
ENDBRANCH   1   3
BRANCH   2   7
ATOM      7  C   UNL     1     -25.344   6.962 -57.261  1.00  0.00    -0.002 C 
ATOM      8  C   UNL     1     -26.154   5.929 -57.016  1.00  0.00     0.001 C 
BRANCH   8   9
ATOM      9  C   UNL     1     -27.630   6.023 -57.261  1.00  0.00     0.183 C 
BRANCH   9  10
ATOM     10  O   UNL     1     -28.150   4.770 -57.612  1.00  0.00    -0.392 OA
ATOM     11  H   UNL     1     -28.213   4.243 -56.773  1.00  0.00     0.210 HD
ENDBRANCH   9  10
ENDBRANCH   8   9
ENDBRANCH   2   7
TORSDOF 6
ENDMDL
MODEL 8
REMARK VINA RESULT:     1.883      6.818      7.484
REMARK INTER + INTRA:           2.224
REMARK INTER:                   2.189
REMARK INTRA:                   0.034
REMARK UNBOUND:                -0.265
REMARK SMILES CCCCC=CC=CCO
REMARK SMILES IDX 5 1 6 2 4 3 3 4 2 5 1 6 7 7 8 8 9 9 10 10
REMARK H PARENT 10 11
REMARK Flexibility Score: inf
ROOT
ATOM      1  C   UNL     1     -34.707  -0.115 -54.554  1.00  0.00    -0.027 C 
ATOM      2  C   UNL     1     -35.802  -0.239 -55.308  1.00  0.00    -0.005 C 
ENDROOT
BRANCH   1   3
ATOM      3  C   UNL     1     -33.977   1.192 -54.438  1.00  0.00     0.027 C 
BRANCH   3   4
ATOM      4  C   UNL     1     -32.697   1.042 -53.607  1.00  0.00     0.004 C 
BRANCH   4   5
ATOM      5  C   UNL     1     -32.976   1.283 -52.119  1.00  0.00    -0.003 C 
ATOM      6  C   UNL     1     -33.729   0.108 -51.502  1.00  0.00     0.004 C 
ENDBRANCH   4   5
ENDBRANCH   3   4
ENDBRANCH   1   3
BRANCH   2   7
ATOM      7  C   UNL     1     -36.515  -1.523 -55.402  1.00  0.00    -0.002 C 
ATOM      8  C   UNL     1     -35.921  -2.604 -55.915  1.00  0.00     0.001 C 
BRANCH   8   9
ATOM      9  C   UNL     1     -36.645  -3.913 -56.018  1.00  0.00     0.183 C 
BRANCH   9  10
ATOM     10  O   UNL     1     -37.737  -3.940 -55.141  1.00  0.00    -0.392 OA
ATOM     11  H   UNL     1     -37.810  -3.031 -54.750  1.00  0.00     0.210 HD
ENDBRANCH   9  10
ENDBRANCH   8   9
ENDBRANCH   2   7
TORSDOF 6
ENDMDL
