MODEL 1
REMARK VINA RESULT:    -5.535      0.000      0.000
REMARK INTER + INTRA:          -5.535
REMARK INTER:                  -5.535
REMARK INTRA:                   0.000
REMARK UNBOUND:                 0.000
REMARK SMILES C=C1CC[C@H]2C[C@@H]1C2(C)C
REMARK SMILES IDX 9 1 8 2 5 3 4 4 3 5 2 6 1 7 7 8 6 9 10 10
REMARK H PARENT
REMARK Flexibility Score: inf
ROOT
ATOM      1  C   UNL     1       6.906   7.630  14.741  1.00  0.00     0.012 C 
ATOM      2  C   UNL     1       7.700   7.463  13.417  1.00  0.00    -0.026 C 
ATOM      3  C   UNL     1       7.825   6.048  12.797  1.00  0.00    -0.004 C 
ATOM      4  C   UNL     1       6.512   5.227  13.003  1.00  0.00     0.008 C 
ATOM      5  C   UNL     1       5.228   6.012  12.533  1.00  0.00     0.031 C 
ATOM      6  C   UNL     1       5.543   7.464  12.140  1.00  0.00    -0.074 C 
ATOM      7  C   UNL     1       4.568   8.332  11.849  1.00  0.00     0.008 C 
ATOM      8  C   UNL     1       7.012   7.867  12.092  1.00  0.00     0.021 C 
ATOM      9  C   UNL     1       7.725   6.692  11.404  1.00  0.00     0.012 C 
ATOM     10  C   UNL     1       9.081   8.145  13.586  1.00  0.00     0.012 C 
ENDROOT
TORSDOF 0
ENDMDL
MODEL 2
REMARK VINA RESULT:    -4.590      1.015      3.226
REMARK INTER + INTRA:          -4.590
REMARK INTER:                  -4.590
REMARK INTRA:                   0.000
REMARK UNBOUND:                 0.000
REMARK SMILES C=C1CC[C@H]2C[C@@H]1C2(C)C
REMARK SMILES IDX 9 1 8 2 5 3 4 4 3 5 2 6 1 7 7 8 6 9 10 10
REMARK H PARENT
REMARK Flexibility Score: inf
ROOT
ATOM      1  C   UNL     1       5.627   8.229  11.816  1.00  0.00     0.012 C 
ATOM      2  C   UNL     1       5.572   6.990  12.750  1.00  0.00    -0.026 C 
ATOM      3  C   UNL     1       6.441   5.755  12.399  1.00  0.00    -0.004 C 
ATOM      4  C   UNL     1       7.815   6.189  11.793  1.00  0.00     0.008 C 
ATOM      5  C   UNL     1       8.559   7.254  12.685  1.00  0.00     0.031 C 
ATOM      6  C   UNL     1       7.692   7.746  13.854  1.00  0.00    -0.074 C 
ATOM      7  C   UNL     1       8.091   8.751  14.641  1.00  0.00     0.008 C 
ATOM      8  C   UNL     1       6.362   7.035  14.079  1.00  0.00     0.021 C 
ATOM      9  C   UNL     1       6.675   5.540  13.904  1.00  0.00     0.012 C 
ATOM     10  C   UNL     1       4.087   6.608  12.970  1.00  0.00     0.012 C 
ENDROOT
TORSDOF 0
ENDMDL
MODEL 3
REMARK VINA RESULT:    -3.991      1.092      3.060
REMARK INTER + INTRA:          -3.991
REMARK INTER:                  -3.991
REMARK INTRA:                   0.000
REMARK UNBOUND:                 0.000
REMARK SMILES C=C1CC[C@H]2C[C@@H]1C2(C)C
REMARK SMILES IDX 9 1 8 2 5 3 4 4 3 5 2 6 1 7 7 8 6 9 10 10
REMARK H PARENT
REMARK Flexibility Score: inf
ROOT
ATOM      1  C   UNL     1       4.513   6.878  12.357  1.00  0.00     0.012 C 
ATOM      2  C   UNL     1       5.697   7.865  12.164  1.00  0.00    -0.026 C 
ATOM      3  C   UNL     1       6.347   8.501  13.420  1.00  0.00    -0.004 C 
ATOM      4  C   UNL     1       6.392   7.483  14.605  1.00  0.00     0.008 C 
ATOM      5  C   UNL     1       7.030   6.103  14.191  1.00  0.00     0.031 C 
ATOM      6  C   UNL     1       7.305   6.015  12.682  1.00  0.00    -0.074 C 
ATOM      7  C   UNL     1       7.714   4.875  12.115  1.00  0.00     0.008 C 
ATOM      8  C   UNL     1       7.097   7.284  11.863  1.00  0.00     0.021 C 
ATOM      9  C   UNL     1       7.709   8.410  12.712  1.00  0.00     0.012 C 
ATOM     10  C   UNL     1       5.276   8.936  11.126  1.00  0.00     0.012 C 
ENDROOT
TORSDOF 0
ENDMDL
MODEL 4
REMARK VINA RESULT:    -3.511      1.014      2.675
REMARK INTER + INTRA:          -3.511
REMARK INTER:                  -3.511
REMARK INTRA:                   0.000
REMARK UNBOUND:                 0.000
REMARK SMILES C=C1CC[C@H]2C[C@@H]1C2(C)C
REMARK SMILES IDX 9 1 8 2 5 3 4 4 3 5 2 6 1 7 7 8 6 9 10 10
REMARK H PARENT
REMARK Flexibility Score: inf
ROOT
ATOM      1  C   UNL     1       8.022   7.004  11.056  1.00  0.00     0.012 C 
ATOM      2  C   UNL     1       7.427   6.383  12.349  1.00  0.00    -0.026 C 
ATOM      3  C   UNL     1       7.721   7.070  13.708  1.00  0.00    -0.004 C 
ATOM      4  C   UNL     1       7.750   8.625  13.557  1.00  0.00     0.008 C 
ATOM      5  C   UNL     1       6.470   9.185  12.828  1.00  0.00     0.031 C 
ATOM      6  C   UNL     1       5.569   8.065  12.285  1.00  0.00    -0.074 C 
ATOM      7  C   UNL     1       4.510   8.336  11.516  1.00  0.00     0.008 C 
ATOM      8  C   UNL     1       5.934   6.634  12.666  1.00  0.00     0.021 C 
ATOM      9  C   UNL     1       6.297   6.701  14.158  1.00  0.00     0.012 C 
ATOM     10  C   UNL     1       7.781   4.875  12.375  1.00  0.00     0.012 C 
ENDROOT
TORSDOF 0
ENDMDL
MODEL 5
REMARK VINA RESULT:    -3.355      0.869      3.336
REMARK INTER + INTRA:          -3.355
REMARK INTER:                  -3.355
REMARK INTRA:                   0.000
REMARK UNBOUND:                 0.000
REMARK SMILES C=C1CC[C@H]2C[C@@H]1C2(C)C
REMARK SMILES IDX 9 1 8 2 5 3 4 4 3 5 2 6 1 7 7 8 6 9 10 10
REMARK H PARENT
REMARK Flexibility Score: inf
ROOT
ATOM      1  C   UNL     1       6.271   4.875  13.239  1.00  0.00     0.012 C 
ATOM      2  C   UNL     1       5.344   6.024  12.756  1.00  0.00    -0.026 C 
ATOM      3  C   UNL     1       5.196   7.284  13.646  1.00  0.00    -0.004 C 
ATOM      4  C   UNL     1       6.549   7.642  14.342  1.00  0.00     0.008 C 
ATOM      5  C   UNL     1       7.749   7.723  13.324  1.00  0.00     0.031 C 
ATOM      6  C   UNL     1       7.350   7.268  11.912  1.00  0.00    -0.074 C 
ATOM      7  C   UNL     1       8.260   7.131  10.942  1.00  0.00     0.008 C 
ATOM      8  C   UNL     1       5.872   6.985  11.666  1.00  0.00     0.021 C 
ATOM      9  C   UNL     1       5.126   8.133  12.365  1.00  0.00     0.012 C 
ATOM     10  C   UNL     1       3.969   5.417  12.379  1.00  0.00     0.012 C 
ENDROOT
TORSDOF 0
ENDMDL
MODEL 6
REMARK VINA RESULT:    -3.297      1.048      2.654
REMARK INTER + INTRA:          -3.297
REMARK INTER:                  -3.297
REMARK INTRA:                   0.000
REMARK UNBOUND:                 0.000
REMARK SMILES C=C1CC[C@H]2C[C@@H]1C2(C)C
REMARK SMILES IDX 9 1 8 2 5 3 4 4 3 5 2 6 1 7 7 8 6 9 10 10
REMARK H PARENT
REMARK Flexibility Score: inf
ROOT
ATOM      1  C   UNL     1       7.822   6.779  11.548  1.00  0.00     0.012 C 
ATOM      2  C   UNL     1       7.332   7.420  12.875  1.00  0.00    -0.026 C 
ATOM      3  C   UNL     1       6.378   8.640  12.804  1.00  0.00    -0.004 C 
ATOM      4  C   UNL     1       5.375   8.500  11.613  1.00  0.00     0.008 C 
ATOM      5  C   UNL     1       4.630   7.112  11.611  1.00  0.00     0.031 C 
ATOM      6  C   UNL     1       5.180   6.151  12.677  1.00  0.00    -0.074 C 
ATOM      7  C   UNL     1       4.775   4.879  12.741  1.00  0.00     0.008 C 
ATOM      8  C   UNL     1       6.201   6.715  13.659  1.00  0.00     0.021 C 
ATOM      9  C   UNL     1       5.656   8.098  14.050  1.00  0.00     0.012 C 
ATOM     10  C   UNL     1       8.568   7.704  13.766  1.00  0.00     0.012 C 
ENDROOT
TORSDOF 0
ENDMDL
