MODEL 1
REMARK VINA RESULT:    -5.213      0.000      0.000
REMARK INTER + INTRA:          -7.546
REMARK INTER:                  -7.347
REMARK INTRA:                  -0.199
REMARK UNBOUND:                -0.199
REMARK SMILES CCCCCCCCC(=O)[O-]
REMARK SMILES IDX 6 1 7 2 8 3 9 4 10 5 11 6 5 7 4 8 3 9 2 10 1 11
REMARK H PARENT
REMARK Flexibility Score: inf
ROOT
ATOM      1  C   UNL     1      15.219   3.059  13.330  1.00  0.00     0.000 C 
ENDROOT
BRANCH   1   2
ATOM      2  C   UNL     1      15.424   1.855  12.401  1.00  0.00     0.006 C 
BRANCH   2   3
ATOM      3  C   UNL     1      16.444   2.175  11.305  1.00  0.00     0.053 C 
BRANCH   3   4
ATOM      4  C   UNL     1      17.422   1.053  11.156  1.00  0.00     0.041 C 
ATOM      5  O   UNL     1      18.038   0.610  12.161  1.00  0.00    -0.550 OA
ATOM      6  O   UNL     1      17.692   0.528   9.897  1.00  0.00    -0.550 OA
ENDBRANCH   3   4
ENDBRANCH   2   3
ENDBRANCH   1   2
BRANCH   1   7
ATOM      7  C   UNL     1      15.028   2.604  14.784  1.00  0.00     0.000 C 
BRANCH   7   8
ATOM      8  C   UNL     1      13.552   2.372  15.144  1.00  0.00    -0.000 C 
BRANCH   8   9
ATOM      9  C   UNL     1      13.323   2.258  16.658  1.00  0.00    -0.000 C 
BRANCH   9  10
ATOM     10  C   UNL     1      12.885   3.603  17.250  1.00  0.00    -0.003 C 
ATOM     11  C   UNL     1      13.340   3.745  18.699  1.00  0.00     0.004 C 
ENDBRANCH   9  10
ENDBRANCH   8   9
ENDBRANCH   7   8
ENDBRANCH   1   7
TORSDOF 7
ENDMDL
MODEL 2
REMARK VINA RESULT:    -5.078      3.682      6.320
REMARK INTER + INTRA:          -7.356
REMARK INTER:                  -6.976
REMARK INTRA:                  -0.380
REMARK UNBOUND:                -0.199
REMARK SMILES CCCCCCCCC(=O)[O-]
REMARK SMILES IDX 6 1 7 2 8 3 9 4 10 5 11 6 5 7 4 8 3 9 2 10 1 11
REMARK H PARENT
REMARK Flexibility Score: inf
ROOT
ATOM      1  C   UNL     1      12.875   3.587  16.922  1.00  0.00     0.000 C 
ENDROOT
BRANCH   1   2
ATOM      2  C   UNL     1      14.191   3.543  17.710  1.00  0.00     0.006 C 
BRANCH   2   3
ATOM      3  C   UNL     1      13.989   2.889  19.080  1.00  0.00     0.053 C 
BRANCH   3   4
ATOM      4  C   UNL     1      14.488   1.479  19.064  1.00  0.00     0.041 C 
ATOM      5  O   UNL     1      15.498   1.155  19.743  1.00  0.00    -0.550 OA
ATOM      6  O   UNL     1      13.866   0.529  18.262  1.00  0.00    -0.550 OA
ENDBRANCH   3   4
ENDBRANCH   2   3
ENDBRANCH   1   2
BRANCH   1   7
ATOM      7  C   UNL     1      13.026   2.886  15.563  1.00  0.00     0.000 C 
BRANCH   7   8
ATOM      8  C   UNL     1      14.493   2.616  15.195  1.00  0.00    -0.000 C 
BRANCH   8   9
ATOM      9  C   UNL     1      14.648   1.980  13.806  1.00  0.00    -0.000 C 
BRANCH   9  10
ATOM     10  C   UNL     1      15.424   2.906  12.862  1.00  0.00    -0.003 C 
ATOM     11  C   UNL     1      15.842   2.175  11.590  1.00  0.00     0.004 C 
ENDBRANCH   9  10
ENDBRANCH   8   9
ENDBRANCH   7   8
ENDBRANCH   1   7
TORSDOF 7
ENDMDL
MODEL 3
REMARK VINA RESULT:    -5.077     14.741     16.627
REMARK INTER + INTRA:          -7.354
REMARK INTER:                  -6.702
REMARK INTRA:                  -0.652
REMARK UNBOUND:                -0.199
REMARK SMILES CCCCCCCCC(=O)[O-]
REMARK SMILES IDX 6 1 7 2 8 3 9 4 10 5 11 6 5 7 4 8 3 9 2 10 1 11
REMARK H PARENT
REMARK Flexibility Score: inf
ROOT
ATOM      1  C   UNL     1      30.093  -2.956   6.412  1.00  0.00     0.000 C 
ENDROOT
BRANCH   1   2
ATOM      2  C   UNL     1      31.438  -2.257   6.648  1.00  0.00     0.006 C 
BRANCH   2   3
ATOM      3  C   UNL     1      31.830  -2.305   8.128  1.00  0.00     0.053 C 
BRANCH   3   4
ATOM      4  C   UNL     1      31.613  -0.972   8.770  1.00  0.00     0.041 C 
ATOM      5  O   UNL     1      31.671   0.081   8.083  1.00  0.00    -0.550 OA
ATOM      6  O   UNL     1      31.396  -0.887  10.141  1.00  0.00    -0.550 OA
ENDBRANCH   3   4
ENDBRANCH   2   3
ENDBRANCH   1   2
BRANCH   1   7
ATOM      7  C   UNL     1      29.068  -1.984   5.810  1.00  0.00     0.000 C 
BRANCH   7   8
ATOM      8  C   UNL     1      27.647  -2.213   6.351  1.00  0.00    -0.000 C 
BRANCH   8   9
ATOM      9  C   UNL     1      27.092  -0.988   7.092  1.00  0.00    -0.000 C 
BRANCH   9  10
ATOM     10  C   UNL     1      28.213  -0.000   7.436  1.00  0.00    -0.003 C 
ATOM     11  C   UNL     1      28.172   0.391   8.910  1.00  0.00     0.004 C 
ENDBRANCH   9  10
ENDBRANCH   8   9
ENDBRANCH   7   8
ENDBRANCH   1   7
TORSDOF 7
ENDMDL
MODEL 4
REMARK VINA RESULT:    -5.073     14.920     16.450
REMARK INTER + INTRA:          -7.349
REMARK INTER:                  -6.604
REMARK INTRA:                  -0.745
REMARK UNBOUND:                -0.199
REMARK SMILES CCCCCCCCC(=O)[O-]
REMARK SMILES IDX 6 1 7 2 8 3 9 4 10 5 11 6 5 7 4 8 3 9 2 10 1 11
REMARK H PARENT
REMARK Flexibility Score: inf
ROOT
ATOM      1  C   UNL     1      27.865  -2.110   5.904  1.00  0.00     0.000 C 
ENDROOT
BRANCH   1   2
ATOM      2  C   UNL     1      29.383  -1.924   5.782  1.00  0.00     0.006 C 
BRANCH   2   3
ATOM      3  C   UNL     1      30.134  -3.008   6.561  1.00  0.00     0.053 C 
BRANCH   3   4
ATOM      4  C   UNL     1      31.489  -2.518   6.966  1.00  0.00     0.041 C 
ATOM      5  O   UNL     1      31.864  -2.607   8.164  1.00  0.00    -0.550 OA
ATOM      6  O   UNL     1      32.320  -1.918   6.028  1.00  0.00    -0.550 OA
ENDBRANCH   3   4
ENDBRANCH   2   3
ENDBRANCH   1   2
BRANCH   1   7
ATOM      7  C   UNL     1      27.200  -0.846   6.468  1.00  0.00     0.000 C 
BRANCH   7   8
ATOM      8  C   UNL     1      27.460  -0.660   7.971  1.00  0.00    -0.000 C 
BRANCH   8   9
ATOM      9  C   UNL     1      28.285   0.598   8.279  1.00  0.00    -0.000 C 
BRANCH   9  10
ATOM     10  C   UNL     1      29.622   0.230   8.934  1.00  0.00    -0.003 C 
ATOM     11  C   UNL     1      30.796   0.842   8.175  1.00  0.00     0.004 C 
ENDBRANCH   9  10
ENDBRANCH   8   9
ENDBRANCH   7   8
ENDBRANCH   1   7
TORSDOF 7
ENDMDL
MODEL 5
REMARK VINA RESULT:    -5.060      3.605      6.481
REMARK INTER + INTRA:          -7.330
REMARK INTER:                  -7.087
REMARK INTRA:                  -0.243
REMARK UNBOUND:                -0.199
REMARK SMILES CCCCCCCCC(=O)[O-]
REMARK SMILES IDX 6 1 7 2 8 3 9 4 10 5 11 6 5 7 4 8 3 9 2 10 1 11
REMARK H PARENT
REMARK Flexibility Score: inf
ROOT
ATOM      1  C   UNL     1      14.622   2.642  15.031  1.00  0.00     0.000 C 
ENDROOT
BRANCH   1   2
ATOM      2  C   UNL     1      13.188   2.549  15.569  1.00  0.00     0.006 C 
BRANCH   2   3
ATOM      3  C   UNL     1      13.046   3.312  16.889  1.00  0.00     0.053 C 
BRANCH   3   4
ATOM      4  C   UNL     1      13.474   2.455  18.038  1.00  0.00     0.041 C 
ATOM      5  O   UNL     1      13.868   2.982  19.111  1.00  0.00    -0.550 OA
ATOM      6  O   UNL     1      13.483   1.071  17.907  1.00  0.00    -0.550 OA
ENDBRANCH   3   4
ENDBRANCH   2   3
ENDBRANCH   1   2
BRANCH   1   7
ATOM      7  C   UNL     1      14.743   1.948  13.666  1.00  0.00     0.000 C 
BRANCH   7   8
ATOM      8  C   UNL     1      15.479   2.808  12.627  1.00  0.00    -0.000 C 
BRANCH   8   9
ATOM      9  C   UNL     1      15.828   2.026  11.352  1.00  0.00    -0.000 C 
BRANCH   9  10
ATOM     10  C   UNL     1      17.345   1.856  11.211  1.00  0.00    -0.003 C 
ATOM     11  C   UNL     1      17.842   0.648  11.999  1.00  0.00     0.004 C 
ENDBRANCH   9  10
ENDBRANCH   8   9
ENDBRANCH   7   8
ENDBRANCH   1   7
TORSDOF 7
ENDMDL
MODEL 6
REMARK VINA RESULT:    -4.973     14.079     16.001
REMARK INTER + INTRA:          -7.208
REMARK INTER:                  -6.602
REMARK INTRA:                  -0.606
REMARK UNBOUND:                -0.199
REMARK SMILES CCCCCCCCC(=O)[O-]
REMARK SMILES IDX 6 1 7 2 8 3 9 4 10 5 11 6 5 7 4 8 3 9 2 10 1 11
REMARK H PARENT
REMARK Flexibility Score: inf
ROOT
ATOM      1  C   UNL     1      30.474  -0.444   7.084  1.00  0.00     0.000 C 
ENDROOT
BRANCH   1   2
ATOM      2  C   UNL     1      30.277   0.247   8.440  1.00  0.00     0.006 C 
BRANCH   2   3
ATOM      3  C   UNL     1      28.790   0.453   8.741  1.00  0.00     0.053 C 
BRANCH   3   4
ATOM      4  C   UNL     1      28.609   1.060  10.096  1.00  0.00     0.041 C 
ATOM      5  O   UNL     1      28.227   2.254  10.211  1.00  0.00    -0.550 OA
ATOM      6  O   UNL     1      28.911   0.322  11.235  1.00  0.00    -0.550 OA
ENDBRANCH   3   4
ENDBRANCH   2   3
ENDBRANCH   1   2
BRANCH   1   7
ATOM      7  C   UNL     1      30.671  -1.957   7.262  1.00  0.00     0.000 C 
BRANCH   7   8
ATOM      8  C   UNL     1      29.800  -2.785   6.305  1.00  0.00    -0.000 C 
BRANCH   8   9
ATOM      9  C   UNL     1      28.641  -1.974   5.708  1.00  0.00    -0.000 C 
BRANCH   9  10
ATOM     10  C   UNL     1      27.342  -2.219   6.486  1.00  0.00    -0.003 C 
ATOM     11  C   UNL     1      26.402  -1.022   6.385  1.00  0.00     0.004 C 
ENDBRANCH   9  10
ENDBRANCH   8   9
ENDBRANCH   7   8
ENDBRANCH   1   7
TORSDOF 7
ENDMDL
MODEL 7
REMARK VINA RESULT:    -4.966      3.466      5.744
REMARK INTER + INTRA:          -7.197
REMARK INTER:                  -6.571
REMARK INTRA:                  -0.626
REMARK UNBOUND:                -0.199
REMARK SMILES CCCCCCCCC(=O)[O-]
REMARK SMILES IDX 6 1 7 2 8 3 9 4 10 5 11 6 5 7 4 8 3 9 2 10 1 11
REMARK H PARENT
REMARK Flexibility Score: inf
ROOT
ATOM      1  C   UNL     1      15.471   2.681  14.819  1.00  0.00     0.000 C 
ENDROOT
BRANCH   1   2
ATOM      2  C   UNL     1      15.115   1.232  15.179  1.00  0.00     0.006 C 
BRANCH   2   3
ATOM      3  C   UNL     1      16.265   0.554  15.929  1.00  0.00     0.053 C 
BRANCH   3   4
ATOM      4  C   UNL     1      16.511   1.236  17.237  1.00  0.00     0.041 C 
ATOM      5  O   UNL     1      17.669   1.625  17.542  1.00  0.00    -0.550 OA
ATOM      6  O   UNL     1      15.470   1.399  18.144  1.00  0.00    -0.550 OA
ENDBRANCH   3   4
ENDBRANCH   2   3
ENDBRANCH   1   2
BRANCH   1   7
ATOM      7  C   UNL     1      15.141   2.979  13.350  1.00  0.00     0.000 C 
BRANCH   7   8
ATOM      8  C   UNL     1      15.377   1.769  12.432  1.00  0.00    -0.000 C 
BRANCH   8   9
ATOM      9  C   UNL     1      16.334   2.083  11.272  1.00  0.00    -0.000 C 
BRANCH   9  10
ATOM     10  C   UNL     1      17.363   0.961  11.092  1.00  0.00    -0.003 C 
ATOM     11  C   UNL     1      17.686   0.286  12.422  1.00  0.00     0.004 C 
ENDBRANCH   9  10
ENDBRANCH   8   9
ENDBRANCH   7   8
ENDBRANCH   1   7
TORSDOF 7
ENDMDL
MODEL 8
REMARK VINA RESULT:    -4.965      2.857      4.661
REMARK INTER + INTRA:          -7.196
REMARK INTER:                  -6.892
REMARK INTRA:                  -0.304
REMARK UNBOUND:                -0.199
REMARK SMILES CCCCCCCCC(=O)[O-]
REMARK SMILES IDX 6 1 7 2 8 3 9 4 10 5 11 6 5 7 4 8 3 9 2 10 1 11
REMARK H PARENT
REMARK Flexibility Score: inf
ROOT
ATOM      1  C   UNL     1      13.239   3.641  17.460  1.00  0.00     0.000 C 
ENDROOT
BRANCH   1   2
ATOM      2  C   UNL     1      13.541   2.417  16.587  1.00  0.00     0.006 C 
BRANCH   2   3
ATOM      3  C   UNL     1      13.232   2.702  15.115  1.00  0.00     0.053 C 
BRANCH   3   4
ATOM      4  C   UNL     1      14.367   2.262  14.246  1.00  0.00     0.041 C 
ATOM      5  O   UNL     1      14.337   1.135  13.685  1.00  0.00    -0.550 OA
ATOM      6  O   UNL     1      15.483   3.076  14.094  1.00  0.00    -0.550 OA
ENDBRANCH   3   4
ENDBRANCH   2   3
ENDBRANCH   1   2
BRANCH   1   7
ATOM      7  C   UNL     1      13.672   3.399  18.914  1.00  0.00     0.000 C 
BRANCH   7   8
ATOM      8  C   UNL     1      14.096   1.945  19.171  1.00  0.00    -0.000 C 
BRANCH   8   9
ATOM      9  C   UNL     1      14.704   1.744  20.567  1.00  0.00    -0.000 C 
BRANCH   9  10
ATOM     10  C   UNL     1      15.292   0.335  20.711  1.00  0.00    -0.003 C 
ATOM     11  C   UNL     1      16.329   0.055  19.628  1.00  0.00     0.004 C 
ENDBRANCH   9  10
ENDBRANCH   8   9
ENDBRANCH   7   8
ENDBRANCH   1   7
TORSDOF 7
ENDMDL
MODEL 9
REMARK VINA RESULT:    -4.911      4.698      5.771
REMARK INTER + INTRA:          -7.120
REMARK INTER:                  -6.673
REMARK INTRA:                  -0.447
REMARK UNBOUND:                -0.199
REMARK SMILES CCCCCCCCC(=O)[O-]
REMARK SMILES IDX 6 1 7 2 8 3 9 4 10 5 11 6 5 7 4 8 3 9 2 10 1 11
REMARK H PARENT
REMARK Flexibility Score: inf
ROOT
ATOM      1  C   UNL     1      15.520   0.340  20.137  1.00  0.00     0.000 C 
ENDROOT
BRANCH   1   2
ATOM      2  C   UNL     1      16.675  -0.022  19.194  1.00  0.00     0.006 C 
BRANCH   2   3
ATOM      3  C   UNL     1      16.740  -1.534  18.960  1.00  0.00     0.053 C 
BRANCH   3   4
ATOM      4  C   UNL     1      16.750  -1.838  17.496  1.00  0.00     0.041 C 
ATOM      5  O   UNL     1      17.499  -2.741  17.040  1.00  0.00    -0.550 OA
ATOM      6  O   UNL     1      15.967  -1.090  16.625  1.00  0.00    -0.550 OA
ENDBRANCH   3   4
ENDBRANCH   2   3
ENDBRANCH   1   2
BRANCH   1   7
ATOM      7  C   UNL     1      14.163   0.102  19.460  1.00  0.00     0.000 C 
BRANCH   7   8
ATOM      8  C   UNL     1      13.727   1.281  18.576  1.00  0.00    -0.000 C 
BRANCH   8   9
ATOM      9  C   UNL     1      14.113   2.642  19.173  1.00  0.00    -0.000 C 
BRANCH   9  10
ATOM     10  C   UNL     1      13.324   3.777  18.508  1.00  0.00    -0.003 C 
ATOM     11  C   UNL     1      12.889   3.394  17.097  1.00  0.00     0.004 C 
ENDBRANCH   9  10
ENDBRANCH   8   9
ENDBRANCH   7   8
ENDBRANCH   1   7
TORSDOF 7
ENDMDL
