MODEL 1
REMARK VINA RESULT:    -6.573      0.000      0.000
REMARK INTER + INTRA:          -8.166
REMARK INTER:                  -8.110
REMARK INTRA:                  -0.055
REMARK UNBOUND:                -0.055
REMARK SMILES COc1cc(-c2oc3cc(O)cc(O)c3c(=O)c2O)ccc1O
REMARK SMILES IDX 6 1 18 2 16 3 17 4 15 5 13 6 12 7 10 8 9 9 8 10 7 11 5 12
REMARK SMILES IDX 3 13 22 14 4 15 21 16 20 17 2 18 1 19 23 20 19 22 14 24
REMARK SMILES IDX 11 26
REMARK H PARENT 23 21 19 23 14 25 11 27
REMARK Flexibility Score: inf
ROOT
ATOM      1  C   UNL     1      -1.985  50.900  24.681  1.00  0.00     0.180 A 
ATOM      2  C   UNL     1      -2.686  50.271  23.638  1.00  0.00     0.208 A 
ATOM      3  C   UNL     1      -2.004  49.960  22.451  1.00  0.00     0.238 A 
ATOM      4  O   UNL     1      -2.622  49.347  21.541  1.00  0.00    -0.285 OA
ATOM      5  C   UNL     1      -0.635  50.297  22.316  1.00  0.00     0.111 A 
ATOM      6  C   UNL     1       0.144  50.065  21.142  1.00  0.00     0.134 A 
ATOM      7  C   UNL     1       1.521  50.320  21.167  1.00  0.00     0.093 A 
ATOM      8  C   UNL     1       2.134  50.858  22.297  1.00  0.00     0.123 A 
ATOM      9  C   UNL     1       1.370  51.145  23.430  1.00  0.00     0.094 A 
ATOM     10  C   UNL     1       0.002  50.867  23.448  1.00  0.00     0.146 A 
ATOM     11  O   UNL     1      -0.687  51.145  24.549  1.00  0.00    -0.452 OA
ENDROOT
BRANCH   1  12
ATOM     12  C   UNL     1      -2.642  51.282  25.953  1.00  0.00     0.025 A 
ATOM     13  C   UNL     1      -3.954  50.639  27.914  1.00  0.00     0.161 A 
ATOM     14  C   UNL     1      -3.852  51.949  28.403  1.00  0.00     0.157 A 
ATOM     15  C   UNL     1      -3.339  50.309  26.690  1.00  0.00     0.062 A 
ATOM     16  C   UNL     1      -3.140  52.915  27.682  1.00  0.00     0.051 A 
ATOM     17  C   UNL     1      -2.534  52.584  26.469  1.00  0.00     0.016 A 
BRANCH  13  18
ATOM     18  O   UNL     1      -4.669  49.697  28.670  1.00  0.00    -0.493 OA
ATOM     19  C   UNL     1      -5.051  48.409  28.200  1.00  0.00     0.278 C 
ENDBRANCH  13  18
BRANCH  14  20
ATOM     20  O   UNL     1      -4.459  52.282  29.613  1.00  0.00    -0.504 OA
ATOM     21  H   UNL     1      -4.832  51.573  30.233  1.00  0.00     0.293 HD
ENDBRANCH  14  20
ENDBRANCH   1  12
BRANCH   2  22
ATOM     22  O   UNL     1      -4.030  49.928  23.801  1.00  0.00    -0.502 OA
ATOM     23  H   UNL     1      -4.613  50.337  24.522  1.00  0.00     0.293 HD
ENDBRANCH   2  22
BRANCH   6  24
ATOM     24  O   UNL     1      -0.386  49.615  19.930  1.00  0.00    -0.507 OA
ATOM     25  H   UNL     1      -1.217  49.985  19.493  1.00  0.00     0.293 HD
ENDBRANCH   6  24
BRANCH   8  26
ATOM     26  O   UNL     1       3.504  51.113  22.281  1.00  0.00    -0.508 OA
ATOM     27  H   UNL     1       4.106  50.726  21.564  1.00  0.00     0.293 HD
ENDBRANCH   8  26
TORSDOF 6
ENDMDL
MODEL 2
REMARK VINA RESULT:    -6.507      2.273      7.509
REMARK INTER + INTRA:          -8.084
REMARK INTER:                  -7.912
REMARK INTRA:                  -0.171
REMARK UNBOUND:                -0.055
REMARK SMILES COc1cc(-c2oc3cc(O)cc(O)c3c(=O)c2O)ccc1O
REMARK SMILES IDX 6 1 18 2 16 3 17 4 15 5 13 6 12 7 10 8 9 9 8 10 7 11 5 12
REMARK SMILES IDX 3 13 22 14 4 15 21 16 20 17 2 18 1 19 23 20 19 22 14 24
REMARK SMILES IDX 11 26
REMARK H PARENT 23 21 19 23 14 25 11 27
REMARK Flexibility Score: inf
ROOT
ATOM      1  C   UNL     1      -3.201  50.623  27.137  1.00  0.00     0.180 A 
ATOM      2  C   UNL     1      -3.836  49.429  26.753  1.00  0.00     0.208 A 
ATOM      3  C   UNL     1      -4.643  48.758  27.686  1.00  0.00     0.238 A 
ATOM      4  O   UNL     1      -5.253  47.718  27.321  1.00  0.00    -0.285 OA
ATOM      5  C   UNL     1      -4.792  49.280  28.993  1.00  0.00     0.111 A 
ATOM      6  C   UNL     1      -5.554  48.661  30.030  1.00  0.00     0.134 A 
ATOM      7  C   UNL     1      -5.739  49.333  31.246  1.00  0.00     0.093 A 
ATOM      8  C   UNL     1      -5.137  50.568  31.484  1.00  0.00     0.123 A 
ATOM      9  C   UNL     1      -4.342  51.154  30.499  1.00  0.00     0.094 A 
ATOM     10  C   UNL     1      -4.169  50.525  29.264  1.00  0.00     0.146 A 
ATOM     11  O   UNL     1      -3.413  51.121  28.349  1.00  0.00    -0.452 OA
ENDROOT
BRANCH   1  12
ATOM     12  C   UNL     1      -2.315  51.374  26.218  1.00  0.00     0.025 A 
ATOM     13  C   UNL     1      -0.231  51.498  24.944  1.00  0.00     0.161 A 
ATOM     14  C   UNL     1      -0.629  52.739  24.428  1.00  0.00     0.157 A 
ATOM     15  C   UNL     1      -1.084  50.815  25.835  1.00  0.00     0.062 A 
ATOM     16  C   UNL     1      -1.864  53.288  24.792  1.00  0.00     0.051 A 
ATOM     17  C   UNL     1      -2.705  52.610  25.675  1.00  0.00     0.016 A 
BRANCH  13  18
ATOM     18  O   UNL     1       1.011  50.976  24.549  1.00  0.00    -0.493 OA
ATOM     19  C   UNL     1       1.253  50.321  23.309  1.00  0.00     0.278 C 
ENDBRANCH  13  18
BRANCH  14  20
ATOM     20  O   UNL     1       0.211  53.420  23.547  1.00  0.00    -0.504 OA
ATOM     21  H   UNL     1       1.075  53.847  23.860  1.00  0.00     0.293 HD
ENDBRANCH  14  20
ENDBRANCH   1  12
BRANCH   2  22
ATOM     22  O   UNL     1      -3.692  48.943  25.451  1.00  0.00    -0.502 OA
ATOM     23  H   UNL     1      -4.216  48.147  25.107  1.00  0.00     0.293 HD
ENDBRANCH   2  22
BRANCH   6  24
ATOM     24  O   UNL     1      -6.121  47.388  29.929  1.00  0.00    -0.507 OA
ATOM     25  H   UNL     1      -6.812  47.118  29.244  1.00  0.00     0.293 HD
ENDBRANCH   6  24
BRANCH   8  26
ATOM     26  O   UNL     1      -5.331  51.201  32.711  1.00  0.00    -0.508 OA
ATOM     27  H   UNL     1      -5.307  50.685  33.582  1.00  0.00     0.293 HD
ENDBRANCH   8  26
TORSDOF 6
ENDMDL
MODEL 3
REMARK VINA RESULT:    -6.241      2.139      7.076
REMARK INTER + INTRA:          -7.756
REMARK INTER:                  -7.441
REMARK INTRA:                  -0.315
REMARK UNBOUND:                -0.055
REMARK SMILES COc1cc(-c2oc3cc(O)cc(O)c3c(=O)c2O)ccc1O
REMARK SMILES IDX 6 1 18 2 16 3 17 4 15 5 13 6 12 7 10 8 9 9 8 10 7 11 5 12
REMARK SMILES IDX 3 13 22 14 4 15 21 16 20 17 2 18 1 19 23 20 19 22 14 24
REMARK SMILES IDX 11 26
REMARK H PARENT 23 21 19 23 14 25 11 27
REMARK Flexibility Score: inf
ROOT
ATOM      1  C   UNL     1      -2.308  50.063  25.263  1.00  0.00     0.180 A 
ATOM      2  C   UNL     1      -2.839  50.818  26.324  1.00  0.00     0.208 A 
ATOM      3  C   UNL     1      -3.819  50.240  27.146  1.00  0.00     0.238 A 
ATOM      4  O   UNL     1      -4.251  50.900  28.127  1.00  0.00    -0.285 OA
ATOM      5  C   UNL     1      -4.268  48.922  26.888  1.00  0.00     0.111 A 
ATOM      6  C   UNL     1      -5.285  48.252  27.633  1.00  0.00     0.134 A 
ATOM      7  C   UNL     1      -5.556  46.903  27.372  1.00  0.00     0.093 A 
ATOM      8  C   UNL     1      -4.895  46.220  26.352  1.00  0.00     0.123 A 
ATOM      9  C   UNL     1      -3.941  46.883  25.579  1.00  0.00     0.094 A 
ATOM     10  C   UNL     1      -3.623  48.217  25.839  1.00  0.00     0.146 A 
ATOM     11  O   UNL     1      -2.702  48.807  25.087  1.00  0.00    -0.452 OA
ENDROOT
BRANCH   1  12
ATOM     12  C   UNL     1      -1.290  50.613  24.338  1.00  0.00     0.025 A 
ATOM     13  C   UNL     1      -0.729  51.554  22.151  1.00  0.00     0.161 A 
ATOM     14  C   UNL     1       0.599  51.715  22.569  1.00  0.00     0.157 A 
ATOM     15  C   UNL     1      -1.673  51.007  23.044  1.00  0.00     0.062 A 
ATOM     16  C   UNL     1       0.978  51.343  23.864  1.00  0.00     0.051 A 
ATOM     17  C   UNL     1       0.041  50.801  24.745  1.00  0.00     0.016 A 
BRANCH  13  18
ATOM     18  O   UNL     1      -1.073  51.947  20.849  1.00  0.00    -0.493 OA
ATOM     19  C   UNL     1      -1.770  51.127  19.916  1.00  0.00     0.278 C 
ENDBRANCH  13  18
BRANCH  14  20
ATOM     20  O   UNL     1       1.538  52.255  21.690  1.00  0.00    -0.504 OA
ATOM     21  H   UNL     1       2.303  52.831  22.019  1.00  0.00     0.293 HD
ENDBRANCH  14  20
ENDBRANCH   1  12
BRANCH   2  22
ATOM     22  O   UNL     1      -2.366  52.109  26.573  1.00  0.00    -0.502 OA
ATOM     23  H   UNL     1      -1.444  52.286  26.955  1.00  0.00     0.293 HD
ENDBRANCH   2  22
BRANCH   6  24
ATOM     24  O   UNL     1      -6.069  48.869  28.612  1.00  0.00    -0.507 OA
ATOM     25  H   UNL     1      -7.035  49.136  28.491  1.00  0.00     0.293 HD
ENDBRANCH   6  24
BRANCH   8  26
ATOM     26  O   UNL     1      -5.202  44.882  26.111  1.00  0.00    -0.508 OA
ATOM     27  H   UNL     1      -5.535  44.274  26.849  1.00  0.00     0.293 HD
ENDBRANCH   8  26
TORSDOF 6
ENDMDL
MODEL 4
REMARK VINA RESULT:    -6.042      1.397      7.438
REMARK INTER + INTRA:          -7.511
REMARK INTER:                  -7.288
REMARK INTRA:                  -0.223
REMARK UNBOUND:                -0.055
REMARK SMILES COc1cc(-c2oc3cc(O)cc(O)c3c(=O)c2O)ccc1O
REMARK SMILES IDX 6 1 18 2 16 3 17 4 15 5 13 6 12 7 10 8 9 9 8 10 7 11 5 12
REMARK SMILES IDX 3 13 22 14 4 15 21 16 20 17 2 18 1 19 23 20 19 22 14 24
REMARK SMILES IDX 11 26
REMARK H PARENT 23 21 19 23 14 25 11 27
REMARK Flexibility Score: inf
ROOT
ATOM      1  C   UNL     1      -2.147  50.463  24.873  1.00  0.00     0.180 A 
ATOM      2  C   UNL     1      -1.974  51.701  25.516  1.00  0.00     0.208 A 
ATOM      3  C   UNL     1      -2.608  51.923  26.748  1.00  0.00     0.238 A 
ATOM      4  O   UNL     1      -2.405  53.013  27.346  1.00  0.00    -0.285 OA
ATOM      5  C   UNL     1      -3.420  50.911  27.315  1.00  0.00     0.111 A 
ATOM      6  C   UNL     1      -4.141  51.042  28.540  1.00  0.00     0.134 A 
ATOM      7  C   UNL     1      -4.808  49.930  29.071  1.00  0.00     0.093 A 
ATOM      8  C   UNL     1      -4.833  48.713  28.391  1.00  0.00     0.123 A 
ATOM      9  C   UNL     1      -4.181  48.591  27.163  1.00  0.00     0.094 A 
ATOM     10  C   UNL     1      -3.477  49.671  26.626  1.00  0.00     0.146 A 
ATOM     11  O   UNL     1      -2.861  49.510  25.461  1.00  0.00    -0.452 OA
ENDROOT
BRANCH   1  12
ATOM     12  C   UNL     1      -1.530  50.164  23.560  1.00  0.00     0.025 A 
ATOM     13  C   UNL     1       0.481  49.785  22.222  1.00  0.00     0.161 A 
ATOM     14  C   UNL     1      -0.321  49.541  21.098  1.00  0.00     0.157 A 
ATOM     15  C   UNL     1      -0.131  50.090  23.454  1.00  0.00     0.062 A 
ATOM     16  C   UNL     1      -1.716  49.594  21.205  1.00  0.00     0.051 A 
ATOM     17  C   UNL     1      -2.318  49.898  22.427  1.00  0.00     0.016 A 
BRANCH  13  18
ATOM     18  O   UNL     1       1.875  49.714  22.076  1.00  0.00    -0.493 OA
ATOM     19  C   UNL     1       2.744  50.841  22.075  1.00  0.00     0.278 C 
ENDBRANCH  13  18
BRANCH  14  20
ATOM     20  O   UNL     1       0.279  49.240  19.875  1.00  0.00    -0.504 OA
ATOM     21  H   UNL     1       0.990  49.838  19.471  1.00  0.00     0.293 HD
ENDBRANCH  14  20
ENDBRANCH   1  12
BRANCH   2  22
ATOM     22  O   UNL     1      -1.150  52.678  24.949  1.00  0.00    -0.502 OA
ATOM     23  H   UNL     1      -1.093  53.621  25.316  1.00  0.00     0.293 HD
ENDBRANCH   2  22
BRANCH   6  24
ATOM     24  O   UNL     1      -4.257  52.238  29.253  1.00  0.00    -0.507 OA
ATOM     25  H   UNL     1      -4.172  53.159  28.850  1.00  0.00     0.293 HD
ENDBRANCH   6  24
BRANCH   8  26
ATOM     26  O   UNL     1      -5.519  47.632  28.941  1.00  0.00    -0.508 OA
ATOM     27  H   UNL     1      -5.633  47.532  29.943  1.00  0.00     0.293 HD
ENDBRANCH   8  26
TORSDOF 6
ENDMDL
MODEL 5
REMARK VINA RESULT:    -5.979      3.211      5.093
REMARK INTER + INTRA:          -7.433
REMARK INTER:                  -7.031
REMARK INTRA:                  -0.402
REMARK UNBOUND:                -0.055
REMARK SMILES COc1cc(-c2oc3cc(O)cc(O)c3c(=O)c2O)ccc1O
REMARK SMILES IDX 6 1 18 2 16 3 17 4 15 5 13 6 12 7 10 8 9 9 8 10 7 11 5 12
REMARK SMILES IDX 3 13 22 14 4 15 21 16 20 17 2 18 1 19 23 20 19 22 14 24
REMARK SMILES IDX 11 26
REMARK H PARENT 23 21 19 23 14 25 11 27
REMARK Flexibility Score: inf
ROOT
ATOM      1  C   UNL     1      -3.723  48.943  25.549  1.00  0.00     0.180 A 
ATOM      2  C   UNL     1      -4.520  50.090  25.706  1.00  0.00     0.208 A 
ATOM      3  C   UNL     1      -3.960  51.349  25.438  1.00  0.00     0.238 A 
ATOM      4  O   UNL     1      -4.693  52.368  25.528  1.00  0.00    -0.285 OA
ATOM      5  C   UNL     1      -2.607  51.446  25.033  1.00  0.00     0.111 A 
ATOM      6  C   UNL     1      -1.926  52.674  24.773  1.00  0.00     0.134 A 
ATOM      7  C   UNL     1      -0.625  52.644  24.252  1.00  0.00     0.093 A 
ATOM      8  C   UNL     1       0.040  51.437  24.042  1.00  0.00     0.123 A 
ATOM      9  C   UNL     1      -0.596  50.234  24.349  1.00  0.00     0.094 A 
ATOM     10  C   UNL     1      -1.905  50.229  24.836  1.00  0.00     0.146 A 
ATOM     11  O   UNL     1      -2.477  49.061  25.105  1.00  0.00    -0.452 OA
ENDROOT
BRANCH   1  12
ATOM     12  C   UNL     1      -4.235  47.582  25.837  1.00  0.00     0.025 A 
ATOM     13  C   UNL     1      -5.298  45.528  25.044  1.00  0.00     0.161 A 
ATOM     14  C   UNL     1      -5.166  44.974  26.325  1.00  0.00     0.157 A 
ATOM     15  C   UNL     1      -4.824  46.833  24.804  1.00  0.00     0.062 A 
ATOM     16  C   UNL     1      -4.561  45.710  27.350  1.00  0.00     0.051 A 
ATOM     17  C   UNL     1      -4.093  47.002  27.109  1.00  0.00     0.016 A 
BRANCH  13  18
ATOM     18  O   UNL     1      -5.903  44.756  24.040  1.00  0.00    -0.493 OA
ATOM     19  C   UNL     1      -5.331  44.506  22.761  1.00  0.00     0.278 C 
ENDBRANCH  13  18
BRANCH  14  20
ATOM     20  O   UNL     1      -5.635  43.683  26.569  1.00  0.00    -0.504 OA
ATOM     21  H   UNL     1      -5.588  42.958  25.862  1.00  0.00     0.293 HD
ENDBRANCH  14  20
ENDBRANCH   1  12
BRANCH   2  22
ATOM     22  O   UNL     1      -5.859  49.969  26.086  1.00  0.00    -0.502 OA
ATOM     23  H   UNL     1      -6.356  49.086  26.055  1.00  0.00     0.293 HD
ENDBRANCH   2  22
BRANCH   6  24
ATOM     24  O   UNL     1      -2.465  53.936  25.034  1.00  0.00    -0.507 OA
ATOM     25  H   UNL     1      -2.379  54.736  24.425  1.00  0.00     0.293 HD
ENDBRANCH   6  24
BRANCH   8  26
ATOM     26  O   UNL     1       1.338  51.447  23.537  1.00  0.00    -0.508 OA
ATOM     27  H   UNL     1       1.993  50.703  23.745  1.00  0.00     0.293 HD
ENDBRANCH   8  26
TORSDOF 6
ENDMDL
MODEL 6
REMARK VINA RESULT:    -5.868      1.915      3.268
REMARK INTER + INTRA:          -7.296
REMARK INTER:                  -7.594
REMARK INTRA:                   0.298
REMARK UNBOUND:                -0.055
REMARK SMILES COc1cc(-c2oc3cc(O)cc(O)c3c(=O)c2O)ccc1O
REMARK SMILES IDX 6 1 18 2 16 3 17 4 15 5 13 6 12 7 10 8 9 9 8 10 7 11 5 12
REMARK SMILES IDX 3 13 22 14 4 15 21 16 20 17 2 18 1 19 23 20 19 22 14 24
REMARK SMILES IDX 11 26
REMARK H PARENT 23 21 19 23 14 25 11 27
REMARK Flexibility Score: inf
ROOT
ATOM      1  C   UNL     1      -2.854  50.764  26.524  1.00  0.00     0.180 A 
ATOM      2  C   UNL     1      -2.254  51.977  26.144  1.00  0.00     0.208 A 
ATOM      3  C   UNL     1      -1.549  52.037  24.931  1.00  0.00     0.238 A 
ATOM      4  O   UNL     1      -1.061  53.140  24.570  1.00  0.00    -0.285 OA
ATOM      5  C   UNL     1      -1.439  50.881  24.122  1.00  0.00     0.111 A 
ATOM      6  C   UNL     1      -0.716  50.818  22.893  1.00  0.00     0.134 A 
ATOM      7  C   UNL     1      -0.783  49.657  22.111  1.00  0.00     0.093 A 
ATOM      8  C   UNL     1      -1.493  48.538  22.543  1.00  0.00     0.123 A 
ATOM      9  C   UNL     1      -2.156  48.569  23.771  1.00  0.00     0.094 A 
ATOM     10  C   UNL     1      -2.137  49.723  24.556  1.00  0.00     0.146 A 
ATOM     11  O   UNL     1      -2.789  49.715  25.713  1.00  0.00    -0.452 OA
ENDROOT
BRANCH   1  12
ATOM     12  C   UNL     1      -3.592  50.616  27.799  1.00  0.00     0.025 A 
ATOM     13  C   UNL     1      -5.155  49.344  29.186  1.00  0.00     0.161 A 
ATOM     14  C   UNL     1      -4.968  50.264  30.227  1.00  0.00     0.157 A 
ATOM     15  C   UNL     1      -4.457  49.522  27.974  1.00  0.00     0.062 A 
ATOM     16  C   UNL     1      -4.091  51.343  30.063  1.00  0.00     0.051 A 
ATOM     17  C   UNL     1      -3.403  51.516  28.862  1.00  0.00     0.016 A 
BRANCH  13  18
ATOM     18  O   UNL     1      -6.036  48.271  29.391  1.00  0.00    -0.493 OA
ATOM     19  C   UNL     1      -6.125  47.128  28.547  1.00  0.00     0.278 C 
ENDBRANCH  13  18
BRANCH  14  20
ATOM     20  O   UNL     1      -5.656  50.094  31.428  1.00  0.00    -0.504 OA
ATOM     21  H   UNL     1      -6.663  50.191  31.481  1.00  0.00     0.293 HD
ENDBRANCH  14  20
ENDBRANCH   1  12
BRANCH   2  22
ATOM     22  O   UNL     1      -2.394  53.112  26.947  1.00  0.00    -0.502 OA
ATOM     23  H   UNL     1      -1.599  53.646  27.277  1.00  0.00     0.293 HD
ENDBRANCH   2  22
BRANCH   6  24
ATOM     24  O   UNL     1       0.100  51.847  22.414  1.00  0.00    -0.507 OA
ATOM     25  H   UNL     1       0.011  52.818  22.671  1.00  0.00     0.293 HD
ENDBRANCH   6  24
BRANCH   8  26
ATOM     26  O   UNL     1      -1.526  47.396  21.746  1.00  0.00    -0.508 OA
ATOM     27  H   UNL     1      -0.963  46.582  21.963  1.00  0.00     0.293 HD
ENDBRANCH   8  26
TORSDOF 6
ENDMDL
MODEL 7
REMARK VINA RESULT:    -5.816      1.714      3.061
REMARK INTER + INTRA:          -7.231
REMARK INTER:                  -7.110
REMARK INTRA:                  -0.121
REMARK UNBOUND:                -0.055
REMARK SMILES COc1cc(-c2oc3cc(O)cc(O)c3c(=O)c2O)ccc1O
REMARK SMILES IDX 6 1 18 2 16 3 17 4 15 5 13 6 12 7 10 8 9 9 8 10 7 11 5 12
REMARK SMILES IDX 3 13 22 14 4 15 21 16 20 17 2 18 1 19 23 20 19 22 14 24
REMARK SMILES IDX 11 26
REMARK H PARENT 23 21 19 23 14 25 11 27
REMARK Flexibility Score: inf
ROOT
ATOM      1  C   UNL     1      -1.422  51.154  23.762  1.00  0.00     0.180 A 
ATOM      2  C   UNL     1      -0.185  51.715  23.402  1.00  0.00     0.208 A 
ATOM      3  C   UNL     1       0.578  51.096  22.400  1.00  0.00     0.238 A 
ATOM      4  O   UNL     1       1.659  51.633  22.043  1.00  0.00    -0.285 OA
ATOM      5  C   UNL     1       0.102  49.914  21.781  1.00  0.00     0.111 A 
ATOM      6  C   UNL     1       0.811  49.181  20.782  1.00  0.00     0.134 A 
ATOM      7  C   UNL     1       0.186  48.099  20.147  1.00  0.00     0.093 A 
ATOM      8  C   UNL     1      -1.092  47.686  20.519  1.00  0.00     0.123 A 
ATOM      9  C   UNL     1      -1.770  48.359  21.536  1.00  0.00     0.094 A 
ATOM     10  C   UNL     1      -1.188  49.463  22.162  1.00  0.00     0.146 A 
ATOM     11  O   UNL     1      -1.871  50.082  23.118  1.00  0.00    -0.452 OA
ENDROOT
BRANCH   1  12
ATOM     12  C   UNL     1      -2.272  51.736  24.827  1.00  0.00     0.025 A 
ATOM     13  C   UNL     1      -3.428  51.478  26.966  1.00  0.00     0.161 A 
ATOM     14  C   UNL     1      -3.834  52.818  26.900  1.00  0.00     0.157 A 
ATOM     15  C   UNL     1      -2.639  50.943  25.928  1.00  0.00     0.062 A 
ATOM     16  C   UNL     1      -3.451  53.615  25.815  1.00  0.00     0.051 A 
ATOM     17  C   UNL     1      -2.671  53.082  24.788  1.00  0.00     0.016 A 
BRANCH  13  18
ATOM     18  O   UNL     1      -3.824  50.712  28.074  1.00  0.00    -0.493 OA
ATOM     19  C   UNL     1      -4.671  49.570  28.004  1.00  0.00     0.278 C 
ENDBRANCH  13  18
BRANCH  14  20
ATOM     20  O   UNL     1      -4.615  53.352  27.925  1.00  0.00    -0.504 OA
ATOM     21  H   UNL     1      -4.202  53.690  28.786  1.00  0.00     0.293 HD
ENDBRANCH  14  20
ENDBRANCH   1  12
BRANCH   2  22
ATOM     22  O   UNL     1       0.255  52.894  24.010  1.00  0.00    -0.502 OA
ATOM     23  H   UNL     1      -0.363  53.495  24.541  1.00  0.00     0.293 HD
ENDBRANCH   2  22
BRANCH   6  24
ATOM     24  O   UNL     1       2.127  49.454  20.401  1.00  0.00    -0.507 OA
ATOM     25  H   UNL     1       2.823  49.876  20.997  1.00  0.00     0.293 HD
ENDBRANCH   6  24
BRANCH   8  26
ATOM     26  O   UNL     1      -1.675  46.596  19.875  1.00  0.00    -0.508 OA
ATOM     27  H   UNL     1      -1.626  45.663  20.265  1.00  0.00     0.293 HD
ENDBRANCH   8  26
TORSDOF 6
ENDMDL
