MODEL 1
REMARK VINA RESULT:    67.208      0.000      0.000
REMARK INTER + INTRA:          88.594
REMARK INTER:                  88.817
REMARK INTRA:                  -0.223
REMARK UNBOUND:                -0.223
REMARK SMILES CC[C@H](C=C[C@H](C)[C@H]1CC[C@@H]2[C@H]3CC=C4C[C@H](O)CC[C@@]4(C)[C@@H]3CC[C@@]21C)C(C)C
REMARK SMILES IDX 6 1 7 2 5 3 4 4 3 5 2 6 1 7 28 8 29 9 30 10 8 11 9 12 26 13
REMARK SMILES IDX 10 14 11 15 25 16 27 17 12 18 24 19 23 20 13 21 21 22 14 23
REMARK SMILES IDX 15 24 20 25 22 26 16 27 19 28 17 29 18 30
REMARK H PARENT 18 31
REMARK Flexibility Score: inf
ROOT
ATOM      1  C   UNL     1      78.303   4.152  62.797  1.00  0.00     0.012 C 
ATOM      2  C   UNL     1      77.206   4.708  61.877  1.00  0.00     0.012 C 
ENDROOT
BRANCH   1   3
ATOM      3  C   UNL     1      78.854   5.171  63.783  1.00  0.00    -0.028 C 
ATOM      4  C   UNL     1      78.356   6.403  63.990  1.00  0.00    -0.027 C 
BRANCH   4   5
ATOM      5  C   UNL     1      79.071   7.391  64.891  1.00  0.00     0.014 C 
BRANCH   5   6
ATOM      6  C   UNL     1      80.123   8.204  64.096  1.00  0.00     0.004 C 
ATOM      7  C   UNL     1      81.210   8.788  65.001  1.00  0.00     0.004 C 
ENDBRANCH   5   6
BRANCH   5   8
ATOM      8  C   UNL     1      78.047   8.293  65.649  1.00  0.00    -0.011 C 
ATOM      9  C   UNL     1      78.657   9.615  66.145  1.00  0.00     0.008 C 
ATOM     10  C   UNL     1      77.381   7.552  66.815  1.00  0.00     0.008 C 
ENDBRANCH   5   8
ENDBRANCH   4   5
ENDBRANCH   1   3
BRANCH   1  11
ATOM     11  C   UNL     1      78.002   2.725  63.377  1.00  0.00     0.002 C 
ATOM     12  C   UNL     1      76.877   2.011  62.637  1.00  0.00     0.005 C 
ATOM     13  C   UNL     1      79.126   1.653  63.533  1.00  0.00    -0.026 C 
ATOM     14  C   UNL     1      76.900   0.587  63.157  1.00  0.00     0.005 C 
ATOM     15  C   UNL     1      78.339   0.298  63.639  1.00  0.00    -0.001 C 
ATOM     16  C   UNL     1      79.987   1.920  64.808  1.00  0.00     0.007 C 
ATOM     17  C   UNL     1      80.045   1.591  62.288  1.00  0.00     0.012 C 
ATOM     18  C   UNL     1      78.354  -0.319  65.068  1.00  0.00     0.000 C 
ATOM     19  C   UNL     1      80.743   0.670  65.267  1.00  0.00     0.005 C 
ATOM     20  C   UNL     1      79.804  -0.531  65.583  1.00  0.00     0.003 C 
ATOM     21  C   UNL     1      77.630  -1.679  65.104  1.00  0.00     0.031 C 
ATOM     22  C   UNL     1      79.798  -0.990  67.092  1.00  0.00    -0.008 C 
ATOM     23  C   UNL     1      77.785  -2.381  66.426  1.00  0.00    -0.027 C 
ATOM     24  C   UNL     1      78.805  -2.149  67.285  1.00  0.00    -0.065 C 
ATOM     25  C   UNL     1      81.230  -1.487  67.481  1.00  0.00     0.014 C 
ATOM     26  C   UNL     1      79.360   0.169  68.031  1.00  0.00     0.016 C 
ATOM     27  C   UNL     1      78.885  -2.961  68.560  1.00  0.00     0.063 C 
ATOM     28  C   UNL     1      81.290  -2.276  68.802  1.00  0.00     0.033 C 
ATOM     29  C   UNL     1      80.318  -3.455  68.786  1.00  0.00     0.118 C 
BRANCH  29  30
ATOM     30  O   UNL     1      80.396  -4.133  70.015  1.00  0.00    -0.393 OA
ATOM     31  H   UNL     1      81.333  -4.044  70.332  1.00  0.00     0.210 HD
ENDBRANCH  29  30
ENDBRANCH   1  11
TORSDOF 6
ENDMDL
