MODEL 1
REMARK VINA RESULT:    -2.209      0.000      0.000
REMARK INTER + INTRA:         -12.149
REMARK INTER:                  -5.825
REMARK INTRA:                  -6.324
REMARK UNBOUND:                -6.324
REMARK SMILES CCCCCCCCCCCCCCCCCCCCCCCCCCCCCC(=O)[O-]
REMARK SMILES IDX 16 1 17 2 18 3 19 4 20 5 21 6 22 7 23 8 24 9 25 10 26 11
REMARK SMILES IDX 27 12 28 13 29 14 30 15 31 16 32 17 15 18 14 19 13 20 12 21
REMARK SMILES IDX 11 22 10 23 9 24 8 25 7 26 6 27 5 28 4 29 3 30 2 31 1 32
REMARK H PARENT
REMARK Flexibility Score: inf
ROOT
ATOM      1  C   UNL     1      -3.924   5.947  10.398  1.00  0.00     0.000 C 
ENDROOT
BRANCH   1   2
ATOM      2  C   UNL     1      -3.437   4.614   9.809  1.00  0.00     0.000 C 
BRANCH   2   3
ATOM      3  C   UNL     1      -2.277   4.842   8.829  1.00  0.00     0.000 C 
BRANCH   3   4
ATOM      4  C   UNL     1      -2.188   6.296   8.330  1.00  0.00     0.000 C 
BRANCH   4   5
ATOM      5  C   UNL     1      -0.842   7.000   8.597  1.00  0.00     0.000 C 
BRANCH   5   6
ATOM      6  C   UNL     1       0.262   6.099   9.187  1.00  0.00     0.000 C 
BRANCH   6   7
ATOM      7  C   UNL     1       1.471   6.854   9.773  1.00  0.00     0.000 C 
BRANCH   7   8
ATOM      8  C   UNL     1       2.835   6.449   9.185  1.00  0.00     0.000 C 
BRANCH   8   9
ATOM      9  C   UNL     1       3.792   5.876  10.241  1.00  0.00     0.000 C 
BRANCH   9  10
ATOM     10  C   UNL     1       4.638   4.733   9.661  1.00  0.00     0.000 C 
BRANCH  10  11
ATOM     11  C   UNL     1       4.205   4.348   8.235  1.00  0.00     0.000 C 
BRANCH  11  12
ATOM     12  C   UNL     1       3.808   2.866   8.123  1.00  0.00     0.000 C 
BRANCH  12  13
ATOM     13  C   UNL     1       4.605   1.961   9.081  1.00  0.00     0.006 C 
BRANCH  13  14
ATOM     14  C   UNL     1       4.526   0.462   8.754  1.00  0.00     0.053 C 
BRANCH  14  15
ATOM     15  C   UNL     1       5.733  -0.016   8.006  1.00  0.00     0.041 C 
ATOM     16  O   UNL     1       6.623   0.799   7.652  1.00  0.00    -0.550 OA
ATOM     17  O   UNL     1       5.858  -1.358   7.669  1.00  0.00    -0.550 OA
ENDBRANCH  14  15
ENDBRANCH  13  14
ENDBRANCH  12  13
ENDBRANCH  11  12
ENDBRANCH  10  11
ENDBRANCH   9  10
ENDBRANCH   8   9
ENDBRANCH   7   8
ENDBRANCH   6   7
ENDBRANCH   5   6
ENDBRANCH   4   5
ENDBRANCH   3   4
ENDBRANCH   2   3
ENDBRANCH   1   2
BRANCH   1  18
ATOM     18  C   UNL     1      -3.506   6.130  11.866  1.00  0.00     0.000 C 
BRANCH  18  19
ATOM     19  C   UNL     1      -2.376   7.162  12.032  1.00  0.00     0.000 C 
BRANCH  19  20
ATOM     20  C   UNL     1      -1.070   6.521  12.547  1.00  0.00     0.000 C 
BRANCH  20  21
ATOM     21  C   UNL     1      -1.217   5.047  12.964  1.00  0.00     0.000 C 
BRANCH  21  22
ATOM     22  C   UNL     1      -0.518   4.079  11.994  1.00  0.00     0.000 C 
BRANCH  22  23
ATOM     23  C   UNL     1       0.956   3.838  12.354  1.00  0.00     0.000 C 
BRANCH  23  24
ATOM     24  C   UNL     1       1.726   3.116  11.237  1.00  0.00    -0.000 C 
BRANCH  24  25
ATOM     25  C   UNL     1       0.774   2.642  10.128  1.00  0.00    -0.000 C 
BRANCH  25  26
ATOM     26  C   UNL     1       0.920   1.142   9.810  1.00  0.00    -0.000 C 
BRANCH  26  27
ATOM     27  C   UNL     1       1.468   0.285  10.967  1.00  0.00    -0.000 C 
BRANCH  27  28
ATOM     28  C   UNL     1       0.373  -0.526  11.681  1.00  0.00    -0.000 C 
BRANCH  28  29
ATOM     29  C   UNL     1      -0.351   0.290  12.764  1.00  0.00    -0.000 C 
BRANCH  29  30
ATOM     30  C   UNL     1      -1.866   0.389  12.514  1.00  0.00    -0.000 C 
BRANCH  30  31
ATOM     31  C   UNL     1      -2.532   1.491  13.351  1.00  0.00    -0.003 C 
ATOM     32  C   UNL     1      -3.699   2.158  12.626  1.00  0.00     0.004 C 
ENDBRANCH  30  31
ENDBRANCH  29  30
ENDBRANCH  28  29
ENDBRANCH  27  28
ENDBRANCH  26  27
ENDBRANCH  25  26
ENDBRANCH  24  25
ENDBRANCH  23  24
ENDBRANCH  22  23
ENDBRANCH  21  22
ENDBRANCH  20  21
ENDBRANCH  19  20
ENDBRANCH  18  19
ENDBRANCH   1  18
TORSDOF 28
ENDMDL
MODEL 2
REMARK VINA RESULT:    -2.127      1.976      6.024
REMARK INTER + INTRA:         -11.932
REMARK INTER:                  -7.149
REMARK INTRA:                  -4.783
REMARK UNBOUND:                -6.324
REMARK SMILES CCCCCCCCCCCCCCCCCCCCCCCCCCCCCC(=O)[O-]
REMARK SMILES IDX 16 1 17 2 18 3 19 4 20 5 21 6 22 7 23 8 24 9 25 10 26 11
REMARK SMILES IDX 27 12 28 13 29 14 30 15 31 16 32 17 15 18 14 19 13 20 12 21
REMARK SMILES IDX 11 22 10 23 9 24 8 25 7 26 6 27 5 28 4 29 3 30 2 31 1 32
REMARK H PARENT
REMARK Flexibility Score: inf
ROOT
ATOM      1  C   UNL     1      -5.047   1.767  12.334  1.00  0.00     0.000 C 
ENDROOT
BRANCH   1   2
ATOM      2  C   UNL     1      -6.074   0.758  11.801  1.00  0.00     0.000 C 
BRANCH   2   3
ATOM      3  C   UNL     1      -5.656  -0.680  12.143  1.00  0.00     0.000 C 
BRANCH   3   4
ATOM      4  C   UNL     1      -5.547  -1.586  10.902  1.00  0.00     0.000 C 
BRANCH   4   5
ATOM      5  C   UNL     1      -4.183  -2.280  10.714  1.00  0.00     0.000 C 
BRANCH   5   6
ATOM      6  C   UNL     1      -3.484  -2.712  12.019  1.00  0.00     0.000 C 
BRANCH   6   7
ATOM      7  C   UNL     1      -2.065  -2.142  12.214  1.00  0.00     0.000 C 
BRANCH   7   8
ATOM      8  C   UNL     1      -1.077  -2.459  11.077  1.00  0.00     0.000 C 
BRANCH   8   9
ATOM      9  C   UNL     1       0.324  -1.880  11.327  1.00  0.00     0.000 C 
BRANCH   9  10
ATOM     10  C   UNL     1       0.878  -1.203  10.065  1.00  0.00     0.000 C 
BRANCH  10  11
ATOM     11  C   UNL     1       2.019  -0.220  10.378  1.00  0.00     0.000 C 
BRANCH  11  12
ATOM     12  C   UNL     1       1.865   1.116   9.630  1.00  0.00     0.000 C 
BRANCH  12  13
ATOM     13  C   UNL     1       3.131   1.989   9.704  1.00  0.00     0.006 C 
BRANCH  13  14
ATOM     14  C   UNL     1       3.346   2.902   8.488  1.00  0.00     0.053 C 
BRANCH  14  15
ATOM     15  C   UNL     1       4.158   2.237   7.419  1.00  0.00     0.041 C 
ATOM     16  O   UNL     1       4.140   2.679   6.242  1.00  0.00    -0.550 OA
ATOM     17  O   UNL     1       4.907   1.106   7.716  1.00  0.00    -0.550 OA
ENDBRANCH  14  15
ENDBRANCH  13  14
ENDBRANCH  12  13
ENDBRANCH  11  12
ENDBRANCH  10  11
ENDBRANCH   9  10
ENDBRANCH   8   9
ENDBRANCH   7   8
ENDBRANCH   6   7
ENDBRANCH   5   6
ENDBRANCH   4   5
ENDBRANCH   3   4
ENDBRANCH   2   3
ENDBRANCH   1   2
BRANCH   1  18
ATOM     18  C   UNL     1      -3.859   1.086  13.033  1.00  0.00     0.000 C 
BRANCH  18  19
ATOM     19  C   UNL     1      -2.615   1.989  13.094  1.00  0.00     0.000 C 
BRANCH  19  20
ATOM     20  C   UNL     1      -1.368   1.308  12.491  1.00  0.00     0.000 C 
BRANCH  20  21
ATOM     21  C   UNL     1      -0.378   2.283  11.828  1.00  0.00     0.000 C 
BRANCH  21  22
ATOM     22  C   UNL     1       0.701   2.790  12.799  1.00  0.00     0.000 C 
BRANCH  22  23
ATOM     23  C   UNL     1       1.212   4.194  12.439  1.00  0.00     0.000 C 
BRANCH  23  24
ATOM     24  C   UNL     1       0.914   4.575  10.980  1.00  0.00    -0.000 C 
BRANCH  24  25
ATOM     25  C   UNL     1       1.743   5.795  10.548  1.00  0.00    -0.000 C 
BRANCH  25  26
ATOM     26  C   UNL     1       1.157   6.515   9.319  1.00  0.00    -0.000 C 
BRANCH  26  27
ATOM     27  C   UNL     1      -0.242   7.123   9.530  1.00  0.00    -0.000 C 
BRANCH  27  28
ATOM     28  C   UNL     1      -1.135   7.017   8.282  1.00  0.00    -0.000 C 
BRANCH  28  29
ATOM     29  C   UNL     1      -2.438   6.250   8.555  1.00  0.00    -0.000 C 
BRANCH  29  30
ATOM     30  C   UNL     1      -2.190   4.782   8.942  1.00  0.00    -0.000 C 
BRANCH  30  31
ATOM     31  C   UNL     1      -2.945   4.370  10.214  1.00  0.00    -0.003 C 
ATOM     32  C   UNL     1      -2.729   5.346  11.370  1.00  0.00     0.004 C 
ENDBRANCH  30  31
ENDBRANCH  29  30
ENDBRANCH  28  29
ENDBRANCH  27  28
ENDBRANCH  26  27
ENDBRANCH  25  26
ENDBRANCH  24  25
ENDBRANCH  23  24
ENDBRANCH  22  23
ENDBRANCH  21  22
ENDBRANCH  20  21
ENDBRANCH  19  20
ENDBRANCH  18  19
ENDBRANCH   1  18
TORSDOF 28
ENDMDL
MODEL 3
REMARK VINA RESULT:    -2.081      2.175      4.448
REMARK INTER + INTRA:         -11.811
REMARK INTER:                  -7.532
REMARK INTRA:                  -4.279
REMARK UNBOUND:                -6.324
REMARK SMILES CCCCCCCCCCCCCCCCCCCCCCCCCCCCCC(=O)[O-]
REMARK SMILES IDX 16 1 17 2 18 3 19 4 20 5 21 6 22 7 23 8 24 9 25 10 26 11
REMARK SMILES IDX 27 12 28 13 29 14 30 15 31 16 32 17 15 18 14 19 13 20 12 21
REMARK SMILES IDX 11 22 10 23 9 24 8 25 7 26 6 27 5 28 4 29 3 30 2 31 1 32
REMARK H PARENT
REMARK Flexibility Score: inf
ROOT
ATOM      1  C   UNL     1      -2.651   1.961  12.829  1.00  0.00     0.000 C 
ENDROOT
BRANCH   1   2
ATOM      2  C   UNL     1      -2.004   3.312  13.172  1.00  0.00     0.000 C 
BRANCH   2   3
ATOM      3  C   UNL     1      -2.586   4.434  12.299  1.00  0.00     0.000 C 
BRANCH   3   4
ATOM      4  C   UNL     1      -3.539   3.912  11.207  1.00  0.00     0.000 C 
BRANCH   4   5
ATOM      5  C   UNL     1      -3.610   4.777   9.932  1.00  0.00     0.000 C 
BRANCH   5   6
ATOM      6  C   UNL     1      -2.463   4.551   8.925  1.00  0.00     0.000 C 
BRANCH   6   7
ATOM      7  C   UNL     1      -1.430   5.693   8.852  1.00  0.00     0.000 C 
BRANCH   7   8
ATOM      8  C   UNL     1      -0.090   5.399   9.550  1.00  0.00     0.000 C 
BRANCH   8   9
ATOM      9  C   UNL     1       0.077   3.918   9.919  1.00  0.00     0.000 C 
BRANCH   9  10
ATOM     10  C   UNL     1       1.489   3.636  10.454  1.00  0.00     0.000 C 
BRANCH  10  11
ATOM     11  C   UNL     1       2.557   3.679   9.347  1.00  0.00     0.000 C 
BRANCH  11  12
ATOM     12  C   UNL     1       2.933   2.276   8.840  1.00  0.00     0.000 C 
BRANCH  12  13
ATOM     13  C   UNL     1       4.051   2.305   7.781  1.00  0.00     0.006 C 
BRANCH  13  14
ATOM     14  C   UNL     1       5.328   1.550   8.184  1.00  0.00     0.053 C 
BRANCH  14  15
ATOM     15  C   UNL     1       5.053   0.117   8.518  1.00  0.00     0.041 C 
ATOM     16  O   UNL     1       4.947  -0.245   9.719  1.00  0.00    -0.550 OA
ATOM     17  O   UNL     1       4.949  -0.828   7.505  1.00  0.00    -0.550 OA
ENDBRANCH  14  15
ENDBRANCH  13  14
ENDBRANCH  12  13
ENDBRANCH  11  12
ENDBRANCH  10  11
ENDBRANCH   9  10
ENDBRANCH   8   9
ENDBRANCH   7   8
ENDBRANCH   6   7
ENDBRANCH   5   6
ENDBRANCH   4   5
ENDBRANCH   3   4
ENDBRANCH   2   3
ENDBRANCH   1   2
BRANCH   1  18
ATOM     18  C   UNL     1      -1.648   0.798  12.883  1.00  0.00     0.000 C 
BRANCH  18  19
ATOM     19  C   UNL     1      -0.498   0.964  11.874  1.00  0.00     0.000 C 
BRANCH  19  20
ATOM     20  C   UNL     1       0.833   0.392  12.405  1.00  0.00     0.000 C 
BRANCH  20  21
ATOM     21  C   UNL     1       1.778  -0.125  11.305  1.00  0.00     0.000 C 
BRANCH  21  22
ATOM     22  C   UNL     1       1.643  -1.637  11.063  1.00  0.00     0.000 C 
BRANCH  22  23
ATOM     23  C   UNL     1       0.748  -1.969   9.859  1.00  0.00     0.000 C 
BRANCH  23  24
ATOM     24  C   UNL     1      -0.338  -3.003  10.197  1.00  0.00    -0.000 C 
BRANCH  24  25
ATOM     25  C   UNL     1      -0.724  -2.931  11.683  1.00  0.00    -0.000 C 
BRANCH  25  26
ATOM     26  C   UNL     1      -2.220  -2.635  11.901  1.00  0.00    -0.000 C 
BRANCH  26  27
ATOM     27  C   UNL     1      -3.131  -2.992  10.712  1.00  0.00    -0.000 C 
BRANCH  27  28
ATOM     28  C   UNL     1      -4.441  -2.185  10.700  1.00  0.00    -0.000 C 
BRANCH  28  29
ATOM     29  C   UNL     1      -4.529  -1.189  11.868  1.00  0.00    -0.000 C 
BRANCH  29  30
ATOM     30  C   UNL     1      -5.974  -0.751  12.162  1.00  0.00    -0.000 C 
BRANCH  30  31
ATOM     31  C   UNL     1      -6.233   0.717  11.790  1.00  0.00    -0.003 C 
ATOM     32  C   UNL     1      -7.224   0.867  10.636  1.00  0.00     0.004 C 
ENDBRANCH  30  31
ENDBRANCH  29  30
ENDBRANCH  28  29
ENDBRANCH  27  28
ENDBRANCH  26  27
ENDBRANCH  25  26
ENDBRANCH  24  25
ENDBRANCH  23  24
ENDBRANCH  22  23
ENDBRANCH  21  22
ENDBRANCH  20  21
ENDBRANCH  19  20
ENDBRANCH  18  19
ENDBRANCH   1  18
TORSDOF 28
ENDMDL
MODEL 4
REMARK VINA RESULT:    -2.033      7.298     11.284
REMARK INTER + INTRA:         -11.685
REMARK INTER:                  -5.997
REMARK INTRA:                  -5.688
REMARK UNBOUND:                -6.324
REMARK SMILES CCCCCCCCCCCCCCCCCCCCCCCCCCCCCC(=O)[O-]
REMARK SMILES IDX 16 1 17 2 18 3 19 4 20 5 21 6 22 7 23 8 24 9 25 10 26 11
REMARK SMILES IDX 27 12 28 13 29 14 30 15 31 16 32 17 15 18 14 19 13 20 12 21
REMARK SMILES IDX 11 22 10 23 9 24 8 25 7 26 6 27 5 28 4 29 3 30 2 31 1 32
REMARK H PARENT
REMARK Flexibility Score: inf
ROOT
ATOM      1  C   UNL     1      -0.037  -2.842  10.315  1.00  0.00     0.000 C 
ENDROOT
BRANCH   1   2
ATOM      2  C   UNL     1      -0.086  -4.186   9.573  1.00  0.00     0.000 C 
BRANCH   2   3
ATOM      3  C   UNL     1      -1.522  -4.518   9.139  1.00  0.00     0.000 C 
BRANCH   3   4
ATOM      4  C   UNL     1      -1.967  -5.929   9.566  1.00  0.00     0.000 C 
BRANCH   4   5
ATOM      5  C   UNL     1      -2.101  -6.142  11.087  1.00  0.00     0.000 C 
BRANCH   5   6
ATOM      6  C   UNL     1      -3.548  -6.281  11.603  1.00  0.00     0.000 C 
BRANCH   6   7
ATOM      7  C   UNL     1      -4.561  -6.799  10.563  1.00  0.00     0.000 C 
BRANCH   7   8
ATOM      8  C   UNL     1      -6.015  -6.349  10.794  1.00  0.00     0.000 C 
BRANCH   8   9
ATOM      9  C   UNL     1      -6.886  -6.485   9.538  1.00  0.00     0.000 C 
BRANCH   9  10
ATOM     10  C   UNL     1      -6.063  -6.246   8.263  1.00  0.00     0.000 C 
BRANCH  10  11
ATOM     11  C   UNL     1      -6.172  -4.798   7.756  1.00  0.00     0.000 C 
BRANCH  11  12
ATOM     12  C   UNL     1      -4.873  -4.309   7.090  1.00  0.00     0.000 C 
BRANCH  12  13
ATOM     13  C   UNL     1      -4.029  -5.461   6.514  1.00  0.00     0.006 C 
BRANCH  13  14
ATOM     14  C   UNL     1      -3.645  -5.290   5.036  1.00  0.00     0.053 C 
BRANCH  14  15
ATOM     15  C   UNL     1      -4.570  -6.034   4.124  1.00  0.00     0.041 C 
ATOM     16  O   UNL     1      -5.353  -6.904   4.586  1.00  0.00    -0.550 OA
ATOM     17  O   UNL     1      -4.544  -5.792   2.756  1.00  0.00    -0.550 OA
ENDBRANCH  14  15
ENDBRANCH  13  14
ENDBRANCH  12  13
ENDBRANCH  11  12
ENDBRANCH  10  11
ENDBRANCH   9  10
ENDBRANCH   8   9
ENDBRANCH   7   8
ENDBRANCH   6   7
ENDBRANCH   5   6
ENDBRANCH   4   5
ENDBRANCH   3   4
ENDBRANCH   2   3
ENDBRANCH   1   2
BRANCH   1  18
ATOM     18  C   UNL     1      -0.162  -3.005  11.838  1.00  0.00     0.000 C 
BRANCH  18  19
ATOM     19  C   UNL     1      -1.259  -2.106  12.439  1.00  0.00     0.000 C 
BRANCH  19  20
ATOM     20  C   UNL     1      -2.665  -2.722  12.289  1.00  0.00     0.000 C 
BRANCH  20  21
ATOM     21  C   UNL     1      -3.592  -1.946  11.335  1.00  0.00     0.000 C 
BRANCH  21  22
ATOM     22  C   UNL     1      -4.510  -2.866  10.514  1.00  0.00     0.000 C 
BRANCH  22  23
ATOM     23  C   UNL     1      -5.992  -2.723  10.897  1.00  0.00     0.000 C 
BRANCH  23  24
ATOM     24  C   UNL     1      -6.783  -1.873   9.891  1.00  0.00    -0.000 C 
BRANCH  24  25
ATOM     25  C   UNL     1      -8.186  -2.454   9.661  1.00  0.00    -0.000 C 
BRANCH  25  26
ATOM     26  C   UNL     1      -8.712  -2.211   8.233  1.00  0.00    -0.000 C 
BRANCH  26  27
ATOM     27  C   UNL     1      -7.940  -1.146   7.432  1.00  0.00    -0.000 C 
BRANCH  27  28
ATOM     28  C   UNL     1      -8.808   0.067   7.059  1.00  0.00    -0.000 C 
BRANCH  28  29
ATOM     29  C   UNL     1      -8.583   1.262   8.000  1.00  0.00    -0.000 C 
BRANCH  29  30
ATOM     30  C   UNL     1      -9.552   1.261   9.195  1.00  0.00    -0.000 C 
BRANCH  30  31
ATOM     31  C   UNL     1      -8.824   1.205  10.546  1.00  0.00    -0.003 C 
ATOM     32  C   UNL     1      -7.358   1.623  10.444  1.00  0.00     0.004 C 
ENDBRANCH  30  31
ENDBRANCH  29  30
ENDBRANCH  28  29
ENDBRANCH  27  28
ENDBRANCH  26  27
ENDBRANCH  25  26
ENDBRANCH  24  25
ENDBRANCH  23  24
ENDBRANCH  22  23
ENDBRANCH  21  22
ENDBRANCH  20  21
ENDBRANCH  19  20
ENDBRANCH  18  19
ENDBRANCH   1  18
TORSDOF 28
ENDMDL
MODEL 5
REMARK VINA RESULT:    -2.014      7.176     11.375
REMARK INTER + INTRA:         -11.634
REMARK INTER:                  -6.375
REMARK INTRA:                  -5.260
REMARK UNBOUND:                -6.324
REMARK SMILES CCCCCCCCCCCCCCCCCCCCCCCCCCCCCC(=O)[O-]
REMARK SMILES IDX 16 1 17 2 18 3 19 4 20 5 21 6 22 7 23 8 24 9 25 10 26 11
REMARK SMILES IDX 27 12 28 13 29 14 30 15 31 16 32 17 15 18 14 19 13 20 12 21
REMARK SMILES IDX 11 22 10 23 9 24 8 25 7 26 6 27 5 28 4 29 3 30 2 31 1 32
REMARK H PARENT
REMARK Flexibility Score: inf
ROOT
ATOM      1  C   UNL     1      -1.083  -1.955  11.663  1.00  0.00     0.000 C 
ENDROOT
BRANCH   1   2
ATOM      2  C   UNL     1      -1.922  -2.861  10.749  1.00  0.00     0.000 C 
BRANCH   2   3
ATOM      3  C   UNL     1      -3.336  -3.050  11.317  1.00  0.00     0.000 C 
BRANCH   3   4
ATOM      4  C   UNL     1      -4.134  -1.734  11.392  1.00  0.00     0.000 C 
BRANCH   4   5
ATOM      5  C   UNL     1      -5.507  -1.760  10.691  1.00  0.00     0.000 C 
BRANCH   5   6
ATOM      6  C   UNL     1      -6.570  -2.650  11.366  1.00  0.00     0.000 C 
BRANCH   6   7
ATOM      7  C   UNL     1      -7.987  -2.046  11.413  1.00  0.00     0.000 C 
BRANCH   7   8
ATOM      8  C   UNL     1      -9.061  -2.851  10.659  1.00  0.00     0.000 C 
BRANCH   8   9
ATOM      9  C   UNL     1      -8.483  -3.670   9.496  1.00  0.00     0.000 C 
BRANCH   9  10
ATOM     10  C   UNL     1      -8.760  -2.989   8.147  1.00  0.00     0.000 C 
BRANCH  10  11
ATOM     11  C   UNL     1      -7.643  -2.012   7.741  1.00  0.00     0.000 C 
BRANCH  11  12
ATOM     12  C   UNL     1      -8.190  -0.640   7.312  1.00  0.00     0.000 C 
BRANCH  12  13
ATOM     13  C   UNL     1      -8.926   0.091   8.450  1.00  0.00     0.006 C 
BRANCH  13  14
ATOM     14  C   UNL     1      -8.037   1.022   9.288  1.00  0.00     0.053 C 
BRANCH  14  15
ATOM     15  C   UNL     1      -7.983   2.408   8.724  1.00  0.00     0.041 C 
ATOM     16  O   UNL     1      -6.995   3.151   8.962  1.00  0.00    -0.550 OA
ATOM     17  O   UNL     1      -9.039   2.894   7.965  1.00  0.00    -0.550 OA
ENDBRANCH  14  15
ENDBRANCH  13  14
ENDBRANCH  12  13
ENDBRANCH  11  12
ENDBRANCH  10  11
ENDBRANCH   9  10
ENDBRANCH   8   9
ENDBRANCH   7   8
ENDBRANCH   6   7
ENDBRANCH   5   6
ENDBRANCH   4   5
ENDBRANCH   3   4
ENDBRANCH   2   3
ENDBRANCH   1   2
BRANCH   1  18
ATOM     18  C   UNL     1       0.299  -1.637  11.068  1.00  0.00     0.000 C 
BRANCH  18  19
ATOM     19  C   UNL     1       0.652  -2.546   9.878  1.00  0.00     0.000 C 
BRANCH  19  20
ATOM     20  C   UNL     1       1.620  -3.680  10.276  1.00  0.00     0.000 C 
BRANCH  20  21
ATOM     21  C   UNL     1       1.021  -5.092  10.148  1.00  0.00     0.000 C 
BRANCH  21  22
ATOM     22  C   UNL     1       0.218  -5.286   8.850  1.00  0.00     0.000 C 
BRANCH  22  23
ATOM     23  C   UNL     1      -1.024  -6.169   9.045  1.00  0.00     0.000 C 
BRANCH  23  24
ATOM     24  C   UNL     1      -1.264  -6.534  10.519  1.00  0.00    -0.000 C 
BRANCH  24  25
ATOM     25  C   UNL     1      -2.765  -6.656  10.820  1.00  0.00    -0.000 C 
BRANCH  25  26
ATOM     26  C   UNL     1      -3.639  -6.599   9.553  1.00  0.00    -0.000 C 
BRANCH  26  27
ATOM     27  C   UNL     1      -4.977  -5.855   9.721  1.00  0.00    -0.000 C 
BRANCH  27  28
ATOM     28  C   UNL     1      -5.223  -4.811   8.619  1.00  0.00    -0.000 C 
BRANCH  28  29
ATOM     29  C   UNL     1      -4.042  -4.697   7.642  1.00  0.00    -0.000 C 
BRANCH  29  30
ATOM     30  C   UNL     1      -4.490  -4.717   6.171  1.00  0.00    -0.000 C 
BRANCH  30  31
ATOM     31  C   UNL     1      -4.238  -6.073   5.495  1.00  0.00    -0.003 C 
ATOM     32  C   UNL     1      -2.892  -6.684   5.883  1.00  0.00     0.004 C 
ENDBRANCH  30  31
ENDBRANCH  29  30
ENDBRANCH  28  29
ENDBRANCH  27  28
ENDBRANCH  26  27
ENDBRANCH  25  26
ENDBRANCH  24  25
ENDBRANCH  23  24
ENDBRANCH  22  23
ENDBRANCH  21  22
ENDBRANCH  20  21
ENDBRANCH  19  20
ENDBRANCH  18  19
ENDBRANCH   1  18
TORSDOF 28
ENDMDL
MODEL 6
REMARK VINA RESULT:    -2.013      2.662      6.725
REMARK INTER + INTRA:         -11.632
REMARK INTER:                  -7.996
REMARK INTRA:                  -3.637
REMARK UNBOUND:                -6.324
REMARK SMILES CCCCCCCCCCCCCCCCCCCCCCCCCCCCCC(=O)[O-]
REMARK SMILES IDX 16 1 17 2 18 3 19 4 20 5 21 6 22 7 23 8 24 9 25 10 26 11
REMARK SMILES IDX 27 12 28 13 29 14 30 15 31 16 32 17 15 18 14 19 13 20 12 21
REMARK SMILES IDX 11 22 10 23 9 24 8 25 7 26 6 27 5 28 4 29 3 30 2 31 1 32
REMARK H PARENT
REMARK Flexibility Score: inf
ROOT
ATOM      1  C   UNL     1      -6.072  -2.517   9.699  1.00  0.00     0.000 C 
ENDROOT
BRANCH   1   2
ATOM      2  C   UNL     1      -4.650  -2.828  10.189  1.00  0.00     0.000 C 
BRANCH   2   3
ATOM      3  C   UNL     1      -4.174  -1.766  11.192  1.00  0.00     0.000 C 
BRANCH   3   4
ATOM      4  C   UNL     1      -2.776  -2.066  11.767  1.00  0.00     0.000 C 
BRANCH   4   5
ATOM      5  C   UNL     1      -2.134  -3.380  11.275  1.00  0.00     0.000 C 
BRANCH   5   6
ATOM      6  C   UNL     1      -0.676  -3.253  10.789  1.00  0.00     0.000 C 
BRANCH   6   7
ATOM      7  C   UNL     1       0.003  -1.909  11.118  1.00  0.00     0.000 C 
BRANCH   7   8
ATOM      8  C   UNL     1       0.839  -1.307   9.974  1.00  0.00     0.000 C 
BRANCH   8   9
ATOM      9  C   UNL     1       2.072  -0.542  10.476  1.00  0.00     0.000 C 
BRANCH   9  10
ATOM     10  C   UNL     1       1.681   0.833  11.037  1.00  0.00     0.000 C 
BRANCH  10  11
ATOM     11  C   UNL     1       0.767   1.619  10.080  1.00  0.00     0.000 C 
BRANCH  11  12
ATOM     12  C   UNL     1       1.366   2.979   9.681  1.00  0.00     0.000 C 
BRANCH  12  13
ATOM     13  C   UNL     1       2.905   2.968   9.656  1.00  0.00     0.006 C 
BRANCH  13  14
ATOM     14  C   UNL     1       3.517   2.513   8.322  1.00  0.00     0.053 C 
BRANCH  14  15
ATOM     15  C   UNL     1       4.747   1.682   8.520  1.00  0.00     0.041 C 
ATOM     16  O   UNL     1       4.763   0.477   8.159  1.00  0.00    -0.550 OA
ATOM     17  O   UNL     1       5.866   2.229   9.136  1.00  0.00    -0.550 OA
ENDBRANCH  14  15
ENDBRANCH  13  14
ENDBRANCH  12  13
ENDBRANCH  11  12
ENDBRANCH  10  11
ENDBRANCH   9  10
ENDBRANCH   8   9
ENDBRANCH   7   8
ENDBRANCH   6   7
ENDBRANCH   5   6
ENDBRANCH   4   5
ENDBRANCH   3   4
ENDBRANCH   2   3
ENDBRANCH   1   2
BRANCH   1  18
ATOM     18  C   UNL     1      -6.845  -1.610  10.670  1.00  0.00     0.000 C 
BRANCH  18  19
ATOM     19  C   UNL     1      -7.692  -0.552   9.940  1.00  0.00     0.000 C 
BRANCH  19  20
ATOM     20  C   UNL     1      -7.466   0.867  10.502  1.00  0.00     0.000 C 
BRANCH  20  21
ATOM     21  C   UNL     1      -6.733   0.897  11.855  1.00  0.00     0.000 C 
BRANCH  21  22
ATOM     22  C   UNL     1      -5.523   1.844  11.859  1.00  0.00     0.000 C 
BRANCH  22  23
ATOM     23  C   UNL     1      -4.488   1.484  12.937  1.00  0.00     0.000 C 
BRANCH  23  24
ATOM     24  C   UNL     1      -3.546   2.652  13.265  1.00  0.00    -0.000 C 
BRANCH  24  25
ATOM     25  C   UNL     1      -2.168   2.449  12.615  1.00  0.00    -0.000 C 
BRANCH  25  26
ATOM     26  C   UNL     1      -1.855   3.496  11.529  1.00  0.00    -0.000 C 
BRANCH  26  27
ATOM     27  C   UNL     1      -2.937   4.575  11.338  1.00  0.00    -0.000 C 
BRANCH  27  28
ATOM     28  C   UNL     1      -3.547   4.566   9.926  1.00  0.00    -0.000 C 
BRANCH  28  29
ATOM     29  C   UNL     1      -2.485   4.722   8.826  1.00  0.00    -0.000 C 
BRANCH  29  30
ATOM     30  C   UNL     1      -1.892   6.140   8.775  1.00  0.00    -0.000 C 
BRANCH  30  31
ATOM     31  C   UNL     1      -0.384   6.161   9.068  1.00  0.00    -0.003 C 
ATOM     32  C   UNL     1       0.232   7.548   8.893  1.00  0.00     0.004 C 
ENDBRANCH  30  31
ENDBRANCH  29  30
ENDBRANCH  28  29
ENDBRANCH  27  28
ENDBRANCH  26  27
ENDBRANCH  25  26
ENDBRANCH  24  25
ENDBRANCH  23  24
ENDBRANCH  22  23
ENDBRANCH  21  22
ENDBRANCH  20  21
ENDBRANCH  19  20
ENDBRANCH  18  19
ENDBRANCH   1  18
TORSDOF 28
ENDMDL
MODEL 7
REMARK VINA RESULT:    -2.006      3.553      6.742
REMARK INTER + INTRA:         -11.613
REMARK INTER:                  -5.831
REMARK INTRA:                  -5.782
REMARK UNBOUND:                -6.324
REMARK SMILES CCCCCCCCCCCCCCCCCCCCCCCCCCCCCC(=O)[O-]
REMARK SMILES IDX 16 1 17 2 18 3 19 4 20 5 21 6 22 7 23 8 24 9 25 10 26 11
REMARK SMILES IDX 27 12 28 13 29 14 30 15 31 16 32 17 15 18 14 19 13 20 12 21
REMARK SMILES IDX 11 22 10 23 9 24 8 25 7 26 6 27 5 28 4 29 3 30 2 31 1 32
REMARK H PARENT
REMARK Flexibility Score: inf
ROOT
ATOM      1  C   UNL     1       3.859   2.035   9.520  1.00  0.00     0.000 C 
ENDROOT
BRANCH   1   2
ATOM      2  C   UNL     1       3.391   2.404   8.104  1.00  0.00     0.000 C 
BRANCH   2   3
ATOM      3  C   UNL     1       4.546   2.999   7.284  1.00  0.00     0.000 C 
BRANCH   3   4
ATOM      4  C   UNL     1       5.780   3.336   8.142  1.00  0.00     0.000 C 
BRANCH   4   5
ATOM      5  C   UNL     1       6.051   4.842   8.336  1.00  0.00     0.000 C 
BRANCH   5   6
ATOM      6  C   UNL     1       5.010   5.782   7.696  1.00  0.00     0.000 C 
BRANCH   6   7
ATOM      7  C   UNL     1       4.176   6.604   8.698  1.00  0.00     0.000 C 
BRANCH   7   8
ATOM      8  C   UNL     1       3.479   5.778   9.794  1.00  0.00     0.000 C 
BRANCH   8   9
ATOM      9  C   UNL     1       1.963   5.665   9.580  1.00  0.00     0.000 C 
BRANCH   9  10
ATOM     10  C   UNL     1       1.205   5.800  10.909  1.00  0.00     0.000 C 
BRANCH  10  11
ATOM     11  C   UNL     1      -0.294   5.483  10.766  1.00  0.00     0.000 C 
BRANCH  11  12
ATOM     12  C   UNL     1      -0.726   5.343   9.295  1.00  0.00     0.000 C 
BRANCH  12  13
ATOM     13  C   UNL     1      -1.913   4.379   9.113  1.00  0.00     0.006 C 
BRANCH  13  14
ATOM     14  C   UNL     1      -2.832   4.262  10.338  1.00  0.00     0.053 C 
BRANCH  14  15
ATOM     15  C   UNL     1      -4.107   5.026  10.162  1.00  0.00     0.041 C 
ATOM     16  O   UNL     1      -5.167   4.426   9.843  1.00  0.00    -0.550 OA
ATOM     17  O   UNL     1      -4.120   6.407  10.314  1.00  0.00    -0.550 OA
ENDBRANCH  14  15
ENDBRANCH  13  14
ENDBRANCH  12  13
ENDBRANCH  11  12
ENDBRANCH  10  11
ENDBRANCH   9  10
ENDBRANCH   8   9
ENDBRANCH   7   8
ENDBRANCH   6   7
ENDBRANCH   5   6
ENDBRANCH   4   5
ENDBRANCH   3   4
ENDBRANCH   2   3
ENDBRANCH   1   2
BRANCH   1  18
ATOM     18  C   UNL     1       2.740   2.171  10.564  1.00  0.00     0.000 C 
BRANCH  18  19
ATOM     19  C   UNL     1       1.338   2.022   9.948  1.00  0.00     0.000 C 
BRANCH  19  20
ATOM     20  C   UNL     1       0.236   1.913  11.022  1.00  0.00     0.000 C 
BRANCH  20  21
ATOM     21  C   UNL     1       0.760   1.555  12.425  1.00  0.00     0.000 C 
BRANCH  21  22
ATOM     22  C   UNL     1      -0.010   0.393  13.073  1.00  0.00     0.000 C 
BRANCH  22  23
ATOM     23  C   UNL     1      -1.449   0.267  12.549  1.00  0.00     0.000 C 
BRANCH  23  24
ATOM     24  C   UNL     1      -1.827  -1.181  12.201  1.00  0.00    -0.000 C 
BRANCH  24  25
ATOM     25  C   UNL     1      -0.578  -2.071  12.116  1.00  0.00    -0.000 C 
BRANCH  25  26
ATOM     26  C   UNL     1      -0.251  -2.514  10.677  1.00  0.00    -0.000 C 
BRANCH  26  27
ATOM     27  C   UNL     1       0.732  -1.597   9.925  1.00  0.00    -0.000 C 
BRANCH  27  28
ATOM     28  C   UNL     1       2.047  -2.305   9.557  1.00  0.00    -0.000 C 
BRANCH  28  29
ATOM     29  C   UNL     1       3.277  -1.612  10.164  1.00  0.00    -0.000 C 
BRANCH  29  30
ATOM     30  C   UNL     1       3.065  -1.216  11.636  1.00  0.00    -0.000 C 
BRANCH  30  31
ATOM     31  C   UNL     1       4.373  -0.816  12.335  1.00  0.00    -0.003 C 
ATOM     32  C   UNL     1       5.540  -0.665  11.360  1.00  0.00     0.004 C 
ENDBRANCH  30  31
ENDBRANCH  29  30
ENDBRANCH  28  29
ENDBRANCH  27  28
ENDBRANCH  26  27
ENDBRANCH  25  26
ENDBRANCH  24  25
ENDBRANCH  23  24
ENDBRANCH  22  23
ENDBRANCH  21  22
ENDBRANCH  20  21
ENDBRANCH  19  20
ENDBRANCH  18  19
ENDBRANCH   1  18
TORSDOF 28
ENDMDL
MODEL 8
REMARK VINA RESULT:    -2.005      4.426      8.987
REMARK INTER + INTRA:         -11.612
REMARK INTER:                  -6.553
REMARK INTRA:                  -5.058
REMARK UNBOUND:                -6.324
REMARK SMILES CCCCCCCCCCCCCCCCCCCCCCCCCCCCCC(=O)[O-]
REMARK SMILES IDX 16 1 17 2 18 3 19 4 20 5 21 6 22 7 23 8 24 9 25 10 26 11
REMARK SMILES IDX 27 12 28 13 29 14 30 15 31 16 32 17 15 18 14 19 13 20 12 21
REMARK SMILES IDX 11 22 10 23 9 24 8 25 7 26 6 27 5 28 4 29 3 30 2 31 1 32
REMARK H PARENT
REMARK Flexibility Score: inf
ROOT
ATOM      1  C   UNL     1       1.113   1.627   9.723  1.00  0.00     0.000 C 
ENDROOT
BRANCH   1   2
ATOM      2  C   UNL     1       2.381   0.808  10.005  1.00  0.00     0.000 C 
BRANCH   2   3
ATOM      3  C   UNL     1       2.024  -0.584  10.547  1.00  0.00     0.000 C 
BRANCH   3   4
ATOM      4  C   UNL     1       0.507  -0.854  10.557  1.00  0.00     0.000 C 
BRANCH   4   5
ATOM      5  C   UNL     1       0.042  -1.941  11.547  1.00  0.00     0.000 C 
BRANCH   5   6
ATOM      6  C   UNL     1      -1.480  -2.187  11.581  1.00  0.00     0.000 C 
BRANCH   6   7
ATOM      7  C   UNL     1      -2.129  -2.049  12.972  1.00  0.00     0.000 C 
BRANCH   7   8
ATOM      8  C   UNL     1      -3.626  -1.690  12.958  1.00  0.00     0.000 C 
BRANCH   8   9
ATOM      9  C   UNL     1      -4.146  -1.369  11.549  1.00  0.00     0.000 C 
BRANCH   9  10
ATOM     10  C   UNL     1      -5.613  -0.913  11.592  1.00  0.00     0.000 C 
BRANCH  10  11
ATOM     11  C   UNL     1      -5.749   0.616  11.705  1.00  0.00     0.000 C 
BRANCH  11  12
ATOM     12  C   UNL     1      -7.218   1.072  11.744  1.00  0.00     0.000 C 
BRANCH  12  13
ATOM     13  C   UNL     1      -8.096   0.344  10.710  1.00  0.00     0.006 C 
BRANCH  13  14
ATOM     14  C   UNL     1      -7.858   0.776   9.255  1.00  0.00     0.053 C 
BRANCH  14  15
ATOM     15  C   UNL     1      -8.239   2.205   9.023  1.00  0.00     0.041 C 
ATOM     16  O   UNL     1      -7.360   3.057   8.731  1.00  0.00    -0.550 OA
ATOM     17  O   UNL     1      -9.562   2.605   9.162  1.00  0.00    -0.550 OA
ENDBRANCH  14  15
ENDBRANCH  13  14
ENDBRANCH  12  13
ENDBRANCH  11  12
ENDBRANCH  10  11
ENDBRANCH   9  10
ENDBRANCH   8   9
ENDBRANCH   7   8
ENDBRANCH   6   7
ENDBRANCH   5   6
ENDBRANCH   4   5
ENDBRANCH   3   4
ENDBRANCH   2   3
ENDBRANCH   1   2
BRANCH   1  18
ATOM     18  C   UNL     1       1.285   3.116  10.063  1.00  0.00     0.000 C 
BRANCH  18  19
ATOM     19  C   UNL     1       1.927   3.334  11.444  1.00  0.00     0.000 C 
BRANCH  19  20
ATOM     20  C   UNL     1       0.908   3.180  12.593  1.00  0.00     0.000 C 
BRANCH  20  21
ATOM     21  C   UNL     1       1.014   1.844  13.351  1.00  0.00     0.000 C 
BRANCH  21  22
ATOM     22  C   UNL     1      -0.355   1.193  13.609  1.00  0.00     0.000 C 
BRANCH  22  23
ATOM     23  C   UNL     1      -1.392   1.538  12.528  1.00  0.00     0.000 C 
BRANCH  23  24
ATOM     24  C   UNL     1      -2.683   2.129  13.116  1.00  0.00    -0.000 C 
BRANCH  24  25
ATOM     25  C   UNL     1      -3.209   3.280  12.244  1.00  0.00    -0.000 C 
BRANCH  25  26
ATOM     26  C   UNL     1      -2.307   3.578  11.032  1.00  0.00    -0.000 C 
BRANCH  26  27
ATOM     27  C   UNL     1      -2.762   4.764  10.162  1.00  0.00    -0.000 C 
BRANCH  27  28
ATOM     28  C   UNL     1      -1.866   4.979   8.930  1.00  0.00    -0.000 C 
BRANCH  28  29
ATOM     29  C   UNL     1      -2.026   6.383   8.325  1.00  0.00    -0.000 C 
BRANCH  29  30
ATOM     30  C   UNL     1      -0.785   7.265   8.546  1.00  0.00    -0.000 C 
BRANCH  30  31
ATOM     31  C   UNL     1       0.362   6.510   9.232  1.00  0.00    -0.003 C 
ATOM     32  C   UNL     1       0.649   7.026  10.642  1.00  0.00     0.004 C 
ENDBRANCH  30  31
ENDBRANCH  29  30
ENDBRANCH  28  29
ENDBRANCH  27  28
ENDBRANCH  26  27
ENDBRANCH  25  26
ENDBRANCH  24  25
ENDBRANCH  23  24
ENDBRANCH  22  23
ENDBRANCH  21  22
ENDBRANCH  20  21
ENDBRANCH  19  20
ENDBRANCH  18  19
ENDBRANCH   1  18
TORSDOF 28
ENDMDL
MODEL 9
REMARK VINA RESULT:    -1.995      5.410      9.531
REMARK INTER + INTRA:         -11.585
REMARK INTER:                  -6.761
REMARK INTRA:                  -4.824
REMARK UNBOUND:                -6.324
REMARK SMILES CCCCCCCCCCCCCCCCCCCCCCCCCCCCCC(=O)[O-]
REMARK SMILES IDX 16 1 17 2 18 3 19 4 20 5 21 6 22 7 23 8 24 9 25 10 26 11
REMARK SMILES IDX 27 12 28 13 29 14 30 15 31 16 32 17 15 18 14 19 13 20 12 21
REMARK SMILES IDX 11 22 10 23 9 24 8 25 7 26 6 27 5 28 4 29 3 30 2 31 1 32
REMARK H PARENT
REMARK Flexibility Score: inf
ROOT
ATOM      1  C   UNL     1      -5.240  -0.977  13.202  1.00  0.00     0.000 C 
ENDROOT
BRANCH   1   2
ATOM      2  C   UNL     1      -4.789  -2.361  12.712  1.00  0.00     0.000 C 
BRANCH   2   3
ATOM      3  C   UNL     1      -3.307  -2.340  12.307  1.00  0.00     0.000 C 
BRANCH   3   4
ATOM      4  C   UNL     1      -3.073  -2.815  10.861  1.00  0.00     0.000 C 
BRANCH   4   5
ATOM      5  C   UNL     1      -4.353  -3.136  10.061  1.00  0.00     0.000 C 
BRANCH   5   6
ATOM      6  C   UNL     1      -4.196  -4.233   8.989  1.00  0.00     0.000 C 
BRANCH   6   7
ATOM      7  C   UNL     1      -5.381  -4.358   8.011  1.00  0.00     0.000 C 
BRANCH   7   8
ATOM      8  C   UNL     1      -6.475  -3.287   8.178  1.00  0.00     0.000 C 
BRANCH   8   9
ATOM      9  C   UNL     1      -7.890  -3.883   8.213  1.00  0.00     0.000 C 
BRANCH   9  10
ATOM     10  C   UNL     1      -8.743  -3.220   9.305  1.00  0.00     0.000 C 
BRANCH  10  11
ATOM     11  C   UNL     1      -7.904  -2.769  10.513  1.00  0.00     0.000 C 
BRANCH  11  12
ATOM     12  C   UNL     1      -8.148  -1.294  10.879  1.00  0.00     0.000 C 
BRANCH  12  13
ATOM     13  C   UNL     1      -7.525  -0.317   9.865  1.00  0.00     0.006 C 
BRANCH  13  14
ATOM     14  C   UNL     1      -8.354   0.951   9.612  1.00  0.00     0.053 C 
BRANCH  14  15
ATOM     15  C   UNL     1      -7.554   2.199   9.828  1.00  0.00     0.041 C 
ATOM     16  O   UNL     1      -7.232   2.551  10.993  1.00  0.00    -0.550 OA
ATOM     17  O   UNL     1      -7.195   2.993   8.747  1.00  0.00    -0.550 OA
ENDBRANCH  14  15
ENDBRANCH  13  14
ENDBRANCH  12  13
ENDBRANCH  11  12
ENDBRANCH  10  11
ENDBRANCH   9  10
ENDBRANCH   8   9
ENDBRANCH   7   8
ENDBRANCH   6   7
ENDBRANCH   5   6
ENDBRANCH   4   5
ENDBRANCH   3   4
ENDBRANCH   2   3
ENDBRANCH   1   2
BRANCH   1  18
ATOM     18  C   UNL     1      -4.859   0.147  12.226  1.00  0.00     0.000 C 
BRANCH  18  19
ATOM     19  C   UNL     1      -4.479   1.452  12.949  1.00  0.00     0.000 C 
BRANCH  19  20
ATOM     20  C   UNL     1      -3.132   1.336  13.693  1.00  0.00     0.000 C 
BRANCH  20  21
ATOM     21  C   UNL     1      -1.931   1.041  12.776  1.00  0.00     0.000 C 
BRANCH  21  22
ATOM     22  C   UNL     1      -0.677   0.610  13.554  1.00  0.00     0.000 C 
BRANCH  22  23
ATOM     23  C   UNL     1      -0.006  -0.637  12.957  1.00  0.00     0.000 C 
BRANCH  23  24
ATOM     24  C   UNL     1      -0.075  -0.668  11.422  1.00  0.00    -0.000 C 
BRANCH  24  25
ATOM     25  C   UNL     1       1.304  -0.391  10.803  1.00  0.00    -0.000 C 
BRANCH  25  26
ATOM     26  C   UNL     1       1.648   1.109  10.747  1.00  0.00    -0.000 C 
BRANCH  26  27
ATOM     27  C   UNL     1       0.619   1.983  10.006  1.00  0.00    -0.000 C 
BRANCH  27  28
ATOM     28  C   UNL     1       0.354   3.323  10.713  1.00  0.00    -0.000 C 
BRANCH  28  29
ATOM     29  C   UNL     1      -0.091   4.424   9.737  1.00  0.00    -0.000 C 
BRANCH  29  30
ATOM     30  C   UNL     1      -1.613   4.429   9.508  1.00  0.00    -0.000 C 
BRANCH  30  31
ATOM     31  C   UNL     1      -2.404   4.125  10.789  1.00  0.00    -0.003 C 
ATOM     32  C   UNL     1      -3.909   4.325  10.615  1.00  0.00     0.004 C 
ENDBRANCH  30  31
ENDBRANCH  29  30
ENDBRANCH  28  29
ENDBRANCH  27  28
ENDBRANCH  26  27
ENDBRANCH  25  26
ENDBRANCH  24  25
ENDBRANCH  23  24
ENDBRANCH  22  23
ENDBRANCH  21  22
ENDBRANCH  20  21
ENDBRANCH  19  20
ENDBRANCH  18  19
ENDBRANCH   1  18
TORSDOF 28
ENDMDL
