MODEL 1
REMARK VINA RESULT:    -3.811      0.000      0.000
REMARK INTER + INTRA:          -5.379
REMARK INTER:                  -5.148
REMARK INTRA:                  -0.231
REMARK UNBOUND:                -0.231
REMARK SMILES CCCCCCCC(=O)[O-]
REMARK SMILES IDX 5 1 6 2 7 3 8 4 9 5 10 6 4 7 3 8 2 9 1 10
REMARK H PARENT
REMARK Flexibility Score: inf
ROOT
ATOM      1  C   UNL     1      12.935  22.045 -22.167  1.00  0.00     0.000 C 
ENDROOT
BRANCH   1   2
ATOM      2  C   UNL     1      12.944  23.089 -21.040  1.00  0.00     0.006 C 
BRANCH   2   3
ATOM      3  C   UNL     1      11.905  22.778 -19.953  1.00  0.00     0.053 C 
BRANCH   3   4
ATOM      4  C   UNL     1      12.541  22.205 -18.723  1.00  0.00     0.041 C 
ATOM      5  O   UNL     1      11.875  22.091 -17.661  1.00  0.00    -0.550 OA
ATOM      6  O   UNL     1      13.859  21.767 -18.761  1.00  0.00    -0.550 OA
ENDBRANCH   3   4
ENDBRANCH   2   3
ENDBRANCH   1   2
BRANCH   1   7
ATOM      7  C   UNL     1      12.126  22.546 -23.373  1.00  0.00     0.000 C 
BRANCH   7   8
ATOM      8  C   UNL     1      12.919  23.527 -24.251  1.00  0.00    -0.000 C 
BRANCH   8   9
ATOM      9  C   UNL     1      13.830  22.814 -25.262  1.00  0.00    -0.003 C 
ATOM     10  C   UNL     1      13.012  22.147 -26.363  1.00  0.00     0.004 C 
ENDBRANCH   8   9
ENDBRANCH   7   8
ENDBRANCH   1   7
TORSDOF 6
ENDMDL
MODEL 2
REMARK VINA RESULT:    -3.752     23.536     24.212
REMARK INTER + INTRA:          -5.299
REMARK INTER:                  -4.831
REMARK INTRA:                  -0.468
REMARK UNBOUND:                -0.231
REMARK SMILES CCCCCCCC(=O)[O-]
REMARK SMILES IDX 5 1 6 2 7 3 8 4 9 5 10 6 4 7 3 8 2 9 1 10
REMARK H PARENT
REMARK Flexibility Score: inf
ROOT
ATOM      1  C   UNL     1      29.867   4.589 -23.581  1.00  0.00     0.000 C 
ENDROOT
BRANCH   1   2
ATOM      2  C   UNL     1      29.991   4.462 -22.055  1.00  0.00     0.006 C 
BRANCH   2   3
ATOM      3  C   UNL     1      30.127   5.828 -21.368  1.00  0.00     0.053 C 
BRANCH   3   4
ATOM      4  C   UNL     1      28.938   6.140 -20.511  1.00  0.00     0.041 C 
ATOM      5  O   UNL     1      29.073   6.838 -19.472  1.00  0.00    -0.550 OA
ATOM      6  O   UNL     1      27.677   5.690 -20.880  1.00  0.00    -0.550 OA
ENDBRANCH   3   4
ENDBRANCH   2   3
ENDBRANCH   1   2
BRANCH   1   7
ATOM      7  C   UNL     1      31.229   4.379 -24.261  1.00  0.00     0.000 C 
BRANCH   7   8
ATOM      8  C   UNL     1      31.536   5.455 -25.315  1.00  0.00    -0.000 C 
BRANCH   8   9
ATOM      9  C   UNL     1      30.956   6.828 -24.946  1.00  0.00    -0.003 C 
ATOM     10  C   UNL     1      31.957   7.647 -24.136  1.00  0.00     0.004 C 
ENDBRANCH   8   9
ENDBRANCH   7   8
ENDBRANCH   1   7
TORSDOF 6
ENDMDL
MODEL 3
REMARK VINA RESULT:    -3.737     24.357     25.143
REMARK INTER + INTRA:          -5.279
REMARK INTER:                  -4.965
REMARK INTRA:                  -0.314
REMARK UNBOUND:                -0.231
REMARK SMILES CCCCCCCC(=O)[O-]
REMARK SMILES IDX 5 1 6 2 7 3 8 4 9 5 10 6 4 7 3 8 2 9 1 10
REMARK H PARENT
REMARK Flexibility Score: inf
ROOT
ATOM      1  C   UNL     1      31.022   6.780 -25.268  1.00  0.00     0.000 C 
ENDROOT
BRANCH   1   2
ATOM      2  C   UNL     1      31.465   6.625 -23.805  1.00  0.00     0.006 C 
BRANCH   2   3
ATOM      3  C   UNL     1      31.194   5.216 -23.263  1.00  0.00     0.053 C 
BRANCH   3   4
ATOM      4  C   UNL     1      29.728   4.960 -23.086  1.00  0.00     0.041 C 
ATOM      5  O   UNL     1      29.099   4.273 -23.932  1.00  0.00    -0.550 OA
ATOM      6  O   UNL     1      29.066   5.451 -21.968  1.00  0.00    -0.550 OA
ENDBRANCH   3   4
ENDBRANCH   2   3
ENDBRANCH   1   2
BRANCH   1   7
ATOM      7  C   UNL     1      31.742   5.766 -26.170  1.00  0.00     0.000 C 
BRANCH   7   8
ATOM      8  C   UNL     1      30.767   4.905 -26.989  1.00  0.00    -0.000 C 
BRANCH   8   9
ATOM      9  C   UNL     1      31.476   4.061 -28.058  1.00  0.00    -0.003 C 
ATOM     10  C   UNL     1      31.181   4.589 -29.458  1.00  0.00     0.004 C 
ENDBRANCH   8   9
ENDBRANCH   7   8
ENDBRANCH   1   7
TORSDOF 6
ENDMDL
MODEL 4
REMARK VINA RESULT:    -3.733      3.471      5.669
REMARK INTER + INTRA:          -5.273
REMARK INTER:                  -4.976
REMARK INTRA:                  -0.298
REMARK UNBOUND:                -0.231
REMARK SMILES CCCCCCCC(=O)[O-]
REMARK SMILES IDX 5 1 6 2 7 3 8 4 9 5 10 6 4 7 3 8 2 9 1 10
REMARK H PARENT
REMARK Flexibility Score: inf
ROOT
ATOM      1  C   UNL     1      13.294  22.058 -22.271  1.00  0.00     0.000 C 
ENDROOT
BRANCH   1   2
ATOM      2  C   UNL     1      12.230  22.576 -23.250  1.00  0.00     0.006 C 
BRANCH   2   3
ATOM      3  C   UNL     1      12.813  23.559 -24.275  1.00  0.00     0.053 C 
BRANCH   3   4
ATOM      4  C   UNL     1      13.775  22.888 -25.206  1.00  0.00     0.041 C 
ATOM      5  O   UNL     1      13.406  21.899 -25.893  1.00  0.00    -0.550 OA
ATOM      6  O   UNL     1      15.069  23.375 -25.340  1.00  0.00    -0.550 OA
ENDBRANCH   3   4
ENDBRANCH   2   3
ENDBRANCH   1   2
BRANCH   1   7
ATOM      7  C   UNL     1      13.264  22.853 -20.957  1.00  0.00     0.000 C 
BRANCH   7   8
ATOM      8  C   UNL     1      11.988  22.597 -20.139  1.00  0.00    -0.000 C 
BRANCH   8   9
ATOM      9  C   UNL     1      12.284  22.258 -18.671  1.00  0.00    -0.003 C 
ATOM     10  C   UNL     1      13.573  21.452 -18.543  1.00  0.00     0.004 C 
ENDBRANCH   8   9
ENDBRANCH   7   8
ENDBRANCH   1   7
TORSDOF 6
ENDMDL
MODEL 5
REMARK VINA RESULT:    -3.684     25.220     26.280
REMARK INTER + INTRA:          -5.207
REMARK INTER:                  -4.897
REMARK INTRA:                  -0.311
REMARK UNBOUND:                -0.231
REMARK SMILES CCCCCCCC(=O)[O-]
REMARK SMILES IDX 5 1 6 2 7 3 8 4 9 5 10 6 4 7 3 8 2 9 1 10
REMARK H PARENT
REMARK Flexibility Score: inf
ROOT
ATOM      1  C   UNL     1      30.627   5.953 -25.193  1.00  0.00     0.000 C 
ENDROOT
BRANCH   1   2
ATOM      2  C   UNL     1      31.377   5.880 -26.532  1.00  0.00     0.006 C 
BRANCH   2   3
ATOM      3  C   UNL     1      31.485   4.443 -27.060  1.00  0.00     0.053 C 
BRANCH   3   4
ATOM      4  C   UNL     1      30.712   4.257 -28.329  1.00  0.00     0.041 C 
ATOM      5  O   UNL     1      29.513   3.875 -28.290  1.00  0.00    -0.550 OA
ATOM      6  O   UNL     1      31.306   4.538 -29.553  1.00  0.00    -0.550 OA
ENDBRANCH   3   4
ENDBRANCH   2   3
ENDBRANCH   1   2
BRANCH   1   7
ATOM      7  C   UNL     1      30.440   4.551 -24.593  1.00  0.00     0.000 C 
BRANCH   7   8
ATOM      8  C   UNL     1      31.368   4.291 -23.396  1.00  0.00    -0.000 C 
BRANCH   8   9
ATOM      9  C   UNL     1      31.454   5.490 -22.441  1.00  0.00    -0.003 C 
ATOM     10  C   UNL     1      32.008   5.071 -21.083  1.00  0.00     0.004 C 
ENDBRANCH   8   9
ENDBRANCH   7   8
ENDBRANCH   1   7
TORSDOF 6
ENDMDL
MODEL 6
REMARK VINA RESULT:    -3.672     24.292     24.820
REMARK INTER + INTRA:          -5.191
REMARK INTER:                  -4.754
REMARK INTRA:                  -0.438
REMARK UNBOUND:                -0.231
REMARK SMILES CCCCCCCC(=O)[O-]
REMARK SMILES IDX 5 1 6 2 7 3 8 4 9 5 10 6 4 7 3 8 2 9 1 10
REMARK H PARENT
REMARK Flexibility Score: inf
ROOT
ATOM      1  C   UNL     1      30.773   6.278 -25.210  1.00  0.00     0.000 C 
ENDROOT
BRANCH   1   2
ATOM      2  C   UNL     1      31.369   6.729 -23.868  1.00  0.00     0.006 C 
BRANCH   2   3
ATOM      3  C   UNL     1      31.435   5.584 -22.848  1.00  0.00     0.053 C 
BRANCH   3   4
ATOM      4  C   UNL     1      30.254   5.589 -21.927  1.00  0.00     0.041 C 
ATOM      5  O   UNL     1      30.359   6.063 -20.765  1.00  0.00    -0.550 OA
ATOM      6  O   UNL     1      29.028   5.103 -22.364  1.00  0.00    -0.550 OA
ENDBRANCH   3   4
ENDBRANCH   2   3
ENDBRANCH   1   2
BRANCH   1   7
ATOM      7  C   UNL     1      31.596   5.131 -25.818  1.00  0.00     0.000 C 
BRANCH   7   8
ATOM      8  C   UNL     1      30.745   3.887 -26.117  1.00  0.00    -0.000 C 
BRANCH   8   9
ATOM      9  C   UNL     1      29.280   4.053 -25.688  1.00  0.00    -0.003 C 
ATOM     10  C   UNL     1      28.338   3.895 -26.877  1.00  0.00     0.004 C 
ENDBRANCH   8   9
ENDBRANCH   7   8
ENDBRANCH   1   7
TORSDOF 6
ENDMDL
MODEL 7
REMARK VINA RESULT:    -3.644      1.162      1.736
REMARK INTER + INTRA:          -5.153
REMARK INTER:                  -5.033
REMARK INTRA:                  -0.120
REMARK UNBOUND:                -0.231
REMARK SMILES CCCCCCCC(=O)[O-]
REMARK SMILES IDX 5 1 6 2 7 3 8 4 9 5 10 6 4 7 3 8 2 9 1 10
REMARK H PARENT
REMARK Flexibility Score: inf
ROOT
ATOM      1  C   UNL     1      12.594  22.996 -23.380  1.00  0.00     0.000 C 
ENDROOT
BRANCH   1   2
ATOM      2  C   UNL     1      12.396  22.322 -22.014  1.00  0.00     0.006 C 
BRANCH   2   3
ATOM      3  C   UNL     1      12.710  23.269 -20.848  1.00  0.00     0.053 C 
BRANCH   3   4
ATOM      4  C   UNL     1      13.683  22.663 -19.884  1.00  0.00     0.041 C 
ATOM      5  O   UNL     1      13.314  21.746 -19.105  1.00  0.00    -0.550 OA
ATOM      6  O   UNL     1      15.005  23.089 -19.870  1.00  0.00    -0.550 OA
ENDBRANCH   3   4
ENDBRANCH   2   3
ENDBRANCH   1   2
BRANCH   1   7
ATOM      7  C   UNL     1      12.901  21.954 -24.467  1.00  0.00     0.000 C 
BRANCH   7   8
ATOM      8  C   UNL     1      13.541  22.575 -25.719  1.00  0.00    -0.000 C 
BRANCH   8   9
ATOM      9  C   UNL     1      12.631  22.492 -26.953  1.00  0.00    -0.003 C 
ATOM     10  C   UNL     1      12.714  21.116 -27.605  1.00  0.00     0.004 C 
ENDBRANCH   8   9
ENDBRANCH   7   8
ENDBRANCH   1   7
TORSDOF 6
ENDMDL
MODEL 8
REMARK VINA RESULT:    -3.622      1.536      2.448
REMARK INTER + INTRA:          -5.123
REMARK INTER:                  -4.879
REMARK INTRA:                  -0.245
REMARK UNBOUND:                -0.231
REMARK SMILES CCCCCCCC(=O)[O-]
REMARK SMILES IDX 5 1 6 2 7 3 8 4 9 5 10 6 4 7 3 8 2 9 1 10
REMARK H PARENT
REMARK Flexibility Score: inf
ROOT
ATOM      1  C   UNL     1      12.021  22.932 -20.049  1.00  0.00     0.000 C 
ENDROOT
BRANCH   1   2
ATOM      2  C   UNL     1      12.279  21.509 -19.531  1.00  0.00     0.006 C 
BRANCH   2   3
ATOM      3  C   UNL     1      13.208  21.496 -18.309  1.00  0.00     0.053 C 
BRANCH   3   4
ATOM      4  C   UNL     1      14.605  21.099 -18.675  1.00  0.00     0.041 C 
ATOM      5  O   UNL     1      15.452  21.976 -18.986  1.00  0.00    -0.550 OA
ATOM      6  O   UNL     1      14.980  19.762 -18.638  1.00  0.00    -0.550 OA
ENDBRANCH   3   4
ENDBRANCH   2   3
ENDBRANCH   1   2
BRANCH   1   7
ATOM      7  C   UNL     1      12.958  23.268 -21.220  1.00  0.00     0.000 C 
BRANCH   7   8
ATOM      8  C   UNL     1      12.610  22.488 -22.498  1.00  0.00    -0.000 C 
BRANCH   8   9
ATOM      9  C   UNL     1      12.636  23.370 -23.756  1.00  0.00    -0.003 C 
ATOM     10  C   UNL     1      13.573  22.791 -24.812  1.00  0.00     0.004 C 
ENDBRANCH   8   9
ENDBRANCH   7   8
ENDBRANCH   1   7
TORSDOF 6
ENDMDL
MODEL 9
REMARK VINA RESULT:    -3.608     25.348     26.496
REMARK INTER + INTRA:          -5.104
REMARK INTER:                  -4.842
REMARK INTRA:                  -0.262
REMARK UNBOUND:                -0.231
REMARK SMILES CCCCCCCC(=O)[O-]
REMARK SMILES IDX 5 1 6 2 7 3 8 4 9 5 10 6 4 7 3 8 2 9 1 10
REMARK H PARENT
REMARK Flexibility Score: inf
ROOT
ATOM      1  C   UNL     1      30.018   5.351 -26.268  1.00  0.00     0.000 C 
ENDROOT
BRANCH   1   2
ATOM      2  C   UNL     1      31.195   5.146 -27.234  1.00  0.00     0.006 C 
BRANCH   2   3
ATOM      3  C   UNL     1      30.846   4.186 -28.380  1.00  0.00     0.053 C 
BRANCH   3   4
ATOM      4  C   UNL     1      31.348   4.687 -29.699  1.00  0.00     0.041 C 
ATOM      5  O   UNL     1      31.734   3.875 -30.580  1.00  0.00    -0.550 OA
ATOM      6  O   UNL     1      31.357   6.050 -29.968  1.00  0.00    -0.550 OA
ENDBRANCH   3   4
ENDBRANCH   2   3
ENDBRANCH   1   2
BRANCH   1   7
ATOM      7  C   UNL     1      29.998   4.259 -25.188  1.00  0.00     0.000 C 
BRANCH   7   8
ATOM      8  C   UNL     1      31.277   4.248 -24.335  1.00  0.00    -0.000 C 
BRANCH   8   9
ATOM      9  C   UNL     1      31.001   4.533 -22.851  1.00  0.00    -0.003 C 
ATOM     10  C   UNL     1      31.307   5.986 -22.505  1.00  0.00     0.004 C 
ENDBRANCH   8   9
ENDBRANCH   7   8
ENDBRANCH   1   7
TORSDOF 6
ENDMDL
