MODEL 1
REMARK VINA RESULT:    -0.010      0.000      0.000
REMARK INTER + INTRA:          -0.474
REMARK INTER:                  -0.011
REMARK INTRA:                  -0.463
REMARK UNBOUND:                -0.463
REMARK SMILES C=C(C)[C@@H]1CC[C@]2(C(=O)[O-])CC[C@]3(C)[C@H](CC[C@@H]4[C@]5(C)CC[C@@H](O)C(C)(C)[C@H]5CC[C@@]43C)[C@H]12
REMARK SMILES IDX 7 1 6 2 33 3 11 4 5 5 15 6 4 7 12 8 16 9 13 10 17 11 31 12
REMARK SMILES IDX 14 13 18 14 30 15 32 16 19 17 29 18 21 19 20 20 28 21 22 22
REMARK SMILES IDX 25 23 23 24 26 25 27 26 8 27 9 28 10 29 2 30 3 31 1 32 24 33
REMARK H PARENT 24 34
REMARK Flexibility Score: inf
ROOT
ATOM      1  C   UNL     1       6.629  21.724  45.223  1.00  0.00     0.014 C 
ATOM      2  C   UNL     1       7.996  21.015  45.434  1.00  0.00     0.014 C 
ATOM      3  C   UNL     1       7.000  23.194  44.895  1.00  0.00     0.012 C 
ATOM      4  C   UNL     1       5.840  21.087  44.052  1.00  0.00     0.014 C 
ATOM      5  C   UNL     1       9.102  22.063  45.278  1.00  0.00     0.009 C 
ATOM      6  C   UNL     1       5.873  24.034  44.182  1.00  0.00     0.000 C 
ATOM      7  C   UNL     1       8.501  23.232  44.489  1.00  0.00     0.018 C 
ATOM      8  C   UNL     1       4.598  21.915  43.669  1.00  0.00     0.008 C 
ATOM      9  C   UNL     1       6.326  25.407  43.712  1.00  0.00     0.005 C 
ATOM     10  C   UNL     1       4.941  23.346  43.121  1.00  0.00    -0.024 C 
ATOM     11  C   UNL     1       5.119  26.324  43.564  1.00  0.00     0.005 C 
ATOM     12  C   UNL     1       3.612  24.260  42.864  1.00  0.00    -0.024 C 
ATOM     13  C   UNL     1       5.687  23.157  41.764  1.00  0.00     0.012 C 
ATOM     14  C   UNL     1       3.997  25.802  42.603  1.00  0.00     0.002 C 
ATOM     15  C   UNL     1       2.611  24.181  44.069  1.00  0.00     0.008 C 
ATOM     16  C   UNL     1       2.866  23.669  41.619  1.00  0.00     0.012 C 
ATOM     17  C   UNL     1       2.743  26.816  42.548  1.00  0.00    -0.026 C 
ATOM     18  C   UNL     1       1.409  25.134  43.986  1.00  0.00     0.005 C 
ATOM     19  C   UNL     1       3.220  28.312  42.552  1.00  0.00     0.010 C 
ATOM     20  C   UNL     1       1.969  26.591  41.202  1.00  0.00     0.012 C 
ATOM     21  C   UNL     1       1.843  26.608  43.826  1.00  0.00     0.003 C 
ATOM     22  C   UNL     1       2.082  29.338  42.671  1.00  0.00     0.033 C 
ATOM     23  C   UNL     1       0.672  27.663  44.037  1.00  0.00    -0.006 C 
ATOM     24  C   UNL     1       1.259  29.110  43.942  1.00  0.00     0.120 C 
ATOM     25  C   UNL     1      -0.508  27.486  43.045  1.00  0.00     0.014 C 
ATOM     26  C   UNL     1       0.084  27.508  45.469  1.00  0.00     0.014 C 
ENDROOT
BRANCH   1  27
ATOM     27  C   UNL     1       5.791  21.599  46.496  1.00  0.00     0.048 C 
ATOM     28  O   UNL     1       5.913  22.453  47.414  1.00  0.00    -0.550 OA
ATOM     29  O   UNL     1       4.940  20.518  46.701  1.00  0.00    -0.550 OA
ENDBRANCH   1  27
BRANCH   7  30
ATOM     30  C   UNL     1       8.897  23.199  43.008  1.00  0.00    -0.077 C 
ATOM     31  C   UNL     1       9.051  21.870  42.310  1.00  0.00     0.039 C 
ATOM     32  C   UNL     1       8.939  24.304  42.238  1.00  0.00     0.008 C 
ENDBRANCH   7  30
BRANCH  24  33
ATOM     33  O   UNL     1       0.231  30.072  43.982  1.00  0.00    -0.393 OA
ATOM     34  H   UNL     1      -0.609  29.607  44.237  1.00  0.00     0.210 HD
ENDBRANCH  24  33
TORSDOF 3
ENDMDL
MODEL 2
REMARK VINA RESULT:     0.722      2.114      3.938
REMARK INTER + INTRA:           0.365
REMARK INTER:                   0.889
REMARK INTRA:                  -0.525
REMARK UNBOUND:                -0.463
REMARK SMILES C=C(C)[C@@H]1CC[C@]2(C(=O)[O-])CC[C@]3(C)[C@H](CC[C@@H]4[C@]5(C)CC[C@@H](O)C(C)(C)[C@H]5CC[C@@]43C)[C@H]12
REMARK SMILES IDX 7 1 6 2 33 3 11 4 5 5 15 6 4 7 12 8 16 9 13 10 17 11 31 12
REMARK SMILES IDX 14 13 18 14 30 15 32 16 19 17 29 18 21 19 20 20 28 21 22 22
REMARK SMILES IDX 25 23 23 24 26 25 27 26 8 27 9 28 10 29 2 30 3 31 1 32 24 33
REMARK H PARENT 24 34
REMARK Flexibility Score: inf
ROOT
ATOM      1  C   UNL     1       7.342  22.104  43.435  1.00  0.00     0.014 C 
ATOM      2  C   UNL     1       8.095  20.761  43.652  1.00  0.00     0.014 C 
ATOM      3  C   UNL     1       5.840  21.725  43.511  1.00  0.00     0.012 C 
ATOM      4  C   UNL     1       7.701  23.133  44.535  1.00  0.00     0.014 C 
ATOM      5  C   UNL     1       7.049  19.651  43.796  1.00  0.00     0.009 C 
ATOM      6  C   UNL     1       4.853  22.921  43.793  1.00  0.00     0.000 C 
ATOM      7  C   UNL     1       5.730  20.328  44.187  1.00  0.00     0.018 C 
ATOM      8  C   UNL     1       6.797  24.380  44.483  1.00  0.00     0.008 C 
ATOM      9  C   UNL     1       3.416  22.494  44.042  1.00  0.00     0.005 C 
ATOM     10  C   UNL     1       5.285  24.072  44.772  1.00  0.00    -0.024 C 
ATOM     11  C   UNL     1       2.477  23.657  43.752  1.00  0.00     0.005 C 
ATOM     12  C   UNL     1       4.323  25.375  44.563  1.00  0.00    -0.024 C 
ATOM     13  C   UNL     1       5.180  23.608  46.258  1.00  0.00     0.012 C 
ATOM     14  C   UNL     1       2.765  24.966  44.563  1.00  0.00     0.002 C 
ATOM     15  C   UNL     1       4.652  26.132  43.230  1.00  0.00     0.008 C 
ATOM     16  C   UNL     1       4.621  26.374  45.734  1.00  0.00     0.012 C 
ATOM     17  C   UNL     1       1.751  26.153  44.154  1.00  0.00    -0.026 C 
ATOM     18  C   UNL     1       3.692  27.277  42.871  1.00  0.00     0.005 C 
ATOM     19  C   UNL     1       0.296  25.606  43.927  1.00  0.00     0.010 C 
ATOM     20  C   UNL     1       1.668  27.179  45.338  1.00  0.00     0.012 C 
ATOM     21  C   UNL     1       2.223  26.804  42.797  1.00  0.00     0.003 C 
ATOM     22  C   UNL     1      -0.691  26.645  43.373  1.00  0.00     0.033 C 
ATOM     23  C   UNL     1       1.227  27.856  42.142  1.00  0.00    -0.006 C 
ATOM     24  C   UNL     1      -0.200  27.223  42.042  1.00  0.00     0.120 C 
ATOM     25  C   UNL     1       1.171  29.211  42.897  1.00  0.00     0.014 C 
ATOM     26  C   UNL     1       1.684  28.170  40.689  1.00  0.00     0.014 C 
ENDROOT
BRANCH   1  27
ATOM     27  C   UNL     1       7.733  22.690  42.078  1.00  0.00     0.048 C 
ATOM     28  O   UNL     1       7.115  22.335  41.039  1.00  0.00    -0.550 OA
ATOM     29  O   UNL     1       8.810  23.562  41.947  1.00  0.00    -0.550 OA
ENDBRANCH   1  27
BRANCH   7  30
ATOM     30  C   UNL     1       5.443  20.222  45.689  1.00  0.00    -0.077 C 
ATOM     31  C   UNL     1       6.574  20.392  46.674  1.00  0.00     0.039 C 
ATOM     32  C   UNL     1       4.195  20.166  46.193  1.00  0.00     0.008 C 
ENDBRANCH   7  30
BRANCH  24  33
ATOM     33  O   UNL     1      -1.140  28.173  41.598  1.00  0.00    -0.393 OA
ATOM     34  H   UNL     1      -1.952  27.681  41.307  1.00  0.00     0.210 HD
ENDBRANCH  24  33
TORSDOF 3
ENDMDL
MODEL 3
REMARK VINA RESULT:     1.278      4.216     10.122
REMARK INTER + INTRA:           1.002
REMARK INTER:                   1.452
REMARK INTRA:                  -0.450
REMARK UNBOUND:                -0.463
REMARK SMILES C=C(C)[C@@H]1CC[C@]2(C(=O)[O-])CC[C@]3(C)[C@H](CC[C@@H]4[C@]5(C)CC[C@@H](O)C(C)(C)[C@H]5CC[C@@]43C)[C@H]12
REMARK SMILES IDX 7 1 6 2 33 3 11 4 5 5 15 6 4 7 12 8 16 9 13 10 17 11 31 12
REMARK SMILES IDX 14 13 18 14 30 15 32 16 19 17 29 18 21 19 20 20 28 21 22 22
REMARK SMILES IDX 25 23 23 24 26 25 27 26 8 27 9 28 10 29 2 30 3 31 1 32 24 33
REMARK H PARENT 24 34
REMARK Flexibility Score: inf
ROOT
ATOM      1  C   UNL     1       6.316  22.310  43.197  1.00  0.00     0.014 C 
ATOM      2  C   UNL     1       5.529  23.645  43.070  1.00  0.00     0.014 C 
ATOM      3  C   UNL     1       7.694  22.725  43.777  1.00  0.00     0.012 C 
ATOM      4  C   UNL     1       5.598  21.324  44.151  1.00  0.00     0.014 C 
ATOM      5  C   UNL     1       6.452  24.782  43.518  1.00  0.00     0.009 C 
ATOM      6  C   UNL     1       8.524  21.564  44.447  1.00  0.00     0.000 C 
ATOM      7  C   UNL     1       7.552  24.152  44.379  1.00  0.00     0.018 C 
ATOM      8  C   UNL     1       6.469  20.095  44.480  1.00  0.00     0.008 C 
ATOM      9  C   UNL     1       9.780  22.033  45.163  1.00  0.00     0.005 C 
ATOM     10  C   UNL     1       7.781  20.449  45.266  1.00  0.00    -0.024 C 
ATOM     11  C   UNL     1      10.766  20.879  45.279  1.00  0.00     0.005 C 
ATOM     12  C   UNL     1       8.761  19.158  45.473  1.00  0.00    -0.024 C 
ATOM     13  C   UNL     1       7.353  20.980  46.670  1.00  0.00     0.012 C 
ATOM     14  C   UNL     1      10.218  19.601  46.000  1.00  0.00     0.002 C 
ATOM     15  C   UNL     1       8.925  18.336  44.148  1.00  0.00     0.008 C 
ATOM     16  C   UNL     1       8.075  18.205  46.512  1.00  0.00     0.012 C 
ATOM     17  C   UNL     1      11.316  18.419  46.032  1.00  0.00    -0.026 C 
ATOM     18  C   UNL     1       9.956  17.198  44.205  1.00  0.00     0.005 C 
ATOM     19  C   UNL     1      12.755  18.987  46.304  1.00  0.00     0.010 C 
ATOM     20  C   UNL     1      10.981  17.448  47.218  1.00  0.00     0.012 C 
ATOM     21  C   UNL     1      11.355  17.699  44.629  1.00  0.00     0.003 C 
ATOM     22  C   UNL     1      13.879  17.946  46.183  1.00  0.00     0.033 C 
ATOM     23  C   UNL     1      12.522  16.640  44.418  1.00  0.00    -0.006 C 
ATOM     24  C   UNL     1      13.890  17.299  44.795  1.00  0.00     0.120 C 
ATOM     25  C   UNL     1      12.315  15.322  45.210  1.00  0.00     0.014 C 
ATOM     26  C   UNL     1      12.608  16.253  42.914  1.00  0.00     0.014 C 
ENDROOT
BRANCH   1  27
ATOM     27  C   UNL     1       6.430  21.656  41.820  1.00  0.00     0.048 C 
ATOM     28  O   UNL     1       7.321  22.039  41.015  1.00  0.00    -0.550 OA
ATOM     29  O   UNL     1       5.525  20.687  41.399  1.00  0.00    -0.550 OA
ENDBRANCH   1  27
BRANCH   7  30
ATOM     30  C   UNL     1       7.291  24.330  45.879  1.00  0.00    -0.077 C 
ATOM     31  C   UNL     1       5.877  24.257  46.401  1.00  0.00     0.039 C 
ATOM     32  C   UNL     1       8.280  24.368  46.794  1.00  0.00     0.008 C 
ENDBRANCH   7  30
BRANCH  24  33
ATOM     33  O   UNL     1      14.931  16.351  44.756  1.00  0.00    -0.393 OA
ATOM     34  H   UNL     1      15.363  16.340  45.650  1.00  0.00     0.210 HD
ENDBRANCH  24  33
TORSDOF 3
ENDMDL
MODEL 4
REMARK VINA RESULT:     1.438      3.956     10.117
REMARK INTER + INTRA:           1.185
REMARK INTER:                   1.629
REMARK INTRA:                  -0.445
REMARK UNBOUND:                -0.463
REMARK SMILES C=C(C)[C@@H]1CC[C@]2(C(=O)[O-])CC[C@]3(C)[C@H](CC[C@@H]4[C@]5(C)CC[C@@H](O)C(C)(C)[C@H]5CC[C@@]43C)[C@H]12
REMARK SMILES IDX 7 1 6 2 33 3 11 4 5 5 15 6 4 7 12 8 16 9 13 10 17 11 31 12
REMARK SMILES IDX 14 13 18 14 30 15 32 16 19 17 29 18 21 19 20 20 28 21 22 22
REMARK SMILES IDX 25 23 23 24 26 25 27 26 8 27 9 28 10 29 2 30 3 31 1 32 24 33
REMARK H PARENT 24 34
REMARK Flexibility Score: inf
ROOT
ATOM      1  C   UNL     1       6.411  22.779  45.130  1.00  0.00     0.014 C 
ATOM      2  C   UNL     1       5.053  23.469  44.823  1.00  0.00     0.014 C 
ATOM      3  C   UNL     1       6.168  21.281  44.809  1.00  0.00     0.012 C 
ATOM      4  C   UNL     1       7.544  23.349  44.242  1.00  0.00     0.014 C 
ATOM      5  C   UNL     1       4.059  22.386  44.390  1.00  0.00     0.009 C 
ATOM      6  C   UNL     1       7.466  20.419  44.574  1.00  0.00     0.000 C 
ATOM      7  C   UNL     1       4.886  21.179  43.933  1.00  0.00     0.018 C 
ATOM      8  C   UNL     1       8.842  22.526  44.354  1.00  0.00     0.008 C 
ATOM      9  C   UNL     1       7.192  19.006  44.084  1.00  0.00     0.005 C 
ATOM     10  C   UNL     1       8.697  21.052  43.832  1.00  0.00    -0.024 C 
ATOM     11  C   UNL     1       8.379  18.110  44.412  1.00  0.00     0.005 C 
ATOM     12  C   UNL     1      10.035  20.154  44.097  1.00  0.00    -0.024 C 
ATOM     13  C   UNL     1       8.444  21.126  42.294  1.00  0.00     0.012 C 
ATOM     14  C   UNL     1       9.756  18.588  43.839  1.00  0.00     0.002 C 
ATOM     15  C   UNL     1      10.581  20.341  45.555  1.00  0.00     0.008 C 
ATOM     16  C   UNL     1      11.153  20.672  43.128  1.00  0.00     0.012 C 
ATOM     17  C   UNL     1      10.957  17.602  44.278  1.00  0.00    -0.026 C 
ATOM     18  C   UNL     1      11.741  19.413  45.947  1.00  0.00     0.005 C 
ATOM     19  C   UNL     1      10.503  16.100  44.236  1.00  0.00     0.010 C 
ATOM     20  C   UNL     1      12.133  17.749  43.251  1.00  0.00     0.012 C 
ATOM     21  C   UNL     1      11.383  17.921  45.763  1.00  0.00     0.003 C 
ATOM     22  C   UNL     1      11.536  15.111  44.800  1.00  0.00     0.033 C 
ATOM     23  C   UNL     1      12.416  16.912  46.427  1.00  0.00    -0.006 C 
ATOM     24  C   UNL     1      11.892  15.448  46.252  1.00  0.00     0.120 C 
ATOM     25  C   UNL     1      13.858  17.045  45.870  1.00  0.00     0.014 C 
ATOM     26  C   UNL     1      12.497  17.182  47.957  1.00  0.00     0.014 C 
ENDROOT
BRANCH   1  27
ATOM     27  C   UNL     1       6.780  23.013  46.595  1.00  0.00     0.048 C 
ATOM     28  O   UNL     1       6.230  22.328  47.498  1.00  0.00    -0.550 OA
ATOM     29  O   UNL     1       7.664  24.021  46.969  1.00  0.00    -0.550 OA
ENDBRANCH   1  27
BRANCH   7  30
ATOM     30  C   UNL     1       5.003  21.097  42.407  1.00  0.00    -0.077 C 
ATOM     31  C   UNL     1       5.166  22.366  41.606  1.00  0.00     0.039 C 
ATOM     32  C   UNL     1       5.152  19.932  41.746  1.00  0.00     0.008 C 
ENDBRANCH   7  30
BRANCH  24  33
ATOM     33  O   UNL     1      12.848  14.516  46.701  1.00  0.00    -0.393 OA
ATOM     34  H   UNL     1      12.912  13.797  46.020  1.00  0.00     0.210 HD
ENDBRANCH  24  33
TORSDOF 3
ENDMDL
MODEL 5
REMARK VINA RESULT:     1.995      1.511      2.077
REMARK INTER + INTRA:           1.824
REMARK INTER:                   1.838
REMARK INTRA:                  -0.014
REMARK UNBOUND:                -0.463
REMARK SMILES C=C(C)[C@@H]1CC[C@]2(C(=O)[O-])CC[C@]3(C)[C@H](CC[C@@H]4[C@]5(C)CC[C@@H](O)C(C)(C)[C@H]5CC[C@@]43C)[C@H]12
REMARK SMILES IDX 7 1 6 2 33 3 11 4 5 5 15 6 4 7 12 8 16 9 13 10 17 11 31 12
REMARK SMILES IDX 14 13 18 14 30 15 32 16 19 17 29 18 21 19 20 20 28 21 22 22
REMARK SMILES IDX 25 23 23 24 26 25 27 26 8 27 9 28 10 29 2 30 3 31 1 32 24 33
REMARK H PARENT 24 34
REMARK Flexibility Score: inf
ROOT
ATOM      1  C   UNL     1       6.998  23.130  45.698  1.00  0.00     0.014 C 
ATOM      2  C   UNL     1       8.285  22.264  45.593  1.00  0.00     0.014 C 
ATOM      3  C   UNL     1       6.913  23.866  44.335  1.00  0.00     0.012 C 
ATOM      4  C   UNL     1       5.744  22.249  45.920  1.00  0.00     0.014 C 
ATOM      5  C   UNL     1       8.932  22.541  44.233  1.00  0.00     0.009 C 
ATOM      6  C   UNL     1       5.495  24.444  43.965  1.00  0.00     0.000 C 
ATOM      7  C   UNL     1       7.841  23.125  43.330  1.00  0.00     0.018 C 
ATOM      8  C   UNL     1       4.437  23.054  45.790  1.00  0.00     0.008 C 
ATOM      9  C   UNL     1       5.400  24.997  42.552  1.00  0.00     0.005 C 
ATOM     10  C   UNL     1       4.201  23.641  44.352  1.00  0.00    -0.024 C 
ATOM     11  C   UNL     1       4.251  25.994  42.467  1.00  0.00     0.005 C 
ATOM     12  C   UNL     1       2.892  24.614  44.274  1.00  0.00    -0.024 C 
ATOM     13  C   UNL     1       3.984  22.434  43.387  1.00  0.00     0.012 C 
ATOM     14  C   UNL     1       2.850  25.438  42.890  1.00  0.00     0.002 C 
ATOM     15  C   UNL     1       2.847  25.626  45.471  1.00  0.00     0.008 C 
ATOM     16  C   UNL     1       1.620  23.707  44.404  1.00  0.00     0.012 C 
ATOM     17  C   UNL     1       1.710  26.577  42.812  1.00  0.00    -0.026 C 
ATOM     18  C   UNL     1       1.739  26.687  45.393  1.00  0.00     0.005 C 
ATOM     19  C   UNL     1       1.907  27.493  41.551  1.00  0.00     0.010 C 
ATOM     20  C   UNL     1       0.311  25.885  42.653  1.00  0.00     0.012 C 
ATOM     21  C   UNL     1       1.805  27.505  44.084  1.00  0.00     0.003 C 
ATOM     22  C   UNL     1       0.962  28.704  41.496  1.00  0.00     0.033 C 
ATOM     23  C   UNL     1       0.887  28.803  44.074  1.00  0.00    -0.006 C 
ATOM     24  C   UNL     1       1.116  29.586  42.739  1.00  0.00     0.120 C 
ATOM     25  C   UNL     1      -0.621  28.498  44.276  1.00  0.00     0.014 C 
ATOM     26  C   UNL     1       1.314  29.750  45.231  1.00  0.00     0.014 C 
ENDROOT
BRANCH   1  27
ATOM     27  C   UNL     1       7.129  24.092  46.879  1.00  0.00     0.048 C 
ATOM     28  O   UNL     1       6.098  24.611  47.384  1.00  0.00    -0.550 OA
ATOM     29  O   UNL     1       8.374  24.469  47.374  1.00  0.00    -0.550 OA
ENDBRANCH   1  27
BRANCH   7  30
ATOM     30  C   UNL     1       7.256  22.081  42.372  1.00  0.00    -0.077 C 
ATOM     31  C   UNL     1       7.004  20.678  42.868  1.00  0.00     0.039 C 
ATOM     32  C   UNL     1       6.779  22.394  41.151  1.00  0.00     0.008 C 
ENDBRANCH   7  30
BRANCH  24  33
ATOM     33  O   UNL     1       0.218  30.665  42.631  1.00  0.00    -0.393 OA
ATOM     34  H   UNL     1       0.314  31.222  43.447  1.00  0.00     0.210 HD
ENDBRANCH  24  33
TORSDOF 3
ENDMDL
MODEL 6
REMARK VINA RESULT:     2.015      1.849      8.210
REMARK INTER + INTRA:           1.847
REMARK INTER:                   2.283
REMARK INTRA:                  -0.436
REMARK UNBOUND:                -0.463
REMARK SMILES C=C(C)[C@@H]1CC[C@]2(C(=O)[O-])CC[C@]3(C)[C@H](CC[C@@H]4[C@]5(C)CC[C@@H](O)C(C)(C)[C@H]5CC[C@@]43C)[C@H]12
REMARK SMILES IDX 7 1 6 2 33 3 11 4 5 5 15 6 4 7 12 8 16 9 13 10 17 11 31 12
REMARK SMILES IDX 14 13 18 14 30 15 32 16 19 17 29 18 21 19 20 20 28 21 22 22
REMARK SMILES IDX 25 23 23 24 26 25 27 26 8 27 9 28 10 29 2 30 3 31 1 32 24 33
REMARK H PARENT 24 34
REMARK Flexibility Score: inf
ROOT
ATOM      1  C   UNL     1       0.917  29.116  42.411  1.00  0.00     0.014 C 
ATOM      2  C   UNL     1      -0.258  30.133  42.437  1.00  0.00     0.014 C 
ATOM      3  C   UNL     1       1.188  28.796  43.905  1.00  0.00     0.012 C 
ATOM      4  C   UNL     1       0.530  27.830  41.641  1.00  0.00     0.014 C 
ATOM      5  C   UNL     1      -0.606  30.416  43.902  1.00  0.00     0.009 C 
ATOM      6  C   UNL     1       1.990  27.467  44.178  1.00  0.00     0.000 C 
ATOM      7  C   UNL     1      -0.053  29.248  44.726  1.00  0.00     0.018 C 
ATOM      8  C   UNL     1       1.583  26.716  41.801  1.00  0.00     0.008 C 
ATOM      9  C   UNL     1       2.081  27.088  45.648  1.00  0.00     0.005 C 
ATOM     10  C   UNL     1       1.736  26.205  43.278  1.00  0.00    -0.024 C 
ATOM     11  C   UNL     1       3.278  26.173  45.869  1.00  0.00     0.005 C 
ATOM     12  C   UNL     1       2.957  25.135  43.453  1.00  0.00    -0.024 C 
ATOM     13  C   UNL     1       0.398  25.502  43.668  1.00  0.00     0.012 C 
ATOM     14  C   UNL     1       3.289  24.866  45.007  1.00  0.00     0.002 C 
ATOM     15  C   UNL     1       4.261  25.619  42.730  1.00  0.00     0.008 C 
ATOM     16  C   UNL     1       2.522  23.802  42.753  1.00  0.00     0.012 C 
ATOM     17  C   UNL     1       4.616  23.987  45.276  1.00  0.00    -0.026 C 
ATOM     18  C   UNL     1       5.508  24.756  42.976  1.00  0.00     0.005 C 
ATOM     19  C   UNL     1       5.004  23.996  46.797  1.00  0.00     0.010 C 
ATOM     20  C   UNL     1       4.321  22.495  44.892  1.00  0.00     0.012 C 
ATOM     21  C   UNL     1       5.828  24.608  44.480  1.00  0.00     0.003 C 
ATOM     22  C   UNL     1       6.349  23.321  47.110  1.00  0.00     0.033 C 
ATOM     23  C   UNL     1       7.259  23.988  44.789  1.00  0.00    -0.006 C 
ATOM     24  C   UNL     1       7.494  23.980  46.335  1.00  0.00     0.120 C 
ATOM     25  C   UNL     1       7.459  22.567  44.199  1.00  0.00     0.014 C 
ATOM     26  C   UNL     1       8.362  24.892  44.170  1.00  0.00     0.014 C 
ENDROOT
BRANCH   1  27
ATOM     27  C   UNL     1       2.123  29.751  41.718  1.00  0.00     0.048 C 
ATOM     28  O   UNL     1       2.005  30.212  40.551  1.00  0.00    -0.550 OA
ATOM     29  O   UNL     1       3.378  29.773  42.318  1.00  0.00    -0.550 OA
ENDBRANCH   1  27
BRANCH   7  30
ATOM     30  C   UNL     1      -1.140  28.232  45.097  1.00  0.00    -0.077 C 
ATOM     31  C   UNL     1      -2.033  27.672  44.017  1.00  0.00     0.039 C 
ATOM     32  C   UNL     1      -1.225  27.665  46.317  1.00  0.00     0.008 C 
ENDBRANCH   7  30
BRANCH  24  33
ATOM     33  O   UNL     1       8.690  23.309  46.657  1.00  0.00    -0.393 OA
ATOM     34  H   UNL     1       9.439  23.807  46.236  1.00  0.00     0.210 HD
ENDBRANCH  24  33
TORSDOF 3
ENDMDL
MODEL 7
REMARK VINA RESULT:     2.072      2.103      7.986
REMARK INTER + INTRA:           1.912
REMARK INTER:                   2.439
REMARK INTRA:                  -0.527
REMARK UNBOUND:                -0.463
REMARK SMILES C=C(C)[C@@H]1CC[C@]2(C(=O)[O-])CC[C@]3(C)[C@H](CC[C@@H]4[C@]5(C)CC[C@@H](O)C(C)(C)[C@H]5CC[C@@]43C)[C@H]12
REMARK SMILES IDX 7 1 6 2 33 3 11 4 5 5 15 6 4 7 12 8 16 9 13 10 17 11 31 12
REMARK SMILES IDX 14 13 18 14 30 15 32 16 19 17 29 18 21 19 20 20 28 21 22 22
REMARK SMILES IDX 25 23 23 24 26 25 27 26 8 27 9 28 10 29 2 30 3 31 1 32 24 33
REMARK H PARENT 24 34
REMARK Flexibility Score: inf
ROOT
ATOM      1  C   UNL     1      -0.707  27.947  43.475  1.00  0.00     0.014 C 
ATOM      2  C   UNL     1      -1.750  28.994  42.994  1.00  0.00     0.014 C 
ATOM      3  C   UNL     1      -0.129  27.344  42.168  1.00  0.00     0.012 C 
ATOM      4  C   UNL     1       0.415  28.614  44.309  1.00  0.00     0.014 C 
ATOM      5  C   UNL     1      -1.795  28.947  41.463  1.00  0.00     0.009 C 
ATOM      6  C   UNL     1       1.258  26.609  42.316  1.00  0.00     0.000 C 
ATOM      7  C   UNL     1      -0.483  28.305  40.997  1.00  0.00     0.018 C 
ATOM      8  C   UNL     1       1.580  27.647  44.597  1.00  0.00     0.008 C 
ATOM      9  C   UNL     1       1.882  26.190  40.995  1.00  0.00     0.005 C 
ATOM     10  C   UNL     1       2.338  27.177  43.305  1.00  0.00    -0.024 C 
ATOM     11  C   UNL     1       2.867  25.053  41.230  1.00  0.00     0.005 C 
ATOM     12  C   UNL     1       3.469  26.040  43.614  1.00  0.00    -0.024 C 
ATOM     13  C   UNL     1       3.044  28.430  42.698  1.00  0.00     0.012 C 
ATOM     14  C   UNL     1       4.009  25.360  42.257  1.00  0.00     0.002 C 
ATOM     15  C   UNL     1       2.921  24.920  44.564  1.00  0.00     0.008 C 
ATOM     16  C   UNL     1       4.647  26.739  44.376  1.00  0.00     0.012 C 
ATOM     17  C   UNL     1       4.972  24.082  42.475  1.00  0.00    -0.026 C 
ATOM     18  C   UNL     1       3.861  23.724  44.780  1.00  0.00     0.005 C 
ATOM     19  C   UNL     1       5.236  23.333  41.120  1.00  0.00     0.010 C 
ATOM     20  C   UNL     1       6.365  24.581  42.995  1.00  0.00     0.012 C 
ATOM     21  C   UNL     1       4.273  23.057  43.449  1.00  0.00     0.003 C 
ATOM     22  C   UNL     1       6.005  22.011  41.269  1.00  0.00     0.033 C 
ATOM     23  C   UNL     1       4.991  21.649  43.615  1.00  0.00    -0.006 C 
ATOM     24  C   UNL     1       5.270  21.042  42.201  1.00  0.00     0.120 C 
ATOM     25  C   UNL     1       6.299  21.714  44.448  1.00  0.00     0.014 C 
ATOM     26  C   UNL     1       4.039  20.662  44.349  1.00  0.00     0.014 C 
ENDROOT
BRANCH   1  27
ATOM     27  C   UNL     1      -1.403  26.902  44.348  1.00  0.00     0.048 C 
ATOM     28  O   UNL     1      -1.946  27.249  45.430  1.00  0.00    -0.550 OA
ATOM     29  O   UNL     1      -1.393  25.552  44.011  1.00  0.00    -0.550 OA
ENDBRANCH   1  27
BRANCH   7  30
ATOM     30  C   UNL     1       0.538  29.345  40.522  1.00  0.00    -0.077 C 
ATOM     31  C   UNL     1       0.760  30.595  41.338  1.00  0.00     0.039 C 
ATOM     32  C   UNL     1       1.389  29.120  39.502  1.00  0.00     0.008 C 
ENDBRANCH   7  30
BRANCH  24  33
ATOM     33  O   UNL     1       6.032  19.861  42.302  1.00  0.00    -0.393 OA
ATOM     34  H   UNL     1       5.400  19.096  42.332  1.00  0.00     0.210 HD
ENDBRANCH  24  33
TORSDOF 3
ENDMDL
MODEL 8
REMARK VINA RESULT:     2.363      2.082      3.519
REMARK INTER + INTRA:           2.246
REMARK INTER:                   2.257
REMARK INTRA:                  -0.011
REMARK UNBOUND:                -0.463
REMARK SMILES C=C(C)[C@@H]1CC[C@]2(C(=O)[O-])CC[C@]3(C)[C@H](CC[C@@H]4[C@]5(C)CC[C@@H](O)C(C)(C)[C@H]5CC[C@@]43C)[C@H]12
REMARK SMILES IDX 7 1 6 2 33 3 11 4 5 5 15 6 4 7 12 8 16 9 13 10 17 11 31 12
REMARK SMILES IDX 14 13 18 14 30 15 32 16 19 17 29 18 21 19 20 20 28 21 22 22
REMARK SMILES IDX 25 23 23 24 26 25 27 26 8 27 9 28 10 29 2 30 3 31 1 32 24 33
REMARK H PARENT 24 34
REMARK Flexibility Score: inf
ROOT
ATOM      1  C   UNL     1       6.097  21.457  42.745  1.00  0.00     0.014 C 
ATOM      2  C   UNL     1       6.923  20.252  43.276  1.00  0.00     0.014 C 
ATOM      3  C   UNL     1       5.074  21.755  43.872  1.00  0.00     0.012 C 
ATOM      4  C   UNL     1       7.000  22.688  42.489  1.00  0.00     0.014 C 
ATOM      5  C   UNL     1       6.351  19.851  44.640  1.00  0.00     0.009 C 
ATOM      6  C   UNL     1       4.423  23.189  43.833  1.00  0.00     0.000 C 
ATOM      7  C   UNL     1       5.575  21.061  45.171  1.00  0.00     0.018 C 
ATOM      8  C   UNL     1       6.181  23.959  42.192  1.00  0.00     0.008 C 
ATOM      9  C   UNL     1       3.567  23.515  45.047  1.00  0.00     0.005 C 
ATOM     10  C   UNL     1       5.287  24.426  43.395  1.00  0.00    -0.024 C 
ATOM     11  C   UNL     1       2.572  24.613  44.694  1.00  0.00     0.005 C 
ATOM     12  C   UNL     1       4.316  25.681  43.011  1.00  0.00    -0.024 C 
ATOM     13  C   UNL     1       6.246  24.870  44.543  1.00  0.00     0.012 C 
ATOM     14  C   UNL     1       3.204  25.938  44.148  1.00  0.00     0.002 C 
ATOM     15  C   UNL     1       3.598  25.461  41.635  1.00  0.00     0.008 C 
ATOM     16  C   UNL     1       5.225  26.948  42.846  1.00  0.00     0.012 C 
ATOM     17  C   UNL     1       2.071  27.020  43.758  1.00  0.00    -0.026 C 
ATOM     18  C   UNL     1       2.542  26.515  41.268  1.00  0.00     0.005 C 
ATOM     19  C   UNL     1       0.897  27.014  44.802  1.00  0.00     0.010 C 
ATOM     20  C   UNL     1       2.706  28.453  43.799  1.00  0.00     0.012 C 
ATOM     21  C   UNL     1       1.452  26.651  42.355  1.00  0.00     0.003 C 
ATOM     22  C   UNL     1      -0.299  27.897  44.412  1.00  0.00     0.033 C 
ATOM     23  C   UNL     1       0.181  27.495  41.908  1.00  0.00    -0.006 C 
ATOM     24  C   UNL     1      -0.879  27.478  43.057  1.00  0.00     0.120 C 
ATOM     25  C   UNL     1       0.518  28.953  41.498  1.00  0.00     0.014 C 
ATOM     26  C   UNL     1      -0.481  26.821  40.673  1.00  0.00     0.014 C 
ENDROOT
BRANCH   1  27
ATOM     27  C   UNL     1       5.424  21.068  41.428  1.00  0.00     0.048 C 
ATOM     28  O   UNL     1       5.021  21.966  40.640  1.00  0.00    -0.550 OA
ATOM     29  O   UNL     1       5.180  19.738  41.101  1.00  0.00    -0.550 OA
ENDBRANCH   1  27
BRANCH   7  30
ATOM     30  C   UNL     1       6.377  21.858  46.207  1.00  0.00    -0.077 C 
ATOM     31  C   UNL     1       7.856  22.071  45.997  1.00  0.00     0.039 C 
ATOM     32  C   UNL     1       5.796  22.542  47.212  1.00  0.00     0.008 C 
ENDBRANCH   7  30
BRANCH  24  33
ATOM     33  O   UNL     1      -1.959  28.331  42.756  1.00  0.00    -0.393 OA
ATOM     34  H   UNL     1      -1.699  29.253  43.017  1.00  0.00     0.210 HD
ENDBRANCH  24  33
TORSDOF 3
ENDMDL
MODEL 9
REMARK VINA RESULT:     2.481      2.142      3.611
REMARK INTER + INTRA:           2.380
REMARK INTER:                   2.671
REMARK INTRA:                  -0.291
REMARK UNBOUND:                -0.463
REMARK SMILES C=C(C)[C@@H]1CC[C@]2(C(=O)[O-])CC[C@]3(C)[C@H](CC[C@@H]4[C@]5(C)CC[C@@H](O)C(C)(C)[C@H]5CC[C@@]43C)[C@H]12
REMARK SMILES IDX 7 1 6 2 33 3 11 4 5 5 15 6 4 7 12 8 16 9 13 10 17 11 31 12
REMARK SMILES IDX 14 13 18 14 30 15 32 16 19 17 29 18 21 19 20 20 28 21 22 22
REMARK SMILES IDX 25 23 23 24 26 25 27 26 8 27 9 28 10 29 2 30 3 31 1 32 24 33
REMARK H PARENT 24 34
REMARK Flexibility Score: inf
ROOT
ATOM      1  C   UNL     1       7.644  23.434  43.684  1.00  0.00     0.014 C 
ATOM      2  C   UNL     1       8.581  22.194  43.664  1.00  0.00     0.014 C 
ATOM      3  C   UNL     1       6.705  23.232  42.466  1.00  0.00     0.012 C 
ATOM      4  C   UNL     1       6.826  23.499  44.997  1.00  0.00     0.014 C 
ATOM      5  C   UNL     1       8.214  21.344  42.443  1.00  0.00     0.009 C 
ATOM      6  C   UNL     1       5.367  24.064  42.496  1.00  0.00     0.000 C 
ATOM      7  C   UNL     1       6.791  21.739  42.035  1.00  0.00     0.018 C 
ATOM      8  C   UNL     1       5.724  24.576  44.944  1.00  0.00     0.008 C 
ATOM      9  C   UNL     1       4.390  23.710  41.387  1.00  0.00     0.005 C 
ATOM     10  C   UNL     1       4.623  24.294  43.861  1.00  0.00    -0.024 C 
ATOM     11  C   UNL     1       3.438  24.874  41.149  1.00  0.00     0.005 C 
ATOM     12  C   UNL     1       3.551  25.517  43.717  1.00  0.00    -0.024 C 
ATOM     13  C   UNL     1       3.856  23.008  44.301  1.00  0.00     0.012 C 
ATOM     14  C   UNL     1       2.630  25.344  42.406  1.00  0.00     0.002 C 
ATOM     15  C   UNL     1       4.265  26.911  43.659  1.00  0.00     0.008 C 
ATOM     16  C   UNL     1       2.661  25.520  45.008  1.00  0.00     0.012 C 
ATOM     17  C   UNL     1       1.687  26.609  42.067  1.00  0.00    -0.026 C 
ATOM     18  C   UNL     1       3.347  28.107  43.362  1.00  0.00     0.005 C 
ATOM     19  C   UNL     1       1.028  26.464  40.649  1.00  0.00     0.010 C 
ATOM     20  C   UNL     1       0.514  26.660  43.108  1.00  0.00     0.012 C 
ATOM     21  C   UNL     1       2.558  27.924  42.046  1.00  0.00     0.003 C 
ATOM     22  C   UNL     1       0.249  27.704  40.183  1.00  0.00     0.033 C 
ATOM     23  C   UNL     1       1.828  29.239  41.531  1.00  0.00    -0.006 C 
ATOM     24  C   UNL     1       1.148  28.945  40.153  1.00  0.00     0.120 C 
ATOM     25  C   UNL     1       0.795  29.810  42.538  1.00  0.00     0.014 C 
ATOM     26  C   UNL     1       2.881  30.356  41.284  1.00  0.00     0.014 C 
ENDROOT
BRANCH   1  27
ATOM     27  C   UNL     1       8.484  24.707  43.573  1.00  0.00     0.048 C 
ATOM     28  O   UNL     1       8.750  25.187  42.439  1.00  0.00    -0.550 OA
ATOM     29  O   UNL     1       9.028  25.318  44.699  1.00  0.00    -0.550 OA
ENDBRANCH   1  27
BRANCH   7  30
ATOM     30  C   UNL     1       5.743  20.736  42.530  1.00  0.00    -0.077 C 
ATOM     31  C   UNL     1       5.085  19.802  41.544  1.00  0.00     0.039 C 
ATOM     32  C   UNL     1       5.505  20.512  43.838  1.00  0.00     0.008 C 
ENDBRANCH   7  30
BRANCH  24  33
ATOM     33  O   UNL     1       0.372  30.043  39.731  1.00  0.00    -0.393 OA
ATOM     34  H   UNL     1       0.200  30.613  40.525  1.00  0.00     0.210 HD
ENDBRANCH  24  33
TORSDOF 3
ENDMDL
