MODEL 1
REMARK VINA RESULT:    -4.316      0.000      0.000
REMARK INTER + INTRA:          -5.086
REMARK INTER:                  -4.947
REMARK INTRA:                  -0.140
REMARK UNBOUND:                -0.140
REMARK SMILES O=C([O-])C=Cc1ccc(O)cc1
REMARK SMILES IDX 6 1 7 2 12 3 8 4 11 5 9 6 5 7 4 8 2 9 1 10 3 11 10 12
REMARK H PARENT 10 13
REMARK Flexibility Score: inf
ROOT
ATOM      1  C   UNL     1       3.904 -15.804  14.762  1.00  0.00    -0.025 A 
ATOM      2  C   UNL     1       2.521 -15.593  14.899  1.00  0.00     0.012 A 
ATOM      3  C   UNL     1       4.780 -14.718  14.964  1.00  0.00     0.012 A 
ATOM      4  C   UNL     1       2.021 -14.324  15.205  1.00  0.00     0.047 A 
ATOM      5  C   UNL     1       4.276 -13.450  15.272  1.00  0.00     0.047 A 
ATOM      6  C   UNL     1       2.895 -13.250  15.390  1.00  0.00     0.115 A 
ENDROOT
BRANCH   1   7
ATOM      7  C   UNL     1       4.386 -17.171  14.447  1.00  0.00     0.010 C 
ATOM      8  C   UNL     1       5.608 -17.438  13.964  1.00  0.00     0.025 C 
BRANCH   8   9
ATOM      9  C   UNL     1       6.048 -18.807  13.651  1.00  0.00     0.064 C 
ATOM     10  O   UNL     1       5.508 -19.807  14.197  1.00  0.00    -0.545 OA
ATOM     11  O   UNL     1       7.078 -19.003  12.741  1.00  0.00    -0.545 OA
ENDBRANCH   8   9
ENDBRANCH   1   7
BRANCH   6  12
ATOM     12  O   UNL     1       2.383 -11.990  15.694  1.00  0.00    -0.508 OA
ATOM     13  H   UNL     1       1.801 -11.839  16.510  1.00  0.00     0.293 HD
ENDBRANCH   6  12
TORSDOF 3
ENDMDL
MODEL 2
REMARK VINA RESULT:    -4.178      2.627      5.968
REMARK INTER + INTRA:          -4.928
REMARK INTER:                  -4.785
REMARK INTRA:                  -0.144
REMARK UNBOUND:                -0.140
REMARK SMILES O=C([O-])C=Cc1ccc(O)cc1
REMARK SMILES IDX 6 1 7 2 12 3 8 4 11 5 9 6 5 7 4 8 2 9 1 10 3 11 10 12
REMARK H PARENT 10 13
REMARK Flexibility Score: inf
ROOT
ATOM      1  C   UNL     1       4.278 -13.628  14.578  1.00  0.00    -0.025 A 
ATOM      2  C   UNL     1       5.413 -14.436  14.762  1.00  0.00     0.012 A 
ATOM      3  C   UNL     1       3.004 -14.232  14.589  1.00  0.00     0.012 A 
ATOM      4  C   UNL     1       5.283 -15.818  14.929  1.00  0.00     0.047 A 
ATOM      5  C   UNL     1       2.879 -15.615  14.757  1.00  0.00     0.047 A 
ATOM      6  C   UNL     1       4.018 -16.411  14.925  1.00  0.00     0.115 A 
ENDROOT
BRANCH   1   7
ATOM      7  C   UNL     1       4.467 -12.165  14.416  1.00  0.00     0.010 C 
ATOM      8  C   UNL     1       5.356 -11.616  13.576  1.00  0.00     0.025 C 
BRANCH   8   9
ATOM      9  C   UNL     1       5.524 -10.159  13.450  1.00  0.00     0.064 C 
ATOM     10  O   UNL     1       6.554  -9.665  12.917  1.00  0.00    -0.545 OA
ATOM     11  O   UNL     1       4.532  -9.313  13.927  1.00  0.00    -0.545 OA
ENDBRANCH   8   9
ENDBRANCH   1   7
BRANCH   6  12
ATOM     12  O   UNL     1       3.904 -17.790  15.091  1.00  0.00    -0.508 OA
ATOM     13  H   UNL     1       4.454 -18.287  15.783  1.00  0.00     0.293 HD
ENDBRANCH   6  12
TORSDOF 3
ENDMDL
MODEL 3
REMARK VINA RESULT:    -4.177      2.569      5.876
REMARK INTER + INTRA:          -4.927
REMARK INTER:                  -4.789
REMARK INTRA:                  -0.138
REMARK UNBOUND:                -0.140
REMARK SMILES O=C([O-])C=Cc1ccc(O)cc1
REMARK SMILES IDX 6 1 7 2 12 3 8 4 11 5 9 6 5 7 4 8 2 9 1 10 3 11 10 12
REMARK H PARENT 10 13
REMARK Flexibility Score: inf
ROOT
ATOM      1  C   UNL     1       4.442 -13.685  14.647  1.00  0.00    -0.025 A 
ATOM      2  C   UNL     1       3.173 -14.283  14.566  1.00  0.00     0.012 A 
ATOM      3  C   UNL     1       5.575 -14.513  14.784  1.00  0.00     0.012 A 
ATOM      4  C   UNL     1       3.033 -15.672  14.645  1.00  0.00     0.047 A 
ATOM      5  C   UNL     1       5.431 -15.902  14.863  1.00  0.00     0.047 A 
ATOM      6  C   UNL     1       4.160 -16.484  14.796  1.00  0.00     0.115 A 
ENDROOT
BRANCH   1   7
ATOM      7  C   UNL     1       4.539 -12.208  14.546  1.00  0.00     0.010 C 
ATOM      8  C   UNL     1       5.332 -11.570  13.673  1.00  0.00     0.025 C 
BRANCH   8   9
ATOM      9  C   UNL     1       5.412 -10.102  13.610  1.00  0.00     0.064 C 
ATOM     10  O   UNL     1       6.465  -9.522  13.232  1.00  0.00    -0.545 OA
ATOM     11  O   UNL     1       4.310  -9.341  13.975  1.00  0.00    -0.545 OA
ENDBRANCH   8   9
ENDBRANCH   1   7
BRANCH   6  12
ATOM     12  O   UNL     1       4.006 -17.866  14.874  1.00  0.00    -0.508 OA
ATOM     13  H   UNL     1       4.750 -18.464  15.216  1.00  0.00     0.293 HD
ENDBRANCH   6  12
TORSDOF 3
ENDMDL
MODEL 4
REMARK VINA RESULT:    -3.744      3.486      5.059
REMARK INTER + INTRA:          -4.431
REMARK INTER:                  -4.280
REMARK INTRA:                  -0.151
REMARK UNBOUND:                -0.140
REMARK SMILES O=C([O-])C=Cc1ccc(O)cc1
REMARK SMILES IDX 6 1 7 2 12 3 8 4 11 5 9 6 5 7 4 8 2 9 1 10 3 11 10 12
REMARK H PARENT 10 13
REMARK Flexibility Score: inf
ROOT
ATOM      1  C   UNL     1       4.377 -11.516  14.643  1.00  0.00    -0.025 A 
ATOM      2  C   UNL     1       5.417 -11.532  13.699  1.00  0.00     0.012 A 
ATOM      3  C   UNL     1       3.957 -10.278  15.171  1.00  0.00     0.012 A 
ATOM      4  C   UNL     1       6.042 -10.345  13.307  1.00  0.00     0.047 A 
ATOM      5  C   UNL     1       4.584  -9.092  14.775  1.00  0.00     0.047 A 
ATOM      6  C   UNL     1       5.629  -9.123  13.845  1.00  0.00     0.115 A 
ENDROOT
BRANCH   1   7
ATOM      7  C   UNL     1       3.738 -12.802  15.019  1.00  0.00     0.010 C 
ATOM      8  C   UNL     1       3.769 -13.902  14.253  1.00  0.00     0.025 C 
BRANCH   8   9
ATOM      9  C   UNL     1       3.113 -15.157  14.653  1.00  0.00     0.064 C 
ATOM     10  O   UNL     1       3.521 -16.271  14.226  1.00  0.00    -0.545 OA
ATOM     11  O   UNL     1       2.026 -15.116  15.515  1.00  0.00    -0.545 OA
ENDBRANCH   8   9
ENDBRANCH   1   7
BRANCH   6  12
ATOM     12  O   UNL     1       6.261  -7.947  13.445  1.00  0.00    -0.508 OA
ATOM     13  H   UNL     1       7.253  -7.803  13.594  1.00  0.00     0.293 HD
ENDBRANCH   6  12
TORSDOF 3
ENDMDL
MODEL 5
REMARK VINA RESULT:    -3.685      1.885      6.230
REMARK INTER + INTRA:          -4.363
REMARK INTER:                  -4.227
REMARK INTRA:                  -0.136
REMARK UNBOUND:                -0.140
REMARK SMILES O=C([O-])C=Cc1ccc(O)cc1
REMARK SMILES IDX 6 1 7 2 12 3 8 4 11 5 9 6 5 7 4 8 2 9 1 10 3 11 10 12
REMARK H PARENT 10 13
REMARK Flexibility Score: inf
ROOT
ATOM      1  C   UNL     1       5.620 -17.916  14.075  1.00  0.00    -0.025 A 
ATOM      2  C   UNL     1       6.554 -17.993  13.028  1.00  0.00     0.012 A 
ATOM      3  C   UNL     1       5.475 -19.020  14.939  1.00  0.00     0.012 A 
ATOM      4  C   UNL     1       7.309 -19.152  12.831  1.00  0.00     0.047 A 
ATOM      5  C   UNL     1       6.233 -20.178  14.739  1.00  0.00     0.047 A 
ATOM      6  C   UNL     1       7.150 -20.248  13.684  1.00  0.00     0.115 A 
ENDROOT
BRANCH   1   7
ATOM      7  C   UNL     1       4.850 -16.659  14.249  1.00  0.00     0.010 C 
ATOM      8  C   UNL     1       3.619 -16.606  14.777  1.00  0.00     0.025 C 
BRANCH   8   9
ATOM      9  C   UNL     1       2.880 -15.341  14.924  1.00  0.00     0.064 C 
ATOM     10  O   UNL     1       2.308 -14.802  13.938  1.00  0.00    -0.545 OA
ATOM     11  O   UNL     1       2.812 -14.730  16.168  1.00  0.00    -0.545 OA
ENDBRANCH   8   9
ENDBRANCH   1   7
BRANCH   6  12
ATOM     12  O   UNL     1       7.909 -21.398  13.475  1.00  0.00    -0.508 OA
ATOM     13  H   UNL     1       7.767 -21.985  12.661  1.00  0.00     0.293 HD
ENDBRANCH   6  12
TORSDOF 3
ENDMDL
MODEL 6
REMARK VINA RESULT:    -3.682     12.868     13.549
REMARK INTER + INTRA:          -4.360
REMARK INTER:                  -4.223
REMARK INTRA:                  -0.136
REMARK UNBOUND:                -0.140
REMARK SMILES O=C([O-])C=Cc1ccc(O)cc1
REMARK SMILES IDX 6 1 7 2 12 3 8 4 11 5 9 6 5 7 4 8 2 9 1 10 3 11 10 12
REMARK H PARENT 10 13
REMARK Flexibility Score: inf
ROOT
ATOM      1  C   UNL     1       3.276 -23.848   4.234  1.00  0.00    -0.025 A 
ATOM      2  C   UNL     1       4.522 -24.324   4.674  1.00  0.00     0.012 A 
ATOM      3  C   UNL     1       3.234 -22.681   3.444  1.00  0.00     0.012 A 
ATOM      4  C   UNL     1       5.699 -23.640   4.355  1.00  0.00     0.047 A 
ATOM      5  C   UNL     1       4.414 -22.000   3.126  1.00  0.00     0.047 A 
ATOM      6  C   UNL     1       5.648 -22.476   3.583  1.00  0.00     0.115 A 
ENDROOT
BRANCH   1   7
ATOM      7  C   UNL     1       2.056 -24.616   4.589  1.00  0.00     0.010 C 
ATOM      8  C   UNL     1       1.377 -24.449   5.733  1.00  0.00     0.025 C 
BRANCH   8   9
ATOM      9  C   UNL     1       0.177 -25.238   6.057  1.00  0.00     0.064 C 
ATOM     10  O   UNL     1      -0.252 -26.125   5.271  1.00  0.00    -0.545 OA
ATOM     11  O   UNL     1      -0.496 -25.000   7.248  1.00  0.00    -0.545 OA
ENDBRANCH   8   9
ENDBRANCH   1   7
BRANCH   6  12
ATOM     12  O   UNL     1       6.829 -21.804   3.274  1.00  0.00    -0.508 OA
ATOM     13  H   UNL     1       7.695 -22.304   3.111  1.00  0.00     0.293 HD
ENDBRANCH   6  12
TORSDOF 3
ENDMDL
MODEL 7
REMARK VINA RESULT:    -3.608     11.870     12.646
REMARK INTER + INTRA:          -4.275
REMARK INTER:                  -4.131
REMARK INTRA:                  -0.144
REMARK UNBOUND:                -0.140
REMARK SMILES O=C([O-])C=Cc1ccc(O)cc1
REMARK SMILES IDX 6 1 7 2 12 3 8 4 11 5 9 6 5 7 4 8 2 9 1 10 3 11 10 12
REMARK H PARENT 10 13
REMARK Flexibility Score: inf
ROOT
ATOM      1  C   UNL     1      -5.850  -9.195  17.047  1.00  0.00    -0.025 A 
ATOM      2  C   UNL     1      -4.509  -9.158  16.630  1.00  0.00     0.012 A 
ATOM      3  C   UNL     1      -6.820  -8.519  16.279  1.00  0.00     0.012 A 
ATOM      4  C   UNL     1      -4.138  -8.444  15.487  1.00  0.00     0.047 A 
ATOM      5  C   UNL     1      -6.445  -7.806  15.135  1.00  0.00     0.047 A 
ATOM      6  C   UNL     1      -5.103  -7.765  14.739  1.00  0.00     0.115 A 
ENDROOT
BRANCH   1   7
ATOM      7  C   UNL     1      -6.196  -9.976  18.261  1.00  0.00     0.010 C 
ATOM      8  C   UNL     1      -5.688 -11.186  18.539  1.00  0.00     0.025 C 
BRANCH   8   9
ATOM      9  C   UNL     1      -6.063 -11.937  19.748  1.00  0.00     0.064 C 
ATOM     10  O   UNL     1      -5.421 -11.803  20.824  1.00  0.00    -0.545 OA
ATOM     11  O   UNL     1      -7.141 -12.810  19.702  1.00  0.00    -0.545 OA
ENDBRANCH   8   9
ENDBRANCH   1   7
BRANCH   6  12
ATOM     12  O   UNL     1      -4.719  -7.056  13.602  1.00  0.00    -0.508 OA
ATOM     13  H   UNL     1      -4.100  -7.461  12.910  1.00  0.00     0.293 HD
ENDBRANCH   6  12
TORSDOF 3
ENDMDL
MODEL 8
REMARK VINA RESULT:    -3.590     12.496     13.546
REMARK INTER + INTRA:          -4.254
REMARK INTER:                  -4.117
REMARK INTRA:                  -0.138
REMARK UNBOUND:                -0.140
REMARK SMILES O=C([O-])C=Cc1ccc(O)cc1
REMARK SMILES IDX 6 1 7 2 12 3 8 4 11 5 9 6 5 7 4 8 2 9 1 10 3 11 10 12
REMARK H PARENT 10 13
REMARK Flexibility Score: inf
ROOT
ATOM      1  C   UNL     1       2.780 -23.326   4.008  1.00  0.00    -0.025 A 
ATOM      2  C   UNL     1       1.777 -23.696   3.096  1.00  0.00     0.012 A 
ATOM      3  C   UNL     1       2.687 -23.776   5.340  1.00  0.00     0.012 A 
ATOM      4  C   UNL     1       0.692 -24.475   3.508  1.00  0.00     0.047 A 
ATOM      5  C   UNL     1       1.600 -24.556   5.749  1.00  0.00     0.047 A 
ATOM      6  C   UNL     1       0.600 -24.905   4.834  1.00  0.00     0.115 A 
ENDROOT
BRANCH   1   7
ATOM      7  C   UNL     1       3.917 -22.506   3.519  1.00  0.00     0.010 C 
ATOM      8  C   UNL     1       5.198 -22.744   3.836  1.00  0.00     0.025 C 
BRANCH   8   9
ATOM      9  C   UNL     1       6.300 -21.902   3.342  1.00  0.00     0.064 C 
ATOM     10  O   UNL     1       7.028 -22.277   2.384  1.00  0.00    -0.545 OA
ATOM     11  O   UNL     1       6.543 -20.674   3.942  1.00  0.00    -0.545 OA
ENDBRANCH   8   9
ENDBRANCH   1   7
BRANCH   6  12
ATOM     12  O   UNL     1      -0.487 -25.681   5.231  1.00  0.00    -0.508 OA
ATOM     13  H   UNL     1      -0.950 -26.313   4.588  1.00  0.00     0.293 HD
ENDBRANCH   6  12
TORSDOF 3
ENDMDL
