MODEL 1
REMARK VINA RESULT:    -3.166      0.000      0.000
REMARK INTER + INTRA:          -5.087
REMARK INTER:                  -4.462
REMARK INTRA:                  -0.626
REMARK UNBOUND:                -0.626
REMARK SMILES CCCCCCCCC(=O)[O-]
REMARK SMILES IDX 6 1 7 2 8 3 9 4 10 5 11 6 5 7 4 8 3 9 2 10 1 11
REMARK H PARENT
REMARK Flexibility Score: inf
ROOT
ATOM      1  C   UNL     1      55.050  81.630  31.086  1.00  0.00     0.000 C 
ENDROOT
BRANCH   1   2
ATOM      2  C   UNL     1      53.560  81.616  30.718  1.00  0.00     0.006 C 
BRANCH   2   3
ATOM      3  C   UNL     1      52.654  81.627  31.957  1.00  0.00     0.053 C 
BRANCH   3   4
ATOM      4  C   UNL     1      51.637  82.725  31.892  1.00  0.00     0.041 C 
ATOM      5  O   UNL     1      50.509  82.513  31.375  1.00  0.00    -0.550 OA
ATOM      6  O   UNL     1      51.946  83.991  32.372  1.00  0.00    -0.550 OA
ENDBRANCH   3   4
ENDBRANCH   2   3
ENDBRANCH   1   2
BRANCH   1   7
ATOM      7  C   UNL     1      55.263  82.200  32.496  1.00  0.00     0.000 C 
BRANCH   7   8
ATOM      8  C   UNL     1      56.035  83.532  32.494  1.00  0.00    -0.000 C 
BRANCH   8   9
ATOM      9  C   UNL     1      55.382  84.663  31.672  1.00  0.00    -0.000 C 
BRANCH   9  10
ATOM     10  C   UNL     1      56.081  84.985  30.341  1.00  0.00    -0.003 C 
ATOM     11  C   UNL     1      57.469  84.354  30.228  1.00  0.00     0.004 C 
ENDBRANCH   9  10
ENDBRANCH   8   9
ENDBRANCH   7   8
ENDBRANCH   1   7
TORSDOF 7
ENDMDL
MODEL 2
REMARK VINA RESULT:    -2.993      1.026      1.569
REMARK INTER + INTRA:          -4.844
REMARK INTER:                  -4.352
REMARK INTRA:                  -0.492
REMARK UNBOUND:                -0.626
REMARK SMILES CCCCCCCCC(=O)[O-]
REMARK SMILES IDX 6 1 7 2 8 3 9 4 10 5 11 6 5 7 4 8 3 9 2 10 1 11
REMARK H PARENT
REMARK Flexibility Score: inf
ROOT
ATOM      1  C   UNL     1      53.481  81.728  31.008  1.00  0.00     0.000 C 
ENDROOT
BRANCH   1   2
ATOM      2  C   UNL     1      52.731  82.394  32.171  1.00  0.00     0.006 C 
BRANCH   2   3
ATOM      3  C   UNL     1      51.724  83.446  31.688  1.00  0.00     0.053 C 
BRANCH   3   4
ATOM      4  C   UNL     1      50.336  82.889  31.599  1.00  0.00     0.041 C 
ATOM      5  O   UNL     1      49.973  82.254  30.575  1.00  0.00    -0.550 OA
ATOM      6  O   UNL     1      49.433  83.100  32.634  1.00  0.00    -0.550 OA
ENDBRANCH   3   4
ENDBRANCH   2   3
ENDBRANCH   1   2
BRANCH   1   7
ATOM      7  C   UNL     1      54.994  81.700  31.274  1.00  0.00     0.000 C 
BRANCH   7   8
ATOM      8  C   UNL     1      55.377  82.333  32.623  1.00  0.00    -0.000 C 
BRANCH   8   9
ATOM      9  C   UNL     1      56.108  83.688  32.524  1.00  0.00    -0.000 C 
BRANCH   9  10
ATOM     10  C   UNL     1      56.086  84.338  31.130  1.00  0.00    -0.003 C 
ATOM     11  C   UNL     1      57.448  84.309  30.437  1.00  0.00     0.004 C 
ENDBRANCH   9  10
ENDBRANCH   8   9
ENDBRANCH   7   8
ENDBRANCH   1   7
TORSDOF 7
ENDMDL
MODEL 3
REMARK VINA RESULT:    -2.940      1.829      2.566
REMARK INTER + INTRA:          -4.768
REMARK INTER:                  -4.152
REMARK INTRA:                  -0.617
REMARK UNBOUND:                -0.626
REMARK SMILES CCCCCCCCC(=O)[O-]
REMARK SMILES IDX 6 1 7 2 8 3 9 4 10 5 11 6 5 7 4 8 3 9 2 10 1 11
REMARK H PARENT
REMARK Flexibility Score: inf
ROOT
ATOM      1  C   UNL     1      55.365  82.129  32.624  1.00  0.00     0.000 C 
ENDROOT
BRANCH   1   2
ATOM      2  C   UNL     1      54.224  82.133  31.596  1.00  0.00     0.006 C 
BRANCH   2   3
ATOM      3  C   UNL     1      54.607  81.407  30.299  1.00  0.00     0.053 C 
BRANCH   3   4
ATOM      4  C   UNL     1      53.430  81.236  29.389  1.00  0.00     0.041 C 
ATOM      5  O   UNL     1      52.700  82.221  29.105  1.00  0.00    -0.550 OA
ATOM      6  O   UNL     1      53.118  79.981  28.882  1.00  0.00    -0.550 OA
ENDBRANCH   3   4
ENDBRANCH   2   3
ENDBRANCH   1   2
BRANCH   1   7
ATOM      7  C   UNL     1      56.102  83.477  32.631  1.00  0.00     0.000 C 
BRANCH   7   8
ATOM      8  C   UNL     1      55.331  84.586  31.895  1.00  0.00    -0.000 C 
BRANCH   8   9
ATOM      9  C   UNL     1      55.984  85.078  30.587  1.00  0.00    -0.000 C 
BRANCH   9  10
ATOM     10  C   UNL     1      57.315  84.396  30.229  1.00  0.00    -0.003 C 
ATOM     11  C   UNL     1      57.253  83.621  28.913  1.00  0.00     0.004 C 
ENDBRANCH   9  10
ENDBRANCH   8   9
ENDBRANCH   7   8
ENDBRANCH   1   7
TORSDOF 7
ENDMDL
MODEL 4
REMARK VINA RESULT:    -2.907      1.299      2.168
REMARK INTER + INTRA:          -4.722
REMARK INTER:                  -3.972
REMARK INTRA:                  -0.751
REMARK UNBOUND:                -0.626
REMARK SMILES CCCCCCCCC(=O)[O-]
REMARK SMILES IDX 6 1 7 2 8 3 9 4 10 5 11 6 5 7 4 8 3 9 2 10 1 11
REMARK H PARENT
REMARK Flexibility Score: inf
ROOT
ATOM      1  C   UNL     1      55.361  81.577  29.997  1.00  0.00     0.000 C 
ENDROOT
BRANCH   1   2
ATOM      2  C   UNL     1      53.862  81.296  29.824  1.00  0.00     0.006 C 
BRANCH   2   3
ATOM      3  C   UNL     1      52.989  82.444  30.351  1.00  0.00     0.053 C 
BRANCH   3   4
ATOM      4  C   UNL     1      52.421  82.136  31.702  1.00  0.00     0.041 C 
ATOM      5  O   UNL     1      53.167  81.698  32.617  1.00  0.00    -0.550 OA
ATOM      6  O   UNL     1      51.063  82.300  31.942  1.00  0.00    -0.550 OA
ENDBRANCH   3   4
ENDBRANCH   2   3
ENDBRANCH   1   2
BRANCH   1   7
ATOM      7  C   UNL     1      55.786  82.813  29.190  1.00  0.00     0.000 C 
BRANCH   7   8
ATOM      8  C   UNL     1      56.563  83.841  30.031  1.00  0.00    -0.000 C 
BRANCH   8   9
ATOM      9  C   UNL     1      55.703  84.961  30.652  1.00  0.00    -0.000 C 
BRANCH   9  10
ATOM     10  C   UNL     1      55.289  84.726  32.114  1.00  0.00    -0.003 C 
ATOM     11  C   UNL     1      56.171  83.701  32.827  1.00  0.00     0.004 C 
ENDBRANCH   9  10
ENDBRANCH   8   9
ENDBRANCH   7   8
ENDBRANCH   1   7
TORSDOF 7
ENDMDL
MODEL 5
REMARK VINA RESULT:    -2.870      2.409      4.410
REMARK INTER + INTRA:          -4.670
REMARK INTER:                  -3.943
REMARK INTRA:                  -0.727
REMARK UNBOUND:                -0.626
REMARK SMILES CCCCCCCCC(=O)[O-]
REMARK SMILES IDX 6 1 7 2 8 3 9 4 10 5 11 6 5 7 4 8 3 9 2 10 1 11
REMARK H PARENT
REMARK Flexibility Score: inf
ROOT
ATOM      1  C   UNL     1      54.985  81.844  32.061  1.00  0.00     0.000 C 
ENDROOT
BRANCH   1   2
ATOM      2  C   UNL     1      55.809  82.890  32.825  1.00  0.00     0.006 C 
BRANCH   2   3
ATOM      3  C   UNL     1      55.649  84.299  32.240  1.00  0.00     0.053 C 
BRANCH   3   4
ATOM      4  C   UNL     1      56.104  84.364  30.814  1.00  0.00     0.041 C 
ATOM      5  O   UNL     1      57.322  84.219  30.531  1.00  0.00    -0.550 OA
ATOM      6  O   UNL     1      55.188  84.618  29.801  1.00  0.00    -0.550 OA
ENDBRANCH   3   4
ENDBRANCH   2   3
ENDBRANCH   1   2
BRANCH   1   7
ATOM      7  C   UNL     1      53.560  81.747  32.625  1.00  0.00     0.000 C 
BRANCH   7   8
ATOM      8  C   UNL     1      52.476  81.844  31.537  1.00  0.00    -0.000 C 
BRANCH   8   9
ATOM      9  C   UNL     1      51.459  82.988  31.728  1.00  0.00    -0.000 C 
BRANCH   9  10
ATOM     10  C   UNL     1      52.056  84.404  31.672  1.00  0.00    -0.003 C 
ATOM     11  C   UNL     1      52.011  85.125  33.019  1.00  0.00     0.004 C 
ENDBRANCH   9  10
ENDBRANCH   8   9
ENDBRANCH   7   8
ENDBRANCH   1   7
TORSDOF 7
ENDMDL
MODEL 6
REMARK VINA RESULT:    -2.834      1.815      2.920
REMARK INTER + INTRA:          -4.620
REMARK INTER:                  -4.007
REMARK INTRA:                  -0.612
REMARK UNBOUND:                -0.626
REMARK SMILES CCCCCCCCC(=O)[O-]
REMARK SMILES IDX 6 1 7 2 8 3 9 4 10 5 11 6 5 7 4 8 3 9 2 10 1 11
REMARK H PARENT
REMARK Flexibility Score: inf
ROOT
ATOM      1  C   UNL     1      52.622  84.927  32.454  1.00  0.00     0.000 C 
ENDROOT
BRANCH   1   2
ATOM      2  C   UNL     1      51.598  84.286  31.506  1.00  0.00     0.006 C 
BRANCH   2   3
ATOM      3  C   UNL     1      51.286  82.832  31.883  1.00  0.00     0.053 C 
BRANCH   3   4
ATOM      4  C   UNL     1      51.259  81.939  30.680  1.00  0.00     0.041 C 
ATOM      5  O   UNL     1      51.728  80.772  30.748  1.00  0.00    -0.550 OA
ATOM      6  O   UNL     1      50.748  82.406  29.476  1.00  0.00    -0.550 OA
ENDBRANCH   3   4
ENDBRANCH   2   3
ENDBRANCH   1   2
BRANCH   1   7
ATOM      7  C   UNL     1      53.975  85.120  31.753  1.00  0.00     0.000 C 
BRANCH   7   8
ATOM      8  C   UNL     1      55.174  84.885  32.689  1.00  0.00    -0.000 C 
BRANCH   8   9
ATOM      9  C   UNL     1      56.008  83.626  32.377  1.00  0.00    -0.000 C 
BRANCH   9  10
ATOM     10  C   UNL     1      55.218  82.307  32.375  1.00  0.00    -0.003 C 
ATOM     11  C   UNL     1      55.052  81.713  30.976  1.00  0.00     0.004 C 
ENDBRANCH   9  10
ENDBRANCH   8   9
ENDBRANCH   7   8
ENDBRANCH   1   7
TORSDOF 7
ENDMDL
MODEL 7
REMARK VINA RESULT:    -2.831      2.484      4.607
REMARK INTER + INTRA:          -4.614
REMARK INTER:                  -3.949
REMARK INTRA:                  -0.666
REMARK UNBOUND:                -0.626
REMARK SMILES CCCCCCCCC(=O)[O-]
REMARK SMILES IDX 6 1 7 2 8 3 9 4 10 5 11 6 5 7 4 8 3 9 2 10 1 11
REMARK H PARENT
REMARK Flexibility Score: inf
ROOT
ATOM      1  C   UNL     1      52.635  84.314  32.328  1.00  0.00     0.000 C 
ENDROOT
BRANCH   1   2
ATOM      2  C   UNL     1      53.846  84.881  31.573  1.00  0.00     0.006 C 
BRANCH   2   3
ATOM      3  C   UNL     1      55.096  84.966  32.459  1.00  0.00     0.053 C 
BRANCH   3   4
ATOM      4  C   UNL     1      56.009  83.797  32.245  1.00  0.00     0.041 C 
ATOM      5  O   UNL     1      56.922  83.857  31.381  1.00  0.00    -0.550 OA
ATOM      6  O   UNL     1      55.830  82.630  32.976  1.00  0.00    -0.550 OA
ENDBRANCH   3   4
ENDBRANCH   2   3
ENDBRANCH   1   2
BRANCH   1   7
ATOM      7  C   UNL     1      51.557  83.824  31.349  1.00  0.00     0.000 C 
BRANCH   7   8
ATOM      8  C   UNL     1      51.075  82.395  31.654  1.00  0.00    -0.000 C 
BRANCH   8   9
ATOM      9  C   UNL     1      52.093  81.281  31.338  1.00  0.00    -0.000 C 
BRANCH   9  10
ATOM     10  C   UNL     1      52.759  81.383  29.955  1.00  0.00    -0.003 C 
ATOM     11  C   UNL     1      54.285  81.445  30.031  1.00  0.00     0.004 C 
ENDBRANCH   9  10
ENDBRANCH   8   9
ENDBRANCH   7   8
ENDBRANCH   1   7
TORSDOF 7
ENDMDL
MODEL 8
REMARK VINA RESULT:    -2.811     22.707     23.865
REMARK INTER + INTRA:          -4.587
REMARK INTER:                  -4.369
REMARK INTRA:                  -0.217
REMARK UNBOUND:                -0.626
REMARK SMILES CCCCCCCCC(=O)[O-]
REMARK SMILES IDX 6 1 7 2 8 3 9 4 10 5 11 6 5 7 4 8 3 9 2 10 1 11
REMARK H PARENT
REMARK Flexibility Score: inf
ROOT
ATOM      1  C   UNL     1      67.786  66.751  43.625  1.00  0.00     0.000 C 
ENDROOT
BRANCH   1   2
ATOM      2  C   UNL     1      67.477  66.451  45.099  1.00  0.00     0.006 C 
BRANCH   2   3
ATOM      3  C   UNL     1      65.978  66.560  45.413  1.00  0.00     0.053 C 
BRANCH   3   4
ATOM      4  C   UNL     1      65.689  67.684  46.361  1.00  0.00     0.041 C 
ATOM      5  O   UNL     1      66.470  67.921  47.319  1.00  0.00    -0.550 OA
ATOM      6  O   UNL     1      64.540  68.449  46.204  1.00  0.00    -0.550 OA
ENDBRANCH   3   4
ENDBRANCH   2   3
ENDBRANCH   1   2
BRANCH   1   7
ATOM      7  C   UNL     1      66.868  65.943  42.695  1.00  0.00     0.000 C 
BRANCH   7   8
ATOM      8  C   UNL     1      67.542  65.572  41.363  1.00  0.00    -0.000 C 
BRANCH   8   9
ATOM      9  C   UNL     1      66.637  65.689  40.119  1.00  0.00    -0.000 C 
BRANCH   9  10
ATOM     10  C   UNL     1      66.644  67.069  39.439  1.00  0.00    -0.003 C 
ATOM     11  C   UNL     1      66.993  67.000  37.953  1.00  0.00     0.004 C 
ENDBRANCH   9  10
ENDBRANCH   8   9
ENDBRANCH   7   8
ENDBRANCH   1   7
TORSDOF 7
ENDMDL
MODEL 9
REMARK VINA RESULT:    -2.802      1.336      1.866
REMARK INTER + INTRA:          -4.574
REMARK INTER:                  -3.864
REMARK INTRA:                  -0.710
REMARK UNBOUND:                -0.626
REMARK SMILES CCCCCCCCC(=O)[O-]
REMARK SMILES IDX 6 1 7 2 8 3 9 4 10 5 11 6 5 7 4 8 3 9 2 10 1 11
REMARK H PARENT
REMARK Flexibility Score: inf
ROOT
ATOM      1  C   UNL     1      53.719  81.612  32.821  1.00  0.00     0.000 C 
ENDROOT
BRANCH   1   2
ATOM      2  C   UNL     1      52.626  81.663  31.744  1.00  0.00     0.006 C 
BRANCH   2   3
ATOM      3  C   UNL     1      51.708  82.882  31.903  1.00  0.00     0.053 C 
BRANCH   3   4
ATOM      4  C   UNL     1      52.346  84.131  31.376  1.00  0.00     0.041 C 
ATOM      5  O   UNL     1      52.314  84.387  30.144  1.00  0.00    -0.550 OA
ATOM      6  O   UNL     1      53.004  84.996  32.241  1.00  0.00    -0.550 OA
ENDBRANCH   3   4
ENDBRANCH   2   3
ENDBRANCH   1   2
BRANCH   1   7
ATOM      7  C   UNL     1      55.117  81.691  32.191  1.00  0.00     0.000 C 
BRANCH   7   8
ATOM      8  C   UNL     1      55.086  81.628  30.654  1.00  0.00    -0.000 C 
BRANCH   8   9
ATOM      9  C   UNL     1      55.585  82.900  29.938  1.00  0.00    -0.000 C 
BRANCH   9  10
ATOM     10  C   UNL     1      56.326  83.904  30.838  1.00  0.00    -0.003 C 
ATOM     11  C   UNL     1      57.611  84.436  30.205  1.00  0.00     0.004 C 
ENDBRANCH   9  10
ENDBRANCH   8   9
ENDBRANCH   7   8
ENDBRANCH   1   7
TORSDOF 7
ENDMDL
