MODEL 1
REMARK VINA RESULT:    -7.565      0.000      0.000
REMARK INTER + INTRA:          -8.380
REMARK INTER:                  -8.229
REMARK INTRA:                  -0.151
REMARK UNBOUND:                -0.151
REMARK SMILES CC1(C)CC[C@@]2(C(=O)[O-])CC[C@]3(C)C(=CC[C@H]4[C@@]5(C)CC[C@H](O)C(C)(C)[C@H]5CC[C@]43C)[C@H]2C1
REMARK SMILES IDX 6 1 5 2 10 3 32 4 4 5 11 6 14 7 33 8 2 9 12 10 15 11 1 12
REMARK SMILES IDX 3 13 13 14 30 15 16 16 17 17 29 18 31 19 18 20 28 21 27 22
REMARK SMILES IDX 20 23 19 24 24 25 21 26 22 27 25 28 26 29 7 30 8 31 9 32
REMARK SMILES IDX 23 33
REMARK H PARENT 23 34
REMARK Flexibility Score: inf
ROOT
ATOM      1  C   UNL     1       7.540   8.380 -13.899  1.00  0.00     0.017 C 
ATOM      2  C   UNL     1       7.858   6.945 -14.457  1.00  0.00     0.014 C 
ATOM      3  C   UNL     1       8.923   9.126 -13.721  1.00  0.00     0.014 C 
ATOM      4  C   UNL     1       6.474   9.153 -14.820  1.00  0.00     0.028 C 
ATOM      5  C   UNL     1       8.160   6.975 -15.953  1.00  0.00     0.007 C 
ATOM      6  C   UNL     1       9.212  10.281 -14.683  1.00  0.00     0.013 C 
ATOM      7  C   UNL     1       6.914  10.515 -15.408  1.00  0.00    -0.064 C 
ATOM      8  C   UNL     1       5.879   8.177 -15.891  1.00  0.00     0.015 C 
ATOM      9  C   UNL     1       6.932   7.452 -16.786  1.00  0.00    -0.035 C 
ATOM     10  C   UNL     1       8.055  11.318 -14.784  1.00  0.00    -0.006 C 
ATOM     11  C   UNL     1       6.189  11.077 -16.388  1.00  0.00    -0.027 C 
ATOM     12  C   UNL     1       7.417   8.378 -17.927  1.00  0.00     0.011 C 
ATOM     13  C   UNL     1       6.246   6.229 -17.442  1.00  0.00     0.011 C 
ATOM     14  C   UNL     1       7.599  11.737 -13.352  1.00  0.00     0.017 C 
ATOM     15  C   UNL     1       8.475  12.647 -15.643  1.00  0.00    -0.020 C 
ATOM     16  C   UNL     1       6.796  11.956 -17.426  1.00  0.00     0.032 C 
ATOM     17  C   UNL     1       8.274  12.382 -17.178  1.00  0.00     0.006 C 
ATOM     18  C   UNL     1       7.591  13.890 -15.310  1.00  0.00     0.008 C 
ATOM     19  C   UNL     1       9.941  13.036 -15.284  1.00  0.00     0.012 C 
ATOM     20  C   UNL     1       8.709  13.565 -18.170  1.00  0.00    -0.025 C 
ATOM     21  C   UNL     1       7.887  15.154 -16.135  1.00  0.00     0.005 C 
ATOM     22  C   UNL     1       8.278  15.016 -17.650  1.00  0.00     0.003 C 
ATOM     23  C   UNL     1       8.146  13.284 -19.617  1.00  0.00     0.010 C 
ATOM     24  C   UNL     1      10.264  13.520 -18.369  1.00  0.00     0.012 C 
ATOM     25  C   UNL     1       7.355  15.867 -18.617  1.00  0.00    -0.006 C 
ATOM     26  C   UNL     1       8.290  14.436 -20.620  1.00  0.00     0.033 C 
ATOM     27  C   UNL     1       7.939  15.840 -20.071  1.00  0.00     0.120 C 
ATOM     28  C   UNL     1       7.334  17.361 -18.163  1.00  0.00     0.014 C 
ATOM     29  C   UNL     1       5.875  15.398 -18.612  1.00  0.00     0.014 C 
ENDROOT
BRANCH   1  30
ATOM     30  C   UNL     1       6.878   8.145 -12.532  1.00  0.00     0.048 C 
ATOM     31  O   UNL     1       6.166   7.117 -12.356  1.00  0.00    -0.550 OA
ATOM     32  O   UNL     1       7.006   9.045 -11.474  1.00  0.00    -0.550 OA
ENDBRANCH   1  30
BRANCH  27  33
ATOM     33  O   UNL     1       9.108  16.628 -20.140  1.00  0.00    -0.393 OA
ATOM     34  H   UNL     1       8.828  17.571 -20.281  1.00  0.00     0.210 HD
ENDBRANCH  27  33
TORSDOF 2
ENDMDL
MODEL 2
REMARK VINA RESULT:    -7.462      1.910      2.735
REMARK INTER + INTRA:          -8.267
REMARK INTER:                  -8.083
REMARK INTRA:                  -0.184
REMARK UNBOUND:                -0.151
REMARK SMILES CC1(C)CC[C@@]2(C(=O)[O-])CC[C@]3(C)C(=CC[C@H]4[C@@]5(C)CC[C@H](O)C(C)(C)[C@H]5CC[C@]43C)[C@H]2C1
REMARK SMILES IDX 6 1 5 2 10 3 32 4 4 5 11 6 14 7 33 8 2 9 12 10 15 11 1 12
REMARK SMILES IDX 3 13 13 14 30 15 16 16 17 17 29 18 31 19 18 20 28 21 27 22
REMARK SMILES IDX 20 23 19 24 24 25 21 26 22 27 25 28 26 29 7 30 8 31 9 32
REMARK SMILES IDX 23 33
REMARK H PARENT 23 34
REMARK Flexibility Score: inf
ROOT
ATOM      1  C   UNL     1       8.314   8.091 -15.031  1.00  0.00     0.017 C 
ATOM      2  C   UNL     1       9.696   7.367 -14.839  1.00  0.00     0.014 C 
ATOM      3  C   UNL     1       8.139   9.088 -13.815  1.00  0.00     0.014 C 
ATOM      4  C   UNL     1       8.196   8.774 -16.480  1.00  0.00     0.028 C 
ATOM      5  C   UNL     1      10.863   8.256 -15.258  1.00  0.00     0.007 C 
ATOM      6  C   UNL     1       8.223  10.583 -14.132  1.00  0.00     0.013 C 
ATOM      7  C   UNL     1       7.925  10.297 -16.518  1.00  0.00    -0.064 C 
ATOM      8  C   UNL     1       9.400   8.336 -17.381  1.00  0.00     0.015 C 
ATOM      9  C   UNL     1      10.814   8.605 -16.777  1.00  0.00    -0.035 C 
ATOM     10  C   UNL     1       7.317  11.025 -15.319  1.00  0.00    -0.006 C 
ATOM     11  C   UNL     1       8.081  10.969 -17.669  1.00  0.00    -0.027 C 
ATOM     12  C   UNL     1      11.227  10.082 -16.977  1.00  0.00     0.011 C 
ATOM     13  C   UNL     1      11.838   7.730 -17.541  1.00  0.00     0.011 C 
ATOM     14  C   UNL     1       5.875  10.462 -15.117  1.00  0.00     0.017 C 
ATOM     15  C   UNL     1       7.257  12.652 -15.493  1.00  0.00    -0.020 C 
ATOM     16  C   UNL     1       8.484  12.402 -17.708  1.00  0.00     0.032 C 
ATOM     17  C   UNL     1       8.483  13.147 -16.341  1.00  0.00     0.006 C 
ATOM     18  C   UNL     1       5.989  13.133 -16.265  1.00  0.00     0.008 C 
ATOM     19  C   UNL     1       7.194  13.307 -14.081  1.00  0.00     0.012 C 
ATOM     20  C   UNL     1       8.615  14.733 -16.545  1.00  0.00    -0.025 C 
ATOM     21  C   UNL     1       5.907  14.647 -16.526  1.00  0.00     0.005 C 
ATOM     22  C   UNL     1       7.217  15.448 -16.856  1.00  0.00     0.003 C 
ATOM     23  C   UNL     1       9.679  15.040 -17.670  1.00  0.00     0.010 C 
ATOM     24  C   UNL     1       9.253  15.363 -15.259  1.00  0.00     0.012 C 
ATOM     25  C   UNL     1       7.129  16.266 -18.209  1.00  0.00    -0.006 C 
ATOM     26  C   UNL     1       9.750  16.501 -18.134  1.00  0.00     0.033 C 
ATOM     27  C   UNL     1       8.385  17.193 -18.354  1.00  0.00     0.120 C 
ATOM     28  C   UNL     1       5.875  17.198 -18.193  1.00  0.00     0.014 C 
ATOM     29  C   UNL     1       6.970  15.359 -19.459  1.00  0.00     0.014 C 
ENDROOT
BRANCH   1  30
ATOM     30  C   UNL     1       7.259   6.976 -14.964  1.00  0.00     0.048 C 
ATOM     31  O   UNL     1       6.544   6.860 -13.929  1.00  0.00    -0.550 OA
ATOM     32  O   UNL     1       7.075   6.056 -15.995  1.00  0.00    -0.550 OA
ENDBRANCH   1  30
BRANCH  27  33
ATOM     33  O   UNL     1       8.301  18.270 -17.445  1.00  0.00    -0.393 OA
ATOM     34  H   UNL     1       7.644  18.921 -17.808  1.00  0.00     0.210 HD
ENDBRANCH  27  33
TORSDOF 2
ENDMDL
MODEL 3
REMARK VINA RESULT:    -7.192      1.845      3.887
REMARK INTER + INTRA:          -7.974
REMARK INTER:                  -7.774
REMARK INTRA:                  -0.200
REMARK UNBOUND:                -0.151
REMARK SMILES CC1(C)CC[C@@]2(C(=O)[O-])CC[C@]3(C)C(=CC[C@H]4[C@@]5(C)CC[C@H](O)C(C)(C)[C@H]5CC[C@]43C)[C@H]2C1
REMARK SMILES IDX 6 1 5 2 10 3 32 4 4 5 11 6 14 7 33 8 2 9 12 10 15 11 1 12
REMARK SMILES IDX 3 13 13 14 30 15 16 16 17 17 29 18 31 19 18 20 28 21 27 22
REMARK SMILES IDX 20 23 19 24 24 25 21 26 22 27 25 28 26 29 7 30 8 31 9 32
REMARK SMILES IDX 23 33
REMARK H PARENT 23 34
REMARK Flexibility Score: inf
ROOT
ATOM      1  C   UNL     1       7.254   7.093 -15.210  1.00  0.00     0.017 C 
ATOM      2  C   UNL     1       6.510   6.750 -13.868  1.00  0.00     0.014 C 
ATOM      3  C   UNL     1       6.158   7.601 -16.232  1.00  0.00     0.014 C 
ATOM      4  C   UNL     1       8.472   8.112 -14.971  1.00  0.00     0.028 C 
ATOM      5  C   UNL     1       6.186   8.006 -13.065  1.00  0.00     0.007 C 
ATOM      6  C   UNL     1       6.194   9.087 -16.598  1.00  0.00     0.013 C 
ATOM      7  C   UNL     1       8.436   9.444 -15.757  1.00  0.00    -0.064 C 
ATOM      8  C   UNL     1       8.721   8.304 -13.437  1.00  0.00     0.015 C 
ATOM      9  C   UNL     1       7.475   8.758 -12.613  1.00  0.00    -0.035 C 
ATOM     10  C   UNL     1       7.602   9.593 -17.030  1.00  0.00    -0.006 C 
ATOM     11  C   UNL     1       9.266  10.440 -15.409  1.00  0.00    -0.027 C 
ATOM     12  C   UNL     1       7.251  10.283 -12.748  1.00  0.00     0.011 C 
ATOM     13  C   UNL     1       7.750   8.460 -11.119  1.00  0.00     0.011 C 
ATOM     14  C   UNL     1       8.204   8.625 -18.095  1.00  0.00     0.017 C 
ATOM     15  C   UNL     1       7.568  11.119 -17.623  1.00  0.00    -0.020 C 
ATOM     16  C   UNL     1       8.914  11.875 -15.602  1.00  0.00     0.032 C 
ATOM     17  C   UNL     1       7.636  12.155 -16.446  1.00  0.00     0.006 C 
ATOM     18  C   UNL     1       8.788  11.440 -18.541  1.00  0.00     0.008 C 
ATOM     19  C   UNL     1       6.293  11.287 -18.504  1.00  0.00     0.012 C 
ATOM     20  C   UNL     1       7.540  13.705 -16.853  1.00  0.00    -0.025 C 
ATOM     21  C   UNL     1       8.854  12.881 -19.075  1.00  0.00     0.005 C 
ATOM     22  C   UNL     1       8.395  14.070 -18.156  1.00  0.00     0.003 C 
ATOM     23  C   UNL     1       7.952  14.606 -15.625  1.00  0.00     0.010 C 
ATOM     24  C   UNL     1       6.035  14.078 -17.091  1.00  0.00     0.012 C 
ATOM     25  C   UNL     1       9.499  15.193 -17.983  1.00  0.00    -0.006 C 
ATOM     26  C   UNL     1       8.125  16.100 -15.928  1.00  0.00     0.033 C 
ATOM     27  C   UNL     1       8.890  16.427 -17.233  1.00  0.00     0.120 C 
ATOM     28  C   UNL     1       9.973  15.700 -19.382  1.00  0.00     0.014 C 
ATOM     29  C   UNL     1      10.774  14.685 -17.258  1.00  0.00     0.014 C 
ENDROOT
BRANCH   1  30
ATOM     30  C   UNL     1       7.857   5.763 -15.690  1.00  0.00     0.048 C 
ATOM     31  O   UNL     1       8.500   5.044 -14.875  1.00  0.00    -0.550 OA
ATOM     32  O   UNL     1       7.750   5.326 -17.010  1.00  0.00    -0.550 OA
ENDBRANCH   1  30
BRANCH  27  33
ATOM     33  O   UNL     1       8.004  17.124 -18.083  1.00  0.00    -0.393 OA
ATOM     34  H   UNL     1       7.974  16.638 -18.950  1.00  0.00     0.210 HD
ENDBRANCH  27  33
TORSDOF 2
ENDMDL
MODEL 4
REMARK VINA RESULT:    -7.043      1.786      7.802
REMARK INTER + INTRA:          -7.812
REMARK INTER:                  -7.637
REMARK INTRA:                  -0.175
REMARK UNBOUND:                -0.151
REMARK SMILES CC1(C)CC[C@@]2(C(=O)[O-])CC[C@]3(C)C(=CC[C@H]4[C@@]5(C)CC[C@H](O)C(C)(C)[C@H]5CC[C@]43C)[C@H]2C1
REMARK SMILES IDX 6 1 5 2 10 3 32 4 4 5 11 6 14 7 33 8 2 9 12 10 15 11 1 12
REMARK SMILES IDX 3 13 13 14 30 15 16 16 17 17 29 18 31 19 18 20 28 21 27 22
REMARK SMILES IDX 20 23 19 24 24 25 21 26 22 27 25 28 26 29 7 30 8 31 9 32
REMARK SMILES IDX 23 33
REMARK H PARENT 23 34
REMARK Flexibility Score: inf
ROOT
ATOM      1  C   UNL     1       8.284  16.813 -18.701  1.00  0.00     0.017 C 
ATOM      2  C   UNL     1       7.889  17.162 -20.182  1.00  0.00     0.014 C 
ATOM      3  C   UNL     1       6.953  16.406 -17.949  1.00  0.00     0.014 C 
ATOM      4  C   UNL     1       9.451  15.711 -18.640  1.00  0.00     0.028 C 
ATOM      5  C   UNL     1       7.669  15.906 -21.019  1.00  0.00     0.007 C 
ATOM      6  C   UNL     1       6.802  14.933 -17.562  1.00  0.00     0.013 C 
ATOM      7  C   UNL     1       9.147  14.408 -17.864  1.00  0.00    -0.064 C 
ATOM      8  C   UNL     1      10.028  15.458 -20.075  1.00  0.00     0.015 C 
ATOM      9  C   UNL     1       8.972  15.060 -21.154  1.00  0.00    -0.035 C 
ATOM     10  C   UNL     1       8.038  14.351 -16.813  1.00  0.00    -0.006 C 
ATOM     11  C   UNL     1       9.963  13.351 -17.999  1.00  0.00    -0.027 C 
ATOM     12  C   UNL     1       8.620  13.557 -21.051  1.00  0.00     0.011 C 
ATOM     13  C   UNL     1       9.599  15.295 -22.550  1.00  0.00     0.011 C 
ATOM     14  C   UNL     1       8.448  15.310 -15.653  1.00  0.00     0.017 C 
ATOM     15  C   UNL     1       7.765  12.849 -16.221  1.00  0.00    -0.020 C 
ATOM     16  C   UNL     1       9.479  11.948 -17.871  1.00  0.00     0.032 C 
ATOM     17  C   UNL     1       8.027  11.775 -17.336  1.00  0.00     0.006 C 
ATOM     18  C   UNL     1       8.721  12.478 -15.045  1.00  0.00     0.008 C 
ATOM     19  C   UNL     1       6.315  12.788 -15.652  1.00  0.00     0.012 C 
ATOM     20  C   UNL     1       7.735  10.248 -16.940  1.00  0.00    -0.025 C 
ATOM     21  C   UNL     1       8.565  11.051 -14.489  1.00  0.00     0.005 C 
ATOM     22  C   UNL     1       8.246   9.868 -15.471  1.00  0.00     0.003 C 
ATOM     23  C   UNL     1       8.351   9.286 -18.028  1.00  0.00     0.010 C 
ATOM     24  C   UNL     1       6.193   9.978 -17.046  1.00  0.00     0.012 C 
ATOM     25  C   UNL     1       9.280   8.672 -15.371  1.00  0.00    -0.006 C 
ATOM     26  C   UNL     1       8.348   7.793 -17.672  1.00  0.00     0.033 C 
ATOM     27  C   UNL     1       8.773   7.458 -16.223  1.00  0.00     0.120 C 
ATOM     28  C   UNL     1       9.389   8.178 -13.894  1.00  0.00     0.014 C 
ATOM     29  C   UNL     1      10.718   9.076 -15.794  1.00  0.00     0.014 C 
ENDROOT
BRANCH   1  30
ATOM     30  C   UNL     1       8.852  18.115 -18.115  1.00  0.00     0.048 C 
ATOM     31  O   UNL     1       9.940  18.573 -18.564  1.00  0.00    -0.550 OA
ATOM     32  O   UNL     1       8.228  18.803 -17.075  1.00  0.00    -0.550 OA
ENDBRANCH   1  30
BRANCH  27  33
ATOM     33  O   UNL     1       7.671   6.844 -15.587  1.00  0.00    -0.393 OA
ATOM     34  H   UNL     1       7.992   5.996 -15.181  1.00  0.00     0.210 HD
ENDBRANCH  27  33
TORSDOF 2
ENDMDL
MODEL 5
REMARK VINA RESULT:    -6.832      0.870      1.085
REMARK INTER + INTRA:          -7.582
REMARK INTER:                  -7.490
REMARK INTRA:                  -0.092
REMARK UNBOUND:                -0.151
REMARK SMILES CC1(C)CC[C@@]2(C(=O)[O-])CC[C@]3(C)C(=CC[C@H]4[C@@]5(C)CC[C@H](O)C(C)(C)[C@H]5CC[C@]43C)[C@H]2C1
REMARK SMILES IDX 6 1 5 2 10 3 32 4 4 5 11 6 14 7 33 8 2 9 12 10 15 11 1 12
REMARK SMILES IDX 3 13 13 14 30 15 16 16 17 17 29 18 31 19 18 20 28 21 27 22
REMARK SMILES IDX 20 23 19 24 24 25 21 26 22 27 25 28 26 29 7 30 8 31 9 32
REMARK SMILES IDX 23 33
REMARK H PARENT 23 34
REMARK Flexibility Score: inf
ROOT
ATOM      1  C   UNL     1       7.748   8.760 -14.609  1.00  0.00     0.017 C 
ATOM      2  C   UNL     1       7.915   7.404 -15.387  1.00  0.00     0.014 C 
ATOM      3  C   UNL     1       9.186   9.407 -14.490  1.00  0.00     0.014 C 
ATOM      4  C   UNL     1       6.641   9.705 -15.290  1.00  0.00     0.028 C 
ATOM      5  C   UNL     1       8.058   7.629 -16.890  1.00  0.00     0.007 C 
ATOM      6  C   UNL     1       9.443  10.671 -15.315  1.00  0.00     0.013 C 
ATOM      7  C   UNL     1       7.100  11.113 -15.736  1.00  0.00    -0.064 C 
ATOM      8  C   UNL     1       5.876   8.918 -16.408  1.00  0.00     0.015 C 
ATOM      9  C   UNL     1       6.781   8.276 -17.507  1.00  0.00    -0.035 C 
ATOM     10  C   UNL     1       8.349  11.766 -15.144  1.00  0.00    -0.006 C 
ATOM     11  C   UNL     1       6.312  11.841 -16.543  1.00  0.00    -0.027 C 
ATOM     12  C   UNL     1       7.199   9.329 -18.560  1.00  0.00     0.011 C 
ATOM     13  C   UNL     1       5.954   7.191 -18.238  1.00  0.00     0.011 C 
ATOM     14  C   UNL     1       8.074  12.001 -13.626  1.00  0.00     0.017 C 
ATOM     15  C   UNL     1       8.758  13.181 -15.859  1.00  0.00    -0.020 C 
ATOM     16  C   UNL     1       6.859  12.827 -17.516  1.00  0.00     0.032 C 
ATOM     17  C   UNL     1       8.378  13.143 -17.382  1.00  0.00     0.006 C 
ATOM     18  C   UNL     1       7.993  14.405 -15.263  1.00  0.00     0.008 C 
ATOM     19  C   UNL     1      10.275  13.446 -15.619  1.00  0.00     0.012 C 
ATOM     20  C   UNL     1       8.780  14.433 -18.249  1.00  0.00    -0.025 C 
ATOM     21  C   UNL     1       8.279  15.757 -15.939  1.00  0.00     0.005 C 
ATOM     22  C   UNL     1       8.497  15.815 -17.494  1.00  0.00     0.003 C 
ATOM     23  C   UNL     1       8.049  14.384 -19.648  1.00  0.00     0.010 C 
ATOM     24  C   UNL     1      10.299  14.342 -18.628  1.00  0.00     0.012 C 
ATOM     25  C   UNL     1       7.532  16.835 -18.226  1.00  0.00    -0.006 C 
ATOM     26  C   UNL     1       8.158  15.657 -20.497  1.00  0.00     0.033 C 
ATOM     27  C   UNL     1       7.956  16.985 -19.728  1.00  0.00     0.120 C 
ATOM     28  C   UNL     1       7.652  18.250 -17.576  1.00  0.00     0.014 C 
ATOM     29  C   UNL     1       6.035  16.441 -18.116  1.00  0.00     0.014 C 
ENDROOT
BRANCH   1  30
ATOM     30  C   UNL     1       7.222   8.367 -13.219  1.00  0.00     0.048 C 
ATOM     31  O   UNL     1       7.364   9.169 -12.254  1.00  0.00    -0.550 OA
ATOM     32  O   UNL     1       6.614   7.138 -12.968  1.00  0.00    -0.550 OA
ENDBRANCH   1  30
BRANCH  27  33
ATOM     33  O   UNL     1       9.158  17.719 -19.822  1.00  0.00    -0.393 OA
ATOM     34  H   UNL     1       9.131  18.233 -20.672  1.00  0.00     0.210 HD
ENDBRANCH  27  33
TORSDOF 2
ENDMDL
MODEL 6
REMARK VINA RESULT:    -6.828      1.753      3.782
REMARK INTER + INTRA:          -7.578
REMARK INTER:                  -7.383
REMARK INTRA:                  -0.194
REMARK UNBOUND:                -0.151
REMARK SMILES CC1(C)CC[C@@]2(C(=O)[O-])CC[C@]3(C)C(=CC[C@H]4[C@@]5(C)CC[C@H](O)C(C)(C)[C@H]5CC[C@]43C)[C@H]2C1
REMARK SMILES IDX 6 1 5 2 10 3 32 4 4 5 11 6 14 7 33 8 2 9 12 10 15 11 1 12
REMARK SMILES IDX 3 13 13 14 30 15 16 16 17 17 29 18 31 19 18 20 28 21 27 22
REMARK SMILES IDX 20 23 19 24 24 25 21 26 22 27 25 28 26 29 7 30 8 31 9 32
REMARK SMILES IDX 23 33
REMARK H PARENT 23 34
REMARK Flexibility Score: inf
ROOT
ATOM      1  C   UNL     1       7.343   7.923 -15.486  1.00  0.00     0.017 C 
ATOM      2  C   UNL     1       6.520   7.614 -14.182  1.00  0.00     0.014 C 
ATOM      3  C   UNL     1       6.300   8.303 -16.614  1.00  0.00     0.014 C 
ATOM      4  C   UNL     1       8.480   9.027 -15.224  1.00  0.00     0.028 C 
ATOM      5  C   UNL     1       6.065   8.892 -13.485  1.00  0.00     0.007 C 
ATOM      6  C   UNL     1       6.280   9.764 -17.069  1.00  0.00     0.013 C 
ATOM      7  C   UNL     1       8.428  10.306 -16.093  1.00  0.00    -0.064 C 
ATOM      8  C   UNL     1       8.600   9.322 -13.691  1.00  0.00     0.015 C 
ATOM      9  C   UNL     1       7.272   9.747 -12.989  1.00  0.00    -0.035 C 
ATOM     10  C   UNL     1       7.685  10.330 -17.429  1.00  0.00    -0.006 C 
ATOM     11  C   UNL     1       9.171  11.370 -15.748  1.00  0.00    -0.027 C 
ATOM     12  C   UNL     1       6.973  11.244 -13.235  1.00  0.00     0.011 C 
ATOM     13  C   UNL     1       7.450   9.554 -11.463  1.00  0.00     0.011 C 
ATOM     14  C   UNL     1       8.420   9.340 -18.385  1.00  0.00     0.017 C 
ATOM     15  C   UNL     1       7.609  11.813 -18.117  1.00  0.00    -0.020 C 
ATOM     16  C   UNL     1       8.754  12.767 -16.055  1.00  0.00     0.032 C 
ATOM     17  C   UNL     1       7.530  12.919 -17.005  1.00  0.00     0.006 C 
ATOM     18  C   UNL     1       8.876  12.155 -18.963  1.00  0.00     0.008 C 
ATOM     19  C   UNL     1       6.397  11.851 -19.097  1.00  0.00     0.012 C 
ATOM     20  C   UNL     1       7.377  14.433 -17.514  1.00  0.00    -0.025 C 
ATOM     21  C   UNL     1       8.900  13.564 -19.580  1.00  0.00     0.005 C 
ATOM     22  C   UNL     1       8.306  14.774 -18.772  1.00  0.00     0.003 C 
ATOM     23  C   UNL     1       7.643  15.428 -16.318  1.00  0.00     0.010 C 
ATOM     24  C   UNL     1       5.876  14.699 -17.883  1.00  0.00     0.012 C 
ATOM     25  C   UNL     1       9.328  15.970 -18.591  1.00  0.00    -0.006 C 
ATOM     26  C   UNL     1       7.753  16.910 -16.701  1.00  0.00     0.033 C 
ATOM     27  C   UNL     1       8.595  17.206 -17.965  1.00  0.00     0.120 C 
ATOM     28  C   UNL     1       9.877  16.423 -19.981  1.00  0.00     0.014 C 
ATOM     29  C   UNL     1      10.571  15.585 -17.745  1.00  0.00     0.014 C 
ENDROOT
BRANCH   1  30
ATOM     30  C   UNL     1       8.055   6.607 -15.838  1.00  0.00     0.048 C 
ATOM     31  O   UNL     1       8.039   6.194 -17.031  1.00  0.00    -0.550 OA
ATOM     32  O   UNL     1       8.699   5.825 -14.879  1.00  0.00    -0.550 OA
ENDBRANCH   1  30
BRANCH  27  33
ATOM     33  O   UNL     1       7.737  17.797 -18.919  1.00  0.00    -0.393 OA
ATOM     34  H   UNL     1       7.038  18.301 -18.425  1.00  0.00     0.210 HD
ENDBRANCH  27  33
TORSDOF 2
ENDMDL
MODEL 7
REMARK VINA RESULT:    -6.560      1.440      8.043
REMARK INTER + INTRA:          -7.286
REMARK INTER:                  -7.197
REMARK INTRA:                  -0.089
REMARK UNBOUND:                -0.151
REMARK SMILES CC1(C)CC[C@@]2(C(=O)[O-])CC[C@]3(C)C(=CC[C@H]4[C@@]5(C)CC[C@H](O)C(C)(C)[C@H]5CC[C@]43C)[C@H]2C1
REMARK SMILES IDX 6 1 5 2 10 3 32 4 4 5 11 6 14 7 33 8 2 9 12 10 15 11 1 12
REMARK SMILES IDX 3 13 13 14 30 15 16 16 17 17 29 18 31 19 18 20 28 21 27 22
REMARK SMILES IDX 20 23 19 24 24 25 21 26 22 27 25 28 26 29 7 30 8 31 9 32
REMARK SMILES IDX 23 33
REMARK H PARENT 23 34
REMARK Flexibility Score: inf
ROOT
ATOM      1  C   UNL     1       8.668  15.965 -19.492  1.00  0.00     0.017 C 
ATOM      2  C   UNL     1       8.610  17.371 -18.792  1.00  0.00     0.014 C 
ATOM      3  C   UNL     1      10.067  15.322 -19.127  1.00  0.00     0.014 C 
ATOM      4  C   UNL     1       7.395  15.059 -19.116  1.00  0.00     0.028 C 
ATOM      5  C   UNL     1       8.289  17.248 -17.305  1.00  0.00     0.007 C 
ATOM      6  C   UNL     1      10.046  14.119 -18.181  1.00  0.00     0.013 C 
ATOM      7  C   UNL     1       7.679  13.688 -18.459  1.00  0.00    -0.064 C 
ATOM      8  C   UNL     1       6.338  15.914 -18.337  1.00  0.00     0.015 C 
ATOM      9  C   UNL     1       6.877  16.635 -17.062  1.00  0.00    -0.035 C 
ATOM     10  C   UNL     1       9.040  13.006 -18.602  1.00  0.00    -0.006 C 
ATOM     11  C   UNL     1       6.675  13.010 -17.882  1.00  0.00    -0.027 C 
ATOM     12  C   UNL     1       6.943  15.659 -15.864  1.00  0.00     0.011 C 
ATOM     13  C   UNL     1       5.882  17.760 -16.688  1.00  0.00     0.011 C 
ATOM     14  C   UNL     1       9.233  12.667 -20.112  1.00  0.00     0.017 C 
ATOM     15  C   UNL     1       9.195  11.646 -17.704  1.00  0.00    -0.020 C 
ATOM     16  C   UNL     1       6.890  12.096 -16.726  1.00  0.00     0.032 C 
ATOM     17  C   UNL     1       8.374  11.783 -16.373  1.00  0.00     0.006 C 
ATOM     18  C   UNL     1       8.630  10.379 -18.420  1.00  0.00     0.008 C 
ATOM     19  C   UNL     1      10.710  11.377 -17.455  1.00  0.00     0.012 C 
ATOM     20  C   UNL     1       8.477  10.558 -15.341  1.00  0.00    -0.025 C 
ATOM     21  C   UNL     1       8.681   9.078 -17.601  1.00  0.00     0.005 C 
ATOM     22  C   UNL     1       8.419   9.126 -16.053  1.00  0.00     0.003 C 
ATOM     23  C   UNL     1       7.359  10.695 -14.235  1.00  0.00     0.010 C 
ATOM     24  C   UNL     1       9.812  10.686 -14.527  1.00  0.00     0.012 C 
ATOM     25  C   UNL     1       7.264   8.150 -15.580  1.00  0.00    -0.006 C 
ATOM     26  C   UNL     1       7.190   9.483 -13.311  1.00  0.00     0.033 C 
ATOM     27  C   UNL     1       7.212   8.105 -14.014  1.00  0.00     0.120 C 
ATOM     28  C   UNL     1       7.557   6.695 -16.068  1.00  0.00     0.014 C 
ATOM     29  C   UNL     1       5.875   8.524 -16.164  1.00  0.00     0.014 C 
ENDROOT
BRANCH   1  30
ATOM     30  C   UNL     1       8.591  16.258 -20.999  1.00  0.00     0.048 C 
ATOM     31  O   UNL     1       8.361  17.437 -21.389  1.00  0.00    -0.550 OA
ATOM     32  O   UNL     1       8.737  15.262 -21.964  1.00  0.00    -0.550 OA
ENDBRANCH   1  30
BRANCH  27  33
ATOM     33  O   UNL     1       8.320   7.388 -13.512  1.00  0.00    -0.393 OA
ATOM     34  H   UNL     1       9.142   7.878 -13.779  1.00  0.00     0.210 HD
ENDBRANCH  27  33
TORSDOF 2
ENDMDL
MODEL 8
REMARK VINA RESULT:    -5.867      1.809      7.776
REMARK INTER + INTRA:          -6.533
REMARK INTER:                  -6.405
REMARK INTRA:                  -0.128
REMARK UNBOUND:                -0.151
REMARK SMILES CC1(C)CC[C@@]2(C(=O)[O-])CC[C@]3(C)C(=CC[C@H]4[C@@]5(C)CC[C@H](O)C(C)(C)[C@H]5CC[C@]43C)[C@H]2C1
REMARK SMILES IDX 6 1 5 2 10 3 32 4 4 5 11 6 14 7 33 8 2 9 12 10 15 11 1 12
REMARK SMILES IDX 3 13 13 14 30 15 16 16 17 17 29 18 31 19 18 20 28 21 27 22
REMARK SMILES IDX 20 23 19 24 24 25 21 26 22 27 25 28 26 29 7 30 8 31 9 32
REMARK SMILES IDX 23 33
REMARK H PARENT 23 34
REMARK Flexibility Score: inf
ROOT
ATOM      1  C   UNL     1       8.328  15.439 -17.969  1.00  0.00     0.017 C 
ATOM      2  C   UNL     1       9.712  16.150 -18.193  1.00  0.00     0.014 C 
ATOM      3  C   UNL     1       8.133  14.417 -19.162  1.00  0.00     0.014 C 
ATOM      4  C   UNL     1       8.224  14.787 -16.505  1.00  0.00     0.028 C 
ATOM      5  C   UNL     1      10.879  15.263 -17.769  1.00  0.00     0.007 C 
ATOM      6  C   UNL     1       8.212  12.929 -18.814  1.00  0.00     0.013 C 
ATOM      7  C   UNL     1       7.945  13.268 -16.431  1.00  0.00    -0.064 C 
ATOM      8  C   UNL     1       9.441  15.237 -15.627  1.00  0.00     0.015 C 
ATOM      9  C   UNL     1      10.847  14.947 -16.243  1.00  0.00    -0.035 C 
ATOM     10  C   UNL     1       7.318  12.518 -17.607  1.00  0.00    -0.006 C 
ATOM     11  C   UNL     1       8.111  12.619 -15.268  1.00  0.00    -0.027 C 
ATOM     12  C   UNL     1      11.253  13.472 -16.016  1.00  0.00     0.011 C 
ATOM     13  C   UNL     1      11.885  15.832 -15.510  1.00  0.00     0.011 C 
ATOM     14  C   UNL     1       5.878  13.085 -17.804  1.00  0.00     0.017 C 
ATOM     15  C   UNL     1       7.251  10.895 -17.397  1.00  0.00    -0.020 C 
ATOM     16  C   UNL     1       8.506  11.185 -15.203  1.00  0.00     0.032 C 
ATOM     17  C   UNL     1       8.484  10.411 -16.554  1.00  0.00     0.006 C 
ATOM     18  C   UNL     1       5.989  10.438 -16.600  1.00  0.00     0.008 C 
ATOM     19  C   UNL     1       7.167  10.210 -18.795  1.00  0.00     0.012 C 
ATOM     20  C   UNL     1       8.610   8.829 -16.317  1.00  0.00    -0.025 C 
ATOM     21  C   UNL     1       5.902   8.930 -16.306  1.00  0.00     0.005 C 
ATOM     22  C   UNL     1       7.212   8.129 -15.974  1.00  0.00     0.003 C 
ATOM     23  C   UNL     1       9.685   8.540 -15.198  1.00  0.00     0.010 C 
ATOM     24  C   UNL     1       9.228   8.167 -17.597  1.00  0.00     0.012 C 
ATOM     25  C   UNL     1       7.135   7.340 -14.603  1.00  0.00    -0.006 C 
ATOM     26  C   UNL     1       9.754   7.089 -14.705  1.00  0.00     0.033 C 
ATOM     27  C   UNL     1       8.387   6.409 -14.453  1.00  0.00     0.120 C 
ATOM     28  C   UNL     1       5.876   6.416 -14.584  1.00  0.00     0.014 C 
ATOM     29  C   UNL     1       6.997   8.275 -13.371  1.00  0.00     0.014 C 
ENDROOT
BRANCH   1  30
ATOM     30  C   UNL     1       7.279  16.559 -18.048  1.00  0.00     0.048 C 
ATOM     31  O   UNL     1       6.119  16.354 -17.591  1.00  0.00    -0.550 OA
ATOM     32  O   UNL     1       7.545  17.794 -18.636  1.00  0.00    -0.550 OA
ENDBRANCH   1  30
BRANCH  27  33
ATOM     33  O   UNL     1       8.286   5.314 -15.338  1.00  0.00    -0.393 OA
ATOM     34  H   UNL     1       8.908   5.480 -16.096  1.00  0.00     0.210 HD
ENDBRANCH  27  33
TORSDOF 2
ENDMDL
