MODEL 1
REMARK VINA RESULT:    -3.172      0.000      0.000
REMARK INTER + INTRA:          -3.845
REMARK INTER:                  -3.728
REMARK INTRA:                  -0.116
REMARK UNBOUND:                -0.116
REMARK SMILES CCCCC(=O)[O-]
REMARK SMILES IDX 4 1 5 2 6 3 7 4 3 5 2 6 1 7
REMARK H PARENT
REMARK Flexibility Score: inf
ROOT
ATOM      1  C   UNL     1      -6.336 -34.814 -10.499  1.00  0.00     0.053 C 
ENDROOT
BRANCH   1   2
ATOM      2  C   UNL     1      -7.564 -35.660 -10.374  1.00  0.00     0.041 C 
ATOM      3  O   UNL     1      -8.704 -35.128 -10.391  1.00  0.00    -0.550 OA
ATOM      4  O   UNL     1      -7.449 -37.042 -10.289  1.00  0.00    -0.550 OA
ENDBRANCH   1   2
BRANCH   1   5
ATOM      5  C   UNL     1      -6.035 -34.107  -9.171  1.00  0.00     0.006 C 
BRANCH   5   6
ATOM      6  C   UNL     1      -5.376 -35.039  -8.143  1.00  0.00    -0.003 C 
ATOM      7  C   UNL     1      -4.106 -35.704  -8.677  1.00  0.00     0.004 C 
ENDBRANCH   5   6
ENDBRANCH   1   5
TORSDOF 3
ENDMDL
MODEL 2
REMARK VINA RESULT:    -3.169      1.732      2.811
REMARK INTER + INTRA:          -3.841
REMARK INTER:                  -3.736
REMARK INTRA:                  -0.105
REMARK UNBOUND:                -0.116
REMARK SMILES CCCCC(=O)[O-]
REMARK SMILES IDX 4 1 5 2 6 3 7 4 3 5 2 6 1 7
REMARK H PARENT
REMARK Flexibility Score: inf
ROOT
ATOM      1  C   UNL     1      -4.766 -36.336  -9.332  1.00  0.00     0.053 C 
ENDROOT
BRANCH   1   2
ATOM      2  C   UNL     1      -5.526 -37.621  -9.440  1.00  0.00     0.041 C 
ATOM      3  O   UNL     1      -6.643 -37.746  -8.873  1.00  0.00    -0.550 OA
ATOM      4  O   UNL     1      -5.023 -38.663 -10.209  1.00  0.00    -0.550 OA
ENDBRANCH   1   2
BRANCH   1   5
ATOM      5  C   UNL     1      -5.534 -35.331  -8.464  1.00  0.00     0.006 C 
BRANCH   5   6
ATOM      6  C   UNL     1      -6.002 -34.103  -9.259  1.00  0.00    -0.003 C 
ATOM      7  C   UNL     1      -7.240 -34.387 -10.110  1.00  0.00     0.004 C 
ENDBRANCH   5   6
ENDBRANCH   1   5
TORSDOF 3
ENDMDL
MODEL 3
REMARK VINA RESULT:    -3.128      0.785      0.981
REMARK INTER + INTRA:          -3.792
REMARK INTER:                  -3.767
REMARK INTRA:                  -0.026
REMARK UNBOUND:                -0.116
REMARK SMILES CCCCC(=O)[O-]
REMARK SMILES IDX 4 1 5 2 6 3 7 4 3 5 2 6 1 7
REMARK H PARENT
REMARK Flexibility Score: inf
ROOT
ATOM      1  C   UNL     1      -6.375 -34.648 -10.182  1.00  0.00     0.053 C 
ENDROOT
BRANCH   1   2
ATOM      2  C   UNL     1      -7.727 -35.286 -10.117  1.00  0.00     0.041 C 
ATOM      3  O   UNL     1      -8.665 -34.858 -10.840  1.00  0.00    -0.550 OA
ATOM      4  O   UNL     1      -7.939 -36.385  -9.293  1.00  0.00    -0.550 OA
ENDBRANCH   1   2
BRANCH   1   5
ATOM      5  C   UNL     1      -5.587 -34.931  -8.896  1.00  0.00     0.006 C 
BRANCH   5   6
ATOM      6  C   UNL     1      -4.515 -36.013  -9.086  1.00  0.00    -0.003 C 
ATOM      7  C   UNL     1      -3.228 -35.712  -8.317  1.00  0.00     0.004 C 
ENDBRANCH   5   6
ENDBRANCH   1   5
TORSDOF 3
ENDMDL
MODEL 4
REMARK VINA RESULT:    -3.124      2.290      2.819
REMARK INTER + INTRA:          -3.788
REMARK INTER:                  -3.764
REMARK INTRA:                  -0.024
REMARK UNBOUND:                -0.116
REMARK SMILES CCCCC(=O)[O-]
REMARK SMILES IDX 4 1 5 2 6 3 7 4 3 5 2 6 1 7
REMARK H PARENT
REMARK Flexibility Score: inf
ROOT
ATOM      1  C   UNL     1      -5.138 -35.187  -8.560  1.00  0.00     0.053 C 
ENDROOT
BRANCH   1   2
ATOM      2  C   UNL     1      -6.148 -34.328  -9.254  1.00  0.00     0.041 C 
ATOM      3  O   UNL     1      -6.801 -33.468  -8.607  1.00  0.00    -0.550 OA
ATOM      4  O   UNL     1      -6.333 -34.445 -10.627  1.00  0.00    -0.550 OA
ENDBRANCH   1   2
BRANCH   1   5
ATOM      5  C   UNL     1      -4.733 -36.366  -9.454  1.00  0.00     0.006 C 
BRANCH   5   6
ATOM      6  C   UNL     1      -5.699 -37.555  -9.335  1.00  0.00    -0.003 C 
ATOM      7  C   UNL     1      -5.249 -38.766 -10.152  1.00  0.00     0.004 C 
ENDBRANCH   5   6
ENDBRANCH   1   5
TORSDOF 3
ENDMDL
MODEL 5
REMARK VINA RESULT:    -3.048      1.662      1.876
REMARK INTER + INTRA:          -3.699
REMARK INTER:                  -3.633
REMARK INTRA:                  -0.066
REMARK UNBOUND:                -0.116
REMARK SMILES CCCCC(=O)[O-]
REMARK SMILES IDX 4 1 5 2 6 3 7 4 3 5 2 6 1 7
REMARK H PARENT
REMARK Flexibility Score: inf
ROOT
ATOM      1  C   UNL     1      -7.279 -36.545 -10.125  1.00  0.00     0.053 C 
ENDROOT
BRANCH   1   2
ATOM      2  C   UNL     1      -7.917 -35.215 -10.375  1.00  0.00     0.041 C 
ATOM      3  O   UNL     1      -7.280 -34.153 -10.148  1.00  0.00    -0.550 OA
ATOM      4  O   UNL     1      -9.199 -35.149 -10.907  1.00  0.00    -0.550 OA
ENDBRANCH   1   2
BRANCH   1   5
ATOM      5  C   UNL     1      -6.302 -36.457  -8.945  1.00  0.00     0.006 C 
BRANCH   5   6
ATOM      6  C   UNL     1      -4.844 -36.691  -9.366  1.00  0.00    -0.003 C 
ATOM      7  C   UNL     1      -3.861 -35.787  -8.622  1.00  0.00     0.004 C 
ENDBRANCH   5   6
ENDBRANCH   1   5
TORSDOF 3
ENDMDL
MODEL 6
REMARK VINA RESULT:    -3.038      2.060      3.416
REMARK INTER + INTRA:          -3.687
REMARK INTER:                  -3.573
REMARK INTRA:                  -0.114
REMARK UNBOUND:                -0.116
REMARK SMILES CCCCC(=O)[O-]
REMARK SMILES IDX 4 1 5 2 6 3 7 4 3 5 2 6 1 7
REMARK H PARENT
REMARK Flexibility Score: inf
ROOT
ATOM      1  C   UNL     1      -5.733 -35.295  -8.280  1.00  0.00     0.053 C 
ENDROOT
BRANCH   1   2
ATOM      2  C   UNL     1      -4.609 -36.113  -8.834  1.00  0.00     0.041 C 
ATOM      3  O   UNL     1      -3.420 -35.715  -8.719  1.00  0.00    -0.550 OA
ATOM      4  O   UNL     1      -4.871 -37.338  -9.434  1.00  0.00    -0.550 OA
ENDBRANCH   1   2
BRANCH   1   5
ATOM      5  C   UNL     1      -6.043 -34.113  -9.208  1.00  0.00     0.006 C 
BRANCH   5   6
ATOM      6  C   UNL     1      -6.897 -34.522 -10.418  1.00  0.00    -0.003 C 
ATOM      7  C   UNL     1      -8.175 -35.259 -10.017  1.00  0.00     0.004 C 
ENDBRANCH   5   6
ENDBRANCH   1   5
TORSDOF 3
ENDMDL
MODEL 7
REMARK VINA RESULT:    -3.006      2.511      3.201
REMARK INTER + INTRA:          -3.650
REMARK INTER:                  -3.627
REMARK INTRA:                  -0.023
REMARK UNBOUND:                -0.116
REMARK SMILES CCCCC(=O)[O-]
REMARK SMILES IDX 4 1 5 2 6 3 7 4 3 5 2 6 1 7
REMARK H PARENT
REMARK Flexibility Score: inf
ROOT
ATOM      1  C   UNL     1      -6.119 -37.304  -9.243  1.00  0.00     0.053 C 
ENDROOT
BRANCH   1   2
ATOM      2  C   UNL     1      -5.891 -38.705  -9.716  1.00  0.00     0.041 C 
ATOM      3  O   UNL     1      -4.884 -38.979 -10.421  1.00  0.00    -0.550 OA
ATOM      4  O   UNL     1      -6.764 -39.717  -9.338  1.00  0.00    -0.550 OA
ENDBRANCH   1   2
BRANCH   1   5
ATOM      5  C   UNL     1      -4.812 -36.501  -9.295  1.00  0.00     0.006 C 
BRANCH   5   6
ATOM      6  C   UNL     1      -4.914 -35.159  -8.557  1.00  0.00    -0.003 C 
ATOM      7  C   UNL     1      -5.918 -34.204  -9.203  1.00  0.00     0.004 C 
ENDBRANCH   5   6
ENDBRANCH   1   5
TORSDOF 3
ENDMDL
MODEL 8
REMARK VINA RESULT:    -2.924      3.332      3.959
REMARK INTER + INTRA:          -3.553
REMARK INTER:                  -3.518
REMARK INTRA:                  -0.035
REMARK UNBOUND:                -0.116
REMARK SMILES CCCCC(=O)[O-]
REMARK SMILES IDX 4 1 5 2 6 3 7 4 3 5 2 6 1 7
REMARK H PARENT
REMARK Flexibility Score: inf
ROOT
ATOM      1  C   UNL     1      -4.823 -36.875  -9.434  1.00  0.00     0.053 C 
ENDROOT
BRANCH   1   2
ATOM      2  C   UNL     1      -4.356 -35.740  -8.578  1.00  0.00     0.041 C 
ATOM      3  O   UNL     1      -5.187 -34.927  -8.095  1.00  0.00    -0.550 OA
ATOM      4  O   UNL     1      -3.007 -35.609  -8.272  1.00  0.00    -0.550 OA
ENDBRANCH   1   2
BRANCH   1   5
ATOM      5  C   UNL     1      -6.258 -37.269  -9.064  1.00  0.00     0.006 C 
BRANCH   5   6
ATOM      6  C   UNL     1      -6.577 -38.730  -9.414  1.00  0.00    -0.003 C 
ATOM      7  C   UNL     1      -5.559 -39.343 -10.376  1.00  0.00     0.004 C 
ENDBRANCH   5   6
ENDBRANCH   1   5
TORSDOF 3
ENDMDL
MODEL 9
REMARK VINA RESULT:    -2.868      2.707      3.223
REMARK INTER + INTRA:          -3.488
REMARK INTER:                  -3.410
REMARK INTRA:                  -0.078
REMARK UNBOUND:                -0.116
REMARK SMILES CCCCC(=O)[O-]
REMARK SMILES IDX 4 1 5 2 6 3 7 4 3 5 2 6 1 7
REMARK H PARENT
REMARK Flexibility Score: inf
ROOT
ATOM      1  C   UNL     1      -5.252 -36.395  -9.792  1.00  0.00     0.053 C 
ENDROOT
BRANCH   1   2
ATOM      2  C   UNL     1      -6.409 -35.502 -10.116  1.00  0.00     0.041 C 
ATOM      3  O   UNL     1      -6.252 -34.254 -10.165  1.00  0.00    -0.550 OA
ATOM      4  O   UNL     1      -7.650 -36.053 -10.414  1.00  0.00    -0.550 OA
ENDBRANCH   1   2
BRANCH   1   5
ATOM      5  C   UNL     1      -5.748 -37.796  -9.412  1.00  0.00     0.006 C 
BRANCH   5   6
ATOM      6  C   UNL     1      -5.155 -38.894 -10.307  1.00  0.00    -0.003 C 
ATOM      7  C   UNL     1      -6.223 -39.650 -11.099  1.00  0.00     0.004 C 
ENDBRANCH   5   6
ENDBRANCH   1   5
TORSDOF 3
ENDMDL
