MODEL 1
REMARK VINA RESULT:    -3.051      0.000      0.000
REMARK INTER + INTRA:          -8.224
REMARK INTER:                  -5.727
REMARK INTRA:                  -2.497
REMARK UNBOUND:                -2.497
REMARK SMILES O=C([O-])CCCCCCCCCCCCCCC(=O)[O-]
REMARK SMILES IDX 10 1 9 2 8 3 7 4 6 5 5 6 4 7 2 8 1 9 3 10 11 11 12 12 13 13
REMARK SMILES IDX 14 14 15 15 16 16 17 17 18 18 19 19 20 20
REMARK H PARENT
REMARK Flexibility Score: inf
ROOT
ATOM      1  C   UNL     1      31.237  58.591  81.541  1.00  0.00     0.000 C 
ENDROOT
BRANCH   1   2
ATOM      2  C   UNL     1      31.048  57.289  82.333  1.00  0.00     0.000 C 
BRANCH   2   3
ATOM      3  C   UNL     1      31.526  57.449  83.781  1.00  0.00     0.000 C 
BRANCH   3   4
ATOM      4  C   UNL     1      30.368  57.245  84.769  1.00  0.00     0.000 C 
BRANCH   4   5
ATOM      5  C   UNL     1      30.224  58.426  85.754  1.00  0.00     0.000 C 
BRANCH   5   6
ATOM      6  C   UNL     1      28.994  58.315  86.671  1.00  0.00     0.006 C 
BRANCH   6   7
ATOM      7  C   UNL     1      28.411  59.680  87.051  1.00  0.00     0.053 C 
BRANCH   7   8
ATOM      8  C   UNL     1      27.018  59.525  87.576  1.00  0.00     0.041 C 
ATOM      9  O   UNL     1      26.822  59.333  88.805  1.00  0.00    -0.550 OA
ATOM     10  O   UNL     1      25.939  59.541  86.701  1.00  0.00    -0.550 OA
ENDBRANCH   7   8
ENDBRANCH   6   7
ENDBRANCH   5   6
ENDBRANCH   4   5
ENDBRANCH   3   4
ENDBRANCH   2   3
ENDBRANCH   1   2
BRANCH   1  11
ATOM     11  C   UNL     1      30.228  58.747  80.389  1.00  0.00     0.000 C 
BRANCH  11  12
ATOM     12  C   UNL     1      29.050  57.756  80.421  1.00  0.00     0.000 C 
BRANCH  12  13
ATOM     13  C   UNL     1      27.769  58.371  81.010  1.00  0.00     0.000 C 
BRANCH  13  14
ATOM     14  C   UNL     1      27.339  57.693  82.320  1.00  0.00     0.000 C 
BRANCH  14  15
ATOM     15  C   UNL     1      27.210  58.688  83.483  1.00  0.00     0.000 C 
BRANCH  15  16
ATOM     16  C   UNL     1      27.988  59.977  83.192  1.00  0.00     0.006 C 
BRANCH  16  17
ATOM     17  C   UNL     1      27.283  61.192  83.804  1.00  0.00     0.053 C 
BRANCH  17  18
ATOM     18  C   UNL     1      25.979  61.444  83.118  1.00  0.00     0.041 C 
ATOM     19  O   UNL     1      24.927  61.602  83.792  1.00  0.00    -0.550 OA
ATOM     20  O   UNL     1      25.918  61.467  81.730  1.00  0.00    -0.550 OA
ENDBRANCH  17  18
ENDBRANCH  16  17
ENDBRANCH  15  16
ENDBRANCH  14  15
ENDBRANCH  13  14
ENDBRANCH  12  13
ENDBRANCH  11  12
ENDBRANCH   1  11
TORSDOF 15
ENDMDL
MODEL 2
REMARK VINA RESULT:    -2.994      2.547      4.666
REMARK INTER + INTRA:          -8.115
REMARK INTER:                  -6.555
REMARK INTRA:                  -1.560
REMARK UNBOUND:                -2.497
REMARK SMILES O=C([O-])CCCCCCCCCCCCCCC(=O)[O-]
REMARK SMILES IDX 10 1 9 2 8 3 7 4 6 5 5 6 4 7 2 8 1 9 3 10 11 11 12 12 13 13
REMARK SMILES IDX 14 14 15 15 16 16 17 17 18 18 19 19 20 20
REMARK H PARENT
REMARK Flexibility Score: inf
ROOT
ATOM      1  C   UNL     1      27.391  62.087  80.676  1.00  0.00     0.000 C 
ENDROOT
BRANCH   1   2
ATOM      2  C   UNL     1      25.873  62.080  80.905  1.00  0.00     0.000 C 
BRANCH   2   3
ATOM      3  C   UNL     1      25.534  61.665  82.342  1.00  0.00     0.000 C 
BRANCH   3   4
ATOM      4  C   UNL     1      26.792  61.206  83.094  1.00  0.00     0.000 C 
BRANCH   4   5
ATOM      5  C   UNL     1      26.694  61.468  84.612  1.00  0.00     0.000 C 
BRANCH   5   6
ATOM      6  C   UNL     1      26.173  60.262  85.412  1.00  0.00     0.006 C 
BRANCH   6   7
ATOM      7  C   UNL     1      27.294  59.471  86.095  1.00  0.00     0.053 C 
BRANCH   7   8
ATOM      8  C   UNL     1      27.638  60.086  87.415  1.00  0.00     0.041 C 
ATOM      9  O   UNL     1      27.097  59.663  88.471  1.00  0.00    -0.550 OA
ATOM     10  O   UNL     1      28.515  61.161  87.474  1.00  0.00    -0.550 OA
ENDBRANCH   7   8
ENDBRANCH   6   7
ENDBRANCH   5   6
ENDBRANCH   4   5
ENDBRANCH   3   4
ENDBRANCH   2   3
ENDBRANCH   1   2
BRANCH   1  11
ATOM     11  C   UNL     1      27.791  61.571  79.282  1.00  0.00     0.000 C 
BRANCH  11  12
ATOM     12  C   UNL     1      27.935  60.042  79.173  1.00  0.00     0.000 C 
BRANCH  12  13
ATOM     13  C   UNL     1      28.537  59.407  80.438  1.00  0.00     0.000 C 
BRANCH  13  14
ATOM     14  C   UNL     1      29.848  58.658  80.154  1.00  0.00     0.000 C 
BRANCH  14  15
ATOM     15  C   UNL     1      30.694  58.449  81.419  1.00  0.00     0.000 C 
BRANCH  15  16
ATOM     16  C   UNL     1      30.011  59.069  82.645  1.00  0.00     0.006 C 
BRANCH  16  17
ATOM     17  C   UNL     1      29.700  58.001  83.698  1.00  0.00     0.053 C 
BRANCH  17  18
ATOM     18  C   UNL     1      30.773  57.961  84.738  1.00  0.00     0.041 C 
ATOM     19  O   UNL     1      30.555  58.417  85.892  1.00  0.00    -0.550 OA
ATOM     20  O   UNL     1      32.027  57.454  84.423  1.00  0.00    -0.550 OA
ENDBRANCH  17  18
ENDBRANCH  16  17
ENDBRANCH  15  16
ENDBRANCH  14  15
ENDBRANCH  13  14
ENDBRANCH  12  13
ENDBRANCH  11  12
ENDBRANCH   1  11
TORSDOF 15
ENDMDL
MODEL 3
REMARK VINA RESULT:    -2.984      2.845      4.610
REMARK INTER + INTRA:          -8.097
REMARK INTER:                  -6.670
REMARK INTRA:                  -1.426
REMARK UNBOUND:                -2.497
REMARK SMILES O=C([O-])CCCCCCCCCCCCCCC(=O)[O-]
REMARK SMILES IDX 10 1 9 2 8 3 7 4 6 5 5 6 4 7 2 8 1 9 3 10 11 11 12 12 13 13
REMARK SMILES IDX 14 14 15 15 16 16 17 17 18 18 19 19 20 20
REMARK H PARENT
REMARK Flexibility Score: inf
ROOT
ATOM      1  C   UNL     1      27.647  61.683  82.555  1.00  0.00     0.000 C 
ENDROOT
BRANCH   1   2
ATOM      2  C   UNL     1      26.816  60.732  83.428  1.00  0.00     0.000 C 
BRANCH   2   3
ATOM      3  C   UNL     1      26.424  61.400  84.752  1.00  0.00     0.000 C 
BRANCH   3   4
ATOM      4  C   UNL     1      27.253  60.842  85.918  1.00  0.00     0.000 C 
BRANCH   4   5
ATOM      5  C   UNL     1      27.909  59.488  85.573  1.00  0.00     0.000 C 
BRANCH   5   6
ATOM      6  C   UNL     1      28.828  58.950  86.683  1.00  0.00     0.006 C 
BRANCH   6   7
ATOM      7  C   UNL     1      28.282  57.680  87.345  1.00  0.00     0.053 C 
BRANCH   7   8
ATOM      8  C   UNL     1      27.893  57.956  88.764  1.00  0.00     0.041 C 
ATOM      9  O   UNL     1      28.422  57.305  89.703  1.00  0.00    -0.550 OA
ATOM     10  O   UNL     1      26.910  58.895  89.046  1.00  0.00    -0.550 OA
ENDBRANCH   7   8
ENDBRANCH   6   7
ENDBRANCH   5   6
ENDBRANCH   4   5
ENDBRANCH   3   4
ENDBRANCH   2   3
ENDBRANCH   1   2
BRANCH   1  11
ATOM     11  C   UNL     1      26.865  62.222  81.343  1.00  0.00     0.000 C 
BRANCH  11  12
ATOM     12  C   UNL     1      27.373  61.734  79.974  1.00  0.00     0.000 C 
BRANCH  12  13
ATOM     13  C   UNL     1      27.615  60.215  79.935  1.00  0.00     0.000 C 
BRANCH  13  14
ATOM     14  C   UNL     1      28.873  59.840  79.136  1.00  0.00     0.000 C 
BRANCH  14  15
ATOM     15  C   UNL     1      29.763  58.832  79.878  1.00  0.00     0.000 C 
BRANCH  15  16
ATOM     16  C   UNL     1      29.248  58.588  81.302  1.00  0.00     0.006 C 
BRANCH  16  17
ATOM     17  C   UNL     1      30.334  58.895  82.338  1.00  0.00     0.053 C 
BRANCH  17  18
ATOM     18  C   UNL     1      31.568  58.099  82.058  1.00  0.00     0.041 C 
ATOM     19  O   UNL     1      31.640  56.894  82.415  1.00  0.00    -0.550 OA
ATOM     20  O   UNL     1      32.655  58.699  81.436  1.00  0.00    -0.550 OA
ENDBRANCH  17  18
ENDBRANCH  16  17
ENDBRANCH  15  16
ENDBRANCH  14  15
ENDBRANCH  13  14
ENDBRANCH  12  13
ENDBRANCH  11  12
ENDBRANCH   1  11
TORSDOF 15
ENDMDL
MODEL 4
REMARK VINA RESULT:    -2.966      3.101      5.565
REMARK INTER + INTRA:          -8.064
REMARK INTER:                  -6.090
REMARK INTRA:                  -1.974
REMARK UNBOUND:                -2.497
REMARK SMILES O=C([O-])CCCCCCCCCCCCCCC(=O)[O-]
REMARK SMILES IDX 10 1 9 2 8 3 7 4 6 5 5 6 4 7 2 8 1 9 3 10 11 11 12 12 13 13
REMARK SMILES IDX 14 14 15 15 16 16 17 17 18 18 19 19 20 20
REMARK H PARENT
REMARK Flexibility Score: inf
ROOT
ATOM      1  C   UNL     1      27.282  61.213  79.160  1.00  0.00     0.000 C 
ENDROOT
BRANCH   1   2
ATOM      2  C   UNL     1      28.506  61.113  78.237  1.00  0.00     0.000 C 
BRANCH   2   3
ATOM      3  C   UNL     1      28.780  59.657  77.841  1.00  0.00     0.000 C 
BRANCH   3   4
ATOM      4  C   UNL     1      28.126  58.684  78.833  1.00  0.00     0.000 C 
BRANCH   4   5
ATOM      5  C   UNL     1      29.170  57.867  79.624  1.00  0.00     0.000 C 
BRANCH   5   6
ATOM      6  C   UNL     1      29.869  58.673  80.733  1.00  0.00     0.006 C 
BRANCH   6   7
ATOM      7  C   UNL     1      30.556  57.782  81.773  1.00  0.00     0.053 C 
BRANCH   7   8
ATOM      8  C   UNL     1      32.001  58.151  81.903  1.00  0.00     0.041 C 
ATOM      9  O   UNL     1      32.750  57.509  82.686  1.00  0.00    -0.550 OA
ATOM     10  O   UNL     1      32.509  59.235  81.200  1.00  0.00    -0.550 OA
ENDBRANCH   7   8
ENDBRANCH   6   7
ENDBRANCH   5   6
ENDBRANCH   4   5
ENDBRANCH   3   4
ENDBRANCH   2   3
ENDBRANCH   1   2
BRANCH   1  11
ATOM     11  C   UNL     1      27.517  62.135  80.370  1.00  0.00     0.000 C 
BRANCH  11  12
ATOM     12  C   UNL     1      26.888  61.648  81.688  1.00  0.00     0.000 C 
BRANCH  12  13
ATOM     13  C   UNL     1      26.173  60.293  81.543  1.00  0.00     0.000 C 
BRANCH  13  14
ATOM     14  C   UNL     1      26.707  59.238  82.525  1.00  0.00     0.000 C 
BRANCH  14  15
ATOM     15  C   UNL     1      27.761  59.809  83.486  1.00  0.00     0.000 C 
BRANCH  15  16
ATOM     16  C   UNL     1      27.382  59.528  84.946  1.00  0.00     0.006 C 
BRANCH  16  17
ATOM     17  C   UNL     1      27.089  60.831  85.696  1.00  0.00     0.053 C 
BRANCH  17  18
ATOM     18  C   UNL     1      27.659  60.782  87.078  1.00  0.00     0.041 C 
ATOM     19  O   UNL     1      27.484  59.765  87.800  1.00  0.00    -0.550 OA
ATOM     20  O   UNL     1      28.352  61.875  87.583  1.00  0.00    -0.550 OA
ENDBRANCH  17  18
ENDBRANCH  16  17
ENDBRANCH  15  16
ENDBRANCH  14  15
ENDBRANCH  13  14
ENDBRANCH  12  13
ENDBRANCH  11  12
ENDBRANCH   1  11
TORSDOF 15
ENDMDL
MODEL 5
REMARK VINA RESULT:    -2.931      2.553      5.230
REMARK INTER + INTRA:          -7.997
REMARK INTER:                  -5.836
REMARK INTRA:                  -2.161
REMARK UNBOUND:                -2.497
REMARK SMILES O=C([O-])CCCCCCCCCCCCCCC(=O)[O-]
REMARK SMILES IDX 10 1 9 2 8 3 7 4 6 5 5 6 4 7 2 8 1 9 3 10 11 11 12 12 13 13
REMARK SMILES IDX 14 14 15 15 16 16 17 17 18 18 19 19 20 20
REMARK H PARENT
REMARK Flexibility Score: inf
ROOT
ATOM      1  C   UNL     1      27.731  60.041  87.091  1.00  0.00     0.000 C 
ENDROOT
BRANCH   1   2
ATOM      2  C   UNL     1      28.729  59.197  86.285  1.00  0.00     0.000 C 
BRANCH   2   3
ATOM      3  C   UNL     1      29.101  57.914  87.040  1.00  0.00     0.000 C 
BRANCH   3   4
ATOM      4  C   UNL     1      29.732  56.882  86.094  1.00  0.00     0.000 C 
BRANCH   4   5
ATOM      5  C   UNL     1      29.103  56.919  84.684  1.00  0.00     0.000 C 
BRANCH   5   6
ATOM      6  C   UNL     1      30.141  56.977  83.550  1.00  0.00     0.006 C 
BRANCH   6   7
ATOM      7  C   UNL     1      30.433  58.407  83.083  1.00  0.00     0.053 C 
BRANCH   7   8
ATOM      8  C   UNL     1      31.265  58.390  81.838  1.00  0.00     0.041 C 
ATOM      9  O   UNL     1      32.496  58.138  81.904  1.00  0.00    -0.550 OA
ATOM     10  O   UNL     1      30.690  58.704  80.613  1.00  0.00    -0.550 OA
ENDBRANCH   7   8
ENDBRANCH   6   7
ENDBRANCH   5   6
ENDBRANCH   4   5
ENDBRANCH   3   4
ENDBRANCH   2   3
ENDBRANCH   1   2
BRANCH   1  11
ATOM     11  C   UNL     1      27.209  59.319  88.346  1.00  0.00     0.000 C 
BRANCH  11  12
ATOM     12  C   UNL     1      25.862  58.595  88.166  1.00  0.00     0.000 C 
BRANCH  12  13
ATOM     13  C   UNL     1      25.197  58.901  86.813  1.00  0.00     0.000 C 
BRANCH  13  14
ATOM     14  C   UNL     1      25.076  57.655  85.922  1.00  0.00     0.000 C 
BRANCH  14  15
ATOM     15  C   UNL     1      25.734  57.849  84.547  1.00  0.00     0.000 C 
BRANCH  15  16
ATOM     16  C   UNL     1      25.388  59.224  83.961  1.00  0.00     0.006 C 
BRANCH  16  17
ATOM     17  C   UNL     1      26.561  59.786  83.152  1.00  0.00     0.053 C 
BRANCH  17  18
ATOM     18  C   UNL     1      26.842  61.200  83.546  1.00  0.00     0.041 C 
ATOM     19  O   UNL     1      26.156  61.757  84.443  1.00  0.00    -0.550 OA
ATOM     20  O   UNL     1      27.838  61.918  82.896  1.00  0.00    -0.550 OA
ENDBRANCH  17  18
ENDBRANCH  16  17
ENDBRANCH  15  16
ENDBRANCH  14  15
ENDBRANCH  13  14
ENDBRANCH  12  13
ENDBRANCH  11  12
ENDBRANCH   1  11
TORSDOF 15
ENDMDL
MODEL 6
REMARK VINA RESULT:    -2.918      0.870      4.699
REMARK INTER + INTRA:          -7.973
REMARK INTER:                  -5.907
REMARK INTRA:                  -2.066
REMARK UNBOUND:                -2.497
REMARK SMILES O=C([O-])CCCCCCCCCCCCCCC(=O)[O-]
REMARK SMILES IDX 10 1 9 2 8 3 7 4 6 5 5 6 4 7 2 8 1 9 3 10 11 11 12 12 13 13
REMARK SMILES IDX 14 14 15 15 16 16 17 17 18 18 19 19 20 20
REMARK H PARENT
REMARK Flexibility Score: inf
ROOT
ATOM      1  C   UNL     1      31.000  58.731  82.050  1.00  0.00     0.000 C 
ENDROOT
BRANCH   1   2
ATOM      2  C   UNL     1      30.197  58.419  80.778  1.00  0.00     0.000 C 
BRANCH   2   3
ATOM      3  C   UNL     1      28.713  58.754  80.968  1.00  0.00     0.000 C 
BRANCH   3   4
ATOM      4  C   UNL     1      28.111  57.953  82.132  1.00  0.00     0.000 C 
BRANCH   4   5
ATOM      5  C   UNL     1      27.371  58.857  83.142  1.00  0.00     0.000 C 
BRANCH   5   6
ATOM      6  C   UNL     1      27.977  60.265  83.266  1.00  0.00     0.006 C 
BRANCH   6   7
ATOM      7  C   UNL     1      26.915  61.369  83.299  1.00  0.00     0.053 C 
BRANCH   7   8
ATOM      8  C   UNL     1      26.446  61.685  81.913  1.00  0.00     0.041 C 
ATOM      9  O   UNL     1      25.233  61.541  81.608  1.00  0.00    -0.550 OA
ATOM     10  O   UNL     1      27.357  62.088  80.945  1.00  0.00    -0.550 OA
ENDBRANCH   7   8
ENDBRANCH   6   7
ENDBRANCH   5   6
ENDBRANCH   4   5
ENDBRANCH   3   4
ENDBRANCH   2   3
ENDBRANCH   1   2
BRANCH   1  11
ATOM     11  C   UNL     1      32.229  57.820  82.223  1.00  0.00     0.000 C 
BRANCH  11  12
ATOM     12  C   UNL     1      32.295  57.068  83.565  1.00  0.00     0.000 C 
BRANCH  12  13
ATOM     13  C   UNL     1      30.927  56.967  84.261  1.00  0.00     0.000 C 
BRANCH  13  14
ATOM     14  C   UNL     1      30.961  57.492  85.705  1.00  0.00     0.000 C 
BRANCH  14  15
ATOM     15  C   UNL     1      30.070  58.727  85.903  1.00  0.00     0.000 C 
BRANCH  15  16
ATOM     16  C   UNL     1      28.817  58.376  86.716  1.00  0.00     0.006 C 
BRANCH  16  17
ATOM     17  C   UNL     1      27.928  59.608  86.912  1.00  0.00     0.053 C 
BRANCH  17  18
ATOM     18  C   UNL     1      26.746  59.273  87.763  1.00  0.00     0.041 C 
ATOM     19  O   UNL     1      26.891  59.062  88.996  1.00  0.00    -0.550 OA
ATOM     20  O   UNL     1      25.486  59.156  87.189  1.00  0.00    -0.550 OA
ENDBRANCH  17  18
ENDBRANCH  16  17
ENDBRANCH  15  16
ENDBRANCH  14  15
ENDBRANCH  13  14
ENDBRANCH  12  13
ENDBRANCH  11  12
ENDBRANCH   1  11
TORSDOF 15
ENDMDL
MODEL 7
REMARK VINA RESULT:    -2.915      1.900      2.568
REMARK INTER + INTRA:          -7.968
REMARK INTER:                  -5.860
REMARK INTRA:                  -2.109
REMARK UNBOUND:                -2.497
REMARK SMILES O=C([O-])CCCCCCCCCCCCCCC(=O)[O-]
REMARK SMILES IDX 10 1 9 2 8 3 7 4 6 5 5 6 4 7 2 8 1 9 3 10 11 11 12 12 13 13
REMARK SMILES IDX 14 14 15 15 16 16 17 17 18 18 19 19 20 20
REMARK H PARENT
REMARK Flexibility Score: inf
ROOT
ATOM      1  C   UNL     1      31.469  58.207  81.766  1.00  0.00     0.000 C 
ENDROOT
BRANCH   1   2
ATOM      2  C   UNL     1      31.294  57.081  82.796  1.00  0.00     0.000 C 
BRANCH   2   3
ATOM      3  C   UNL     1      32.374  57.155  83.882  1.00  0.00     0.000 C 
BRANCH   3   4
ATOM      4  C   UNL     1      31.750  57.386  85.266  1.00  0.00     0.000 C 
BRANCH   4   5
ATOM      5  C   UNL     1      30.240  57.695  85.182  1.00  0.00     0.000 C 
BRANCH   5   6
ATOM      6  C   UNL     1      29.728  58.578  86.333  1.00  0.00     0.006 C 
BRANCH   6   7
ATOM      7  C   UNL     1      28.202  58.561  86.463  1.00  0.00     0.053 C 
BRANCH   7   8
ATOM      8  C   UNL     1      27.728  59.763  87.219  1.00  0.00     0.041 C 
ATOM      9  O   UNL     1      27.983  60.919  86.793  1.00  0.00    -0.550 OA
ATOM     10  O   UNL     1      27.049  59.605  88.421  1.00  0.00    -0.550 OA
ENDBRANCH   7   8
ENDBRANCH   6   7
ENDBRANCH   5   6
ENDBRANCH   4   5
ENDBRANCH   3   4
ENDBRANCH   2   3
ENDBRANCH   1   2
BRANCH   1  11
ATOM     11  C   UNL     1      30.129  58.739  81.224  1.00  0.00     0.000 C 
BRANCH  11  12
ATOM     12  C   UNL     1      28.895  57.904  81.612  1.00  0.00     0.000 C 
BRANCH  12  13
ATOM     13  C   UNL     1      27.847  58.715  82.394  1.00  0.00     0.000 C 
BRANCH  13  14
ATOM     14  C   UNL     1      28.443  59.973  83.045  1.00  0.00     0.000 C 
BRANCH  14  15
ATOM     15  C   UNL     1      27.662  61.247  82.687  1.00  0.00     0.000 C 
BRANCH  15  16
ATOM     16  C   UNL     1      26.786  61.025  81.448  1.00  0.00     0.006 C 
BRANCH  16  17
ATOM     17  C   UNL     1      27.327  61.806  80.247  1.00  0.00     0.053 C 
BRANCH  17  18
ATOM     18  C   UNL     1      27.855  60.871  79.206  1.00  0.00     0.041 C 
ATOM     19  O   UNL     1      28.847  61.198  78.504  1.00  0.00    -0.550 OA
ATOM     20  O   UNL     1      27.226  59.652  78.985  1.00  0.00    -0.550 OA
ENDBRANCH  17  18
ENDBRANCH  16  17
ENDBRANCH  15  16
ENDBRANCH  14  15
ENDBRANCH  13  14
ENDBRANCH  12  13
ENDBRANCH  11  12
ENDBRANCH   1  11
TORSDOF 15
ENDMDL
MODEL 8
REMARK VINA RESULT:    -2.908      3.074      5.141
REMARK INTER + INTRA:          -7.955
REMARK INTER:                  -6.114
REMARK INTRA:                  -1.841
REMARK UNBOUND:                -2.497
REMARK SMILES O=C([O-])CCCCCCCCCCCCCCC(=O)[O-]
REMARK SMILES IDX 10 1 9 2 8 3 7 4 6 5 5 6 4 7 2 8 1 9 3 10 11 11 12 12 13 13
REMARK SMILES IDX 14 14 15 15 16 16 17 17 18 18 19 19 20 20
REMARK H PARENT
REMARK Flexibility Score: inf
ROOT
ATOM      1  C   UNL     1      27.259  60.925  86.268  1.00  0.00     0.000 C 
ENDROOT
BRANCH   1   2
ATOM      2  C   UNL     1      28.390  60.334  87.122  1.00  0.00     0.000 C 
BRANCH   2   3
ATOM      3  C   UNL     1      28.000  58.958  87.676  1.00  0.00     0.000 C 
BRANCH   3   4
ATOM      4  C   UNL     1      28.890  57.854  87.085  1.00  0.00     0.000 C 
BRANCH   4   5
ATOM      5  C   UNL     1      29.848  58.393  86.001  1.00  0.00     0.000 C 
BRANCH   5   6
ATOM      6  C   UNL     1      29.595  57.798  84.605  1.00  0.00     0.006 C 
BRANCH   6   7
ATOM      7  C   UNL     1      30.074  58.712  83.473  1.00  0.00     0.053 C 
BRANCH   7   8
ATOM      8  C   UNL     1      31.160  58.045  82.687  1.00  0.00     0.041 C 
ATOM      9  O   UNL     1      31.920  57.209  83.241  1.00  0.00    -0.550 OA
ATOM     10  O   UNL     1      31.364  58.386  81.356  1.00  0.00    -0.550 OA
ENDBRANCH   7   8
ENDBRANCH   6   7
ENDBRANCH   5   6
ENDBRANCH   4   5
ENDBRANCH   3   4
ENDBRANCH   2   3
ENDBRANCH   1   2
BRANCH   1  11
ATOM     11  C   UNL     1      26.254  59.864  85.784  1.00  0.00     0.000 C 
BRANCH  11  12
ATOM     12  C   UNL     1      26.277  59.593  84.269  1.00  0.00     0.000 C 
BRANCH  12  13
ATOM     13  C   UNL     1      26.925  60.736  83.468  1.00  0.00     0.000 C 
BRANCH  13  14
ATOM     14  C   UNL     1      25.888  61.704  82.879  1.00  0.00     0.000 C 
BRANCH  14  15
ATOM     15  C   UNL     1      25.847  61.662  81.344  1.00  0.00     0.000 C 
BRANCH  15  16
ATOM     16  C   UNL     1      27.218  62.008  80.748  1.00  0.00     0.006 C 
BRANCH  16  17
ATOM     17  C   UNL     1      27.371  61.413  79.345  1.00  0.00     0.053 C 
BRANCH  17  18
ATOM     18  C   UNL     1      28.324  60.261  79.364  1.00  0.00     0.041 C 
ATOM     19  O   UNL     1      28.427  59.540  80.391  1.00  0.00    -0.550 OA
ATOM     20  O   UNL     1      29.127  60.006  78.260  1.00  0.00    -0.550 OA
ENDBRANCH  17  18
ENDBRANCH  16  17
ENDBRANCH  15  16
ENDBRANCH  14  15
ENDBRANCH  13  14
ENDBRANCH  12  13
ENDBRANCH  11  12
ENDBRANCH   1  11
TORSDOF 15
ENDMDL
MODEL 9
REMARK VINA RESULT:    -2.851      2.029      5.652
REMARK INTER + INTRA:          -7.848
REMARK INTER:                  -5.750
REMARK INTRA:                  -2.098
REMARK UNBOUND:                -2.497
REMARK SMILES O=C([O-])CCCCCCCCCCCCCCC(=O)[O-]
REMARK SMILES IDX 10 1 9 2 8 3 7 4 6 5 5 6 4 7 2 8 1 9 3 10 11 11 12 12 13 13
REMARK SMILES IDX 14 14 15 15 16 16 17 17 18 18 19 19 20 20
REMARK H PARENT
REMARK Flexibility Score: inf
ROOT
ATOM      1  C   UNL     1      28.668  57.999  81.727  1.00  0.00     0.000 C 
ENDROOT
BRANCH   1   2
ATOM      2  C   UNL     1      27.653  58.948  82.381  1.00  0.00     0.000 C 
BRANCH   2   3
ATOM      3  C   UNL     1      28.330  60.242  82.849  1.00  0.00     0.000 C 
BRANCH   3   4
ATOM      4  C   UNL     1      27.288  61.319  83.184  1.00  0.00     0.000 C 
BRANCH   4   5
ATOM      5  C   UNL     1      26.414  61.685  81.965  1.00  0.00     0.000 C 
BRANCH   5   6
ATOM      6  C   UNL     1      27.216  62.254  80.782  1.00  0.00     0.006 C 
BRANCH   6   7
ATOM      7  C   UNL     1      26.742  61.717  79.428  1.00  0.00     0.053 C 
BRANCH   7   8
ATOM      8  C   UNL     1      27.681  60.664  78.925  1.00  0.00     0.041 C 
ATOM      9  O   UNL     1      28.836  60.980  78.538  1.00  0.00    -0.550 OA
ATOM     10  O   UNL     1      27.262  59.343  78.836  1.00  0.00    -0.550 OA
ENDBRANCH   7   8
ENDBRANCH   6   7
ENDBRANCH   5   6
ENDBRANCH   4   5
ENDBRANCH   3   4
ENDBRANCH   2   3
ENDBRANCH   1   2
BRANCH   1  11
ATOM     11  C   UNL     1      29.965  58.710  81.299  1.00  0.00     0.000 C 
BRANCH  11  12
ATOM     12  C   UNL     1      31.258  58.105  81.875  1.00  0.00     0.000 C 
BRANCH  12  13
ATOM     13  C   UNL     1      30.989  57.030  82.943  1.00  0.00     0.000 C 
BRANCH  13  14
ATOM     14  C   UNL     1      31.432  57.471  84.346  1.00  0.00     0.000 C 
BRANCH  14  15
ATOM     15  C   UNL     1      30.296  57.383  85.377  1.00  0.00     0.000 C 
BRANCH  15  16
ATOM     16  C   UNL     1      29.770  58.779  85.735  1.00  0.00     0.006 C 
BRANCH  16  17
ATOM     17  C   UNL     1      28.696  58.696  86.824  1.00  0.00     0.053 C 
BRANCH  17  18
ATOM     18  C   UNL     1      27.901  59.962  86.875  1.00  0.00     0.041 C 
ATOM     19  O   UNL     1      26.748  60.007  86.371  1.00  0.00    -0.550 OA
ATOM     20  O   UNL     1      28.449  61.104  87.445  1.00  0.00    -0.550 OA
ENDBRANCH  17  18
ENDBRANCH  16  17
ENDBRANCH  15  16
ENDBRANCH  14  15
ENDBRANCH  13  14
ENDBRANCH  12  13
ENDBRANCH  11  12
ENDBRANCH   1  11
TORSDOF 15
ENDMDL
