MODEL 1
REMARK VINA RESULT:   138.897      0.000      0.000
REMARK INTER + INTRA:         150.861
REMARK INTER:                 151.077
REMARK INTRA:                  -0.215
REMARK UNBOUND:                -0.215
REMARK SMILES C[C@H]1[C@@H](C)CC[C@@]2(C(=O)[O-])CC[C@]3(C)C(=CC[C@@H]4[C@]5(C)CC[C@@H](O)C(C)(C)[C@@H]5CC[C@@]43C)[C@@H]12
REMARK SMILES IDX 7 1 6 2 11 3 33 4 5 5 12 6 15 7 2 8 3 9 13 10 16 11 1 12
REMARK SMILES IDX 4 13 14 14 31 15 17 16 18 17 30 18 32 19 19 20 29 21 28 22
REMARK SMILES IDX 21 23 20 24 25 25 22 26 23 27 26 28 27 29 8 30 9 31 10 32
REMARK SMILES IDX 24 33
REMARK H PARENT 24 34
REMARK Flexibility Score: inf
ROOT
ATOM      1  C   UNL     1      -2.986  -1.512   2.320  1.00  0.00     0.017 C 
ATOM      2  C   UNL     1      -1.748  -2.415   2.656  1.00  0.00     0.014 C 
ATOM      3  C   UNL     1      -4.009  -1.606   3.505  1.00  0.00     0.014 C 
ATOM      4  C   UNL     1      -2.544  -0.003   2.052  1.00  0.00     0.030 C 
ATOM      5  C   UNL     1      -0.478  -1.879   2.001  1.00  0.00     0.004 C 
ATOM      6  C   UNL     1      -4.920  -0.375   3.776  1.00  0.00     0.013 C 
ATOM      7  C   UNL     1      -3.712   1.009   2.105  1.00  0.00    -0.063 C 
ATOM      8  C   UNL     1      -1.252   0.452   2.833  1.00  0.00    -0.003 C 
ATOM      9  C   UNL     1      -0.060  -0.582   2.732  1.00  0.00    -0.011 C 
ATOM     10  C   UNL     1      -5.117   0.620   2.589  1.00  0.00    -0.006 C 
ATOM     11  C   UNL     1      -3.504   2.193   1.500  1.00  0.00    -0.027 C 
ATOM     12  C   UNL     1      -1.565   0.977   4.248  1.00  0.00     0.008 C 
ATOM     13  C   UNL     1       0.626  -0.939   4.068  1.00  0.00     0.008 C 
ATOM     14  C   UNL     1      -5.860  -0.096   1.397  1.00  0.00     0.017 C 
ATOM     15  C   UNL     1      -5.963   1.923   3.044  1.00  0.00    -0.020 C 
ATOM     16  C   UNL     1      -4.503   3.307   1.435  1.00  0.00     0.032 C 
ATOM     17  C   UNL     1      -5.961   2.945   1.835  1.00  0.00     0.006 C 
ATOM     18  C   UNL     1      -5.355   2.660   4.284  1.00  0.00     0.008 C 
ATOM     19  C   UNL     1      -7.392   1.464   3.511  1.00  0.00     0.012 C 
ATOM     20  C   UNL     1      -6.866   4.241   2.040  1.00  0.00    -0.025 C 
ATOM     21  C   UNL     1      -5.627   4.192   4.349  1.00  0.00     0.005 C 
ATOM     22  C   UNL     1      -6.835   4.764   3.537  1.00  0.00     0.003 C 
ATOM     23  C   UNL     1      -6.419   5.400   1.097  1.00  0.00     0.010 C 
ATOM     24  C   UNL     1      -8.315   3.835   1.584  1.00  0.00     0.012 C 
ATOM     25  C   UNL     1      -6.982   6.361   3.744  1.00  0.00    -0.006 C 
ATOM     26  C   UNL     1      -7.344   6.622   1.139  1.00  0.00     0.033 C 
ATOM     27  C   UNL     1      -7.727   7.102   2.561  1.00  0.00     0.120 C 
ATOM     28  C   UNL     1      -7.752   6.628   5.074  1.00  0.00     0.014 C 
ATOM     29  C   UNL     1      -5.607   7.079   3.925  1.00  0.00     0.014 C 
ENDROOT
BRANCH   1  30
ATOM     30  C   UNL     1      -3.601  -2.131   1.057  1.00  0.00     0.048 C 
ATOM     31  O   UNL     1      -3.229  -1.818  -0.104  1.00  0.00    -0.550 OA
ATOM     32  O   UNL     1      -4.579  -3.119   1.189  1.00  0.00    -0.550 OA
ENDBRANCH   1  30
BRANCH  27  33
ATOM     33  O   UNL     1      -9.119   7.166   2.707  1.00  0.00    -0.393 OA
ATOM     34  H   UNL     1      -9.352   8.065   3.035  1.00  0.00     0.210 HD
ENDBRANCH  27  33
TORSDOF 2
ENDMDL
MODEL 2
REMARK VINA RESULT:   140.943      2.373      7.782
REMARK INTER + INTRA:         153.087
REMARK INTER:                 153.280
REMARK INTRA:                  -0.193
REMARK UNBOUND:                -0.215
REMARK SMILES C[C@H]1[C@@H](C)CC[C@@]2(C(=O)[O-])CC[C@]3(C)C(=CC[C@@H]4[C@]5(C)CC[C@@H](O)C(C)(C)[C@@H]5CC[C@@]43C)[C@@H]12
REMARK SMILES IDX 7 1 6 2 11 3 33 4 5 5 12 6 15 7 2 8 3 9 13 10 16 11 1 12
REMARK SMILES IDX 4 13 14 14 31 15 17 16 18 17 30 18 32 19 19 20 29 21 28 22
REMARK SMILES IDX 21 23 20 24 25 25 22 26 23 27 26 28 27 29 8 30 9 31 10 32
REMARK SMILES IDX 24 33
REMARK H PARENT 24 34
REMARK Flexibility Score: inf
ROOT
ATOM      1  C   UNL     1      -7.976   1.795   3.438  1.00  0.00     0.017 C 
ATOM      2  C   UNL     1      -9.122   2.808   3.092  1.00  0.00     0.014 C 
ATOM      3  C   UNL     1      -7.796   0.812   2.228  1.00  0.00     0.014 C 
ATOM      4  C   UNL     1      -6.615   2.556   3.776  1.00  0.00     0.030 C 
ATOM      5  C   UNL     1      -8.910   4.146   3.794  1.00  0.00     0.004 C 
ATOM      6  C   UNL     1      -6.383   0.210   1.987  1.00  0.00     0.013 C 
ATOM      7  C   UNL     1      -5.365   1.647   3.738  1.00  0.00    -0.063 C 
ATOM      8  C   UNL     1      -6.436   3.940   3.041  1.00  0.00    -0.003 C 
ATOM      9  C   UNL     1      -7.716   4.866   3.126  1.00  0.00    -0.011 C 
ATOM     10  C   UNL     1      -5.411   0.206   3.209  1.00  0.00    -0.006 C 
ATOM     11  C   UNL     1      -4.280   2.097   4.394  1.00  0.00    -0.027 C 
ATOM     12  C   UNL     1      -5.806   3.795   1.642  1.00  0.00     0.008 C 
ATOM     13  C   UNL     1      -8.172   5.494   1.791  1.00  0.00     0.008 C 
ATOM     14  C   UNL     1      -5.981  -0.714   4.355  1.00  0.00     0.017 C 
ATOM     15  C   UNL     1      -3.936  -0.313   2.788  1.00  0.00    -0.020 C 
ATOM     16  C   UNL     1      -2.972   1.373   4.484  1.00  0.00     0.032 C 
ATOM     17  C   UNL     1      -2.982  -0.117   4.038  1.00  0.00     0.006 C 
ATOM     18  C   UNL     1      -3.312   0.483   1.593  1.00  0.00     0.008 C 
ATOM     19  C   UNL     1      -4.044  -1.793   2.274  1.00  0.00     0.012 C 
ATOM     20  C   UNL     1      -1.509  -0.702   3.866  1.00  0.00    -0.025 C 
ATOM     21  C   UNL     1      -1.756   0.563   1.583  1.00  0.00     0.005 C 
ATOM     22  C   UNL     1      -0.955  -0.509   2.392  1.00  0.00     0.003 C 
ATOM     23  C   UNL     1      -0.514  -0.034   4.864  1.00  0.00     0.010 C 
ATOM     24  C   UNL     1      -1.594  -2.218   4.274  1.00  0.00     0.012 C 
ATOM     25  C   UNL     1       0.640  -0.288   2.247  1.00  0.00    -0.006 C 
ATOM     26  C   UNL     1       0.886  -0.660   4.851  1.00  0.00     0.033 C 
ATOM     27  C   UNL     1       1.488  -0.883   3.442  1.00  0.00     0.120 C 
ATOM     28  C   UNL     1       1.119  -0.938   0.912  1.00  0.00     0.014 C 
ATOM     29  C   UNL     1       1.035   1.218   2.124  1.00  0.00     0.014 C 
ENDROOT
BRANCH   1  30
ATOM     30  C   UNL     1      -8.484   1.019   4.661  1.00  0.00     0.048 C 
ATOM     31  O   UNL     1      -9.125  -0.059   4.563  1.00  0.00    -0.550 OA
ATOM     32  O   UNL     1      -8.187   1.493   5.941  1.00  0.00    -0.550 OA
ENDBRANCH   1  30
BRANCH  27  33
ATOM     33  O   UNL     1       1.869  -2.220   3.269  1.00  0.00    -0.393 OA
ATOM     34  H   UNL     1       2.336  -2.296   2.406  1.00  0.00     0.210 HD
ENDBRANCH  27  33
TORSDOF 2
ENDMDL
