MODEL 1
REMARK VINA RESULT:    -5.499      0.000      0.000
REMARK INTER + INTRA:          -5.660
REMARK INTER:                  -5.660
REMARK INTRA:                   0.000
REMARK UNBOUND:                 0.000
REMARK SMILES Oc1ccc2[nH]ccc2c1
REMARK SMILES IDX 3 1 4 2 5 3 9 4 8 5 7 6 6 7 10 8 2 9 1 11
REMARK H PARENT 6 10 1 12
REMARK Flexibility Score: inf
ROOT
ATOM      1  C   UNL     1       5.167  -3.327  -4.707  1.00  0.00     0.048 A 
ATOM      2  C   UNL     1       4.856  -2.159  -3.987  1.00  0.00     0.030 A 
ATOM      3  C   UNL     1       4.230  -2.304  -2.750  1.00  0.00     0.046 A 
ATOM      4  C   UNL     1       3.923  -3.537  -2.240  1.00  0.00     0.003 A 
ATOM      5  C   UNL     1       3.319  -3.339  -1.018  1.00  0.00     0.028 A 
ATOM      6  C   UNL     1       3.292  -1.958  -0.846  1.00  0.00     0.083 A 
ATOM      7  N   UNL     1       3.849  -1.331  -1.908  1.00  0.00    -0.361 N 
ATOM      8  C   UNL     1       4.218  -4.714  -2.927  1.00  0.00     0.056 A 
ATOM      9  C   UNL     1       4.852  -4.602  -4.183  1.00  0.00     0.116 A 
ATOM     10  H   UNL     1       3.959  -0.301  -2.040  1.00  0.00     0.166 HD
ENDROOT
BRANCH   9  11
ATOM     11  O   UNL     1       5.170  -5.742  -4.915  1.00  0.00    -0.508 OA
ATOM     12  H   UNL     1       4.453  -6.374  -5.249  1.00  0.00     0.293 HD
ENDBRANCH   9  11
TORSDOF 1
ENDMDL
MODEL 2
REMARK VINA RESULT:    -4.942      2.139      3.436
REMARK INTER + INTRA:          -5.087
REMARK INTER:                  -5.087
REMARK INTRA:                   0.000
REMARK UNBOUND:                 0.000
REMARK SMILES Oc1ccc2[nH]ccc2c1
REMARK SMILES IDX 3 1 4 2 5 3 9 4 8 5 7 6 6 7 10 8 2 9 1 11
REMARK H PARENT 6 10 1 12
REMARK Flexibility Score: inf
ROOT
ATOM      1  C   UNL     1       3.172  -2.261  -0.846  1.00  0.00     0.048 A 
ATOM      2  C   UNL     1       3.824  -1.591  -1.897  1.00  0.00     0.030 A 
ATOM      3  C   UNL     1       4.306  -2.356  -2.958  1.00  0.00     0.046 A 
ATOM      4  C   UNL     1       4.156  -3.716  -2.990  1.00  0.00     0.003 A 
ATOM      5  C   UNL     1       4.734  -4.167  -4.156  1.00  0.00     0.028 A 
ATOM      6  C   UNL     1       5.216  -3.025  -4.787  1.00  0.00     0.083 A 
ATOM      7  N   UNL     1       4.952  -1.921  -4.051  1.00  0.00    -0.361 N 
ATOM      8  C   UNL     1       3.515  -4.411  -1.965  1.00  0.00     0.056 A 
ATOM      9  C   UNL     1       3.015  -3.667  -0.876  1.00  0.00     0.116 A 
ATOM     10  H   UNL     1       5.202  -0.935  -4.288  1.00  0.00     0.166 HD
ENDROOT
BRANCH   9  11
ATOM     11  O   UNL     1       2.366  -4.306   0.177  1.00  0.00    -0.508 OA
ATOM     12  H   UNL     1       1.970  -3.785   0.949  1.00  0.00     0.293 HD
ENDBRANCH   9  11
TORSDOF 1
ENDMDL
MODEL 3
REMARK VINA RESULT:    -4.881      1.601      2.251
REMARK INTER + INTRA:          -5.023
REMARK INTER:                  -5.023
REMARK INTRA:                   0.000
REMARK UNBOUND:                 0.000
REMARK SMILES Oc1ccc2[nH]ccc2c1
REMARK SMILES IDX 3 1 4 2 5 3 9 4 8 5 7 6 6 7 10 8 2 9 1 11
REMARK H PARENT 6 10 1 12
REMARK Flexibility Score: inf
ROOT
ATOM      1  C   UNL     1       5.106  -4.271  -4.623  1.00  0.00     0.048 A 
ATOM      2  C   UNL     1       4.523  -4.881  -3.498  1.00  0.00     0.030 A 
ATOM      3  C   UNL     1       3.988  -4.053  -2.512  1.00  0.00     0.046 A 
ATOM      4  C   UNL     1       4.020  -2.689  -2.623  1.00  0.00     0.003 A 
ATOM      5  C   UNL     1       3.417  -2.169  -1.499  1.00  0.00     0.028 A 
ATOM      6  C   UNL     1       3.039  -3.277  -0.746  1.00  0.00     0.083 A 
ATOM      7  N   UNL     1       3.391  -4.425  -1.369  1.00  0.00    -0.361 N 
ATOM      8  C   UNL     1       4.590  -2.053  -3.725  1.00  0.00     0.056 A 
ATOM      9  C   UNL     1       5.142  -2.862  -4.741  1.00  0.00     0.116 A 
ATOM     10  H   UNL     1       3.228  -5.399  -1.027  1.00  0.00     0.166 HD
ENDROOT
BRANCH   9  11
ATOM     11  O   UNL     1       5.725  -2.282  -5.864  1.00  0.00    -0.508 OA
ATOM     12  H   UNL     1       5.544  -1.319  -6.117  1.00  0.00     0.293 HD
ENDBRANCH   9  11
TORSDOF 1
ENDMDL
MODEL 4
REMARK VINA RESULT:    -4.751      2.317      3.631
REMARK INTER + INTRA:          -4.890
REMARK INTER:                  -4.890
REMARK INTRA:                   0.000
REMARK UNBOUND:                 0.000
REMARK SMILES Oc1ccc2[nH]ccc2c1
REMARK SMILES IDX 3 1 4 2 5 3 9 4 8 5 7 6 6 7 10 8 2 9 1 11
REMARK H PARENT 6 10 1 12
REMARK Flexibility Score: inf
ROOT
ATOM      1  C   UNL     1       3.977  -4.700  -2.369  1.00  0.00     0.048 A 
ATOM      2  C   UNL     1       4.577  -4.700  -3.642  1.00  0.00     0.030 A 
ATOM      3  C   UNL     1       4.813  -3.469  -4.250  1.00  0.00     0.046 A 
ATOM      4  C   UNL     1       4.478  -2.289  -3.640  1.00  0.00     0.003 A 
ATOM      5  C   UNL     1       4.838  -1.268  -4.492  1.00  0.00     0.028 A 
ATOM      6  C   UNL     1       5.388  -1.899  -5.603  1.00  0.00     0.083 A 
ATOM      7  N   UNL     1       5.369  -3.244  -5.451  1.00  0.00    -0.361 N 
ATOM      8  C   UNL     1       3.883  -2.254  -2.380  1.00  0.00     0.056 A 
ATOM      9  C   UNL     1       3.630  -3.484  -1.737  1.00  0.00     0.116 A 
ATOM     10  H   UNL     1       5.719  -3.956  -6.130  1.00  0.00     0.166 HD
ENDROOT
BRANCH   9  11
ATOM     11  O   UNL     1       3.037  -3.511  -0.477  1.00  0.00    -0.508 OA
ATOM     12  H   UNL     1       3.061  -4.343   0.101  1.00  0.00     0.293 HD
ENDBRANCH   9  11
TORSDOF 1
ENDMDL
MODEL 5
REMARK VINA RESULT:    -4.728     11.683     12.720
REMARK INTER + INTRA:          -4.866
REMARK INTER:                  -4.866
REMARK INTRA:                   0.000
REMARK UNBOUND:                 0.000
REMARK SMILES Oc1ccc2[nH]ccc2c1
REMARK SMILES IDX 3 1 4 2 5 3 9 4 8 5 7 6 6 7 10 8 2 9 1 11
REMARK H PARENT 6 10 1 12
REMARK Flexibility Score: inf
ROOT
ATOM      1  C   UNL     1       3.676   7.442   2.945  1.00  0.00     0.048 A 
ATOM      2  C   UNL     1       4.571   6.409   2.612  1.00  0.00     0.030 A 
ATOM      3  C   UNL     1       5.730   6.751   1.918  1.00  0.00     0.046 A 
ATOM      4  C   UNL     1       6.002   8.046   1.566  1.00  0.00     0.003 A 
ATOM      5  C   UNL     1       7.207   8.049   0.899  1.00  0.00     0.028 A 
ATOM      6  C   UNL     1       7.615   6.718   0.883  1.00  0.00     0.083 A 
ATOM      7  N   UNL     1       6.709   5.930   1.506  1.00  0.00    -0.361 N 
ATOM      8  C   UNL     1       5.136   9.093   1.881  1.00  0.00     0.056 A 
ATOM      9  C   UNL     1       3.953   8.780   2.583  1.00  0.00     0.116 A 
ATOM     10  H   UNL     1       6.764   4.895   1.638  1.00  0.00     0.166 HD
ENDROOT
BRANCH   9  11
ATOM     11  O   UNL     1       3.050   9.784   2.925  1.00  0.00    -0.508 OA
ATOM     12  H   UNL     1       2.739  10.468   2.247  1.00  0.00     0.293 HD
ENDBRANCH   9  11
TORSDOF 1
ENDMDL
MODEL 6
REMARK VINA RESULT:    -4.680      1.529      3.048
REMARK INTER + INTRA:          -4.817
REMARK INTER:                  -4.817
REMARK INTRA:                   0.000
REMARK UNBOUND:                 0.000
REMARK SMILES Oc1ccc2[nH]ccc2c1
REMARK SMILES IDX 3 1 4 2 5 3 9 4 8 5 7 6 6 7 10 8 2 9 1 11
REMARK H PARENT 6 10 1 12
REMARK Flexibility Score: inf
ROOT
ATOM      1  C   UNL     1       3.845  -3.275  -1.764  1.00  0.00     0.048 A 
ATOM      2  C   UNL     1       4.124  -1.982  -2.245  1.00  0.00     0.030 A 
ATOM      3  C   UNL     1       4.639  -1.865  -3.535  1.00  0.00     0.046 A 
ATOM      4  C   UNL     1       4.870  -2.963  -4.320  1.00  0.00     0.003 A 
ATOM      5  C   UNL     1       5.374  -2.513  -5.520  1.00  0.00     0.028 A 
ATOM      6  C   UNL     1       5.421  -1.128  -5.397  1.00  0.00     0.083 A 
ATOM      7  N   UNL     1       4.972  -0.737  -4.182  1.00  0.00    -0.361 N 
ATOM      8  C   UNL     1       4.605  -4.257  -3.874  1.00  0.00     0.056 A 
ATOM      9  C   UNL     1       4.083  -4.411  -2.572  1.00  0.00     0.116 A 
ATOM     10  H   UNL     1       4.900   0.242  -3.825  1.00  0.00     0.166 HD
ENDROOT
BRANCH   9  11
ATOM     11  O   UNL     1       3.798  -5.679  -2.072  1.00  0.00    -0.508 OA
ATOM     12  H   UNL     1       3.474  -6.425  -2.675  1.00  0.00     0.293 HD
ENDBRANCH   9  11
TORSDOF 1
ENDMDL
MODEL 7
REMARK VINA RESULT:    -4.634      2.643      4.108
REMARK INTER + INTRA:          -4.769
REMARK INTER:                  -4.769
REMARK INTRA:                   0.000
REMARK UNBOUND:                 0.000
REMARK SMILES Oc1ccc2[nH]ccc2c1
REMARK SMILES IDX 3 1 4 2 5 3 9 4 8 5 7 6 6 7 10 8 2 9 1 11
REMARK H PARENT 6 10 1 12
REMARK Flexibility Score: inf
ROOT
ATOM      1  C   UNL     1       3.097  -3.219  -0.773  1.00  0.00     0.048 A 
ATOM      2  C   UNL     1       3.439  -4.317  -1.583  1.00  0.00     0.030 A 
ATOM      3  C   UNL     1       4.105  -4.061  -2.781  1.00  0.00     0.046 A 
ATOM      4  C   UNL     1       4.423  -2.787  -3.168  1.00  0.00     0.003 A 
ATOM      5  C   UNL     1       5.067  -2.874  -4.382  1.00  0.00     0.028 A 
ATOM      6  C   UNL     1       5.109  -4.234  -4.674  1.00  0.00     0.083 A 
ATOM      7  N   UNL     1       4.519  -4.954  -3.692  1.00  0.00    -0.361 N 
ATOM      8  C   UNL     1       4.099  -1.677  -2.390  1.00  0.00     0.056 A 
ATOM      9  C   UNL     1       3.424  -1.901  -1.171  1.00  0.00     0.116 A 
ATOM     10  H   UNL     1       4.411  -5.993  -3.656  1.00  0.00     0.166 HD
ENDROOT
BRANCH   9  11
ATOM     11  O   UNL     1       3.074  -0.832  -0.351  1.00  0.00    -0.508 OA
ATOM     12  H   UNL     1       2.107  -0.570  -0.206  1.00  0.00     0.293 HD
ENDBRANCH   9  11
TORSDOF 1
ENDMDL
MODEL 8
REMARK VINA RESULT:    -4.632     11.489     12.551
REMARK INTER + INTRA:          -4.768
REMARK INTER:                  -4.768
REMARK INTRA:                   0.000
REMARK UNBOUND:                 0.000
REMARK SMILES Oc1ccc2[nH]ccc2c1
REMARK SMILES IDX 3 1 4 2 5 3 9 4 8 5 7 6 6 7 10 8 2 9 1 11
REMARK H PARENT 6 10 1 12
REMARK Flexibility Score: inf
ROOT
ATOM      1  C   UNL     1       7.138   7.811   1.428  1.00  0.00     0.048 A 
ATOM      2  C   UNL     1       6.555   9.073   1.649  1.00  0.00     0.030 A 
ATOM      3  C   UNL     1       5.242   9.110   2.115  1.00  0.00     0.046 A 
ATOM      4  C   UNL     1       4.531   7.965   2.355  1.00  0.00     0.003 A 
ATOM      5  C   UNL     1       3.283   8.340   2.801  1.00  0.00     0.028 A 
ATOM      6  C   UNL     1       3.304   9.732   2.809  1.00  0.00     0.083 A 
ATOM      7  N   UNL     1       4.503  10.197   2.388  1.00  0.00    -0.361 N 
ATOM      8  C   UNL     1       5.079   6.700   2.147  1.00  0.00     0.056 A 
ATOM      9  C   UNL     1       6.407   6.627   1.675  1.00  0.00     0.116 A 
ATOM     10  H   UNL     1       4.790  11.197   2.298  1.00  0.00     0.166 HD
ENDROOT
BRANCH   9  11
ATOM     11  O   UNL     1       7.007   5.391   1.449  1.00  0.00    -0.508 OA
ATOM     12  H   UNL     1       6.740   4.568   1.976  1.00  0.00     0.293 HD
ENDBRANCH   9  11
TORSDOF 1
ENDMDL
MODEL 9
REMARK VINA RESULT:    -4.630     11.434     12.883
REMARK INTER + INTRA:          -4.765
REMARK INTER:                  -4.765
REMARK INTRA:                   0.000
REMARK UNBOUND:                 0.000
REMARK SMILES Oc1ccc2[nH]ccc2c1
REMARK SMILES IDX 3 1 4 2 5 3 9 4 8 5 7 6 6 7 10 8 2 9 1 11
REMARK H PARENT 6 10 1 12
REMARK Flexibility Score: inf
ROOT
ATOM      1  C   UNL     1       4.610   6.339   2.495  1.00  0.00     0.048 A 
ATOM      2  C   UNL     1       3.697   7.355   2.834  1.00  0.00     0.030 A 
ATOM      3  C   UNL     1       4.078   8.675   2.602  1.00  0.00     0.046 A 
ATOM      4  C   UNL     1       5.296   8.988   2.062  1.00  0.00     0.003 A 
ATOM      5  C   UNL     1       5.363  10.360   1.962  1.00  0.00     0.028 A 
ATOM      6  C   UNL     1       4.147  10.820   2.460  1.00  0.00     0.083 A 
ATOM      7  N   UNL     1       3.366   9.786   2.850  1.00  0.00    -0.361 N 
ATOM      8  C   UNL     1       6.223   8.007   1.715  1.00  0.00     0.056 A 
ATOM      9  C   UNL     1       5.869   6.659   1.937  1.00  0.00     0.116 A 
ATOM     10  H   UNL     1       2.407   9.845   3.259  1.00  0.00     0.166 HD
ENDROOT
BRANCH   9  11
ATOM     11  O   UNL     1       6.754   5.635   1.610  1.00  0.00    -0.508 OA
ATOM     12  H   UNL     1       6.518   4.931   0.921  1.00  0.00     0.293 HD
ENDBRANCH   9  11
TORSDOF 1
ENDMDL
