MODEL 1
REMARK VINA RESULT:     0.000      0.000      0.000
REMARK INTER + INTRA:          -0.108
REMARK INTER:                   0.000
REMARK INTRA:                  -0.108
REMARK UNBOUND:                -0.108
REMARK SMILES CCCCCO
REMARK SMILES IDX 4 1 3 2 2 3 1 4 5 5 6 6
REMARK H PARENT 6 7
REMARK Flexibility Score: inf
ROOT
ATOM      1  C   UNL     1       4.231  21.433 -48.032  1.00  0.00     0.028 C 
ENDROOT
BRANCH   1   2
ATOM      2  C   UNL     1       4.578  22.842 -47.524  1.00  0.00     0.002 C 
BRANCH   2   3
ATOM      3  C   UNL     1       4.025  23.949 -48.434  1.00  0.00    -0.003 C 
ATOM      4  C   UNL     1       5.092  24.552 -49.347  1.00  0.00     0.004 C 
ENDBRANCH   2   3
ENDBRANCH   1   2
BRANCH   1   5
ATOM      5  C   UNL     1       5.401  20.802 -48.789  1.00  0.00     0.156 C 
BRANCH   5   6
ATOM      6  O   UNL     1       5.277  21.048 -50.162  1.00  0.00    -0.396 OA
ATOM      7  H   UNL     1       5.236  20.158 -50.599  1.00  0.00     0.210 HD
ENDBRANCH   5   6
ENDBRANCH   1   5
TORSDOF 4
ENDMDL
MODEL 2
REMARK VINA RESULT:     0.000      3.108      4.146
REMARK INTER + INTRA:          -0.108
REMARK INTER:                   0.000
REMARK INTRA:                  -0.108
REMARK UNBOUND:                -0.108
REMARK SMILES CCCCCO
REMARK SMILES IDX 4 1 3 2 2 3 1 4 5 5 6 6
REMARK H PARENT 6 7
REMARK Flexibility Score: inf
ROOT
ATOM      1  C   UNL     1       3.085  22.406 -45.511  1.00  0.00     0.028 C 
ENDROOT
BRANCH   1   2
ATOM      2  C   UNL     1       3.353  21.879 -46.931  1.00  0.00     0.002 C 
BRANCH   2   3
ATOM      3  C   UNL     1       2.977  20.398 -47.091  1.00  0.00    -0.003 C 
ATOM      4  C   UNL     1       4.199  19.480 -47.134  1.00  0.00     0.004 C 
ENDBRANCH   2   3
ENDBRANCH   1   2
BRANCH   1   5
ATOM      5  C   UNL     1       4.342  22.350 -44.642  1.00  0.00     0.156 C 
BRANCH   5   6
ATOM      6  O   UNL     1       5.488  22.390 -45.448  1.00  0.00    -0.396 OA
ATOM      7  H   UNL     1       5.640  21.458 -45.755  1.00  0.00     0.210 HD
ENDBRANCH   5   6
ENDBRANCH   1   5
TORSDOF 4
ENDMDL
MODEL 3
REMARK VINA RESULT:     0.000     10.166     11.014
REMARK INTER + INTRA:          -0.108
REMARK INTER:                   0.000
REMARK INTRA:                  -0.108
REMARK UNBOUND:                -0.108
REMARK SMILES CCCCCO
REMARK SMILES IDX 4 1 3 2 2 3 1 4 5 5 6 6
REMARK H PARENT 6 7
REMARK Flexibility Score: inf
ROOT
ATOM      1  C   UNL     1      -0.127  15.214 -42.744  1.00  0.00     0.028 C 
ENDROOT
BRANCH   1   2
ATOM      2  C   UNL     1       0.315  16.088 -41.559  1.00  0.00     0.002 C 
BRANCH   2   3
ATOM      3  C   UNL     1      -0.647  15.994 -40.365  1.00  0.00    -0.003 C 
ATOM      4  C   UNL     1      -1.586  17.197 -40.266  1.00  0.00     0.004 C 
ENDBRANCH   2   3
ENDBRANCH   1   2
BRANCH   1   5
ATOM      5  C   UNL     1      -0.849  16.036 -43.813  1.00  0.00     0.156 C 
BRANCH   5   6
ATOM      6  O   UNL     1      -2.233  15.995 -43.599  1.00  0.00    -0.396 OA
ATOM      7  H   UNL     1      -2.476  15.034 -43.552  1.00  0.00     0.210 HD
ENDBRANCH   5   6
ENDBRANCH   1   5
TORSDOF 4
ENDMDL
MODEL 4
REMARK VINA RESULT:     0.000      5.589      6.961
REMARK INTER + INTRA:          -0.108
REMARK INTER:                   0.000
REMARK INTRA:                  -0.108
REMARK UNBOUND:                -0.108
REMARK SMILES CCCCCO
REMARK SMILES IDX 4 1 3 2 2 3 1 4 5 5 6 6
REMARK H PARENT 6 7
REMARK Flexibility Score: inf
ROOT
ATOM      1  C   UNL     1       1.269  18.707 -48.890  1.00  0.00     0.028 C 
ENDROOT
BRANCH   1   2
ATOM      2  C   UNL     1       1.206  17.540 -47.891  1.00  0.00     0.002 C 
BRANCH   2   3
ATOM      3  C   UNL     1       2.014  16.319 -48.360  1.00  0.00    -0.003 C 
ATOM      4  C   UNL     1       1.132  15.217 -48.947  1.00  0.00     0.004 C 
ENDBRANCH   2   3
ENDBRANCH   1   2
BRANCH   1   5
ATOM      5  C   UNL     1       0.022  18.760 -49.775  1.00  0.00     0.156 C 
BRANCH   5   6
ATOM      6  O   UNL     1       0.249  18.065 -50.969  1.00  0.00    -0.396 OA
ATOM      7  H   UNL     1       1.165  17.691 -50.900  1.00  0.00     0.210 HD
ENDBRANCH   5   6
ENDBRANCH   1   5
TORSDOF 4
ENDMDL
MODEL 5
REMARK VINA RESULT:     0.000     11.334     12.228
REMARK INTER + INTRA:          -0.108
REMARK INTER:                   0.000
REMARK INTRA:                  -0.108
REMARK UNBOUND:                -0.108
REMARK SMILES CCCCCO
REMARK SMILES IDX 4 1 3 2 2 3 1 4 5 5 6 6
REMARK H PARENT 6 7
REMARK Flexibility Score: inf
ROOT
ATOM      1  C   UNL     1       5.368  11.917 -43.922  1.00  0.00     0.028 C 
ENDROOT
BRANCH   1   2
ATOM      2  C   UNL     1       5.747  11.037 -42.720  1.00  0.00     0.002 C 
BRANCH   2   3
ATOM      3  C   UNL     1       6.315  11.853 -41.548  1.00  0.00    -0.003 C 
ATOM      4  C   UNL     1       7.839  11.776 -41.458  1.00  0.00     0.004 C 
ENDBRANCH   2   3
ENDBRANCH   1   2
BRANCH   1   5
ATOM      5  C   UNL     1       6.455  11.902 -44.998  1.00  0.00     0.156 C 
BRANCH   5   6
ATOM      6  O   UNL     1       7.331  12.979 -44.815  1.00  0.00    -0.396 OA
ATOM      7  H   UNL     1       8.112  12.618 -44.321  1.00  0.00     0.210 HD
ENDBRANCH   5   6
ENDBRANCH   1   5
TORSDOF 4
ENDMDL
MODEL 6
REMARK VINA RESULT:     0.000      9.368     10.266
REMARK INTER + INTRA:          -0.108
REMARK INTER:                   0.000
REMARK INTRA:                  -0.108
REMARK UNBOUND:                -0.108
REMARK SMILES CCCCCO
REMARK SMILES IDX 4 1 3 2 2 3 1 4 5 5 6 6
REMARK H PARENT 6 7
REMARK Flexibility Score: inf
ROOT
ATOM      1  C   UNL     1      -4.191  19.674 -45.852  1.00  0.00     0.028 C 
ENDROOT
BRANCH   1   2
ATOM      2  C   UNL     1      -3.296  19.652 -47.102  1.00  0.00     0.002 C 
BRANCH   2   3
ATOM      3  C   UNL     1      -2.591  18.301 -47.298  1.00  0.00    -0.003 C 
ATOM      4  C   UNL     1      -3.260  17.434 -48.365  1.00  0.00     0.004 C 
ENDBRANCH   2   3
ENDBRANCH   1   2
BRANCH   1   5
ATOM      5  C   UNL     1      -5.661  19.445 -46.206  1.00  0.00     0.156 C 
BRANCH   5   6
ATOM      6  O   UNL     1      -5.978  18.085 -46.094  1.00  0.00    -0.396 OA
ATOM      7  H   UNL     1      -5.467  17.623 -46.808  1.00  0.00     0.210 HD
ENDBRANCH   5   6
ENDBRANCH   1   5
TORSDOF 4
ENDMDL
MODEL 7
REMARK VINA RESULT:     0.000      8.434      9.442
REMARK INTER + INTRA:          -0.108
REMARK INTER:                   0.000
REMARK INTRA:                  -0.108
REMARK UNBOUND:                -0.108
REMARK SMILES CCCCCO
REMARK SMILES IDX 4 1 3 2 2 3 1 4 5 5 6 6
REMARK H PARENT 6 7
REMARK Flexibility Score: inf
ROOT
ATOM      1  C   UNL     1       3.225  15.613 -42.426  1.00  0.00     0.028 C 
ENDROOT
BRANCH   1   2
ATOM      2  C   UNL     1       2.910  15.478 -43.925  1.00  0.00     0.002 C 
BRANCH   2   3
ATOM      3  C   UNL     1       4.043  16.012 -44.815  1.00  0.00    -0.003 C 
ATOM      4  C   UNL     1       4.861  14.896 -45.465  1.00  0.00     0.004 C 
ENDBRANCH   2   3
ENDBRANCH   1   2
BRANCH   1   5
ATOM      5  C   UNL     1       3.812  14.321 -41.854  1.00  0.00     0.156 C 
BRANCH   5   6
ATOM      6  O   UNL     1       3.407  13.224 -42.625  1.00  0.00    -0.396 OA
ATOM      7  H   UNL     1       2.690  12.774 -42.107  1.00  0.00     0.210 HD
ENDBRANCH   5   6
ENDBRANCH   1   5
TORSDOF 4
ENDMDL
MODEL 8
REMARK VINA RESULT:     0.000      4.994      6.259
REMARK INTER + INTRA:          -0.108
REMARK INTER:                   0.000
REMARK INTRA:                  -0.108
REMARK UNBOUND:                -0.108
REMARK SMILES CCCCCO
REMARK SMILES IDX 4 1 3 2 2 3 1 4 5 5 6 6
REMARK H PARENT 6 7
REMARK Flexibility Score: inf
ROOT
ATOM      1  C   UNL     1       5.274  15.408 -46.746  1.00  0.00     0.028 C 
ENDROOT
BRANCH   1   2
ATOM      2  C   UNL     1       6.104  16.661 -46.422  1.00  0.00     0.002 C 
BRANCH   2   3
ATOM      3  C   UNL     1       5.342  17.660 -45.537  1.00  0.00    -0.003 C 
ATOM      4  C   UNL     1       4.779  18.840 -46.328  1.00  0.00     0.004 C 
ENDBRANCH   2   3
ENDBRANCH   1   2
BRANCH   1   5
ATOM      5  C   UNL     1       4.638  15.496 -48.134  1.00  0.00     0.156 C 
BRANCH   5   6
ATOM      6  O   UNL     1       3.341  16.016 -48.039  1.00  0.00    -0.396 OA
ATOM      7  H   UNL     1       3.299  16.494 -47.170  1.00  0.00     0.210 HD
ENDBRANCH   5   6
ENDBRANCH   1   5
TORSDOF 4
ENDMDL
MODEL 9
REMARK VINA RESULT:     0.000      6.732      7.387
REMARK INTER + INTRA:          -0.108
REMARK INTER:                   0.000
REMARK INTRA:                  -0.108
REMARK UNBOUND:                -0.108
REMARK SMILES CCCCCO
REMARK SMILES IDX 4 1 3 2 2 3 1 4 5 5 6 6
REMARK H PARENT 6 7
REMARK Flexibility Score: inf
ROOT
ATOM      1  C   UNL     1       3.414  18.807 -43.460  1.00  0.00     0.028 C 
ENDROOT
BRANCH   1   2
ATOM      2  C   UNL     1       4.445  19.879 -43.068  1.00  0.00     0.002 C 
BRANCH   2   3
ATOM      3  C   UNL     1       3.935  20.808 -41.956  1.00  0.00    -0.003 C 
ATOM      4  C   UNL     1       4.572  20.510 -40.598  1.00  0.00     0.004 C 
ENDBRANCH   2   3
ENDBRANCH   1   2
BRANCH   1   5
ATOM      5  C   UNL     1       3.662  17.489 -42.724  1.00  0.00     0.156 C 
BRANCH   5   6
ATOM      6  O   UNL     1       5.008  17.392 -42.348  1.00  0.00    -0.396 OA
ATOM      7  H   UNL     1       5.008  17.183 -41.378  1.00  0.00     0.210 HD
ENDBRANCH   5   6
ENDBRANCH   1   5
TORSDOF 4
ENDMDL
