MODEL 1
REMARK VINA RESULT:    -6.107      0.000      0.000
REMARK INTER + INTRA:         -19.117
REMARK INTER:                 -16.103
REMARK INTRA:                  -3.014
REMARK UNBOUND:                -3.014
REMARK SMILES CCCCCCCCCCCCCCCCCCCCCCCCCCCCCC(=O)[O-]
REMARK SMILES IDX 16 1 17 2 18 3 19 4 20 5 21 6 22 7 23 8 24 9 25 10 26 11
REMARK SMILES IDX 27 12 28 13 29 14 30 15 31 16 32 17 15 18 14 19 13 20 12 21
REMARK SMILES IDX 11 22 10 23 9 24 8 25 7 26 6 27 5 28 4 29 3 30 2 31 1 32
REMARK H PARENT
REMARK Flexibility Score: inf
ROOT
ATOM      1  C   UNL     1       6.260  -5.359 -35.363  1.00  0.00     0.000 C 
ENDROOT
BRANCH   1   2
ATOM      2  C   UNL     1       7.380  -5.065 -34.355  1.00  0.00     0.000 C 
BRANCH   2   3
ATOM      3  C   UNL     1       7.372  -6.040 -33.164  1.00  0.00     0.000 C 
BRANCH   3   4
ATOM      4  C   UNL     1       7.686  -7.486 -33.579  1.00  0.00     0.000 C 
BRANCH   4   5
ATOM      5  C   UNL     1       6.949  -8.523 -32.719  1.00  0.00     0.000 C 
BRANCH   5   6
ATOM      6  C   UNL     1       5.435  -8.267 -32.732  1.00  0.00     0.000 C 
BRANCH   6   7
ATOM      7  C   UNL     1       4.785  -8.417 -31.345  1.00  0.00     0.000 C 
BRANCH   7   8
ATOM      8  C   UNL     1       5.507  -9.374 -30.377  1.00  0.00     0.000 C 
BRANCH   8   9
ATOM      9  C   UNL     1       5.948  -8.691 -29.070  1.00  0.00     0.000 C 
BRANCH   9  10
ATOM     10  C   UNL     1       5.862  -7.155 -29.136  1.00  0.00     0.000 C 
BRANCH  10  11
ATOM     11  C   UNL     1       7.209  -6.419 -29.015  1.00  0.00     0.000 C 
BRANCH  11  12
ATOM     12  C   UNL     1       8.420  -7.343 -29.224  1.00  0.00     0.000 C 
BRANCH  12  13
ATOM     13  C   UNL     1       9.467  -7.130 -28.124  1.00  0.00     0.006 C 
BRANCH  13  14
ATOM     14  C   UNL     1       9.974  -8.468 -27.577  1.00  0.00     0.053 C 
BRANCH  14  15
ATOM     15  C   UNL     1      11.140  -8.961 -28.376  1.00  0.00     0.041 C 
ATOM     16  O   UNL     1      12.249  -8.362 -28.317  1.00  0.00    -0.550 OA
ATOM     17  O   UNL     1      11.010 -10.094 -29.170  1.00  0.00    -0.550 OA
ENDBRANCH  14  15
ENDBRANCH  13  14
ENDBRANCH  12  13
ENDBRANCH  11  12
ENDBRANCH  10  11
ENDBRANCH   9  10
ENDBRANCH   8   9
ENDBRANCH   7   8
ENDBRANCH   6   7
ENDBRANCH   5   6
ENDBRANCH   4   5
ENDBRANCH   3   4
ENDBRANCH   2   3
ENDBRANCH   1   2
BRANCH   1  18
ATOM     18  C   UNL     1       6.080  -4.230 -36.393  1.00  0.00     0.000 C 
BRANCH  18  19
ATOM     19  C   UNL     1       6.435  -2.843 -35.825  1.00  0.00     0.000 C 
BRANCH  19  20
ATOM     20  C   UNL     1       5.313  -2.158 -35.022  1.00  0.00     0.000 C 
BRANCH  20  21
ATOM     21  C   UNL     1       5.579  -0.663 -34.776  1.00  0.00     0.000 C 
BRANCH  21  22
ATOM     22  C   UNL     1       4.993  -0.159 -33.444  1.00  0.00     0.000 C 
BRANCH  22  23
ATOM     23  C   UNL     1       5.593   1.156 -32.912  1.00  0.00     0.000 C 
BRANCH  23  24
ATOM     24  C   UNL     1       7.129   1.184 -32.976  1.00  0.00    -0.000 C 
BRANCH  24  25
ATOM     25  C   UNL     1       7.773   1.530 -31.624  1.00  0.00    -0.000 C 
BRANCH  25  26
ATOM     26  C   UNL     1       6.735   1.915 -30.554  1.00  0.00    -0.000 C 
BRANCH  26  27
ATOM     27  C   UNL     1       6.865   1.074 -29.273  1.00  0.00    -0.000 C 
BRANCH  27  28
ATOM     28  C   UNL     1       6.319  -0.353 -29.451  1.00  0.00    -0.000 C 
BRANCH  28  29
ATOM     29  C   UNL     1       5.517  -0.834 -28.230  1.00  0.00    -0.000 C 
BRANCH  29  30
ATOM     30  C   UNL     1       6.334  -0.794 -26.930  1.00  0.00    -0.000 C 
BRANCH  30  31
ATOM     31  C   UNL     1       6.510  -2.202 -26.347  1.00  0.00    -0.003 C 
ATOM     32  C   UNL     1       6.233  -3.273 -27.398  1.00  0.00     0.004 C 
ENDBRANCH  30  31
ENDBRANCH  29  30
ENDBRANCH  28  29
ENDBRANCH  27  28
ENDBRANCH  26  27
ENDBRANCH  25  26
ENDBRANCH  24  25
ENDBRANCH  23  24
ENDBRANCH  22  23
ENDBRANCH  21  22
ENDBRANCH  20  21
ENDBRANCH  19  20
ENDBRANCH  18  19
ENDBRANCH   1  18
TORSDOF 28
ENDMDL
MODEL 2
REMARK VINA RESULT:    -5.971      3.288      8.963
REMARK INTER + INTRA:         -18.758
REMARK INTER:                 -15.590
REMARK INTRA:                  -3.168
REMARK UNBOUND:                -3.014
REMARK SMILES CCCCCCCCCCCCCCCCCCCCCCCCCCCCCC(=O)[O-]
REMARK SMILES IDX 16 1 17 2 18 3 19 4 20 5 21 6 22 7 23 8 24 9 25 10 26 11
REMARK SMILES IDX 27 12 28 13 29 14 30 15 31 16 32 17 15 18 14 19 13 20 12 21
REMARK SMILES IDX 11 22 10 23 9 24 8 25 7 26 6 27 5 28 4 29 3 30 2 31 1 32
REMARK H PARENT
REMARK Flexibility Score: inf
ROOT
ATOM      1  C   UNL     1       5.263  -0.422 -33.745  1.00  0.00     0.000 C 
ENDROOT
BRANCH   1   2
ATOM      2  C   UNL     1       5.917   0.926 -34.078  1.00  0.00     0.000 C 
BRANCH   2   3
ATOM      3  C   UNL     1       7.264   0.765 -34.805  1.00  0.00     0.000 C 
BRANCH   3   4
ATOM      4  C   UNL     1       7.293   1.481 -36.165  1.00  0.00     0.000 C 
BRANCH   4   5
ATOM      5  C   UNL     1       8.686   2.019 -36.521  1.00  0.00     0.000 C 
BRANCH   5   6
ATOM      6  C   UNL     1       9.750   1.463 -35.563  1.00  0.00     0.000 C 
BRANCH   6   7
ATOM      7  C   UNL     1      11.067   2.257 -35.597  1.00  0.00     0.000 C 
BRANCH   7   8
ATOM      8  C   UNL     1      11.962   2.106 -34.352  1.00  0.00     0.000 C 
BRANCH   8   9
ATOM      9  C   UNL     1      11.259   1.386 -33.187  1.00  0.00     0.000 C 
BRANCH   9  10
ATOM     10  C   UNL     1      11.110   2.271 -31.936  1.00  0.00     0.000 C 
BRANCH  10  11
ATOM     11  C   UNL     1       9.991   1.849 -30.965  1.00  0.00     0.000 C 
BRANCH  11  12
ATOM     12  C   UNL     1       8.654   1.574 -31.672  1.00  0.00     0.000 C 
BRANCH  12  13
ATOM     13  C   UNL     1       7.472   1.907 -30.753  1.00  0.00     0.006 C 
BRANCH  13  14
ATOM     14  C   UNL     1       6.637   0.659 -30.452  1.00  0.00     0.053 C 
BRANCH  14  15
ATOM     15  C   UNL     1       6.821   0.227 -29.031  1.00  0.00     0.041 C 
ATOM     16  O   UNL     1       6.253  -0.815 -28.604  1.00  0.00    -0.550 OA
ATOM     17  O   UNL     1       7.639   0.963 -28.181  1.00  0.00    -0.550 OA
ENDBRANCH  14  15
ENDBRANCH  13  14
ENDBRANCH  12  13
ENDBRANCH  11  12
ENDBRANCH  10  11
ENDBRANCH   9  10
ENDBRANCH   8   9
ENDBRANCH   7   8
ENDBRANCH   6   7
ENDBRANCH   5   6
ENDBRANCH   4   5
ENDBRANCH   3   4
ENDBRANCH   2   3
ENDBRANCH   1   2
BRANCH   1  18
ATOM     18  C   UNL     1       4.922  -1.241 -35.003  1.00  0.00     0.000 C 
BRANCH  18  19
ATOM     19  C   UNL     1       5.618  -2.615 -35.027  1.00  0.00     0.000 C 
BRANCH  19  20
ATOM     20  C   UNL     1       6.662  -2.800 -36.145  1.00  0.00     0.000 C 
BRANCH  20  21
ATOM     21  C   UNL     1       7.381  -4.157 -36.073  1.00  0.00     0.000 C 
BRANCH  21  22
ATOM     22  C   UNL     1       6.568  -5.231 -35.327  1.00  0.00     0.000 C 
BRANCH  22  23
ATOM     23  C   UNL     1       7.341  -6.021 -34.254  1.00  0.00     0.000 C 
BRANCH  23  24
ATOM     24  C   UNL     1       6.580  -7.261 -33.756  1.00  0.00    -0.000 C 
BRANCH  24  25
ATOM     25  C   UNL     1       7.513  -8.338 -33.179  1.00  0.00    -0.000 C 
BRANCH  25  26
ATOM     26  C   UNL     1       6.744  -9.520 -32.563  1.00  0.00    -0.000 C 
BRANCH  26  27
ATOM     27  C   UNL     1       7.247  -9.886 -31.157  1.00  0.00    -0.000 C 
BRANCH  27  28
ATOM     28  C   UNL     1       6.149  -9.752 -30.087  1.00  0.00    -0.000 C 
BRANCH  28  29
ATOM     29  C   UNL     1       5.999  -8.311 -29.572  1.00  0.00    -0.000 C 
BRANCH  29  30
ATOM     30  C   UNL     1       7.293  -7.768 -28.945  1.00  0.00    -0.000 C 
BRANCH  30  31
ATOM     31  C   UNL     1       7.352  -6.238 -29.042  1.00  0.00    -0.003 C 
ATOM     32  C   UNL     1       7.592  -5.785 -30.480  1.00  0.00     0.004 C 
ENDBRANCH  30  31
ENDBRANCH  29  30
ENDBRANCH  28  29
ENDBRANCH  27  28
ENDBRANCH  26  27
ENDBRANCH  25  26
ENDBRANCH  24  25
ENDBRANCH  23  24
ENDBRANCH  22  23
ENDBRANCH  21  22
ENDBRANCH  20  21
ENDBRANCH  19  20
ENDBRANCH  18  19
ENDBRANCH   1  18
TORSDOF 28
ENDMDL
MODEL 3
REMARK VINA RESULT:    -5.966      3.857      9.040
REMARK INTER + INTRA:         -18.745
REMARK INTER:                 -16.062
REMARK INTRA:                  -2.683
REMARK UNBOUND:                -3.014
REMARK SMILES CCCCCCCCCCCCCCCCCCCCCCCCCCCCCC(=O)[O-]
REMARK SMILES IDX 16 1 17 2 18 3 19 4 20 5 21 6 22 7 23 8 24 9 25 10 26 11
REMARK SMILES IDX 27 12 28 13 29 14 30 15 31 16 32 17 15 18 14 19 13 20 12 21
REMARK SMILES IDX 11 22 10 23 9 24 8 25 7 26 6 27 5 28 4 29 3 30 2 31 1 32
REMARK H PARENT
REMARK Flexibility Score: inf
ROOT
ATOM      1  C   UNL     1       8.507   2.226 -36.529  1.00  0.00     0.000 C 
ENDROOT
BRANCH   1   2
ATOM      2  C   UNL     1       8.830   1.482 -35.225  1.00  0.00     0.000 C 
BRANCH   2   3
ATOM      3  C   UNL     1      10.342   1.419 -34.941  1.00  0.00     0.000 C 
BRANCH   3   4
ATOM      4  C   UNL     1      11.148   2.410 -35.795  1.00  0.00     0.000 C 
BRANCH   4   5
ATOM      5  C   UNL     1      12.631   2.460 -35.405  1.00  0.00     0.000 C 
BRANCH   5   6
ATOM      6  C   UNL     1      12.876   1.710 -34.087  1.00  0.00     0.000 C 
BRANCH   6   7
ATOM      7  C   UNL     1      13.568   2.576 -33.019  1.00  0.00     0.000 C 
BRANCH   7   8
ATOM      8  C   UNL     1      12.836   2.668 -31.667  1.00  0.00     0.000 C 
BRANCH   8   9
ATOM      9  C   UNL     1      11.325   2.915 -31.815  1.00  0.00     0.000 C 
BRANCH   9  10
ATOM     10  C   UNL     1      10.479   1.663 -31.515  1.00  0.00     0.000 C 
BRANCH  10  11
ATOM     11  C   UNL     1       9.108   1.939 -30.870  1.00  0.00     0.000 C 
BRANCH  11  12
ATOM     12  C   UNL     1       7.929   1.554 -31.777  1.00  0.00     0.000 C 
BRANCH  12  13
ATOM     13  C   UNL     1       6.785   0.944 -30.958  1.00  0.00     0.006 C 
BRANCH  13  14
ATOM     14  C   UNL     1       7.040   1.095 -29.455  1.00  0.00     0.053 C 
BRANCH  14  15
ATOM     15  C   UNL     1       6.740  -0.183 -28.735  1.00  0.00     0.041 C 
ATOM     16  O   UNL     1       7.646  -1.045 -28.565  1.00  0.00    -0.550 OA
ATOM     17  O   UNL     1       5.466  -0.414 -28.230  1.00  0.00    -0.550 OA
ENDBRANCH  14  15
ENDBRANCH  13  14
ENDBRANCH  12  13
ENDBRANCH  11  12
ENDBRANCH  10  11
ENDBRANCH   9  10
ENDBRANCH   8   9
ENDBRANCH   7   8
ENDBRANCH   6   7
ENDBRANCH   5   6
ENDBRANCH   4   5
ENDBRANCH   3   4
ENDBRANCH   2   3
ENDBRANCH   1   2
BRANCH   1  18
ATOM     18  C   UNL     1       7.862   1.312 -37.586  1.00  0.00     0.000 C 
BRANCH  18  19
ATOM     19  C   UNL     1       8.868   0.338 -38.227  1.00  0.00     0.000 C 
BRANCH  19  20
ATOM     20  C   UNL     1       8.547  -1.156 -38.032  1.00  0.00     0.000 C 
BRANCH  20  21
ATOM     21  C   UNL     1       7.578  -1.414 -36.866  1.00  0.00     0.000 C 
BRANCH  21  22
ATOM     22  C   UNL     1       7.360  -2.912 -36.584  1.00  0.00     0.000 C 
BRANCH  22  23
ATOM     23  C   UNL     1       6.024  -3.272 -35.908  1.00  0.00     0.000 C 
BRANCH  23  24
ATOM     24  C   UNL     1       6.162  -4.390 -34.861  1.00  0.00    -0.000 C 
BRANCH  24  25
ATOM     25  C   UNL     1       7.417  -5.251 -35.074  1.00  0.00    -0.000 C 
BRANCH  25  26
ATOM     26  C   UNL     1       7.531  -6.394 -34.049  1.00  0.00    -0.000 C 
BRANCH  26  27
ATOM     27  C   UNL     1       7.670  -5.884 -32.606  1.00  0.00    -0.000 C 
BRANCH  27  28
ATOM     28  C   UNL     1       6.546  -6.402 -31.690  1.00  0.00    -0.000 C 
BRANCH  28  29
ATOM     29  C   UNL     1       6.720  -7.885 -31.325  1.00  0.00    -0.000 C 
BRANCH  29  30
ATOM     30  C   UNL     1       5.418  -8.529 -30.823  1.00  0.00    -0.000 C 
BRANCH  30  31
ATOM     31  C   UNL     1       4.217  -8.058 -31.651  1.00  0.00    -0.003 C 
ATOM     32  C   UNL     1       4.185  -8.742 -33.016  1.00  0.00     0.004 C 
ENDBRANCH  30  31
ENDBRANCH  29  30
ENDBRANCH  28  29
ENDBRANCH  27  28
ENDBRANCH  26  27
ENDBRANCH  25  26
ENDBRANCH  24  25
ENDBRANCH  23  24
ENDBRANCH  22  23
ENDBRANCH  21  22
ENDBRANCH  20  21
ENDBRANCH  19  20
ENDBRANCH  18  19
ENDBRANCH   1  18
TORSDOF 28
ENDMDL
MODEL 4
REMARK VINA RESULT:    -5.937      4.484      8.033
REMARK INTER + INTRA:         -18.669
REMARK INTER:                 -13.622
REMARK INTRA:                  -5.048
REMARK UNBOUND:                -3.014
REMARK SMILES CCCCCCCCCCCCCCCCCCCCCCCCCCCCCC(=O)[O-]
REMARK SMILES IDX 16 1 17 2 18 3 19 4 20 5 21 6 22 7 23 8 24 9 25 10 26 11
REMARK SMILES IDX 27 12 28 13 29 14 30 15 31 16 32 17 15 18 14 19 13 20 12 21
REMARK SMILES IDX 11 22 10 23 9 24 8 25 7 26 6 27 5 28 4 29 3 30 2 31 1 32
REMARK H PARENT
REMARK Flexibility Score: inf
ROOT
ATOM      1  C   UNL     1       7.410  -9.990 -29.082  1.00  0.00     0.000 C 
ENDROOT
BRANCH   1   2
ATOM      2  C   UNL     1       8.070 -11.244 -29.670  1.00  0.00     0.000 C 
BRANCH   2   3
ATOM      3  C   UNL     1       9.225 -11.768 -28.796  1.00  0.00     0.000 C 
BRANCH   3   4
ATOM      4  C   UNL     1       8.810 -12.957 -27.917  1.00  0.00     0.000 C 
BRANCH   4   5
ATOM      5  C   UNL     1       9.035 -12.695 -26.421  1.00  0.00     0.000 C 
BRANCH   5   6
ATOM      6  C   UNL     1       9.723 -11.340 -26.200  1.00  0.00     0.000 C 
BRANCH   6   7
ATOM      7  C   UNL     1      10.483 -11.259 -24.864  1.00  0.00     0.000 C 
BRANCH   7   8
ATOM      8  C   UNL     1      11.443 -10.063 -24.722  1.00  0.00     0.000 C 
BRANCH   8   9
ATOM      9  C   UNL     1      12.578 -10.073 -25.761  1.00  0.00     0.000 C 
BRANCH   9  10
ATOM     10  C   UNL     1      12.477  -8.915 -26.773  1.00  0.00     0.000 C 
BRANCH  10  11
ATOM     11  C   UNL     1      12.010  -9.319 -28.184  1.00  0.00     0.000 C 
BRANCH  11  12
ATOM     12  C   UNL     1      10.828  -8.477 -28.689  1.00  0.00     0.000 C 
BRANCH  12  13
ATOM     13  C   UNL     1      10.020  -7.909 -27.516  1.00  0.00     0.006 C 
BRANCH  13  14
ATOM     14  C   UNL     1       8.991  -6.882 -27.999  1.00  0.00     0.053 C 
BRANCH  14  15
ATOM     15  C   UNL     1       9.464  -5.488 -27.725  1.00  0.00     0.041 C 
ATOM     16  O   UNL     1       8.666  -4.626 -27.264  1.00  0.00    -0.550 OA
ATOM     17  O   UNL     1      10.791  -5.145 -27.958  1.00  0.00    -0.550 OA
ENDBRANCH  14  15
ENDBRANCH  13  14
ENDBRANCH  12  13
ENDBRANCH  11  12
ENDBRANCH  10  11
ENDBRANCH   9  10
ENDBRANCH   8   9
ENDBRANCH   7   8
ENDBRANCH   6   7
ENDBRANCH   5   6
ENDBRANCH   4   5
ENDBRANCH   3   4
ENDBRANCH   2   3
ENDBRANCH   1   2
BRANCH   1  18
ATOM     18  C   UNL     1       5.990  -9.758 -29.628  1.00  0.00     0.000 C 
BRANCH  18  19
ATOM     19  C   UNL     1       5.684  -8.271 -29.883  1.00  0.00     0.000 C 
BRANCH  19  20
ATOM     20  C   UNL     1       4.595  -7.999 -30.938  1.00  0.00     0.000 C 
BRANCH  20  21
ATOM     21  C   UNL     1       4.609  -9.017 -32.091  1.00  0.00     0.000 C 
BRANCH  21  22
ATOM     22  C   UNL     1       4.292  -8.384 -33.458  1.00  0.00     0.000 C 
BRANCH  22  23
ATOM     23  C   UNL     1       5.466  -8.333 -34.453  1.00  0.00     0.000 C 
BRANCH  23  24
ATOM     24  C   UNL     1       5.939  -6.901 -34.753  1.00  0.00    -0.000 C 
BRANCH  24  25
ATOM     25  C   UNL     1       7.319  -6.593 -34.149  1.00  0.00    -0.000 C 
BRANCH  25  26
ATOM     26  C   UNL     1       7.263  -6.367 -32.628  1.00  0.00    -0.000 C 
BRANCH  26  27
ATOM     27  C   UNL     1       8.329  -7.176 -31.870  1.00  0.00    -0.000 C 
BRANCH  27  28
ATOM     28  C   UNL     1       8.482  -8.605 -32.419  1.00  0.00    -0.000 C 
BRANCH  28  29
ATOM     29  C   UNL     1       9.845  -9.227 -32.073  1.00  0.00    -0.000 C 
BRANCH  29  30
ATOM     30  C   UNL     1      10.463  -9.995 -33.252  1.00  0.00    -0.000 C 
BRANCH  30  31
ATOM     31  C   UNL     1      11.899 -10.430 -32.934  1.00  0.00    -0.003 C 
ATOM     32  C   UNL     1      12.907  -9.690 -33.810  1.00  0.00     0.004 C 
ENDBRANCH  30  31
ENDBRANCH  29  30
ENDBRANCH  28  29
ENDBRANCH  27  28
ENDBRANCH  26  27
ENDBRANCH  25  26
ENDBRANCH  24  25
ENDBRANCH  23  24
ENDBRANCH  22  23
ENDBRANCH  21  22
ENDBRANCH  20  21
ENDBRANCH  19  20
ENDBRANCH  18  19
ENDBRANCH   1  18
TORSDOF 28
ENDMDL
MODEL 5
REMARK VINA RESULT:    -5.899      4.446      8.054
REMARK INTER + INTRA:         -18.568
REMARK INTER:                 -12.901
REMARK INTRA:                  -5.667
REMARK UNBOUND:                -3.014
REMARK SMILES CCCCCCCCCCCCCCCCCCCCCCCCCCCCCC(=O)[O-]
REMARK SMILES IDX 16 1 17 2 18 3 19 4 20 5 21 6 22 7 23 8 24 9 25 10 26 11
REMARK SMILES IDX 27 12 28 13 29 14 30 15 31 16 32 17 15 18 14 19 13 20 12 21
REMARK SMILES IDX 11 22 10 23 9 24 8 25 7 26 6 27 5 28 4 29 3 30 2 31 1 32
REMARK H PARENT
REMARK Flexibility Score: inf
ROOT
ATOM      1  C   UNL     1       4.708  -7.856 -30.609  1.00  0.00     0.000 C 
ENDROOT
BRANCH   1   2
ATOM      2  C   UNL     1       5.566  -8.251 -29.399  1.00  0.00     0.000 C 
BRANCH   2   3
ATOM      3  C   UNL     1       6.685  -9.241 -29.767  1.00  0.00     0.000 C 
BRANCH   3   4
ATOM      4  C   UNL     1       7.814  -9.275 -28.725  1.00  0.00     0.000 C 
BRANCH   4   5
ATOM      5  C   UNL     1       8.937  -8.275 -29.034  1.00  0.00     0.000 C 
BRANCH   5   6
ATOM      6  C   UNL     1       9.000  -7.174 -27.965  1.00  0.00     0.000 C 
BRANCH   6   7
ATOM      7  C   UNL     1      10.270  -7.246 -27.099  1.00  0.00     0.000 C 
BRANCH   7   8
ATOM      8  C   UNL     1      10.832  -8.661 -26.865  1.00  0.00     0.000 C 
BRANCH   8   9
ATOM      9  C   UNL     1      12.155  -8.916 -27.611  1.00  0.00     0.000 C 
BRANCH   9  10
ATOM     10  C   UNL     1      12.290 -10.364 -28.116  1.00  0.00     0.000 C 
BRANCH  10  11
ATOM     11  C   UNL     1      11.367 -10.736 -29.291  1.00  0.00     0.000 C 
BRANCH  11  12
ATOM     12  C   UNL     1      11.626 -12.150 -29.835  1.00  0.00     0.000 C 
BRANCH  12  13
ATOM     13  C   UNL     1      10.698 -13.171 -29.167  1.00  0.00     0.006 C 
BRANCH  13  14
ATOM     14  C   UNL     1       9.377 -12.522 -28.739  1.00  0.00     0.053 C 
BRANCH  14  15
ATOM     15  C   UNL     1       9.110 -12.769 -27.287  1.00  0.00     0.041 C 
ATOM     16  O   UNL     1       9.684 -12.070 -26.408  1.00  0.00    -0.550 OA
ATOM     17  O   UNL     1       8.210 -13.757 -26.904  1.00  0.00    -0.550 OA
ENDBRANCH  14  15
ENDBRANCH  13  14
ENDBRANCH  12  13
ENDBRANCH  11  12
ENDBRANCH  10  11
ENDBRANCH   9  10
ENDBRANCH   8   9
ENDBRANCH   7   8
ENDBRANCH   6   7
ENDBRANCH   5   6
ENDBRANCH   4   5
ENDBRANCH   3   4
ENDBRANCH   2   3
ENDBRANCH   1   2
BRANCH   1  18
ATOM     18  C   UNL     1       4.973  -8.745 -31.837  1.00  0.00     0.000 C 
BRANCH  18  19
ATOM     19  C   UNL     1       3.955  -8.518 -32.969  1.00  0.00     0.000 C 
BRANCH  19  20
ATOM     20  C   UNL     1       4.565  -8.355 -34.374  1.00  0.00     0.000 C 
BRANCH  20  21
ATOM     21  C   UNL     1       4.697  -9.689 -35.129  1.00  0.00     0.000 C 
BRANCH  21  22
ATOM     22  C   UNL     1       6.160 -10.140 -35.302  1.00  0.00     0.000 C 
BRANCH  22  23
ATOM     23  C   UNL     1       6.367 -11.652 -35.503  1.00  0.00     0.000 C 
BRANCH  23  24
ATOM     24  C   UNL     1       6.791 -12.378 -34.215  1.00  0.00    -0.000 C 
BRANCH  24  25
ATOM     25  C   UNL     1       6.924 -11.427 -33.014  1.00  0.00    -0.000 C 
BRANCH  25  26
ATOM     26  C   UNL     1       8.236 -11.636 -32.236  1.00  0.00    -0.000 C 
BRANCH  26  27
ATOM     27  C   UNL     1       9.122 -10.380 -32.222  1.00  0.00    -0.000 C 
BRANCH  27  28
ATOM     28  C   UNL     1       8.689  -9.344 -33.274  1.00  0.00    -0.000 C 
BRANCH  28  29
ATOM     29  C   UNL     1       8.509  -7.938 -32.678  1.00  0.00    -0.000 C 
BRANCH  29  30
ATOM     30  C   UNL     1       7.780  -6.978 -33.632  1.00  0.00    -0.000 C 
BRANCH  30  31
ATOM     31  C   UNL     1       7.307  -5.721 -32.892  1.00  0.00    -0.003 C 
ATOM     32  C   UNL     1       7.577  -5.828 -31.393  1.00  0.00     0.004 C 
ENDBRANCH  30  31
ENDBRANCH  29  30
ENDBRANCH  28  29
ENDBRANCH  27  28
ENDBRANCH  26  27
ENDBRANCH  25  26
ENDBRANCH  24  25
ENDBRANCH  23  24
ENDBRANCH  22  23
ENDBRANCH  21  22
ENDBRANCH  20  21
ENDBRANCH  19  20
ENDBRANCH  18  19
ENDBRANCH   1  18
TORSDOF 28
ENDMDL
MODEL 6
REMARK VINA RESULT:    -5.888      3.033      7.278
REMARK INTER + INTRA:         -18.541
REMARK INTER:                 -14.111
REMARK INTRA:                  -4.430
REMARK UNBOUND:                -3.014
REMARK SMILES CCCCCCCCCCCCCCCCCCCCCCCCCCCCCC(=O)[O-]
REMARK SMILES IDX 16 1 17 2 18 3 19 4 20 5 21 6 22 7 23 8 24 9 25 10 26 11
REMARK SMILES IDX 27 12 28 13 29 14 30 15 31 16 32 17 15 18 14 19 13 20 12 21
REMARK SMILES IDX 11 22 10 23 9 24 8 25 7 26 6 27 5 28 4 29 3 30 2 31 1 32
REMARK H PARENT
REMARK Flexibility Score: inf
ROOT
ATOM      1  C   UNL     1       4.172  -8.198 -32.527  1.00  0.00     0.000 C 
ENDROOT
BRANCH   1   2
ATOM      2  C   UNL     1       4.714  -8.891 -31.270  1.00  0.00     0.000 C 
BRANCH   2   3
ATOM      3  C   UNL     1       5.152  -7.889 -30.186  1.00  0.00     0.000 C 
BRANCH   3   4
ATOM      4  C   UNL     1       6.018  -8.537 -29.094  1.00  0.00     0.000 C 
BRANCH   4   5
ATOM      5  C   UNL     1       6.737  -9.803 -29.581  1.00  0.00     0.000 C 
BRANCH   5   6
ATOM      6  C   UNL     1       8.139  -9.908 -28.962  1.00  0.00     0.000 C 
BRANCH   6   7
ATOM      7  C   UNL     1       8.962  -8.617 -29.109  1.00  0.00     0.000 C 
BRANCH   7   8
ATOM      8  C   UNL     1       9.402  -7.960 -27.786  1.00  0.00     0.000 C 
BRANCH   8   9
ATOM      9  C   UNL     1       9.179  -6.438 -27.765  1.00  0.00     0.000 C 
BRANCH   9  10
ATOM     10  C   UNL     1       8.448  -5.920 -29.018  1.00  0.00     0.000 C 
BRANCH  10  11
ATOM     11  C   UNL     1       7.246  -4.999 -28.740  1.00  0.00     0.000 C 
BRANCH  11  12
ATOM     12  C   UNL     1       7.645  -3.525 -28.564  1.00  0.00     0.000 C 
BRANCH  12  13
ATOM     13  C   UNL     1       6.607  -2.774 -27.723  1.00  0.00     0.006 C 
BRANCH  13  14
ATOM     14  C   UNL     1       5.765  -1.834 -28.593  1.00  0.00     0.053 C 
BRANCH  14  15
ATOM     15  C   UNL     1       6.336  -0.450 -28.584  1.00  0.00     0.041 C 
ATOM     16  O   UNL     1       6.245   0.281 -29.608  1.00  0.00    -0.550 OA
ATOM     17  O   UNL     1       6.949   0.042 -27.438  1.00  0.00    -0.550 OA
ENDBRANCH  14  15
ENDBRANCH  13  14
ENDBRANCH  12  13
ENDBRANCH  11  12
ENDBRANCH  10  11
ENDBRANCH   9  10
ENDBRANCH   8   9
ENDBRANCH   7   8
ENDBRANCH   6   7
ENDBRANCH   5   6
ENDBRANCH   4   5
ENDBRANCH   3   4
ENDBRANCH   2   3
ENDBRANCH   1   2
BRANCH   1  18
ATOM     18  C   UNL     1       4.035  -9.161 -33.720  1.00  0.00     0.000 C 
BRANCH  18  19
ATOM     19  C   UNL     1       4.776  -8.665 -34.976  1.00  0.00     0.000 C 
BRANCH  19  20
ATOM     20  C   UNL     1       6.162  -9.295 -35.209  1.00  0.00     0.000 C 
BRANCH  20  21
ATOM     21  C   UNL     1       6.447 -10.480 -34.270  1.00  0.00     0.000 C 
BRANCH  21  22
ATOM     22  C   UNL     1       7.518 -10.162 -33.209  1.00  0.00     0.000 C 
BRANCH  22  23
ATOM     23  C   UNL     1       8.343  -8.887 -33.462  1.00  0.00     0.000 C 
BRANCH  23  24
ATOM     24  C   UNL     1       8.031  -7.761 -32.462  1.00  0.00    -0.000 C 
BRANCH  24  25
ATOM     25  C   UNL     1       7.250  -6.601 -33.100  1.00  0.00    -0.000 C 
BRANCH  25  26
ATOM     26  C   UNL     1       8.168  -5.577 -33.791  1.00  0.00    -0.000 C 
BRANCH  26  27
ATOM     27  C   UNL     1       7.597  -5.079 -35.129  1.00  0.00    -0.000 C 
BRANCH  27  28
ATOM     28  C   UNL     1       6.225  -4.402 -34.966  1.00  0.00    -0.000 C 
BRANCH  28  29
ATOM     29  C   UNL     1       5.901  -3.440 -36.121  1.00  0.00    -0.000 C 
BRANCH  29  30
ATOM     30  C   UNL     1       6.208  -1.974 -35.776  1.00  0.00    -0.000 C 
BRANCH  30  31
ATOM     31  C   UNL     1       5.437  -1.530 -34.527  1.00  0.00    -0.003 C 
ATOM     32  C   UNL     1       5.050  -0.056 -34.612  1.00  0.00     0.004 C 
ENDBRANCH  30  31
ENDBRANCH  29  30
ENDBRANCH  28  29
ENDBRANCH  27  28
ENDBRANCH  26  27
ENDBRANCH  25  26
ENDBRANCH  24  25
ENDBRANCH  23  24
ENDBRANCH  22  23
ENDBRANCH  21  22
ENDBRANCH  20  21
ENDBRANCH  19  20
ENDBRANCH  18  19
ENDBRANCH   1  18
TORSDOF 28
ENDMDL
MODEL 7
REMARK VINA RESULT:    -5.887      4.497      7.479
REMARK INTER + INTRA:         -18.537
REMARK INTER:                 -12.926
REMARK INTRA:                  -5.611
REMARK UNBOUND:                -3.014
REMARK SMILES CCCCCCCCCCCCCCCCCCCCCCCCCCCCCC(=O)[O-]
REMARK SMILES IDX 16 1 17 2 18 3 19 4 20 5 21 6 22 7 23 8 24 9 25 10 26 11
REMARK SMILES IDX 27 12 28 13 29 14 30 15 31 16 32 17 15 18 14 19 13 20 12 21
REMARK SMILES IDX 11 22 10 23 9 24 8 25 7 26 6 27 5 28 4 29 3 30 2 31 1 32
REMARK H PARENT
REMARK Flexibility Score: inf
ROOT
ATOM      1  C   UNL     1       4.168  -8.565 -31.621  1.00  0.00     0.000 C 
ENDROOT
BRANCH   1   2
ATOM      2  C   UNL     1       5.133  -7.909 -30.624  1.00  0.00     0.000 C 
BRANCH   2   3
ATOM      3  C   UNL     1       5.852  -8.939 -29.735  1.00  0.00     0.000 C 
BRANCH   3   4
ATOM      4  C   UNL     1       7.167  -8.401 -29.148  1.00  0.00     0.000 C 
BRANCH   4   5
ATOM      5  C   UNL     1       8.086  -9.517 -28.631  1.00  0.00     0.000 C 
BRANCH   5   6
ATOM      6  C   UNL     1       8.214 -10.644 -29.666  1.00  0.00     0.000 C 
BRANCH   6   7
ATOM      7  C   UNL     1       8.808 -11.937 -29.080  1.00  0.00     0.000 C 
BRANCH   7   8
ATOM      8  C   UNL     1       9.092 -11.908 -27.566  1.00  0.00     0.000 C 
BRANCH   8   9
ATOM      9  C   UNL     1      10.589 -11.775 -27.236  1.00  0.00     0.000 C 
BRANCH   9  10
ATOM     10  C   UNL     1      10.992 -10.342 -26.839  1.00  0.00     0.000 C 
BRANCH  10  11
ATOM     11  C   UNL     1      12.060  -9.691 -27.738  1.00  0.00     0.000 C 
BRANCH  11  12
ATOM     12  C   UNL     1      12.298 -10.464 -29.044  1.00  0.00     0.000 C 
BRANCH  12  13
ATOM     13  C   UNL     1      11.729  -9.697 -30.245  1.00  0.00     0.006 C 
BRANCH  13  14
ATOM     14  C   UNL     1      11.498 -10.631 -31.438  1.00  0.00     0.053 C 
BRANCH  14  15
ATOM     15  C   UNL     1      11.909  -9.969 -32.716  1.00  0.00     0.041 C 
ATOM     16  O   UNL     1      12.354  -8.788 -32.706  1.00  0.00    -0.550 OA
ATOM     17  O   UNL     1      11.821 -10.662 -33.918  1.00  0.00    -0.550 OA
ENDBRANCH  14  15
ENDBRANCH  13  14
ENDBRANCH  12  13
ENDBRANCH  11  12
ENDBRANCH  10  11
ENDBRANCH   9  10
ENDBRANCH   8   9
ENDBRANCH   7   8
ENDBRANCH   6   7
ENDBRANCH   5   6
ENDBRANCH   4   5
ENDBRANCH   3   4
ENDBRANCH   2   3
ENDBRANCH   1   2
BRANCH   1  18
ATOM     18  C   UNL     1       4.337  -8.022 -33.051  1.00  0.00     0.000 C 
BRANCH  18  19
ATOM     19  C   UNL     1       3.573  -8.852 -34.099  1.00  0.00     0.000 C 
BRANCH  19  20
ATOM     20  C   UNL     1       4.433  -9.851 -34.896  1.00  0.00     0.000 C 
BRANCH  20  21
ATOM     21  C   UNL     1       4.453 -11.257 -34.271  1.00  0.00     0.000 C 
BRANCH  21  22
ATOM     22  C   UNL     1       5.878 -11.777 -34.006  1.00  0.00     0.000 C 
BRANCH  22  23
ATOM     23  C   UNL     1       6.631 -11.089 -32.851  1.00  0.00     0.000 C 
BRANCH  23  24
ATOM     24  C   UNL     1       7.905 -10.363 -33.312  1.00  0.00    -0.000 C 
BRANCH  24  25
ATOM     25  C   UNL     1       7.708  -8.844 -33.445  1.00  0.00    -0.000 C 
BRANCH  25  26
ATOM     26  C   UNL     1       8.697  -8.041 -32.581  1.00  0.00    -0.000 C 
BRANCH  26  27
ATOM     27  C   UNL     1       8.112  -6.703 -32.101  1.00  0.00    -0.000 C 
BRANCH  27  28
ATOM     28  C   UNL     1       7.190  -6.055 -33.149  1.00  0.00    -0.000 C 
BRANCH  28  29
ATOM     29  C   UNL     1       7.974  -5.330 -34.256  1.00  0.00    -0.000 C 
BRANCH  29  30
ATOM     30  C   UNL     1       7.063  -4.788 -35.369  1.00  0.00    -0.000 C 
BRANCH  30  31
ATOM     31  C   UNL     1       5.975  -5.805 -35.735  1.00  0.00    -0.003 C 
ATOM     32  C   UNL     1       4.977  -5.212 -36.727  1.00  0.00     0.004 C 
ENDBRANCH  30  31
ENDBRANCH  29  30
ENDBRANCH  28  29
ENDBRANCH  27  28
ENDBRANCH  26  27
ENDBRANCH  25  26
ENDBRANCH  24  25
ENDBRANCH  23  24
ENDBRANCH  22  23
ENDBRANCH  21  22
ENDBRANCH  20  21
ENDBRANCH  19  20
ENDBRANCH  18  19
ENDBRANCH   1  18
TORSDOF 28
ENDMDL
MODEL 8
REMARK VINA RESULT:    -5.847      4.101      8.253
REMARK INTER + INTRA:         -18.433
REMARK INTER:                 -12.978
REMARK INTRA:                  -5.455
REMARK UNBOUND:                -3.014
REMARK SMILES CCCCCCCCCCCCCCCCCCCCCCCCCCCCCC(=O)[O-]
REMARK SMILES IDX 16 1 17 2 18 3 19 4 20 5 21 6 22 7 23 8 24 9 25 10 26 11
REMARK SMILES IDX 27 12 28 13 29 14 30 15 31 16 32 17 15 18 14 19 13 20 12 21
REMARK SMILES IDX 11 22 10 23 9 24 8 25 7 26 6 27 5 28 4 29 3 30 2 31 1 32
REMARK H PARENT
REMARK Flexibility Score: inf
ROOT
ATOM      1  C   UNL     1      10.623  -9.492 -32.126  1.00  0.00     0.000 C 
ENDROOT
BRANCH   1   2
ATOM      2  C   UNL     1       9.479 -10.198 -32.868  1.00  0.00     0.000 C 
BRANCH   2   3
ATOM      3  C   UNL     1       8.275  -9.271 -33.113  1.00  0.00     0.000 C 
BRANCH   3   4
ATOM      4  C   UNL     1       8.440  -7.896 -32.446  1.00  0.00     0.000 C 
BRANCH   4   5
ATOM      5  C   UNL     1       7.531  -6.825 -33.064  1.00  0.00     0.000 C 
BRANCH   5   6
ATOM      6  C   UNL     1       7.362  -5.633 -32.110  1.00  0.00     0.000 C 
BRANCH   6   7
ATOM      7  C   UNL     1       8.089  -5.827 -30.767  1.00  0.00     0.000 C 
BRANCH   7   8
ATOM      8  C   UNL     1       7.551  -4.982 -29.596  1.00  0.00     0.000 C 
BRANCH   8   9
ATOM      9  C   UNL     1       7.948  -5.539 -28.218  1.00  0.00     0.000 C 
BRANCH   9  10
ATOM     10  C   UNL     1       9.473  -5.631 -28.024  1.00  0.00     0.000 C 
BRANCH  10  11
ATOM     11  C   UNL     1       9.963  -6.891 -27.286  1.00  0.00     0.000 C 
BRANCH  11  12
ATOM     12  C   UNL     1      11.255  -6.655 -26.487  1.00  0.00     0.000 C 
BRANCH  12  13
ATOM     13  C   UNL     1      11.577  -7.863 -25.599  1.00  0.00     0.006 C 
BRANCH  13  14
ATOM     14  C   UNL     1      11.348  -9.179 -26.350  1.00  0.00     0.053 C 
BRANCH  14  15
ATOM     15  C   UNL     1      11.331 -10.336 -25.400  1.00  0.00     0.041 C 
ATOM     16  O   UNL     1      10.398 -11.184 -25.450  1.00  0.00    -0.550 OA
ATOM     17  O   UNL     1      12.356 -10.492 -24.474  1.00  0.00    -0.550 OA
ENDBRANCH  14  15
ENDBRANCH  13  14
ENDBRANCH  12  13
ENDBRANCH  11  12
ENDBRANCH  10  11
ENDBRANCH   9  10
ENDBRANCH   8   9
ENDBRANCH   7   8
ENDBRANCH   6   7
ENDBRANCH   5   6
ENDBRANCH   4   5
ENDBRANCH   3   4
ENDBRANCH   2   3
ENDBRANCH   1   2
BRANCH   1  18
ATOM     18  C   UNL     1      11.817 -10.425 -31.857  1.00  0.00     0.000 C 
BRANCH  18  19
ATOM     19  C   UNL     1      11.911 -10.865 -30.384  1.00  0.00     0.000 C 
BRANCH  19  20
ATOM     20  C   UNL     1      11.505 -12.325 -30.110  1.00  0.00     0.000 C 
BRANCH  20  21
ATOM     21  C   UNL     1      10.821 -12.511 -28.745  1.00  0.00     0.000 C 
BRANCH  21  22
ATOM     22  C   UNL     1       9.304 -12.751 -28.860  1.00  0.00     0.000 C 
BRANCH  22  23
ATOM     23  C   UNL     1       8.472 -11.531 -29.296  1.00  0.00     0.000 C 
BRANCH  23  24
ATOM     24  C   UNL     1       8.910 -10.228 -28.609  1.00  0.00    -0.000 C 
BRANCH  24  25
ATOM     25  C   UNL     1       8.041  -9.024 -29.009  1.00  0.00    -0.000 C 
BRANCH  25  26
ATOM     26  C   UNL     1       6.613  -9.433 -29.411  1.00  0.00    -0.000 C 
BRANCH  26  27
ATOM     27  C   UNL     1       5.595  -8.297 -29.215  1.00  0.00    -0.000 C 
BRANCH  27  28
ATOM     28  C   UNL     1       5.009  -7.797 -30.547  1.00  0.00    -0.000 C 
BRANCH  28  29
ATOM     29  C   UNL     1       4.703  -8.945 -31.524  1.00  0.00    -0.000 C 
BRANCH  29  30
ATOM     30  C   UNL     1       4.168  -8.447 -32.875  1.00  0.00    -0.000 C 
BRANCH  30  31
ATOM     31  C   UNL     1       4.112  -9.587 -33.900  1.00  0.00    -0.003 C 
ATOM     32  C   UNL     1       4.958 -10.775 -33.449  1.00  0.00     0.004 C 
ENDBRANCH  30  31
ENDBRANCH  29  30
ENDBRANCH  28  29
ENDBRANCH  27  28
ENDBRANCH  26  27
ENDBRANCH  25  26
ENDBRANCH  24  25
ENDBRANCH  23  24
ENDBRANCH  22  23
ENDBRANCH  21  22
ENDBRANCH  20  21
ENDBRANCH  19  20
ENDBRANCH  18  19
ENDBRANCH   1  18
TORSDOF 28
ENDMDL
MODEL 9
REMARK VINA RESULT:    -5.803      4.434      7.766
REMARK INTER + INTRA:         -18.316
REMARK INTER:                 -12.484
REMARK INTRA:                  -5.832
REMARK UNBOUND:                -3.014
REMARK SMILES CCCCCCCCCCCCCCCCCCCCCCCCCCCCCC(=O)[O-]
REMARK SMILES IDX 16 1 17 2 18 3 19 4 20 5 21 6 22 7 23 8 24 9 25 10 26 11
REMARK SMILES IDX 27 12 28 13 29 14 30 15 31 16 32 17 15 18 14 19 13 20 12 21
REMARK SMILES IDX 11 22 10 23 9 24 8 25 7 26 6 27 5 28 4 29 3 30 2 31 1 32
REMARK H PARENT
REMARK Flexibility Score: inf
ROOT
ATOM      1  C   UNL     1       9.722 -10.673 -32.645  1.00  0.00     0.000 C 
ENDROOT
BRANCH   1   2
ATOM      2  C   UNL     1      10.754 -11.809 -32.584  1.00  0.00     0.000 C 
BRANCH   2   3
ATOM      3  C   UNL     1      10.343 -12.926 -31.608  1.00  0.00     0.000 C 
BRANCH   3   4
ATOM      4  C   UNL     1      11.333 -13.090 -30.444  1.00  0.00     0.000 C 
BRANCH   4   5
ATOM      5  C   UNL     1      10.637 -13.134 -29.077  1.00  0.00     0.000 C 
BRANCH   5   6
ATOM      6  C   UNL     1      10.981 -11.889 -28.246  1.00  0.00     0.000 C 
BRANCH   6   7
ATOM      7  C   UNL     1      12.002 -10.966 -28.936  1.00  0.00     0.000 C 
BRANCH   7   8
ATOM      8  C   UNL     1      12.252  -9.617 -28.235  1.00  0.00     0.000 C 
BRANCH   8   9
ATOM      9  C   UNL     1      11.163  -9.260 -27.208  1.00  0.00     0.000 C 
BRANCH   9  10
ATOM     10  C   UNL     1      11.685  -8.372 -26.063  1.00  0.00     0.000 C 
BRANCH  10  11
ATOM     11  C   UNL     1      11.533  -8.969 -24.652  1.00  0.00     0.000 C 
BRANCH  11  12
ATOM     12  C   UNL     1      11.468 -10.504 -24.652  1.00  0.00     0.000 C 
BRANCH  12  13
ATOM     13  C   UNL     1      12.774 -11.108 -24.122  1.00  0.00     0.006 C 
BRANCH  13  14
ATOM     14  C   UNL     1      13.804 -11.271 -25.245  1.00  0.00     0.053 C 
BRANCH  14  15
ATOM     15  C   UNL     1      14.848 -12.274 -24.865  1.00  0.00     0.041 C 
ATOM     16  O   UNL     1      14.666 -13.038 -23.877  1.00  0.00    -0.550 OA
ATOM     17  O   UNL     1      16.014 -12.382 -25.615  1.00  0.00    -0.550 OA
ENDBRANCH  14  15
ENDBRANCH  13  14
ENDBRANCH  12  13
ENDBRANCH  11  12
ENDBRANCH  10  11
ENDBRANCH   9  10
ENDBRANCH   8   9
ENDBRANCH   7   8
ENDBRANCH   6   7
ENDBRANCH   5   6
ENDBRANCH   4   5
ENDBRANCH   3   4
ENDBRANCH   2   3
ENDBRANCH   1   2
BRANCH   1  18
ATOM     18  C   UNL     1      10.241  -9.370 -32.012  1.00  0.00     0.000 C 
BRANCH  18  19
ATOM     19  C   UNL     1       9.486  -8.990 -30.724  1.00  0.00     0.000 C 
BRANCH  19  20
ATOM     20  C   UNL     1       8.433 -10.013 -30.257  1.00  0.00     0.000 C 
BRANCH  20  21
ATOM     21  C   UNL     1       7.644  -9.540 -29.025  1.00  0.00     0.000 C 
BRANCH  21  22
ATOM     22  C   UNL     1       6.181  -9.181 -29.349  1.00  0.00     0.000 C 
BRANCH  22  23
ATOM     23  C   UNL     1       5.689  -9.604 -30.745  1.00  0.00     0.000 C 
BRANCH  23  24
ATOM     24  C   UNL     1       4.630  -8.651 -31.323  1.00  0.00    -0.000 C 
BRANCH  24  25
ATOM     25  C   UNL     1       4.923  -8.250 -32.779  1.00  0.00    -0.000 C 
BRANCH  25  26
ATOM     26  C   UNL     1       6.426  -8.272 -33.108  1.00  0.00    -0.000 C 
BRANCH  26  27
ATOM     27  C   UNL     1       6.965  -6.889 -33.508  1.00  0.00    -0.000 C 
BRANCH  27  28
ATOM     28  C   UNL     1       7.890  -6.287 -32.436  1.00  0.00    -0.000 C 
BRANCH  28  29
ATOM     29  C   UNL     1       7.169  -6.057 -31.097  1.00  0.00    -0.000 C 
BRANCH  29  30
ATOM     30  C   UNL     1       8.035  -5.297 -30.080  1.00  0.00    -0.000 C 
BRANCH  30  31
ATOM     31  C   UNL     1       7.764  -5.786 -28.652  1.00  0.00    -0.003 C 
ATOM     32  C   UNL     1       9.029  -6.353 -28.013  1.00  0.00     0.004 C 
ENDBRANCH  30  31
ENDBRANCH  29  30
ENDBRANCH  28  29
ENDBRANCH  27  28
ENDBRANCH  26  27
ENDBRANCH  25  26
ENDBRANCH  24  25
ENDBRANCH  23  24
ENDBRANCH  22  23
ENDBRANCH  21  22
ENDBRANCH  20  21
ENDBRANCH  19  20
ENDBRANCH  18  19
ENDBRANCH   1  18
TORSDOF 28
ENDMDL
