MODEL 1
REMARK VINA RESULT:    -8.225      0.000      0.000
REMARK INTER + INTRA:         -12.843
REMARK INTER:                 -11.591
REMARK INTRA:                  -1.252
REMARK UNBOUND:                -1.252
REMARK SMILES COc1c(O[C@@H]2O[C@@H](C(=O)[O-])[C@H](O)[C@H](O)[C@H]2O)cc(O)c2c(=O)cc(-c3ccccc3)oc12
REMARK SMILES IDX 5 1 6 2 8 3 12 4 7 5 14 6 16 7 9 8 10 9 11 10 13 11 15 13
REMARK SMILES IDX 17 15 4 17 3 18 18 19 33 20 19 21 21 22 32 23 22 24 25 25
REMARK SMILES IDX 24 26 23 27 2 28 1 29 20 30 26 32 27 33 31 34 28 35 30 36
REMARK SMILES IDX 29 37
REMARK H PARENT 13 12 15 14 17 16 20 31
REMARK Flexibility Score: inf
ROOT
ATOM      1  O   UNL     1      14.606  59.811  19.860  1.00  0.00    -0.458 OA
ENDROOT
BRANCH   1   2
ATOM      2  C   UNL     1      15.781  60.641  19.752  1.00  0.00     0.339 C 
ATOM      3  C   UNL     1      16.077  60.376  22.054  1.00  0.00     0.199 C 
ATOM      4  C   UNL     1      15.467  61.778  22.366  1.00  0.00     0.180 C 
ATOM      5  O   UNL     1      16.686  60.267  20.773  1.00  0.00    -0.328 OA
ATOM      6  C   UNL     1      14.768  62.516  21.153  1.00  0.00     0.181 C 
ATOM      7  C   UNL     1      15.488  62.166  19.839  1.00  0.00     0.214 C 
BRANCH   3   8
ATOM      8  C   UNL     1      17.096  60.002  23.093  1.00  0.00     0.073 C 
ATOM      9  O   UNL     1      16.841  60.110  24.326  1.00  0.00    -0.547 OA
ATOM     10  O   UNL     1      18.328  59.486  22.696  1.00  0.00    -0.547 OA
ENDBRANCH   3   8
BRANCH   4  11
ATOM     11  O   UNL     1      14.621  61.700  23.486  1.00  0.00    -0.387 OA
ATOM     12  H   UNL     1      15.213  61.804  24.279  1.00  0.00     0.211 HD
ENDBRANCH   4  11
BRANCH   6  13
ATOM     13  O   UNL     1      13.373  62.288  20.973  1.00  0.00    -0.387 OA
ATOM     14  H   UNL     1      13.151  61.320  20.999  1.00  0.00     0.211 HD
ENDBRANCH   6  13
BRANCH   7  15
ATOM     15  O   UNL     1      16.688  62.890  19.703  1.00  0.00    -0.384 OA
ATOM     16  H   UNL     1      17.236  62.689  20.511  1.00  0.00     0.211 HD
ENDBRANCH   7  15
ENDBRANCH   1   2
BRANCH   1  17
ATOM     17  C   UNL     1      13.732  59.423  18.830  1.00  0.00     0.172 A 
ATOM     18  C   UNL     1      13.855  58.133  18.274  1.00  0.00     0.205 A 
ATOM     19  C   UNL     1      12.756  60.301  18.333  1.00  0.00     0.097 A 
ATOM     20  C   UNL     1      13.083  57.779  17.161  1.00  0.00     0.188 A 
ATOM     21  C   UNL     1      11.917  59.919  17.281  1.00  0.00     0.134 A 
ATOM     22  C   UNL     1      12.105  58.669  16.656  1.00  0.00     0.111 A 
ATOM     23  O   UNL     1      13.286  56.610  16.575  1.00  0.00    -0.452 OA
ATOM     24  C   UNL     1      11.360  58.250  15.539  1.00  0.00     0.197 A 
ATOM     25  C   UNL     1      12.597  56.178  15.513  1.00  0.00     0.138 A 
ATOM     26  C   UNL     1      11.592  56.998  14.972  1.00  0.00     0.100 A 
ATOM     27  O   UNL     1      10.528  59.036  14.983  1.00  0.00    -0.289 OA
BRANCH  18  28
ATOM     28  O   UNL     1      14.756  57.200  18.799  1.00  0.00    -0.490 OA
ATOM     29  C   UNL     1      16.125  57.134  18.399  1.00  0.00     0.278 C 
ENDBRANCH  18  28
BRANCH  21  30
ATOM     30  O   UNL     1      10.907  60.790  16.881  1.00  0.00    -0.507 OA
ATOM     31  H   UNL     1      11.006  61.785  17.069  1.00  0.00     0.293 HD
ENDBRANCH  21  30
BRANCH  25  32
ATOM     32  C   UNL     1      12.933  54.837  14.950  1.00  0.00     0.017 A 
ATOM     33  C   UNL     1      13.424  53.779  15.749  1.00  0.00     0.012 A 
ATOM     34  C   UNL     1      12.754  54.599  13.571  1.00  0.00     0.012 A 
ATOM     35  C   UNL     1      13.742  52.542  15.177  1.00  0.00     0.001 A 
ATOM     36  C   UNL     1      13.035  53.353  13.016  1.00  0.00     0.001 A 
ATOM     37  C   UNL     1      13.534  52.323  13.816  1.00  0.00     0.000 A 
ENDBRANCH  25  32
ENDBRANCH   1  17
TORSDOF 9
ENDMDL
MODEL 2
REMARK VINA RESULT:    -7.591      2.777      8.838
REMARK INTER + INTRA:         -11.950
REMARK INTER:                 -10.709
REMARK INTRA:                  -1.241
REMARK UNBOUND:                -1.252
REMARK SMILES COc1c(O[C@@H]2O[C@@H](C(=O)[O-])[C@H](O)[C@H](O)[C@H]2O)cc(O)c2c(=O)cc(-c3ccccc3)oc12
REMARK SMILES IDX 5 1 6 2 8 3 12 4 7 5 14 6 16 7 9 8 10 9 11 10 13 11 15 13
REMARK SMILES IDX 17 15 4 17 3 18 18 19 33 20 19 21 21 22 32 23 22 24 25 25
REMARK SMILES IDX 24 26 23 27 2 28 1 29 20 30 26 32 27 33 31 34 28 35 30 36
REMARK SMILES IDX 29 37
REMARK H PARENT 13 12 15 14 17 16 20 31
REMARK Flexibility Score: inf
ROOT
ATOM      1  O   UNL     1      13.005  54.960  14.661  1.00  0.00    -0.458 OA
ENDROOT
BRANCH   1   2
ATOM      2  C   UNL     1      12.268  54.236  13.654  1.00  0.00     0.339 C 
ATOM      3  C   UNL     1      11.930  52.549  15.235  1.00  0.00     0.199 C 
ATOM      4  C   UNL     1      13.063  51.660  14.634  1.00  0.00     0.180 C 
ATOM      5  O   UNL     1      11.307  53.425  14.302  1.00  0.00    -0.328 OA
ATOM      6  C   UNL     1      13.982  52.349  13.544  1.00  0.00     0.181 C 
ATOM      7  C   UNL     1      13.159  53.360  12.727  1.00  0.00     0.214 C 
BRANCH   3   8
ATOM      8  C   UNL     1      10.864  51.693  15.860  1.00  0.00     0.073 C 
ATOM      9  O   UNL     1       9.651  51.816  15.529  1.00  0.00    -0.547 OA
ATOM     10  O   UNL     1      11.220  50.719  16.789  1.00  0.00    -0.547 OA
ENDBRANCH   3   8
BRANCH   4  11
ATOM     11  O   UNL     1      13.823  51.083  15.666  1.00  0.00    -0.387 OA
ATOM     12  H   UNL     1      13.185  50.921  16.412  1.00  0.00     0.211 HD
ENDBRANCH   4  11
BRANCH   6  13
ATOM     13  O   UNL     1      15.159  53.004  14.010  1.00  0.00    -0.387 OA
ATOM     14  H   UNL     1      15.791  53.199  13.269  1.00  0.00     0.211 HD
ENDBRANCH   6  13
BRANCH   7  15
ATOM     15  O   UNL     1      12.355  52.712  11.769  1.00  0.00    -0.384 OA
ATOM     16  H   UNL     1      12.970  52.175  11.197  1.00  0.00     0.211 HD
ENDBRANCH   7  15
ENDBRANCH   1   2
BRANCH   1  17
ATOM     17  C   UNL     1      12.663  56.185  15.258  1.00  0.00     0.172 A 
ATOM     18  C   UNL     1      13.493  56.711  16.270  1.00  0.00     0.205 A 
ATOM     19  C   UNL     1      11.503  56.882  14.882  1.00  0.00     0.097 A 
ATOM     20  C   UNL     1      13.097  57.860  16.966  1.00  0.00     0.188 A 
ATOM     21  C   UNL     1      11.152  58.080  15.510  1.00  0.00     0.134 A 
ATOM     22  C   UNL     1      11.923  58.557  16.591  1.00  0.00     0.111 A 
ATOM     23  O   UNL     1      13.823  58.282  17.989  1.00  0.00    -0.452 OA
ATOM     24  C   UNL     1      11.586  59.706  17.328  1.00  0.00     0.197 A 
ATOM     25  C   UNL     1      13.534  59.370  18.712  1.00  0.00     0.138 A 
ATOM     26  C   UNL     1      12.396  60.125  18.380  1.00  0.00     0.100 A 
ATOM     27  O   UNL     1      10.498  60.326  17.098  1.00  0.00    -0.289 OA
BRANCH  18  28
ATOM     28  O   UNL     1      14.700  56.093  16.613  1.00  0.00    -0.490 OA
ATOM     29  C   UNL     1      15.954  56.471  16.043  1.00  0.00     0.278 C 
ENDBRANCH  18  28
BRANCH  21  30
ATOM     30  O   UNL     1      10.041  58.779  15.044  1.00  0.00    -0.507 OA
ATOM     31  H   UNL     1       9.682  58.576  14.114  1.00  0.00     0.293 HD
ENDBRANCH  21  30
BRANCH  25  32
ATOM     32  C   UNL     1      14.439  59.729  19.842  1.00  0.00     0.017 A 
ATOM     33  C   UNL     1      14.668  61.066  20.237  1.00  0.00     0.012 A 
ATOM     34  C   UNL     1      15.094  58.704  20.558  1.00  0.00     0.012 A 
ATOM     35  C   UNL     1      15.539  61.359  21.293  1.00  0.00     0.001 A 
ATOM     36  C   UNL     1      15.928  59.002  21.633  1.00  0.00     0.001 A 
ATOM     37  C   UNL     1      16.156  60.329  22.000  1.00  0.00     0.000 A 
ENDBRANCH  25  32
ENDBRANCH   1  17
TORSDOF 9
ENDMDL
MODEL 3
REMARK VINA RESULT:    -7.566      2.876      5.579
REMARK INTER + INTRA:         -11.915
REMARK INTER:                 -10.485
REMARK INTRA:                  -1.430
REMARK UNBOUND:                -1.252
REMARK SMILES COc1c(O[C@@H]2O[C@@H](C(=O)[O-])[C@H](O)[C@H](O)[C@H]2O)cc(O)c2c(=O)cc(-c3ccccc3)oc12
REMARK SMILES IDX 5 1 6 2 8 3 12 4 7 5 14 6 16 7 9 8 10 9 11 10 13 11 15 13
REMARK SMILES IDX 17 15 4 17 3 18 18 19 33 20 19 21 21 22 32 23 22 24 25 25
REMARK SMILES IDX 24 26 23 27 2 28 1 29 20 30 26 32 27 33 31 34 28 35 30 36
REMARK SMILES IDX 29 37
REMARK H PARENT 13 12 15 14 17 16 20 31
REMARK Flexibility Score: inf
ROOT
ATOM      1  O   UNL     1      15.803  61.849  22.718  1.00  0.00    -0.458 OA
ENDROOT
BRANCH   1   2
ATOM      2  C   UNL     1      15.050  61.998  23.939  1.00  0.00     0.339 C 
ATOM      3  C   UNL     1      14.304  64.058  23.129  1.00  0.00     0.199 C 
ATOM      4  C   UNL     1      15.326  64.852  24.001  1.00  0.00     0.180 C 
ATOM      5  O   UNL     1      13.916  62.800  23.669  1.00  0.00    -0.328 OA
ATOM      6  C   UNL     1      16.437  63.988  24.727  1.00  0.00     0.181 C 
ATOM      7  C   UNL     1      15.864  62.613  25.113  1.00  0.00     0.214 C 
BRANCH   3   8
ATOM      8  C   UNL     1      13.063  64.874  22.898  1.00  0.00     0.073 C 
ATOM      9  O   UNL     1      12.935  66.024  23.406  1.00  0.00    -0.547 OA
ATOM     10  O   UNL     1      12.053  64.376  22.078  1.00  0.00    -0.547 OA
ENDBRANCH   3   8
BRANCH   4  11
ATOM     11  O   UNL     1      15.889  65.901  23.253  1.00  0.00    -0.387 OA
ATOM     12  H   UNL     1      15.296  66.016  22.462  1.00  0.00     0.211 HD
ENDBRANCH   4  11
BRANCH   6  13
ATOM     13  O   UNL     1      17.659  63.782  24.025  1.00  0.00    -0.387 OA
ATOM     14  H   UNL     1      18.254  64.576  24.078  1.00  0.00     0.211 HD
ENDBRANCH   6  13
BRANCH   7  15
ATOM     15  O   UNL     1      15.053  62.698  26.261  1.00  0.00    -0.384 OA
ATOM     16  H   UNL     1      14.350  61.998  26.167  1.00  0.00     0.211 HD
ENDBRANCH   7  15
ENDBRANCH   1   2
BRANCH   1  17
ATOM     17  C   UNL     1      15.759  60.779  21.808  1.00  0.00     0.172 A 
ATOM     18  C   UNL     1      14.804  60.796  20.772  1.00  0.00     0.205 A 
ATOM     19  C   UNL     1      16.633  59.686  21.926  1.00  0.00     0.097 A 
ATOM     20  C   UNL     1      14.660  59.679  19.940  1.00  0.00     0.188 A 
ATOM     21  C   UNL     1      16.556  58.608  21.040  1.00  0.00     0.134 A 
ATOM     22  C   UNL     1      15.537  58.575  20.065  1.00  0.00     0.111 A 
ATOM     23  O   UNL     1      13.686  59.657  19.044  1.00  0.00    -0.452 OA
ATOM     24  C   UNL     1      15.341  57.487  19.195  1.00  0.00     0.197 A 
ATOM     25  C   UNL     1      13.470  58.642  18.201  1.00  0.00     0.138 A 
ATOM     26  C   UNL     1      14.317  57.522  18.251  1.00  0.00     0.100 A 
ATOM     27  O   UNL     1      16.037  56.429  19.315  1.00  0.00    -0.289 OA
BRANCH  18  28
ATOM     28  O   UNL     1      13.974  61.904  20.569  1.00  0.00    -0.490 OA
ATOM     29  C   UNL     1      14.295  62.957  19.659  1.00  0.00     0.278 C 
ENDBRANCH  18  28
BRANCH  21  30
ATOM     30  O   UNL     1      17.500  57.588  21.141  1.00  0.00    -0.507 OA
ATOM     31  H   UNL     1      17.837  57.139  20.293  1.00  0.00     0.293 HD
ENDBRANCH  21  30
BRANCH  25  32
ATOM     32  C   UNL     1      12.331  58.749  17.243  1.00  0.00     0.017 A 
ATOM     33  C   UNL     1      12.353  58.144  15.966  1.00  0.00     0.012 A 
ATOM     34  C   UNL     1      11.178  59.474  17.613  1.00  0.00     0.012 A 
ATOM     35  C   UNL     1      11.268  58.284  15.091  1.00  0.00     0.001 A 
ATOM     36  C   UNL     1      10.088  59.576  16.753  1.00  0.00     0.001 A 
ATOM     37  C   UNL     1      10.132  58.985  15.489  1.00  0.00     0.000 A 
ENDBRANCH  25  32
ENDBRANCH   1  17
TORSDOF 9
ENDMDL
MODEL 4
REMARK VINA RESULT:    -7.463      2.827      8.984
REMARK INTER + INTRA:         -11.769
REMARK INTER:                 -10.944
REMARK INTRA:                  -0.825
REMARK UNBOUND:                -1.252
REMARK SMILES COc1c(O[C@@H]2O[C@@H](C(=O)[O-])[C@H](O)[C@H](O)[C@H]2O)cc(O)c2c(=O)cc(-c3ccccc3)oc12
REMARK SMILES IDX 5 1 6 2 8 3 12 4 7 5 14 6 16 7 9 8 10 9 11 10 13 11 15 13
REMARK SMILES IDX 17 15 4 17 3 18 18 19 33 20 19 21 21 22 32 23 22 24 25 25
REMARK SMILES IDX 24 26 23 27 2 28 1 29 20 30 26 32 27 33 31 34 28 35 30 36
REMARK SMILES IDX 29 37
REMARK H PARENT 13 12 15 14 17 16 20 31
REMARK Flexibility Score: inf
ROOT
ATOM      1  O   UNL     1      13.001  55.281  14.251  1.00  0.00    -0.458 OA
ENDROOT
BRANCH   1   2
ATOM      2  C   UNL     1      13.574  54.056  14.753  1.00  0.00     0.339 C 
ATOM      3  C   UNL     1      12.902  53.026  12.767  1.00  0.00     0.199 C 
ATOM      4  C   UNL     1      11.652  52.379  13.442  1.00  0.00     0.180 C 
ATOM      5  O   UNL     1      13.990  53.274  13.651  1.00  0.00    -0.328 OA
ATOM      6  C   UNL     1      11.314  52.884  14.904  1.00  0.00     0.181 C 
ATOM      7  C   UNL     1      12.612  53.230  15.654  1.00  0.00     0.214 C 
BRANCH   3   8
ATOM      8  C   UNL     1      13.398  52.163  11.641  1.00  0.00     0.073 C 
ATOM      9  O   UNL     1      14.431  52.478  10.985  1.00  0.00    -0.547 OA
ATOM     10  O   UNL     1      12.736  50.976  11.339  1.00  0.00    -0.547 OA
ENDBRANCH   3   8
BRANCH   4  11
ATOM     11  O   UNL     1      10.539  52.472  12.588  1.00  0.00    -0.387 OA
ATOM     12  H   UNL     1      10.300  51.535  12.355  1.00  0.00     0.211 HD
ENDBRANCH   4  11
BRANCH   6  13
ATOM     13  O   UNL     1      10.424  53.991  15.017  1.00  0.00    -0.387 OA
ATOM     14  H   UNL     1       9.630  53.889  14.428  1.00  0.00     0.211 HD
ENDBRANCH   6  13
BRANCH   7  15
ATOM     15  O   UNL     1      13.266  52.070  16.110  1.00  0.00    -0.384 OA
ATOM     16  H   UNL     1      13.256  51.420  15.355  1.00  0.00     0.211 HD
ENDBRANCH   7  15
ENDBRANCH   1   2
BRANCH   1  17
ATOM     17  C   UNL     1      12.654  56.430  14.982  1.00  0.00     0.172 A 
ATOM     18  C   UNL     1      13.492  56.853  16.035  1.00  0.00     0.205 A 
ATOM     19  C   UNL     1      11.482  57.148  14.699  1.00  0.00     0.097 A 
ATOM     20  C   UNL     1      13.093  57.914  16.856  1.00  0.00     0.188 A 
ATOM     21  C   UNL     1      11.125  58.266  15.458  1.00  0.00     0.134 A 
ATOM     22  C   UNL     1      11.906  58.633  16.574  1.00  0.00     0.111 A 
ATOM     23  O   UNL     1      13.829  58.232  17.910  1.00  0.00    -0.452 OA
ATOM     24  C   UNL     1      11.566  59.691  17.436  1.00  0.00     0.197 A 
ATOM     25  C   UNL     1      13.537  59.230  18.750  1.00  0.00     0.138 A 
ATOM     26  C   UNL     1      12.387  60.003  18.518  1.00  0.00     0.100 A 
ATOM     27  O   UNL     1      10.469  60.318  17.289  1.00  0.00    -0.289 OA
BRANCH  18  28
ATOM     28  O   UNL     1      14.710  56.216  16.293  1.00  0.00    -0.490 OA
ATOM     29  C   UNL     1      15.958  56.699  15.794  1.00  0.00     0.278 C 
ENDBRANCH  18  28
BRANCH  21  30
ATOM     30  O   UNL     1      10.000  58.999  15.084  1.00  0.00    -0.507 OA
ATOM     31  H   UNL     1      10.096  59.994  14.897  1.00  0.00     0.293 HD
ENDBRANCH  21  30
BRANCH  25  32
ATOM     32  C   UNL     1      14.454  59.476  19.902  1.00  0.00     0.017 A 
ATOM     33  C   UNL     1      14.812  60.776  20.324  1.00  0.00     0.012 A 
ATOM     34  C   UNL     1      14.988  58.378  20.610  1.00  0.00     0.012 A 
ATOM     35  C   UNL     1      15.689  60.961  21.400  1.00  0.00     0.001 A 
ATOM     36  C   UNL     1      15.828  58.571  21.704  1.00  0.00     0.001 A 
ATOM     37  C   UNL     1      16.185  59.861  22.098  1.00  0.00     0.000 A 
ENDBRANCH  25  32
ENDBRANCH   1  17
TORSDOF 9
ENDMDL
MODEL 5
REMARK VINA RESULT:    -7.420      1.066      2.501
REMARK INTER + INTRA:         -11.708
REMARK INTER:                 -10.577
REMARK INTRA:                  -1.131
REMARK UNBOUND:                -1.252
REMARK SMILES COc1c(O[C@@H]2O[C@@H](C(=O)[O-])[C@H](O)[C@H](O)[C@H]2O)cc(O)c2c(=O)cc(-c3ccccc3)oc12
REMARK SMILES IDX 5 1 6 2 8 3 12 4 7 5 14 6 16 7 9 8 10 9 11 10 13 11 15 13
REMARK SMILES IDX 17 15 4 17 3 18 18 19 33 20 19 21 21 22 32 23 22 24 25 25
REMARK SMILES IDX 24 26 23 27 2 28 1 29 20 30 26 32 27 33 31 34 28 35 30 36
REMARK SMILES IDX 29 37
REMARK H PARENT 13 12 15 14 17 16 20 31
REMARK Flexibility Score: inf
ROOT
ATOM      1  O   UNL     1      15.122  59.338  19.841  1.00  0.00    -0.458 OA
ENDROOT
BRANCH   1   2
ATOM      2  C   UNL     1      14.962  60.249  20.948  1.00  0.00     0.339 C 
ATOM      3  C   UNL     1      16.788  61.446  20.117  1.00  0.00     0.199 C 
ATOM      4  C   UNL     1      17.767  60.812  21.154  1.00  0.00     0.180 C 
ATOM      5  O   UNL     1      15.435  61.522  20.550  1.00  0.00    -0.328 OA
ATOM      6  C   UNL     1      17.195  59.601  21.998  1.00  0.00     0.181 C 
ATOM      7  C   UNL     1      15.690  59.799  22.248  1.00  0.00     0.214 C 
BRANCH   3   8
ATOM      8  C   UNL     1      17.240  62.830  19.743  1.00  0.00     0.073 C 
ATOM      9  O   UNL     1      16.762  63.850  20.318  1.00  0.00    -0.547 OA
ATOM     10  O   UNL     1      18.231  62.995  18.779  1.00  0.00    -0.547 OA
ENDBRANCH   3   8
BRANCH   4  11
ATOM     11  O   UNL     1      18.985  60.485  20.532  1.00  0.00    -0.387 OA
ATOM     12  H   UNL     1      19.557  61.294  20.620  1.00  0.00     0.211 HD
ENDBRANCH   4  11
BRANCH   6  13
ATOM     13  O   UNL     1      17.392  58.293  21.468  1.00  0.00    -0.387 OA
ATOM     14  H   UNL     1      16.990  58.195  20.565  1.00  0.00     0.211 HD
ENDBRANCH   6  13
BRANCH   7  15
ATOM     15  O   UNL     1      15.459  60.737  23.271  1.00  0.00    -0.384 OA
ATOM     16  H   UNL     1      16.145  60.569  23.974  1.00  0.00     0.211 HD
ENDBRANCH   7  15
ENDBRANCH   1   2
BRANCH   1  17
ATOM     17  C   UNL     1      14.180  59.021  18.848  1.00  0.00     0.172 A 
ATOM     18  C   UNL     1      14.230  57.754  18.233  1.00  0.00     0.205 A 
ATOM     19  C   UNL     1      13.208  59.950  18.443  1.00  0.00     0.097 A 
ATOM     20  C   UNL     1      13.385  57.472  17.152  1.00  0.00     0.188 A 
ATOM     21  C   UNL     1      12.300  59.640  17.426  1.00  0.00     0.134 A 
ATOM     22  C   UNL     1      12.411  58.412  16.740  1.00  0.00     0.111 A 
ATOM     23  O   UNL     1      13.516  56.323  16.507  1.00  0.00    -0.452 OA
ATOM     24  C   UNL     1      11.592  58.065  15.650  1.00  0.00     0.197 A 
ATOM     25  C   UNL     1      12.756  55.959  15.469  1.00  0.00     0.138 A 
ATOM     26  C   UNL     1      11.751  56.832  15.021  1.00  0.00     0.100 A 
ATOM     27  O   UNL     1      10.757  58.900  15.176  1.00  0.00    -0.289 OA
BRANCH  18  28
ATOM     28  O   UNL     1      15.126  56.771  18.667  1.00  0.00    -0.490 OA
ATOM     29  C   UNL     1      16.524  56.814  18.376  1.00  0.00     0.278 C 
ENDBRANCH  18  28
BRANCH  21  30
ATOM     30  O   UNL     1      11.299  60.558  17.119  1.00  0.00    -0.507 OA
ATOM     31  H   UNL     1      11.449  61.543  17.326  1.00  0.00     0.293 HD
ENDBRANCH  21  30
BRANCH  25  32
ATOM     32  C   UNL     1      13.015  54.634  14.834  1.00  0.00     0.017 A 
ATOM     33  C   UNL     1      13.413  53.499  15.577  1.00  0.00     0.012 A 
ATOM     34  C   UNL     1      12.857  54.490  13.439  1.00  0.00     0.012 A 
ATOM     35  C   UNL     1      13.662  52.279  14.938  1.00  0.00     0.001 A 
ATOM     36  C   UNL     1      13.068  53.263  12.816  1.00  0.00     0.001 A 
ATOM     37  C   UNL     1      13.475  52.156  13.562  1.00  0.00     0.000 A 
ENDBRANCH  25  32
ENDBRANCH   1  17
TORSDOF 9
ENDMDL
MODEL 6
REMARK VINA RESULT:    -7.345      2.858      5.164
REMARK INTER + INTRA:         -11.602
REMARK INTER:                 -10.394
REMARK INTRA:                  -1.208
REMARK UNBOUND:                -1.252
REMARK SMILES COc1c(O[C@@H]2O[C@@H](C(=O)[O-])[C@H](O)[C@H](O)[C@H]2O)cc(O)c2c(=O)cc(-c3ccccc3)oc12
REMARK SMILES IDX 5 1 6 2 8 3 12 4 7 5 14 6 16 7 9 8 10 9 11 10 13 11 15 13
REMARK SMILES IDX 17 15 4 17 3 18 18 19 33 20 19 21 21 22 32 23 22 24 25 25
REMARK SMILES IDX 24 26 23 27 2 28 1 29 20 30 26 32 27 33 31 34 28 35 30 36
REMARK SMILES IDX 29 37
REMARK H PARENT 13 12 15 14 17 16 20 31
REMARK Flexibility Score: inf
ROOT
ATOM      1  O   UNL     1      15.533  62.687  22.208  1.00  0.00    -0.458 OA
ENDROOT
BRANCH   1   2
ATOM      2  C   UNL     1      16.714  63.263  22.803  1.00  0.00     0.339 C 
ATOM      3  C   UNL     1      15.537  63.385  24.817  1.00  0.00     0.199 C 
ATOM      4  C   UNL     1      15.238  64.905  24.633  1.00  0.00     0.180 C 
ATOM      5  O   UNL     1      16.726  62.934  24.178  1.00  0.00    -0.328 OA
ATOM      6  C   UNL     1      15.589  65.515  23.215  1.00  0.00     0.181 C 
ATOM      7  C   UNL     1      16.822  64.806  22.628  1.00  0.00     0.214 C 
BRANCH   3   8
ATOM      8  C   UNL     1      15.627  63.038  26.277  1.00  0.00     0.073 C 
ATOM      9  O   UNL     1      15.709  61.836  26.658  1.00  0.00    -0.547 OA
ATOM     10  O   UNL     1      15.664  64.057  27.226  1.00  0.00    -0.547 OA
ENDBRANCH   3   8
BRANCH   4  11
ATOM     11  O   UNL     1      13.913  65.186  25.008  1.00  0.00    -0.387 OA
ATOM     12  H   UNL     1      13.555  64.339  25.387  1.00  0.00     0.211 HD
ENDBRANCH   4  11
BRANCH   6  13
ATOM     13  O   UNL     1      14.557  65.504  22.233  1.00  0.00    -0.387 OA
ATOM     14  H   UNL     1      13.660  65.643  22.637  1.00  0.00     0.211 HD
ENDBRANCH   6  13
BRANCH   7  15
ATOM     15  O   UNL     1      18.012  65.269  23.221  1.00  0.00    -0.384 OA
ATOM     16  H   UNL     1      17.929  65.099  24.199  1.00  0.00     0.211 HD
ENDBRANCH   7  15
ENDBRANCH   1   2
BRANCH   1  17
ATOM     17  C   UNL     1      15.430  61.472  21.509  1.00  0.00     0.172 A 
ATOM     18  C   UNL     1      14.534  61.377  20.425  1.00  0.00     0.205 A 
ATOM     19  C   UNL     1      16.185  60.349  21.884  1.00  0.00     0.097 A 
ATOM     20  C   UNL     1      14.322  60.139  19.805  1.00  0.00     0.188 A 
ATOM     21  C   UNL     1      16.046  59.134  21.208  1.00  0.00     0.134 A 
ATOM     22  C   UNL     1      15.079  59.006  20.189  1.00  0.00     0.111 A 
ATOM     23  O   UNL     1      13.397  60.034  18.864  1.00  0.00    -0.452 OA
ATOM     24  C   UNL     1      14.820  57.795  19.523  1.00  0.00     0.197 A 
ATOM     25  C   UNL     1      13.124  58.900  18.210  1.00  0.00     0.138 A 
ATOM     26  C   UNL     1      13.853  57.740  18.521  1.00  0.00     0.100 A 
ATOM     27  O   UNL     1      15.402  56.722  19.881  1.00  0.00    -0.289 OA
BRANCH  18  28
ATOM     28  O   UNL     1      13.828  62.494  19.966  1.00  0.00    -0.490 OA
ATOM     29  C   UNL     1      12.559  62.880  20.495  1.00  0.00     0.278 C 
ENDBRANCH  18  28
BRANCH  21  30
ATOM     30  O   UNL     1      16.880  58.073  21.558  1.00  0.00    -0.507 OA
ATOM     31  H   UNL     1      16.758  57.174  21.098  1.00  0.00     0.293 HD
ENDBRANCH  21  30
BRANCH  25  32
ATOM     32  C   UNL     1      12.050  58.923  17.173  1.00  0.00     0.017 A 
ATOM     33  C   UNL     1      10.851  59.654  17.338  1.00  0.00     0.012 A 
ATOM     34  C   UNL     1      12.226  58.198  15.976  1.00  0.00     0.012 A 
ATOM     35  C   UNL     1       9.863  59.634  16.346  1.00  0.00     0.001 A 
ATOM     36  C   UNL     1      11.255  58.215  14.978  1.00  0.00     0.001 A 
ATOM     37  C   UNL     1      10.070  58.929  15.162  1.00  0.00     0.000 A 
ENDBRANCH  25  32
ENDBRANCH   1  17
TORSDOF 9
ENDMDL
MODEL 7
REMARK VINA RESULT:    -7.326      6.469     11.523
REMARK INTER + INTRA:         -11.576
REMARK INTER:                 -10.256
REMARK INTRA:                  -1.320
REMARK UNBOUND:                -1.252
REMARK SMILES COc1c(O[C@@H]2O[C@@H](C(=O)[O-])[C@H](O)[C@H](O)[C@H]2O)cc(O)c2c(=O)cc(-c3ccccc3)oc12
REMARK SMILES IDX 5 1 6 2 8 3 12 4 7 5 14 6 16 7 9 8 10 9 11 10 13 11 15 13
REMARK SMILES IDX 17 15 4 17 3 18 18 19 33 20 19 21 21 22 32 23 22 24 25 25
REMARK SMILES IDX 24 26 23 27 2 28 1 29 20 30 26 32 27 33 31 34 28 35 30 36
REMARK SMILES IDX 29 37
REMARK H PARENT 13 12 15 14 17 16 20 31
REMARK Flexibility Score: inf
ROOT
ATOM      1  O   UNL     1       9.287  49.269  15.853  1.00  0.00    -0.458 OA
ENDROOT
BRANCH   1   2
ATOM      2  C   UNL     1       9.160  48.051  16.615  1.00  0.00     0.339 C 
ATOM      3  C   UNL     1       6.895  48.556  16.886  1.00  0.00     0.199 C 
ATOM      4  C   UNL     1       7.116  49.098  18.333  1.00  0.00     0.180 C 
ATOM      5  O   UNL     1       7.836  47.572  16.473  1.00  0.00    -0.328 OA
ATOM      6  C   UNL     1       8.623  49.286  18.781  1.00  0.00     0.181 C 
ATOM      7  C   UNL     1       9.504  48.210  18.124  1.00  0.00     0.214 C 
BRANCH   3   8
ATOM      8  C   UNL     1       5.516  47.975  16.746  1.00  0.00     0.073 C 
ATOM      9  O   UNL     1       5.127  47.476  15.652  1.00  0.00    -0.547 OA
ATOM     10  O   UNL     1       4.665  47.947  17.848  1.00  0.00    -0.547 OA
ENDBRANCH   3   8
BRANCH   4  11
ATOM     11  O   UNL     1       6.364  50.269  18.530  1.00  0.00    -0.387 OA
ATOM     12  H   UNL     1       6.649  50.626  19.414  1.00  0.00     0.211 HD
ENDBRANCH   4  11
BRANCH   6  13
ATOM     13  O   UNL     1       9.216  50.559  18.540  1.00  0.00    -0.387 OA
ATOM     14  H   UNL     1      10.200  50.538  18.670  1.00  0.00     0.211 HD
ENDBRANCH   6  13
BRANCH   7  15
ATOM     15  O   UNL     1       9.372  46.969  18.775  1.00  0.00    -0.384 OA
ATOM     16  H   UNL     1       8.540  46.549  18.424  1.00  0.00     0.211 HD
ENDBRANCH   7  15
ENDBRANCH   1   2
BRANCH   1  17
ATOM     17  C   UNL     1      10.462  49.985  15.569  1.00  0.00     0.172 A 
ATOM     18  C   UNL     1      10.473  51.384  15.743  1.00  0.00     0.205 A 
ATOM     19  C   UNL     1      11.615  49.337  15.096  1.00  0.00     0.097 A 
ATOM     20  C   UNL     1      11.590  52.126  15.339  1.00  0.00     0.188 A 
ATOM     21  C   UNL     1      12.766  50.063  14.779  1.00  0.00     0.134 A 
ATOM     22  C   UNL     1      12.748  51.472  14.855  1.00  0.00     0.111 A 
ATOM     23  O   UNL     1      11.548  53.448  15.399  1.00  0.00    -0.452 OA
ATOM     24  C   UNL     1      13.837  52.275  14.471  1.00  0.00     0.197 A 
ATOM     25  C   UNL     1      12.563  54.243  15.044  1.00  0.00     0.138 A 
ATOM     26  C   UNL     1      13.754  53.662  14.578  1.00  0.00     0.100 A 
ATOM     27  O   UNL     1      14.872  51.755  13.947  1.00  0.00    -0.289 OA
BRANCH  18  28
ATOM     28  O   UNL     1       9.376  52.056  16.292  1.00  0.00    -0.490 OA
ATOM     29  C   UNL     1       8.200  52.364  15.542  1.00  0.00     0.278 C 
ENDBRANCH  18  28
BRANCH  21  30
ATOM     30  O   UNL     1      13.912  49.368  14.399  1.00  0.00    -0.507 OA
ATOM     31  H   UNL     1      14.276  49.490  13.456  1.00  0.00     0.293 HD
ENDBRANCH  21  30
BRANCH  25  32
ATOM     32  C   UNL     1      12.377  55.720  15.160  1.00  0.00     0.017 A 
ATOM     33  C   UNL     1      11.112  56.338  15.039  1.00  0.00     0.012 A 
ATOM     34  C   UNL     1      13.497  56.542  15.406  1.00  0.00     0.012 A 
ATOM     35  C   UNL     1      10.986  57.729  15.139  1.00  0.00     0.001 A 
ATOM     36  C   UNL     1      13.358  57.921  15.543  1.00  0.00     0.001 A 
ATOM     37  C   UNL     1      12.104  58.518  15.405  1.00  0.00     0.000 A 
ENDBRANCH  25  32
ENDBRANCH   1  17
TORSDOF 9
ENDMDL
MODEL 8
REMARK VINA RESULT:    -7.162      6.355     11.633
REMARK INTER + INTRA:         -11.345
REMARK INTER:                 -10.147
REMARK INTRA:                  -1.198
REMARK UNBOUND:                -1.252
REMARK SMILES COc1c(O[C@@H]2O[C@@H](C(=O)[O-])[C@H](O)[C@H](O)[C@H]2O)cc(O)c2c(=O)cc(-c3ccccc3)oc12
REMARK SMILES IDX 5 1 6 2 8 3 12 4 7 5 14 6 16 7 9 8 10 9 11 10 13 11 15 13
REMARK SMILES IDX 17 15 4 17 3 18 18 19 33 20 19 21 21 22 32 23 22 24 25 25
REMARK SMILES IDX 24 26 23 27 2 28 1 29 20 30 26 32 27 33 31 34 28 35 30 36
REMARK SMILES IDX 29 37
REMARK H PARENT 13 12 15 14 17 16 20 31
REMARK Flexibility Score: inf
ROOT
ATOM      1  O   UNL     1      10.868  48.810  15.764  1.00  0.00    -0.458 OA
ENDROOT
BRANCH   1   2
ATOM      2  C   UNL     1       9.752  48.337  14.982  1.00  0.00     0.339 C 
ATOM      3  C   UNL     1       8.403  48.670  16.861  1.00  0.00     0.199 C 
ATOM      4  C   UNL     1       8.417  47.154  17.228  1.00  0.00     0.180 C 
ATOM      5  O   UNL     1       8.573  48.945  15.475  1.00  0.00    -0.328 OA
ATOM      6  C   UNL     1       9.436  46.252  16.418  1.00  0.00     0.181 C 
ATOM      7  C   UNL     1       9.588  46.790  14.985  1.00  0.00     0.214 C 
BRANCH   3   8
ATOM      8  C   UNL     1       7.121  49.310  17.313  1.00  0.00     0.073 C 
ATOM      9  O   UNL     1       6.341  49.864  16.486  1.00  0.00    -0.547 OA
ATOM     10  O   UNL     1       6.760  49.258  18.657  1.00  0.00    -0.547 OA
ENDBRANCH   3   8
BRANCH   4  11
ATOM     11  O   UNL     1       8.570  46.994  18.617  1.00  0.00    -0.387 OA
ATOM     12  H   UNL     1       8.677  46.015  18.764  1.00  0.00     0.211 HD
ENDBRANCH   4  11
BRANCH   6  13
ATOM     13  O   UNL     1      10.737  46.087  16.974  1.00  0.00    -0.387 OA
ATOM     14  H   UNL     1      10.699  45.831  17.933  1.00  0.00     0.211 HD
ENDBRANCH   6  13
BRANCH   7  15
ATOM     15  O   UNL     1       8.490  46.426  14.181  1.00  0.00    -0.384 OA
ATOM     16  H   UNL     1       7.994  47.267  13.978  1.00  0.00     0.211 HD
ENDBRANCH   7  15
ENDBRANCH   1   2
BRANCH   1  17
ATOM     17  C   UNL     1      11.816  49.783  15.406  1.00  0.00     0.172 A 
ATOM     18  C   UNL     1      11.547  51.139  15.683  1.00  0.00     0.205 A 
ATOM     19  C   UNL     1      13.012  49.432  14.759  1.00  0.00     0.097 A 
ATOM     20  C   UNL     1      12.418  52.130  15.214  1.00  0.00     0.188 A 
ATOM     21  C   UNL     1      13.930  50.411  14.371  1.00  0.00     0.134 A 
ATOM     22  C   UNL     1      13.620  51.775  14.555  1.00  0.00     0.111 A 
ATOM     23  O   UNL     1      12.101  53.404  15.379  1.00  0.00    -0.452 OA
ATOM     24  C   UNL     1      14.452  52.819  14.113  1.00  0.00     0.197 A 
ATOM     25  C   UNL     1      12.867  54.423  14.973  1.00  0.00     0.138 A 
ATOM     26  C   UNL     1      14.087  54.145  14.333  1.00  0.00     0.100 A 
ATOM     27  O   UNL     1      15.501  52.568  13.438  1.00  0.00    -0.289 OA
BRANCH  18  28
ATOM     28  O   UNL     1      10.409  51.521  16.401  1.00  0.00    -0.490 OA
ATOM     29  C   UNL     1       9.241  52.053  15.777  1.00  0.00     0.278 C 
ENDBRANCH  18  28
BRANCH  21  30
ATOM     30  O   UNL     1      15.142  50.009  13.812  1.00  0.00    -0.507 OA
ATOM     31  H   UNL     1      15.814  49.511  14.392  1.00  0.00     0.293 HD
ENDBRANCH  21  30
BRANCH  25  32
ATOM     32  C   UNL     1      12.385  55.813  15.221  1.00  0.00     0.017 A 
ATOM     33  C   UNL     1      11.030  56.185  15.070  1.00  0.00     0.012 A 
ATOM     34  C   UNL     1      13.304  56.804  15.627  1.00  0.00     0.012 A 
ATOM     35  C   UNL     1      10.623  57.505  15.298  1.00  0.00     0.001 A 
ATOM     36  C   UNL     1      12.884  58.106  15.890  1.00  0.00     0.001 A 
ATOM     37  C   UNL     1      11.545  58.461  15.721  1.00  0.00     0.000 A 
ENDBRANCH  25  32
ENDBRANCH   1  17
TORSDOF 9
ENDMDL
MODEL 9
REMARK VINA RESULT:    -6.959      2.135      4.490
REMARK INTER + INTRA:         -11.059
REMARK INTER:                 -10.060
REMARK INTRA:                  -0.999
REMARK UNBOUND:                -1.252
REMARK SMILES COc1c(O[C@@H]2O[C@@H](C(=O)[O-])[C@H](O)[C@H](O)[C@H]2O)cc(O)c2c(=O)cc(-c3ccccc3)oc12
REMARK SMILES IDX 5 1 6 2 8 3 12 4 7 5 14 6 16 7 9 8 10 9 11 10 13 11 15 13
REMARK SMILES IDX 17 15 4 17 3 18 18 19 33 20 19 21 21 22 32 23 22 24 25 25
REMARK SMILES IDX 24 26 23 27 2 28 1 29 20 30 26 32 27 33 31 34 28 35 30 36
REMARK SMILES IDX 29 37
REMARK H PARENT 13 12 15 14 17 16 20 31
REMARK Flexibility Score: inf
ROOT
ATOM      1  O   UNL     1      15.142  61.335  22.094  1.00  0.00    -0.458 OA
ENDROOT
BRANCH   1   2
ATOM      2  C   UNL     1      14.948  62.729  21.776  1.00  0.00     0.339 C 
ATOM      3  C   UNL     1      16.770  63.211  23.157  1.00  0.00     0.199 C 
ATOM      4  C   UNL     1      15.850  63.649  24.339  1.00  0.00     0.180 C 
ATOM      5  O   UNL     1      16.198  63.385  21.866  1.00  0.00    -0.328 OA
ATOM      6  C   UNL     1      14.306  63.339  24.169  1.00  0.00     0.181 C 
ATOM      7  C   UNL     1      13.909  63.447  22.686  1.00  0.00     0.214 C 
BRANCH   3   8
ATOM      8  C   UNL     1      18.073  63.958  23.199  1.00  0.00     0.073 C 
ATOM      9  O   UNL     1      19.035  63.634  22.446  1.00  0.00    -0.547 OA
ATOM     10  O   UNL     1      18.214  65.051  24.050  1.00  0.00    -0.547 OA
ENDBRANCH   3   8
BRANCH   4  11
ATOM     11  O   UNL     1      16.350  63.148  25.553  1.00  0.00    -0.387 OA
ATOM     12  H   UNL     1      15.566  63.089  26.163  1.00  0.00     0.211 HD
ENDBRANCH   4  11
BRANCH   6  13
ATOM     13  O   UNL     1      13.838  62.090  24.668  1.00  0.00    -0.387 OA
ATOM     14  H   UNL     1      14.101  61.948  25.615  1.00  0.00     0.211 HD
ENDBRANCH   6  13
BRANCH   7  15
ATOM     15  O   UNL     1      13.775  64.790  22.286  1.00  0.00    -0.384 OA
ATOM     16  H   UNL     1      13.119  64.800  21.536  1.00  0.00     0.211 HD
ENDBRANCH   7  15
ENDBRANCH   1   2
BRANCH   1  17
ATOM     17  C   UNL     1      15.546  60.306  21.227  1.00  0.00     0.172 A 
ATOM     18  C   UNL     1      14.710  59.945  20.152  1.00  0.00     0.205 A 
ATOM     19  C   UNL     1      16.754  59.619  21.426  1.00  0.00     0.097 A 
ATOM     20  C   UNL     1      15.034  58.836  19.361  1.00  0.00     0.188 A 
ATOM     21  C   UNL     1      17.129  58.570  20.581  1.00  0.00     0.134 A 
ATOM     22  C   UNL     1      16.249  58.139  19.567  1.00  0.00     0.111 A 
ATOM     23  O   UNL     1      14.187  58.435  18.426  1.00  0.00    -0.452 OA
ATOM     24  C   UNL     1      16.516  57.038  18.734  1.00  0.00     0.197 A 
ATOM     25  C   UNL     1      14.407  57.393  17.616  1.00  0.00     0.138 A 
ATOM     26  C   UNL     1      15.604  56.670  17.747  1.00  0.00     0.100 A 
ATOM     27  O   UNL     1      17.547  56.317  18.926  1.00  0.00    -0.289 OA
BRANCH  18  28
ATOM     28  O   UNL     1      13.541  60.661  19.869  1.00  0.00    -0.490 OA
ATOM     29  C   UNL     1      13.434  61.568  18.772  1.00  0.00     0.278 C 
ENDBRANCH  18  28
BRANCH  21  30
ATOM     30  O   UNL     1      18.377  57.977  20.763  1.00  0.00    -0.507 OA
ATOM     31  H   UNL     1      18.425  56.996  21.032  1.00  0.00     0.293 HD
ENDBRANCH  21  30
BRANCH  25  32
ATOM     32  C   UNL     1      13.363  57.049  16.607  1.00  0.00     0.017 A 
ATOM     33  C   UNL     1      12.339  57.950  16.235  1.00  0.00     0.012 A 
ATOM     34  C   UNL     1      13.388  55.781  15.988  1.00  0.00     0.012 A 
ATOM     35  C   UNL     1      11.370  57.580  15.296  1.00  0.00     0.001 A 
ATOM     36  C   UNL     1      12.443  55.435  15.025  1.00  0.00     0.001 A 
ATOM     37  C   UNL     1      11.429  56.331  14.681  1.00  0.00     0.000 A 
ENDBRANCH  25  32
ENDBRANCH   1  17
TORSDOF 9
ENDMDL
