MODEL 1
REMARK VINA RESULT:    -1.076      0.000      0.000
REMARK INTER + INTRA:          -1.999
REMARK INTER:                  -1.643
REMARK INTRA:                  -0.356
REMARK UNBOUND:                -0.356
REMARK SMILES CCCCCCCCCCC(=O)[O-]
REMARK SMILES IDX 7 1 8 2 9 3 10 4 11 5 12 6 13 7 6 8 5 9 4 10 3 11 2 12 1 13
REMARK H PARENT
REMARK Flexibility Score: inf
ROOT
ATOM      1  C   UNL     1      -6.756  28.244 -16.974  1.00  0.00     0.000 C 
ENDROOT
BRANCH   1   2
ATOM      2  C   UNL     1      -7.585  28.938 -15.879  1.00  0.00     0.000 C 
BRANCH   2   3
ATOM      3  C   UNL     1      -8.824  29.661 -16.441  1.00  0.00     0.006 C 
BRANCH   3   4
ATOM      4  C   UNL     1      -9.440  30.693 -15.482  1.00  0.00     0.053 C 
BRANCH   4   5
ATOM      5  C   UNL     1      -9.099  32.098 -15.874  1.00  0.00     0.041 C 
ATOM      6  O   UNL     1      -9.132  32.444 -17.084  1.00  0.00    -0.550 OA
ATOM      7  O   UNL     1      -8.708  33.014 -14.906  1.00  0.00    -0.550 OA
ENDBRANCH   4   5
ENDBRANCH   3   4
ENDBRANCH   2   3
ENDBRANCH   1   2
BRANCH   1   8
ATOM      8  C   UNL     1      -7.193  28.646 -18.390  1.00  0.00     0.000 C 
BRANCH   8   9
ATOM      9  C   UNL     1      -6.014  28.733 -19.370  1.00  0.00    -0.000 C 
BRANCH   9  10
ATOM     10  C   UNL     1      -6.276  27.885 -20.622  1.00  0.00    -0.000 C 
BRANCH  10  11
ATOM     11  C   UNL     1      -6.456  28.774 -21.861  1.00  0.00    -0.000 C 
BRANCH  11  12
ATOM     12  C   UNL     1      -5.838  28.157 -23.125  1.00  0.00    -0.003 C 
ATOM     13  C   UNL     1      -4.880  27.008 -22.814  1.00  0.00     0.004 C 
ENDBRANCH  11  12
ENDBRANCH  10  11
ENDBRANCH   9  10
ENDBRANCH   8   9
ENDBRANCH   1   8
TORSDOF 9
ENDMDL
MODEL 2
REMARK VINA RESULT:    -0.416      3.696      7.153
REMARK INTER + INTRA:          -0.990
REMARK INTER:                  -0.580
REMARK INTRA:                  -0.410
REMARK UNBOUND:                -0.356
REMARK SMILES CCCCCCCCCCC(=O)[O-]
REMARK SMILES IDX 7 1 8 2 9 3 10 4 11 5 12 6 13 7 6 8 5 9 4 10 3 11 2 12 1 13
REMARK H PARENT
REMARK Flexibility Score: inf
ROOT
ATOM      1  C   UNL     1      -7.119  28.874 -18.677  1.00  0.00     0.000 C 
ENDROOT
BRANCH   1   2
ATOM      2  C   UNL     1      -6.335  28.195 -19.814  1.00  0.00     0.000 C 
BRANCH   2   3
ATOM      3  C   UNL     1      -6.243  29.070 -21.078  1.00  0.00     0.006 C 
BRANCH   3   4
ATOM      4  C   UNL     1      -5.231  28.566 -22.121  1.00  0.00     0.053 C 
BRANCH   4   5
ATOM      5  C   UNL     1      -5.703  27.321 -22.806  1.00  0.00     0.041 C 
ATOM      6  O   UNL     1      -4.881  26.423 -23.124  1.00  0.00    -0.550 OA
ATOM      7  O   UNL     1      -7.046  27.169 -23.125  1.00  0.00    -0.550 OA
ENDBRANCH   4   5
ENDBRANCH   3   4
ENDBRANCH   2   3
ENDBRANCH   1   2
BRANCH   1   8
ATOM      8  C   UNL     1      -6.543  28.555 -17.290  1.00  0.00     0.000 C 
BRANCH   8   9
ATOM      9  C   UNL     1      -7.548  28.818 -16.158  1.00  0.00    -0.000 C 
BRANCH   9  10
ATOM     10  C   UNL     1      -8.791  29.546 -16.684  1.00  0.00    -0.000 C 
BRANCH  10  11
ATOM     11  C   UNL     1      -9.263  30.617 -15.690  1.00  0.00    -0.000 C 
BRANCH  11  12
ATOM     12  C   UNL     1      -9.047  32.045 -16.214  1.00  0.00    -0.003 C 
ATOM     13  C   UNL     1      -8.688  33.033 -15.105  1.00  0.00     0.004 C 
ENDBRANCH  11  12
ENDBRANCH  10  11
ENDBRANCH   9  10
ENDBRANCH   8   9
ENDBRANCH   1   8
TORSDOF 9
ENDMDL
