MODEL 1
REMARK VINA RESULT:    -3.545      0.000      0.000
REMARK INTER + INTRA:          -5.277
REMARK INTER:                  -4.789
REMARK INTRA:                  -0.488
REMARK UNBOUND:                -0.488
REMARK SMILES [NH3+]CCCC[C@H]([NH3+])C(=O)[O-]
REMARK SMILES IDX 4 1 3 2 2 3 1 4 5 8 6 9 7 10 8 14 9 15 10 16
REMARK H PARENT 1 5 1 6 1 7 7 11 7 12 7 13
REMARK Flexibility Score: inf
ROOT
ATOM      1  C   UNL     1     126.039 114.937 106.938  1.00  0.00     0.012 C 
ENDROOT
BRANCH   1   2
ATOM      2  C   UNL     1     126.005 116.184 107.838  1.00  0.00     0.061 C 
BRANCH   2   3
ATOM      3  C   UNL     1     126.625 115.928 109.223  1.00  0.00     0.258 C 
BRANCH   3   4
ATOM      4  N   UNL     1     125.627 115.509 110.209  1.00  0.00    -0.358 N 
ATOM      5  H   UNL     1     125.196 116.342 110.669  1.00  0.00     0.344 HD
ATOM      6  H   UNL     1     126.062 114.887 110.927  1.00  0.00     0.344 HD
ATOM      7  H   UNL     1     124.870 114.978 109.720  1.00  0.00     0.344 HD
ENDBRANCH   3   4
ENDBRANCH   2   3
ENDBRANCH   1   2
BRANCH   1   8
ATOM      8  C   UNL     1     124.632 114.403 106.607  1.00  0.00     0.072 C 
BRANCH   8   9
ATOM      9  C   UNL     1     124.072 113.395 107.639  1.00  0.00     0.227 C 
BRANCH   9  10
ATOM     10  N   UNL     1     123.762 112.118 106.986  1.00  0.00    -0.350 N 
ATOM     11  H   UNL     1     122.746 111.889 107.083  1.00  0.00     0.345 HD
ATOM     12  H   UNL     1     124.329 111.351 107.417  1.00  0.00     0.345 HD
ATOM     13  H   UNL     1     124.005 112.171 105.970  1.00  0.00     0.345 HD
ENDBRANCH   9  10
BRANCH   9  14
ATOM     14  C   UNL     1     122.838 113.936 108.315  1.00  0.00     0.099 C 
ATOM     15  O   UNL     1     122.918 114.445 109.465  1.00  0.00    -0.544 OA
ATOM     16  O   UNL     1     121.606 113.884 107.674  1.00  0.00    -0.544 OA
ENDBRANCH   9  14
ENDBRANCH   8   9
ENDBRANCH   1   8
TORSDOF 7
ENDMDL
MODEL 2
REMARK VINA RESULT:    -3.531     11.519     12.661
REMARK INTER + INTRA:          -5.258
REMARK INTER:                  -4.752
REMARK INTRA:                  -0.506
REMARK UNBOUND:                -0.488
REMARK SMILES [NH3+]CCCC[C@H]([NH3+])C(=O)[O-]
REMARK SMILES IDX 4 1 3 2 2 3 1 4 5 8 6 9 7 10 8 14 9 15 10 16
REMARK H PARENT 1 5 1 6 1 7 7 11 7 12 7 13
REMARK Flexibility Score: inf
ROOT
ATOM      1  C   UNL     1     112.364 116.892 106.978  1.00  0.00     0.012 C 
ENDROOT
BRANCH   1   2
ATOM      2  C   UNL     1     113.514 116.254 107.776  1.00  0.00     0.061 C 
BRANCH   2   3
ATOM      3  C   UNL     1     113.084 115.830 109.191  1.00  0.00     0.258 C 
BRANCH   3   4
ATOM      4  N   UNL     1     113.157 116.936 110.149  1.00  0.00    -0.358 N 
ATOM      5  H   UNL     1     113.064 116.579 111.126  1.00  0.00     0.344 HD
ATOM      6  H   UNL     1     112.410 117.640 109.951  1.00  0.00     0.344 HD
ATOM      7  H   UNL     1     114.089 117.401 110.057  1.00  0.00     0.344 HD
ENDBRANCH   3   4
ENDBRANCH   2   3
ENDBRANCH   1   2
BRANCH   1   8
ATOM      8  C   UNL     1     112.647 118.357 106.594  1.00  0.00     0.072 C 
BRANCH   8   9
ATOM      9  C   UNL     1     112.192 119.394 107.648  1.00  0.00     0.227 C 
BRANCH   9  10
ATOM     10  N   UNL     1     111.219 120.323 107.061  1.00  0.00    -0.350 N 
ATOM     11  H   UNL     1     110.964 121.073 107.744  1.00  0.00     0.345 HD
ATOM     12  H   UNL     1     110.354 119.803 106.784  1.00  0.00     0.345 HD
ATOM     13  H   UNL     1     111.623 120.765 106.204  1.00  0.00     0.345 HD
ENDBRANCH   9  10
BRANCH   9  14
ATOM     14  C   UNL     1     113.366 120.163 108.197  1.00  0.00     0.099 C 
ATOM     15  O   UNL     1     114.164 119.612 109.001  1.00  0.00    -0.544 OA
ATOM     16  O   UNL     1     113.580 121.483 107.817  1.00  0.00    -0.544 OA
ENDBRANCH   9  14
ENDBRANCH   8   9
ENDBRANCH   1   8
TORSDOF 7
ENDMDL
MODEL 3
REMARK VINA RESULT:    -3.526     11.530     12.632
REMARK INTER + INTRA:          -5.251
REMARK INTER:                  -4.756
REMARK INTRA:                  -0.496
REMARK UNBOUND:                -0.488
REMARK SMILES [NH3+]CCCC[C@H]([NH3+])C(=O)[O-]
REMARK SMILES IDX 4 1 3 2 2 3 1 4 5 8 6 9 7 10 8 14 9 15 10 16
REMARK H PARENT 1 5 1 6 1 7 7 11 7 12 7 13
REMARK Flexibility Score: inf
ROOT
ATOM      1  C   UNL     1     121.001 127.543 106.994  1.00  0.00     0.012 C 
ENDROOT
BRANCH   1   2
ATOM      2  C   UNL     1     120.002 126.800 107.896  1.00  0.00     0.061 C 
BRANCH   2   3
ATOM      3  C   UNL     1     119.791 127.505 109.247  1.00  0.00     0.258 C 
BRANCH   3   4
ATOM      4  N   UNL     1     120.739 127.048 110.265  1.00  0.00    -0.358 N 
ATOM      5  H   UNL     1     121.061 126.077 110.056  1.00  0.00     0.344 HD
ATOM      6  H   UNL     1     120.302 127.086 111.214  1.00  0.00     0.344 HD
ATOM      7  H   UNL     1     121.574 127.678 110.256  1.00  0.00     0.344 HD
ENDBRANCH   3   4
ENDBRANCH   2   3
ENDBRANCH   1   2
BRANCH   1   8
ATOM      8  C   UNL     1     122.230 126.686 106.633  1.00  0.00     0.072 C 
BRANCH   8   9
ATOM      9  C   UNL     1     123.370 126.729 107.678  1.00  0.00     0.227 C 
BRANCH   9  10
ATOM     10  N   UNL     1     124.635 127.102 107.035  1.00  0.00    -0.350 N 
ATOM     11  H   UNL     1     125.103 127.879 107.559  1.00  0.00     0.345 HD
ATOM     12  H   UNL     1     124.457 127.411 106.052  1.00  0.00     0.345 HD
ATOM     13  H   UNL     1     125.276 126.276 107.008  1.00  0.00     0.345 HD
ENDBRANCH   9  10
BRANCH   9  14
ATOM     14  C   UNL     1     123.522 125.402 108.375  1.00  0.00     0.099 C 
ATOM     15  O   UNL     1     123.058 125.239 109.535  1.00  0.00    -0.544 OA
ATOM     16  O   UNL     1     124.167 124.347 107.741  1.00  0.00    -0.544 OA
ENDBRANCH   9  14
ENDBRANCH   8   9
ENDBRANCH   1   8
TORSDOF 7
ENDMDL
MODEL 4
REMARK VINA RESULT:    -3.500     10.975     12.053
REMARK INTER + INTRA:          -5.216
REMARK INTER:                  -4.700
REMARK INTRA:                  -0.516
REMARK UNBOUND:                -0.488
REMARK SMILES [NH3+]CCCC[C@H]([NH3+])C(=O)[O-]
REMARK SMILES IDX 4 1 3 2 2 3 1 4 5 8 6 9 7 10 8 14 9 15 10 16
REMARK H PARENT 1 5 1 6 1 7 7 11 7 12 7 13
REMARK Flexibility Score: inf
ROOT
ATOM      1  C   UNL     1     121.997 126.750 106.591  1.00  0.00     0.012 C 
ENDROOT
BRANCH   1   2
ATOM      2  C   UNL     1     120.968 127.767 107.115  1.00  0.00     0.061 C 
BRANCH   2   3
ATOM      3  C   UNL     1     119.916 127.120 108.033  1.00  0.00     0.258 C 
BRANCH   3   4
ATOM      4  N   UNL     1     119.851 125.667 107.865  1.00  0.00    -0.358 N 
ATOM      5  H   UNL     1     120.797 125.242 107.991  1.00  0.00     0.344 HD
ATOM      6  H   UNL     1     119.471 125.424 106.922  1.00  0.00     0.344 HD
ATOM      7  H   UNL     1     119.216 125.270 108.595  1.00  0.00     0.344 HD
ENDBRANCH   3   4
ENDBRANCH   2   3
ENDBRANCH   1   2
BRANCH   1   8
ATOM      8  C   UNL     1     123.301 126.745 107.413  1.00  0.00     0.072 C 
BRANCH   8   9
ATOM      9  C   UNL     1     123.763 125.340 107.869  1.00  0.00     0.227 C 
BRANCH   9  10
ATOM     10  N   UNL     1     123.108 124.303 107.063  1.00  0.00    -0.350 N 
ATOM     11  H   UNL     1     123.504 124.282 106.094  1.00  0.00     0.345 HD
ATOM     12  H   UNL     1     122.080 124.490 107.010  1.00  0.00     0.345 HD
ATOM     13  H   UNL     1     123.248 123.367 107.509  1.00  0.00     0.345 HD
ENDBRANCH   9  10
BRANCH   9  14
ATOM     14  C   UNL     1     123.466 125.116 109.329  1.00  0.00     0.099 C 
ATOM     15  O   UNL     1     122.292 125.253 109.765  1.00  0.00    -0.544 OA
ATOM     16  O   UNL     1     124.482 124.751 110.204  1.00  0.00    -0.544 OA
ENDBRANCH   9  14
ENDBRANCH   8   9
ENDBRANCH   1   8
TORSDOF 7
ENDMDL
MODEL 5
REMARK VINA RESULT:    -3.471      1.421      1.646
REMARK INTER + INTRA:          -5.177
REMARK INTER:                  -4.728
REMARK INTRA:                  -0.449
REMARK UNBOUND:                -0.488
REMARK SMILES [NH3+]CCCC[C@H]([NH3+])C(=O)[O-]
REMARK SMILES IDX 4 1 3 2 2 3 1 4 5 8 6 9 7 10 8 14 9 15 10 16
REMARK H PARENT 1 5 1 6 1 7 7 11 7 12 7 13
REMARK Flexibility Score: inf
ROOT
ATOM      1  C   UNL     1     124.774 114.735 106.339  1.00  0.00     0.012 C 
ENDROOT
BRANCH   1   2
ATOM      2  C   UNL     1     126.137 115.069 106.969  1.00  0.00     0.061 C 
BRANCH   2   3
ATOM      3  C   UNL     1     126.055 116.238 107.965  1.00  0.00     0.258 C 
BRANCH   3   4
ATOM      4  N   UNL     1     126.281 115.809 109.346  1.00  0.00    -0.358 N 
ATOM      5  H   UNL     1     125.388 115.836 109.887  1.00  0.00     0.344 HD
ATOM      6  H   UNL     1     126.998 116.415 109.805  1.00  0.00     0.344 HD
ATOM      7  H   UNL     1     126.630 114.823 109.341  1.00  0.00     0.344 HD
ENDBRANCH   3   4
ENDBRANCH   2   3
ENDBRANCH   1   2
BRANCH   1   8
ATOM      8  C   UNL     1     124.075 113.546 107.026  1.00  0.00     0.072 C 
BRANCH   8   9
ATOM      9  C   UNL     1     122.620 113.829 107.469  1.00  0.00     0.227 C 
BRANCH   9  10
ATOM     10  N   UNL     1     122.106 115.025 106.791  1.00  0.00    -0.350 N 
ATOM     11  H   UNL     1     122.128 115.852 107.432  1.00  0.00     0.345 HD
ATOM     12  H   UNL     1     121.121 114.860 106.477  1.00  0.00     0.345 HD
ATOM     13  H   UNL     1     122.688 115.231 105.947  1.00  0.00     0.345 HD
ENDBRANCH   9  10
BRANCH   9  14
ATOM     14  C   UNL     1     122.530 114.009 108.962  1.00  0.00     0.099 C 
ATOM     15  O   UNL     1     123.408 114.675 109.573  1.00  0.00    -0.544 OA
ATOM     16  O   UNL     1     121.477 113.448 109.675  1.00  0.00    -0.544 OA
ENDBRANCH   9  14
ENDBRANCH   8   9
ENDBRANCH   1   8
TORSDOF 7
ENDMDL
MODEL 6
REMARK VINA RESULT:    -3.469     12.141     12.964
REMARK INTER + INTRA:          -5.174
REMARK INTER:                  -4.641
REMARK INTRA:                  -0.533
REMARK UNBOUND:                -0.488
REMARK SMILES [NH3+]CCCC[C@H]([NH3+])C(=O)[O-]
REMARK SMILES IDX 4 1 3 2 2 3 1 4 5 8 6 9 7 10 8 14 9 15 10 16
REMARK H PARENT 1 5 1 6 1 7 7 11 7 12 7 13
REMARK Flexibility Score: inf
ROOT
ATOM      1  C   UNL     1     120.036 126.970 107.825  1.00  0.00     0.012 C 
ENDROOT
BRANCH   1   2
ATOM      2  C   UNL     1     119.734 127.797 109.086  1.00  0.00     0.061 C 
BRANCH   2   3
ATOM      3  C   UNL     1     120.321 127.163 110.360  1.00  0.00     0.258 C 
BRANCH   3   4
ATOM      4  N   UNL     1     120.736 125.775 110.148  1.00  0.00    -0.358 N 
ATOM      5  H   UNL     1     119.989 125.118 110.466  1.00  0.00     0.344 HD
ATOM      6  H   UNL     1     121.627 125.578 110.658  1.00  0.00     0.344 HD
ATOM      7  H   UNL     1     120.894 125.621 109.126  1.00  0.00     0.344 HD
ENDBRANCH   3   4
ENDBRANCH   2   3
ENDBRANCH   1   2
BRANCH   1   8
ATOM      8  C   UNL     1     121.207 127.543 107.003  1.00  0.00     0.072 C 
BRANCH   8   9
ATOM      9  C   UNL     1     122.308 126.513 106.655  1.00  0.00     0.227 C 
BRANCH   9  10
ATOM     10  N   UNL     1     121.780 125.148 106.767  1.00  0.00    -0.350 N 
ATOM     11  H   UNL     1     120.946 125.022 106.148  1.00  0.00     0.345 HD
ATOM     12  H   UNL     1     121.507 124.953 107.757  1.00  0.00     0.345 HD
ATOM     13  H   UNL     1     122.518 124.460 106.490  1.00  0.00     0.345 HD
ENDBRANCH   9  10
BRANCH   9  14
ATOM     14  C   UNL     1     123.508 126.673 107.552  1.00  0.00     0.099 C 
ATOM     15  O   UNL     1     124.594 127.109 107.085  1.00  0.00    -0.544 OA
ATOM     16  O   UNL     1     123.424 126.348 108.901  1.00  0.00    -0.544 OA
ENDBRANCH   9  14
ENDBRANCH   8   9
ENDBRANCH   1   8
TORSDOF 7
ENDMDL
MODEL 7
REMARK VINA RESULT:    -3.457      1.617      1.806
REMARK INTER + INTRA:          -5.158
REMARK INTER:                  -4.626
REMARK INTRA:                  -0.533
REMARK UNBOUND:                -0.488
REMARK SMILES [NH3+]CCCC[C@H]([NH3+])C(=O)[O-]
REMARK SMILES IDX 4 1 3 2 2 3 1 4 5 8 6 9 7 10 8 14 9 15 10 16
REMARK H PARENT 1 5 1 6 1 7 7 11 7 12 7 13
REMARK Flexibility Score: inf
ROOT
ATOM      1  C   UNL     1     125.971 116.038 107.340  1.00  0.00     0.012 C 
ENDROOT
BRANCH   1   2
ATOM      2  C   UNL     1     126.692 115.932 108.695  1.00  0.00     0.061 C 
BRANCH   2   3
ATOM      3  C   UNL     1     125.857 116.502 109.853  1.00  0.00     0.258 C 
BRANCH   3   4
ATOM      4  N   UNL     1     124.805 115.580 110.287  1.00  0.00    -0.358 N 
ATOM      5  H   UNL     1     124.847 114.694 109.736  1.00  0.00     0.344 HD
ATOM      6  H   UNL     1     123.864 116.024 110.183  1.00  0.00     0.344 HD
ATOM      7  H   UNL     1     124.956 115.345 111.295  1.00  0.00     0.344 HD
ENDBRANCH   3   4
ENDBRANCH   2   3
ENDBRANCH   1   2
BRANCH   1   8
ATOM      8  C   UNL     1     125.645 114.661 106.729  1.00  0.00     0.072 C 
BRANCH   8   9
ATOM      9  C   UNL     1     124.134 114.343 106.639  1.00  0.00     0.227 C 
BRANCH   9  10
ATOM     10  N   UNL     1     123.343 115.523 107.008  1.00  0.00    -0.350 N 
ATOM     11  H   UNL     1     122.346 115.408 106.712  1.00  0.00     0.345 HD
ATOM     12  H   UNL     1     123.741 116.375 106.550  1.00  0.00     0.345 HD
ATOM     13  H   UNL     1     123.377 115.663 108.044  1.00  0.00     0.345 HD
ENDBRANCH   9  10
BRANCH   9  14
ATOM     14  C   UNL     1     123.767 113.184 107.529  1.00  0.00     0.099 C 
ATOM     15  O   UNL     1     123.423 113.387 108.724  1.00  0.00    -0.544 OA
ATOM     16  O   UNL     1     123.800 111.884 107.038  1.00  0.00    -0.544 OA
ENDBRANCH   9  14
ENDBRANCH   8   9
ENDBRANCH   1   8
TORSDOF 7
ENDMDL
MODEL 8
REMARK VINA RESULT:    -3.413     12.381     12.843
REMARK INTER + INTRA:          -5.098
REMARK INTER:                  -4.618
REMARK INTRA:                  -0.480
REMARK UNBOUND:                -0.488
REMARK SMILES [NH3+]CCCC[C@H]([NH3+])C(=O)[O-]
REMARK SMILES IDX 4 1 3 2 2 3 1 4 5 8 6 9 7 10 8 14 9 15 10 16
REMARK H PARENT 1 5 1 6 1 7 7 11 7 12 7 13
REMARK Flexibility Score: inf
ROOT
ATOM      1  C   UNL     1     121.269 127.560 107.016  1.00  0.00     0.012 C 
ENDROOT
BRANCH   1   2
ATOM      2  C   UNL     1     122.381 126.579 106.610  1.00  0.00     0.061 C 
BRANCH   2   3
ATOM      3  C   UNL     1     123.704 126.850 107.347  1.00  0.00     0.258 C 
BRANCH   3   4
ATOM      4  N   UNL     1     123.652 126.438 108.751  1.00  0.00    -0.358 N 
ATOM      5  H   UNL     1     122.988 127.042 109.285  1.00  0.00     0.344 HD
ATOM      6  H   UNL     1     124.604 126.482 109.181  1.00  0.00     0.344 HD
ATOM      7  H   UNL     1     123.308 125.451 108.801  1.00  0.00     0.344 HD
ENDBRANCH   3   4
ENDBRANCH   2   3
ENDBRANCH   1   2
BRANCH   1   8
ATOM      8  C   UNL     1     119.956 126.848 107.398  1.00  0.00     0.072 C 
BRANCH   8   9
ATOM      9  C   UNL     1     120.044 125.990 108.682  1.00  0.00     0.227 C 
BRANCH   9  10
ATOM     10  N   UNL     1     118.870 125.117 108.792  1.00  0.00    -0.350 N 
ATOM     11  H   UNL     1     118.631 124.699 107.862  1.00  0.00     0.345 HD
ATOM     12  H   UNL     1     118.051 125.664 109.143  1.00  0.00     0.345 HD
ATOM     13  H   UNL     1     119.063 124.346 109.472  1.00  0.00     0.345 HD
ENDBRANCH   9  10
BRANCH   9  14
ATOM     14  C   UNL     1     120.153 126.857 109.910  1.00  0.00     0.099 C 
ATOM     15  O   UNL     1     121.148 126.748 110.675  1.00  0.00    -0.544 OA
ATOM     16  O   UNL     1     119.162 127.786 110.204  1.00  0.00    -0.544 OA
ENDBRANCH   9  14
ENDBRANCH   8   9
ENDBRANCH   1   8
TORSDOF 7
ENDMDL
MODEL 9
REMARK VINA RESULT:    -3.413     11.668     12.398
REMARK INTER + INTRA:          -5.098
REMARK INTER:                  -4.560
REMARK INTRA:                  -0.538
REMARK UNBOUND:                -0.488
REMARK SMILES [NH3+]CCCC[C@H]([NH3+])C(=O)[O-]
REMARK SMILES IDX 4 1 3 2 2 3 1 4 5 8 6 9 7 10 8 14 9 15 10 16
REMARK H PARENT 1 5 1 6 1 7 7 11 7 12 7 13
REMARK Flexibility Score: inf
ROOT
ATOM      1  C   UNL     1     113.510 116.395 107.929  1.00  0.00     0.012 C 
ENDROOT
BRANCH   1   2
ATOM      2  C   UNL     1     112.899 115.842 109.228  1.00  0.00     0.061 C 
BRANCH   2   3
ATOM      3  C   UNL     1     113.233 116.711 110.452  1.00  0.00     0.258 C 
BRANCH   3   4
ATOM      4  N   UNL     1     114.155 117.801 110.126  1.00  0.00    -0.358 N 
ATOM      5  H   UNL     1     114.231 117.917 109.090  1.00  0.00     0.344 HD
ATOM      6  H   UNL     1     115.099 117.617 110.537  1.00  0.00     0.344 HD
ATOM      7  H   UNL     1     113.782 118.691 110.528  1.00  0.00     0.344 HD
ENDBRANCH   3   4
ENDBRANCH   2   3
ENDBRANCH   1   2
BRANCH   1   8
ATOM      8  C   UNL     1     112.458 117.034 107.001  1.00  0.00     0.072 C 
BRANCH   8   9
ATOM      9  C   UNL     1     112.770 118.492 106.589  1.00  0.00     0.227 C 
BRANCH   9  10
ATOM     10  N   UNL     1     114.215 118.741 106.653  1.00  0.00    -0.350 N 
ATOM     11  H   UNL     1     114.749 117.845 106.565  1.00  0.00     0.345 HD
ATOM     12  H   UNL     1     114.457 119.197 107.562  1.00  0.00     0.345 HD
ATOM     13  H   UNL     1     114.498 119.384 105.878  1.00  0.00     0.345 HD
ENDBRANCH   9  10
BRANCH   9  14
ATOM     14  C   UNL     1     112.042 119.474 107.469  1.00  0.00     0.099 C 
ATOM     15  O   UNL     1     112.421 119.662 108.656  1.00  0.00    -0.544 OA
ATOM     16  O   UNL     1     110.953 120.185 106.978  1.00  0.00    -0.544 OA
ENDBRANCH   9  14
ENDBRANCH   8   9
ENDBRANCH   1   8
TORSDOF 7
ENDMDL
