MODEL 1
REMARK VINA RESULT:     4.778      0.000      0.000
REMARK INTER + INTRA:           6.489
REMARK INTER:                   5.197
REMARK INTRA:                   1.292
REMARK UNBOUND:                 1.292
REMARK SMILES C[C@@H]1[C@H](C)CC[C@@]2(C(=O)[O-])CC[C@]3(C)C(=CC[C@@H]4[C@@]5(C)CC[C@@H](O)C(C)(C)[C@@H]5CC[C@@]43C)[C@@H]12
REMARK SMILES IDX 7 1 6 2 11 3 33 4 5 5 12 6 15 7 2 8 3 9 13 10 16 11 1 12
REMARK SMILES IDX 4 13 14 14 31 15 17 16 18 17 30 18 32 19 19 20 29 21 28 22
REMARK SMILES IDX 21 23 20 24 25 25 22 26 23 27 26 28 27 29 8 30 9 31 10 32
REMARK SMILES IDX 24 33
REMARK H PARENT 24 34
REMARK Flexibility Score: inf
ROOT
ATOM      1  C   UNL     1     -26.046  38.430  14.830  1.00  0.00     0.017 C 
ATOM      2  C   UNL     1     -27.118  39.345  15.489  1.00  0.00     0.014 C 
ATOM      3  C   UNL     1     -25.229  37.710  15.961  1.00  0.00     0.014 C 
ATOM      4  C   UNL     1     -26.756  37.426  13.834  1.00  0.00     0.030 C 
ATOM      5  C   UNL     1     -27.942  40.125  14.455  1.00  0.00     0.004 C 
ATOM      6  C   UNL     1     -25.822  36.402  16.540  1.00  0.00     0.013 C 
ATOM      7  C   UNL     1     -27.336  36.232  14.618  1.00  0.00    -0.063 C 
ATOM      8  C   UNL     1     -27.758  38.128  12.841  1.00  0.00    -0.003 C 
ATOM      9  C   UNL     1     -28.707  39.170  13.537  1.00  0.00    -0.011 C 
ATOM     10  C   UNL     1     -26.354  35.410  15.467  1.00  0.00    -0.006 C 
ATOM     11  C   UNL     1     -28.652  36.151  14.888  1.00  0.00    -0.027 C 
ATOM     12  C   UNL     1     -27.014  38.741  11.634  1.00  0.00     0.008 C 
ATOM     13  C   UNL     1     -29.582  39.948  12.543  1.00  0.00     0.008 C 
ATOM     14  C   UNL     1     -25.139  34.966  14.578  1.00  0.00     0.017 C 
ATOM     15  C   UNL     1     -27.084  34.090  16.081  1.00  0.00    -0.020 C 
ATOM     16  C   UNL     1     -29.118  35.756  16.247  1.00  0.00     0.032 C 
ATOM     17  C   UNL     1     -28.552  34.382  16.647  1.00  0.00     0.006 C 
ATOM     18  C   UNL     1     -26.192  33.404  17.171  1.00  0.00     0.008 C 
ATOM     19  C   UNL     1     -27.252  33.030  14.937  1.00  0.00     0.012 C 
ATOM     20  C   UNL     1     -28.842  33.950  18.150  1.00  0.00    -0.025 C 
ATOM     21  C   UNL     1     -26.863  32.251  17.944  1.00  0.00     0.005 C 
ATOM     22  C   UNL     1     -28.368  32.454  18.268  1.00  0.00     0.003 C 
ATOM     23  C   UNL     1     -30.388  34.014  18.395  1.00  0.00     0.010 C 
ATOM     24  C   UNL     1     -28.146  34.895  19.184  1.00  0.00     0.012 C 
ATOM     25  C   UNL     1     -28.888  31.632  19.512  1.00  0.00    -0.006 C 
ATOM     26  C   UNL     1     -30.864  33.266  19.651  1.00  0.00     0.033 C 
ATOM     27  C   UNL     1     -30.437  31.795  19.638  1.00  0.00     0.120 C 
ATOM     28  C   UNL     1     -28.220  32.028  20.858  1.00  0.00     0.014 C 
ATOM     29  C   UNL     1     -28.573  30.125  19.300  1.00  0.00     0.014 C 
ENDROOT
BRANCH   1  30
ATOM     30  C   UNL     1     -25.026  39.293  14.093  1.00  0.00     0.048 C 
ATOM     31  O   UNL     1     -25.398  40.124  13.222  1.00  0.00    -0.550 OA
ATOM     32  O   UNL     1     -23.664  39.073  14.259  1.00  0.00    -0.550 OA
ENDBRANCH   1  30
BRANCH  27  33
ATOM     33  O   UNL     1     -31.098  31.153  18.572  1.00  0.00    -0.393 OA
ATOM     34  H   UNL     1     -32.060  31.095  18.807  1.00  0.00     0.210 HD
ENDBRANCH  27  33
TORSDOF 2
ENDMDL
MODEL 2
REMARK VINA RESULT:     5.885      1.760      3.727
REMARK INTER + INTRA:           7.694
REMARK INTER:                   7.317
REMARK INTRA:                   0.376
REMARK UNBOUND:                 1.292
REMARK SMILES C[C@@H]1[C@H](C)CC[C@@]2(C(=O)[O-])CC[C@]3(C)C(=CC[C@@H]4[C@@]5(C)CC[C@@H](O)C(C)(C)[C@@H]5CC[C@@]43C)[C@@H]12
REMARK SMILES IDX 7 1 6 2 11 3 33 4 5 5 12 6 15 7 2 8 3 9 13 10 16 11 1 12
REMARK SMILES IDX 4 13 14 14 31 15 17 16 18 17 30 18 32 19 19 20 29 21 28 22
REMARK SMILES IDX 21 23 20 24 25 25 22 26 23 27 26 28 27 29 8 30 9 31 10 32
REMARK SMILES IDX 24 33
REMARK H PARENT 24 34
REMARK Flexibility Score: inf
ROOT
ATOM      1  C   UNL     1     -28.081  37.453  13.709  1.00  0.00     0.017 C 
ATOM      2  C   UNL     1     -26.929  36.545  13.190  1.00  0.00     0.014 C 
ATOM      3  C   UNL     1     -29.411  36.620  13.738  1.00  0.00     0.014 C 
ATOM      4  C   UNL     1     -27.683  38.047  15.121  1.00  0.00     0.030 C 
ATOM      5  C   UNL     1     -25.591  37.290  13.088  1.00  0.00     0.004 C 
ATOM      6  C   UNL     1     -29.681  35.758  14.996  1.00  0.00     0.013 C 
ATOM      7  C   UNL     1     -27.965  37.008  16.224  1.00  0.00    -0.063 C 
ATOM      8  C   UNL     1     -26.242  38.685  15.151  1.00  0.00    -0.003 C 
ATOM      9  C   UNL     1     -25.145  37.796  14.461  1.00  0.00    -0.011 C 
ATOM     10  C   UNL     1     -29.405  36.487  16.342  1.00  0.00    -0.006 C 
ATOM     11  C   UNL     1     -26.968  36.290  16.775  1.00  0.00    -0.027 C 
ATOM     12  C   UNL     1     -26.255  40.125  14.591  1.00  0.00     0.008 C 
ATOM     13  C   UNL     1     -23.776  38.486  14.372  1.00  0.00     0.008 C 
ATOM     14  C   UNL     1     -30.394  37.702  16.443  1.00  0.00     0.017 C 
ATOM     15  C   UNL     1     -29.574  35.543  17.659  1.00  0.00    -0.020 C 
ATOM     16  C   UNL     1     -27.128  34.825  16.993  1.00  0.00     0.032 C 
ATOM     17  C   UNL     1     -28.355  34.529  17.873  1.00  0.00     0.006 C 
ATOM     18  C   UNL     1     -30.940  34.778  17.636  1.00  0.00     0.008 C 
ATOM     19  C   UNL     1     -29.618  36.460  18.932  1.00  0.00     0.012 C 
ATOM     20  C   UNL     1     -28.720  32.987  18.017  1.00  0.00    -0.025 C 
ATOM     21  C   UNL     1     -31.124  33.722  18.744  1.00  0.00     0.005 C 
ATOM     22  C   UNL     1     -29.850  32.912  19.110  1.00  0.00     0.003 C 
ATOM     23  C   UNL     1     -27.455  32.225  18.539  1.00  0.00     0.010 C 
ATOM     24  C   UNL     1     -29.144  32.348  16.654  1.00  0.00     0.012 C 
ATOM     25  C   UNL     1     -30.133  31.497  19.753  1.00  0.00    -0.006 C 
ATOM     26  C   UNL     1     -27.745  30.822  19.097  1.00  0.00     0.033 C 
ATOM     27  C   UNL     1     -28.788  30.854  20.218  1.00  0.00     0.120 C 
ATOM     28  C   UNL     1     -30.876  30.510  18.810  1.00  0.00     0.014 C 
ATOM     29  C   UNL     1     -31.045  31.673  20.998  1.00  0.00     0.014 C 
ENDROOT
BRANCH   1  30
ATOM     30  C   UNL     1     -28.336  38.572  12.703  1.00  0.00     0.048 C 
ATOM     31  O   UNL     1     -27.500  38.823  11.795  1.00  0.00    -0.550 OA
ATOM     32  O   UNL     1     -29.418  39.429  12.862  1.00  0.00    -0.550 OA
ENDBRANCH   1  30
BRANCH  27  33
ATOM     33  O   UNL     1     -28.243  31.561  21.308  1.00  0.00    -0.393 OA
ATOM     34  H   UNL     1     -28.830  32.341  21.484  1.00  0.00     0.210 HD
ENDBRANCH  27  33
TORSDOF 2
ENDMDL
