MODEL 1
REMARK VINA RESULT:    -3.654      0.000      0.000
REMARK INTER + INTRA:          -5.010
REMARK INTER:                  -4.722
REMARK INTRA:                  -0.289
REMARK UNBOUND:                -0.289
REMARK SMILES C=CC(=O)CCCCC
REMARK SMILES IDX 6 1 7 2 8 3 9 4 5 5 3 6 4 7 2 8 1 9
REMARK H PARENT
REMARK Flexibility Score: inf
ROOT
ATOM      1  C   UNL     1     168.147 183.664 315.794  1.00  0.00     0.008 C 
ENDROOT
BRANCH   1   2
ATOM      2  C   UNL     1     168.848 183.397 317.135  1.00  0.00     0.000 C 
BRANCH   2   3
ATOM      3  C   UNL     1     168.032 183.888 318.338  1.00  0.00    -0.003 C 
ATOM      4  C   UNL     1     168.719 185.065 319.026  1.00  0.00     0.004 C 
ENDBRANCH   2   3
ENDBRANCH   1   2
BRANCH   1   5
ATOM      5  C   UNL     1     167.592 185.096 315.691  1.00  0.00     0.080 C 
BRANCH   5   6
ATOM      6  C   UNL     1     168.627 186.095 315.224  1.00  0.00     0.155 C 
ATOM      7  O   UNL     1     169.064 186.970 316.019  1.00  0.00    -0.295 OA
BRANCH   6   8
ATOM      8  C   UNL     1     169.168 186.072 313.849  1.00  0.00     0.039 C 
ATOM      9  C   UNL     1     170.263 185.399 313.499  1.00  0.00     0.012 C 
ENDBRANCH   6   8
ENDBRANCH   5   6
ENDBRANCH   1   5
TORSDOF 5
ENDMDL
MODEL 2
REMARK VINA RESULT:    -3.598     18.038     19.970
REMARK INTER + INTRA:          -4.938
REMARK INTER:                  -4.753
REMARK INTRA:                  -0.185
REMARK UNBOUND:                -0.289
REMARK SMILES C=CC(=O)CCCCC
REMARK SMILES IDX 6 1 7 2 8 3 9 4 5 5 3 6 4 7 2 8 1 9
REMARK H PARENT
REMARK Flexibility Score: inf
ROOT
ATOM      1  C   UNL     1     165.390 199.327 302.940  1.00  0.00     0.008 C 
ENDROOT
BRANCH   1   2
ATOM      2  C   UNL     1     165.319 200.207 304.197  1.00  0.00     0.000 C 
BRANCH   2   3
ATOM      3  C   UNL     1     166.405 199.860 305.226  1.00  0.00    -0.003 C 
ATOM      4  C   UNL     1     165.812 199.120 306.422  1.00  0.00     0.004 C 
ENDBRANCH   2   3
ENDBRANCH   1   2
BRANCH   1   5
ATOM      5  C   UNL     1     166.835 198.983 302.538  1.00  0.00     0.080 C 
BRANCH   5   6
ATOM      6  C   UNL     1     167.218 199.539 301.185  1.00  0.00     0.155 C 
ATOM      7  O   UNL     1     166.604 200.533 300.714  1.00  0.00    -0.295 OA
BRANCH   6   8
ATOM      8  C   UNL     1     168.320 198.960 300.388  1.00  0.00     0.039 C 
ATOM      9  C   UNL     1     168.333 198.936 299.056  1.00  0.00     0.012 C 
ENDBRANCH   6   8
ENDBRANCH   5   6
ENDBRANCH   1   5
TORSDOF 5
ENDMDL
MODEL 3
REMARK VINA RESULT:    -3.575      1.524      4.570
REMARK INTER + INTRA:          -4.908
REMARK INTER:                  -4.739
REMARK INTRA:                  -0.170
REMARK UNBOUND:                -0.289
REMARK SMILES C=CC(=O)CCCCC
REMARK SMILES IDX 6 1 7 2 8 3 9 4 5 5 3 6 4 7 2 8 1 9
REMARK H PARENT
REMARK Flexibility Score: inf
ROOT
ATOM      1  C   UNL     1     168.394 186.267 316.201  1.00  0.00     0.008 C 
ENDROOT
BRANCH   1   2
ATOM      2  C   UNL     1     169.122 186.531 314.873  1.00  0.00     0.000 C 
BRANCH   2   3
ATOM      3  C   UNL     1     169.375 185.248 314.070  1.00  0.00    -0.003 C 
ATOM      4  C   UNL     1     170.501 185.444 313.060  1.00  0.00     0.004 C 
ENDBRANCH   2   3
ENDBRANCH   1   2
BRANCH   1   5
ATOM      5  C   UNL     1     167.787 184.855 316.272  1.00  0.00     0.080 C 
BRANCH   5   6
ATOM      6  C   UNL     1     167.930 184.222 317.638  1.00  0.00     0.155 C 
ATOM      7  O   UNL     1     168.771 184.675 318.460  1.00  0.00    -0.295 OA
BRANCH   6   8
ATOM      8  C   UNL     1     167.090 183.081 318.059  1.00  0.00     0.039 C 
ATOM      9  C   UNL     1     166.256 183.122 319.097  1.00  0.00     0.012 C 
ENDBRANCH   6   8
ENDBRANCH   5   6
ENDBRANCH   1   5
TORSDOF 5
ENDMDL
MODEL 4
REMARK VINA RESULT:    -3.550     17.880     20.029
REMARK INTER + INTRA:          -4.876
REMARK INTER:                  -4.729
REMARK INTRA:                  -0.147
REMARK UNBOUND:                -0.289
REMARK SMILES C=CC(=O)CCCCC
REMARK SMILES IDX 6 1 7 2 8 3 9 4 5 5 3 6 4 7 2 8 1 9
REMARK H PARENT
REMARK Flexibility Score: inf
ROOT
ATOM      1  C   UNL     1     165.852 199.379 302.037  1.00  0.00     0.008 C 
ENDROOT
BRANCH   1   2
ATOM      2  C   UNL     1     166.806 199.946 300.973  1.00  0.00     0.000 C 
BRANCH   2   3
ATOM      3  C   UNL     1     167.994 199.017 300.688  1.00  0.00    -0.003 C 
ATOM      4  C   UNL     1     168.272 198.924 299.190  1.00  0.00     0.004 C 
ENDBRANCH   2   3
ENDBRANCH   1   2
BRANCH   1   5
ATOM      5  C   UNL     1     166.589 198.915 303.305  1.00  0.00     0.080 C 
BRANCH   5   6
ATOM      6  C   UNL     1     166.238 199.737 304.525  1.00  0.00     0.155 C 
ATOM      7  O   UNL     1     165.878 200.938 304.395  1.00  0.00    -0.295 OA
BRANCH   6   8
ATOM      8  C   UNL     1     166.285 199.168 305.888  1.00  0.00     0.039 C 
ATOM      9  C   UNL     1     165.594 199.658 306.916  1.00  0.00     0.012 C 
ENDBRANCH   6   8
ENDBRANCH   5   6
ENDBRANCH   1   5
TORSDOF 5
ENDMDL
MODEL 5
REMARK VINA RESULT:    -3.475     18.297     20.201
REMARK INTER + INTRA:          -4.780
REMARK INTER:                  -4.439
REMARK INTRA:                  -0.340
REMARK UNBOUND:                -0.289
REMARK SMILES C=CC(=O)CCCCC
REMARK SMILES IDX 6 1 7 2 8 3 9 4 5 5 3 6 4 7 2 8 1 9
REMARK H PARENT
REMARK Flexibility Score: inf
ROOT
ATOM      1  C   UNL     1     165.009 200.266 303.545  1.00  0.00     0.008 C 
ENDROOT
BRANCH   1   2
ATOM      2  C   UNL     1     166.221 200.490 304.463  1.00  0.00     0.000 C 
BRANCH   2   3
ATOM      3  C   UNL     1     166.520 199.278 305.357  1.00  0.00    -0.003 C 
ATOM      4  C   UNL     1     165.814 199.400 306.704  1.00  0.00     0.004 C 
ENDBRANCH   2   3
ENDBRANCH   1   2
BRANCH   1   5
ATOM      5  C   UNL     1     165.325 199.330 302.366  1.00  0.00     0.080 C 
BRANCH   5   6
ATOM      6  C   UNL     1     166.385 199.886 301.441  1.00  0.00     0.155 C 
ATOM      7  O   UNL     1     167.440 199.232 301.224  1.00  0.00    -0.295 OA
BRANCH   6   8
ATOM      8  C   UNL     1     166.216 201.184 300.754  1.00  0.00     0.039 C 
ATOM      9  C   UNL     1     167.179 202.100 300.663  1.00  0.00     0.012 C 
ENDBRANCH   6   8
ENDBRANCH   5   6
ENDBRANCH   1   5
TORSDOF 5
ENDMDL
MODEL 6
REMARK VINA RESULT:    -3.437     17.677     19.526
REMARK INTER + INTRA:          -4.730
REMARK INTER:                  -4.569
REMARK INTRA:                  -0.161
REMARK UNBOUND:                -0.289
REMARK SMILES C=CC(=O)CCCCC
REMARK SMILES IDX 6 1 7 2 8 3 9 4 5 5 3 6 4 7 2 8 1 9
REMARK H PARENT
REMARK Flexibility Score: inf
ROOT
ATOM      1  C   UNL     1     165.432 200.340 304.483  1.00  0.00     0.008 C 
ENDROOT
BRANCH   1   2
ATOM      2  C   UNL     1     166.438 199.728 305.471  1.00  0.00     0.000 C 
BRANCH   2   3
ATOM      3  C   UNL     1     165.756 199.077 306.683  1.00  0.00    -0.003 C 
ATOM      4  C   UNL     1     165.004 200.113 307.513  1.00  0.00     0.004 C 
ENDBRANCH   2   3
ENDBRANCH   1   2
BRANCH   1   5
ATOM      5  C   UNL     1     166.109 200.893 303.216  1.00  0.00     0.080 C 
BRANCH   5   6
ATOM      6  C   UNL     1     166.027 199.943 302.043  1.00  0.00     0.155 C 
ATOM      7  O   UNL     1     165.144 199.044 302.018  1.00  0.00    -0.295 OA
BRANCH   6   8
ATOM      8  C   UNL     1     166.949 200.043 300.892  1.00  0.00     0.039 C 
ATOM      9  C   UNL     1     167.928 199.172 300.654  1.00  0.00     0.012 C 
ENDBRANCH   6   8
ENDBRANCH   5   6
ENDBRANCH   1   5
TORSDOF 5
ENDMDL
MODEL 7
REMARK VINA RESULT:    -3.353     19.478     20.612
REMARK INTER + INTRA:          -4.622
REMARK INTER:                  -4.269
REMARK INTRA:                  -0.353
REMARK UNBOUND:                -0.289
REMARK SMILES C=CC(=O)CCCCC
REMARK SMILES IDX 6 1 7 2 8 3 9 4 5 5 3 6 4 7 2 8 1 9
REMARK H PARENT
REMARK Flexibility Score: inf
ROOT
ATOM      1  C   UNL     1     166.525 199.049 303.382  1.00  0.00     0.008 C 
ENDROOT
BRANCH   1   2
ATOM      2  C   UNL     1     166.150 200.121 304.418  1.00  0.00     0.000 C 
BRANCH   2   3
ATOM      3  C   UNL     1     164.849 200.856 304.064  1.00  0.00    -0.003 C 
ATOM      4  C   UNL     1     165.072 202.365 303.996  1.00  0.00     0.004 C 
ENDBRANCH   2   3
ENDBRANCH   1   2
BRANCH   1   5
ATOM      5  C   UNL     1     165.914 199.325 301.997  1.00  0.00     0.080 C 
BRANCH   5   6
ATOM      6  C   UNL     1     166.855 200.069 301.076  1.00  0.00     0.155 C 
ATOM      7  O   UNL     1     166.902 201.328 301.104  1.00  0.00    -0.295 OA
BRANCH   6   8
ATOM      8  C   UNL     1     167.752 199.360 300.139  1.00  0.00     0.039 C 
ATOM      9  C   UNL     1     168.900 198.791 300.505  1.00  0.00     0.012 C 
ENDBRANCH   6   8
ENDBRANCH   5   6
ENDBRANCH   1   5
TORSDOF 5
ENDMDL
MODEL 8
REMARK VINA RESULT:    -3.297     18.066     20.125
REMARK INTER + INTRA:          -4.549
REMARK INTER:                  -4.069
REMARK INTRA:                  -0.480
REMARK UNBOUND:                -0.289
REMARK SMILES C=CC(=O)CCCCC
REMARK SMILES IDX 6 1 7 2 8 3 9 4 5 5 3 6 4 7 2 8 1 9
REMARK H PARENT
REMARK Flexibility Score: inf
ROOT
ATOM      1  C   UNL     1     165.839 201.759 303.345  1.00  0.00     0.008 C 
ENDROOT
BRANCH   1   2
ATOM      2  C   UNL     1     164.932 202.785 304.042  1.00  0.00     0.000 C 
BRANCH   2   3
ATOM      3  C   UNL     1     163.535 202.228 304.351  1.00  0.00    -0.003 C 
ATOM      4  C   UNL     1     163.037 202.716 305.709  1.00  0.00     0.004 C 
ENDBRANCH   2   3
ENDBRANCH   1   2
BRANCH   1   5
ATOM      5  C   UNL     1     165.309 200.320 303.469  1.00  0.00     0.080 C 
BRANCH   5   6
ATOM      6  C   UNL     1     166.333 199.362 304.035  1.00  0.00     0.155 C 
ATOM      7  O   UNL     1     167.052 198.675 303.260  1.00  0.00    -0.295 OA
BRANCH   6   8
ATOM      8  C   UNL     1     166.539 199.212 305.491  1.00  0.00     0.039 C 
ATOM      9  C   UNL     1     165.696 199.685 306.407  1.00  0.00     0.012 C 
ENDBRANCH   6   8
ENDBRANCH   5   6
ENDBRANCH   1   5
TORSDOF 5
ENDMDL
MODEL 9
REMARK VINA RESULT:    -1.680      1.734      4.252
REMARK INTER + INTRA:          -2.460
REMARK INTER:                  -2.046
REMARK INTRA:                  -0.413
REMARK UNBOUND:                -0.289
REMARK SMILES C=CC(=O)CCCCC
REMARK SMILES IDX 6 1 7 2 8 3 9 4 5 5 3 6 4 7 2 8 1 9
REMARK H PARENT
REMARK Flexibility Score: inf
ROOT
ATOM      1  C   UNL     1     168.280 183.744 315.430  1.00  0.00     0.008 C 
ENDROOT
BRANCH   1   2
ATOM      2  C   UNL     1     167.750 185.180 315.568  1.00  0.00     0.000 C 
BRANCH   2   3
ATOM      3  C   UNL     1     168.792 186.237 315.176  1.00  0.00    -0.003 C 
ATOM      4  C   UNL     1     169.503 185.854 313.881  1.00  0.00     0.004 C 
ENDBRANCH   2   3
ENDBRANCH   1   2
BRANCH   1   5
ATOM      5  C   UNL     1     168.939 183.230 316.723  1.00  0.00     0.080 C 
BRANCH   5   6
ATOM      6  C   UNL     1     168.065 183.417 317.943  1.00  0.00     0.155 C 
ATOM      7  O   UNL     1     166.912 182.910 317.979  1.00  0.00    -0.295 OA
BRANCH   6   8
ATOM      8  C   UNL     1     168.530 184.174 319.125  1.00  0.00     0.039 C 
ATOM      9  C   UNL     1     168.749 185.488 319.120  1.00  0.00     0.012 C 
ENDBRANCH   6   8
ENDBRANCH   5   6
ENDBRANCH   1   5
TORSDOF 5
ENDMDL
