MODEL 1
REMARK VINA RESULT:    -5.834      0.000      0.000
REMARK INTER + INTRA:          -7.194
REMARK INTER:                  -8.221
REMARK INTRA:                   1.027
REMARK UNBOUND:                 1.027
REMARK SMILES CC1=CCC(=C(C)C)C(=O)CC(C)=CCC1
REMARK SMILES IDX 12 1 14 2 13 3 15 4 16 5 2 6 1 7 3 8 11 10 9 11 10 12 5 13
REMARK SMILES IDX 6 14 7 15 8 16 4 17
REMARK H PARENT
REMARK Flexibility Score: 60.00
ROOT
ATOM      1  C   UNL     1      41.153 -13.159   8.845  1.00  0.00    -0.070 C 
ATOM      2  C   UNL     1      40.286 -12.187   8.478  1.00  0.00    -0.027 C 
ATOM      3  C   UNL     1      40.597 -14.336   9.610  1.00  0.00     0.039 C 
ENDROOT
BRANCH   2   4
ATOM      4  C   UNL     1      40.638 -10.882   7.805  1.00  0.00     0.032 C 
BRANCH   4   5
ATOM      5  C   UNL     1      41.711 -10.090   8.575  1.00  0.00     0.034 C 
BRANCH   5   6
ATOM      6  C   UNL     1      41.408 -10.009  10.058  1.00  0.00    -0.077 C 
ATOM      7  C   UNL     1      40.090  -9.416  10.489  1.00  0.00     0.039 C 
ATOM      8  C   UNL     1      42.242 -10.463  11.020  1.00  0.00    -0.023 CG0
ATOM      9  G   UNL     1      43.584 -11.116  10.789  1.00  0.00     0.000 G0
ENDBRANCH   5   6
ENDBRANCH   4   5
ENDBRANCH   2   4
BRANCH   1  10
ATOM     10  C   UNL     1      42.650 -13.099   8.588  1.00  0.00     0.111 C 
BRANCH  10  11
ATOM     11  C   UNL     1      43.440 -13.488   9.813  1.00  0.00     0.163 C 
ATOM     12  O   UNL     1      44.093 -14.566   9.780  1.00  0.00    -0.294 OA
BRANCH  11  13
ATOM     13  C   UNL     1      43.505 -12.612  11.024  1.00  0.00    -0.002 C 
ATOM     14  C   UNL     1      43.417 -13.126  12.289  1.00  0.00    -0.069 C 
ATOM     15  C   UNL     1      43.523 -12.238  13.509  1.00  0.00     0.039 C 
ATOM     16  C   UNL     1      43.176 -14.599  12.531  1.00  0.00     0.039 C 
BRANCH  13  17
ATOM     17  C   UNL     1      43.597 -11.115  10.790  1.00  0.00     0.066 CG0
ATOM     18  G   UNL     1      42.250 -10.476  11.023  1.00  0.00     0.000 G0
ENDBRANCH  13  17
ENDBRANCH  11  13
ENDBRANCH  10  11
ENDBRANCH   1  10
TORSDOF 0
ENDMDL
MODEL 2
REMARK VINA RESULT:    -5.627      2.096      4.295
REMARK INTER + INTRA:          -6.903
REMARK INTER:                  -7.433
REMARK INTRA:                   0.530
REMARK UNBOUND:                 1.027
REMARK SMILES CC1=CCC(=C(C)C)C(=O)CC(C)=CCC1
REMARK SMILES IDX 12 1 14 2 13 3 15 4 16 5 2 6 1 7 3 8 11 10 9 11 10 12 5 13
REMARK SMILES IDX 6 14 7 15 8 16 4 17
REMARK H PARENT
REMARK Flexibility Score: 60.00
ROOT
ATOM      1  C   UNL     1      42.442 -13.973   9.667  1.00  0.00    -0.070 C 
ATOM      2  C   UNL     1      41.190 -14.441   9.877  1.00  0.00    -0.027 C 
ATOM      3  C   UNL     1      43.517 -14.400  10.638  1.00  0.00     0.039 C 
ENDROOT
BRANCH   2   4
ATOM      4  C   UNL     1      39.952 -14.063   9.099  1.00  0.00     0.032 C 
BRANCH   4   5
ATOM      5  C   UNL     1      39.168 -12.912   9.758  1.00  0.00     0.034 C 
BRANCH   5   6
ATOM      6  C   UNL     1      38.647 -11.918   8.738  1.00  0.00    -0.077 C 
ATOM      7  C   UNL     1      37.380 -12.253   7.993  1.00  0.00     0.039 C 
ATOM      8  C   UNL     1      39.240 -10.731   8.477  1.00  0.00    -0.023 CG0
ATOM      9  G   UNL     1      40.489 -10.203   9.140  1.00  0.00     0.000 G0
ENDBRANCH   5   6
ENDBRANCH   4   5
ENDBRANCH   2   4
BRANCH   1  10
ATOM     10  C   UNL     1      42.807 -13.000   8.558  1.00  0.00     0.111 C 
BRANCH  10  11
ATOM     11  C   UNL     1      42.663 -11.567   9.008  1.00  0.00     0.163 C 
ATOM     12  O   UNL     1      43.401 -11.163   9.947  1.00  0.00    -0.294 OA
BRANCH  11  13
ATOM     13  C   UNL     1      41.717 -10.618   8.341  1.00  0.00    -0.002 C 
ATOM     14  C   UNL     1      41.972 -10.102   7.100  1.00  0.00    -0.069 C 
ATOM     15  C   UNL     1      40.992  -9.174   6.417  1.00  0.00     0.039 C 
ATOM     16  C   UNL     1      43.259 -10.403   6.365  1.00  0.00     0.039 C 
BRANCH  13  17
ATOM     17  C   UNL     1      40.494 -10.192   9.133  1.00  0.00     0.066 CG0
ATOM     18  G   UNL     1      39.246 -10.733   8.477  1.00  0.00     0.000 G0
ENDBRANCH  13  17
ENDBRANCH  11  13
ENDBRANCH  10  11
ENDBRANCH   1  10
TORSDOF 0
ENDMDL
MODEL 3
REMARK VINA RESULT:    -5.517      2.214      4.542
REMARK INTER + INTRA:          -6.747
REMARK INTER:                  -7.396
REMARK INTRA:                   0.649
REMARK UNBOUND:                 1.027
REMARK SMILES CC1=CCC(=C(C)C)C(=O)CC(C)=CCC1
REMARK SMILES IDX 12 1 14 2 13 3 15 4 16 5 2 6 1 7 3 8 11 10 9 11 10 12 5 13
REMARK SMILES IDX 6 14 7 15 8 16 4 17
REMARK H PARENT
REMARK Flexibility Score: 60.00
ROOT
ATOM      1  C   UNL     1      39.460 -13.008   9.350  1.00  0.00    -0.070 C 
ATOM      2  C   UNL     1      40.307 -13.880   9.946  1.00  0.00    -0.027 C 
ATOM      3  C   UNL     1      38.161 -12.705  10.059  1.00  0.00     0.039 C 
ENDROOT
BRANCH   2   4
ATOM      4  C   UNL     1      41.601 -14.403   9.369  1.00  0.00     0.032 C 
BRANCH   4   5
ATOM      5  C   UNL     1      42.801 -14.178  10.308  1.00  0.00     0.034 C 
BRANCH   5   6
ATOM      6  C   UNL     1      43.050 -12.706  10.576  1.00  0.00    -0.077 C 
ATOM      7  C   UNL     1      43.257 -12.262  12.002  1.00  0.00     0.039 C 
ATOM      8  C   UNL     1      43.124 -11.769   9.604  1.00  0.00    -0.023 CG0
ATOM      9  G   UNL     1      42.979 -12.020   8.122  1.00  0.00     0.000 G0
ENDBRANCH   5   6
ENDBRANCH   4   5
ENDBRANCH   2   4
BRANCH   1  10
ATOM     10  C   UNL     1      39.713 -12.375   7.991  1.00  0.00     0.111 C 
BRANCH  10  11
ATOM     11  C   UNL     1      40.572 -11.140   8.106  1.00  0.00     0.163 C 
ATOM     12  O   UNL     1      40.115 -10.159   8.753  1.00  0.00    -0.294 OA
BRANCH  11  13
ATOM     13  C   UNL     1      41.949 -11.075   7.523  1.00  0.00    -0.002 C 
ATOM     14  C   UNL     1      42.242 -10.264   6.462  1.00  0.00    -0.069 C 
ATOM     15  C   UNL     1      43.645 -10.176   5.903  1.00  0.00     0.039 C 
ATOM     16  C   UNL     1      41.176  -9.444   5.771  1.00  0.00     0.039 C 
BRANCH  13  17
ATOM     17  C   UNL     1      42.992 -12.006   8.112  1.00  0.00     0.066 CG0
ATOM     18  G   UNL     1      43.112 -11.766   9.598  1.00  0.00     0.000 G0
ENDBRANCH  13  17
ENDBRANCH  11  13
ENDBRANCH  10  11
ENDBRANCH   1  10
TORSDOF 0
ENDMDL
MODEL 4
REMARK VINA RESULT:    -5.509      1.411      2.032
REMARK INTER + INTRA:          -6.737
REMARK INTER:                  -7.507
REMARK INTRA:                   0.770
REMARK UNBOUND:                 1.027
REMARK SMILES CC1=CCC(=C(C)C)C(=O)CC(C)=CCC1
REMARK SMILES IDX 12 1 14 2 13 3 15 4 16 5 2 6 1 7 3 8 11 10 9 11 10 12 5 13
REMARK SMILES IDX 6 14 7 15 8 16 4 17
REMARK H PARENT
REMARK Flexibility Score: 60.00
ROOT
ATOM      1  C   UNL     1      39.311 -13.070   8.778  1.00  0.00    -0.070 C 
ATOM      2  C   UNL     1      39.222 -11.787   8.356  1.00  0.00    -0.027 C 
ATOM      3  C   UNL     1      38.743 -14.140   7.877  1.00  0.00     0.039 C 
ENDROOT
BRANCH   2   4
ATOM      4  C   UNL     1      39.625 -10.559   9.137  1.00  0.00     0.032 C 
BRANCH   4   5
ATOM      5  C   UNL     1      40.557  -9.629   8.339  1.00  0.00     0.034 C 
BRANCH   5   6
ATOM      6  C   UNL     1      41.938 -10.226   8.151  1.00  0.00    -0.077 C 
ATOM      7  C   UNL     1      42.616 -10.057   6.814  1.00  0.00     0.039 C 
ATOM      8  C   UNL     1      42.611 -10.880   9.124  1.00  0.00    -0.023 CG0
ATOM      9  G   UNL     1      42.118 -11.120  10.530  1.00  0.00     0.000 G0
ENDBRANCH   5   6
ENDBRANCH   4   5
ENDBRANCH   2   4
BRANCH   1  10
ATOM     10  C   UNL     1      39.885 -13.480  10.125  1.00  0.00     0.111 C 
BRANCH  10  11
ATOM     11  C   UNL     1      41.392 -13.537  10.091  1.00  0.00     0.163 C 
ATOM     12  O   UNL     1      41.937 -14.384   9.331  1.00  0.00    -0.294 OA
BRANCH  11  13
ATOM     13  C   UNL     1      42.239 -12.594  10.886  1.00  0.00    -0.002 C 
ATOM     14  C   UNL     1      43.019 -13.027  11.923  1.00  0.00    -0.069 C 
ATOM     15  C   UNL     1      43.902 -12.072  12.696  1.00  0.00     0.039 C 
ATOM     16  C   UNL     1      43.013 -14.472  12.370  1.00  0.00     0.039 C 
BRANCH  13  17
ATOM     17  C   UNL     1      42.139 -11.119  10.542  1.00  0.00     0.066 CG0
ATOM     18  G   UNL     1      42.607 -10.891   9.124  1.00  0.00     0.000 G0
ENDBRANCH  13  17
ENDBRANCH  11  13
ENDBRANCH  10  11
ENDBRANCH   1  10
TORSDOF 0
ENDMDL
MODEL 5
REMARK VINA RESULT:    -5.484      2.817      4.515
REMARK INTER + INTRA:          -6.701
REMARK INTER:                  -7.259
REMARK INTRA:                   0.558
REMARK UNBOUND:                 1.027
REMARK SMILES CC1=CCC(=C(C)C)C(=O)CC(C)=CCC1
REMARK SMILES IDX 12 1 14 2 13 3 15 4 16 5 2 6 1 7 3 8 11 10 9 11 10 12 5 13
REMARK SMILES IDX 6 14 7 15 8 16 4 17
REMARK H PARENT
REMARK Flexibility Score: 60.00
ROOT
ATOM      1  C   UNL     1      39.417 -12.937   9.235  1.00  0.00    -0.070 C 
ATOM      2  C   UNL     1      38.449 -13.236   8.337  1.00  0.00    -0.027 C 
ATOM      3  C   UNL     1      40.526 -13.945   9.424  1.00  0.00     0.039 C 
ENDROOT
BRANCH   2   4
ATOM      4  C   UNL     1      37.202 -12.428   8.067  1.00  0.00     0.032 C 
BRANCH   4   5
ATOM      5  C   UNL     1      37.513 -11.021   7.524  1.00  0.00     0.034 C 
BRANCH   5   6
ATOM      6  C   UNL     1      38.530 -11.054   6.400  1.00  0.00    -0.077 C 
ATOM      7  C   UNL     1      38.163 -11.766   5.122  1.00  0.00     0.039 C 
ATOM      8  C   UNL     1      39.741 -10.457   6.466  1.00  0.00    -0.023 CG0
ATOM      9  G   UNL     1      40.275  -9.671   7.640  1.00  0.00     0.000 G0
ENDBRANCH   5   6
ENDBRANCH   4   5
ENDBRANCH   2   4
BRANCH   1  10
ATOM     10  C   UNL     1      39.413 -11.688  10.101  1.00  0.00     0.111 C 
BRANCH  10  11
ATOM     11  C   UNL     1      40.654 -10.858   9.884  1.00  0.00     0.163 C 
ATOM     12  O   UNL     1      41.286 -10.460  10.900  1.00  0.00    -0.294 OA
BRANCH  11  13
ATOM     13  C   UNL     1      41.169 -10.547   8.514  1.00  0.00    -0.002 C 
ATOM     14  C   UNL     1      42.397 -10.979   8.092  1.00  0.00    -0.069 C 
ATOM     15  C   UNL     1      42.894 -10.693   6.693  1.00  0.00     0.039 C 
ATOM     16  C   UNL     1      43.331 -11.733   9.012  1.00  0.00     0.039 C 
BRANCH  13  17
ATOM     17  C   UNL     1      40.303  -9.664   7.634  1.00  0.00     0.066 CG0
ATOM     18  G   UNL     1      39.755 -10.470   6.482  1.00  0.00     0.000 G0
ENDBRANCH  13  17
ENDBRANCH  11  13
ENDBRANCH  10  11
ENDBRANCH   1  10
TORSDOF 0
ENDMDL
MODEL 6
REMARK VINA RESULT:    -5.447      1.974      3.295
REMARK INTER + INTRA:          -6.649
REMARK INTER:                  -7.460
REMARK INTRA:                   0.811
REMARK UNBOUND:                 1.027
REMARK SMILES CC1=CCC(=C(C)C)C(=O)CC(C)=CCC1
REMARK SMILES IDX 12 1 14 2 13 3 15 4 16 5 2 6 1 7 3 8 11 10 9 11 10 12 5 13
REMARK SMILES IDX 6 14 7 15 8 16 4 17
REMARK H PARENT
REMARK Flexibility Score: 60.00
ROOT
ATOM      1  C   UNL     1      40.845 -10.174   9.874  1.00  0.00    -0.070 C 
ATOM      2  C   UNL     1      39.676 -10.507   9.279  1.00  0.00    -0.027 C 
ATOM      3  C   UNL     1      40.770  -9.505  11.227  1.00  0.00     0.039 C 
ENDROOT
BRANCH   2   4
ATOM      4  C   UNL     1      39.513 -11.083   7.892  1.00  0.00     0.032 C 
BRANCH   4   5
ATOM      5  C   UNL     1      39.349 -12.614   7.903  1.00  0.00     0.034 C 
BRANCH   5   6
ATOM      6  C   UNL     1      39.102 -13.154   9.298  1.00  0.00    -0.077 C 
ATOM      7  C   UNL     1      37.725 -12.997   9.894  1.00  0.00     0.039 C 
ATOM      8  C   UNL     1      40.040 -13.793  10.032  1.00  0.00    -0.023 CG0
ATOM      9  G   UNL     1      41.458 -14.077   9.599  1.00  0.00     0.000 G0
ENDBRANCH   5   6
ENDBRANCH   4   5
ENDBRANCH   2   4
BRANCH   1  10
ATOM     10  C   UNL     1      42.209 -10.373   9.234  1.00  0.00     0.111 C 
BRANCH  10  11
ATOM     11  C   UNL     1      42.459 -11.823   8.901  1.00  0.00     0.163 C 
ATOM     12  O   UNL     1      42.800 -12.111   7.722  1.00  0.00    -0.294 OA
BRANCH  11  13
ATOM     13  C   UNL     1      42.363 -12.901   9.935  1.00  0.00    -0.002 C 
ATOM     14  C   UNL     1      43.090 -12.853  11.093  1.00  0.00    -0.069 C 
ATOM     15  C   UNL     1      42.958 -13.927  12.150  1.00  0.00     0.039 C 
ATOM     16  C   UNL     1      44.085 -11.746  11.359  1.00  0.00     0.039 C 
BRANCH  13  17
ATOM     17  C   UNL     1      41.480 -14.092   9.611  1.00  0.00     0.066 CG0
ATOM     18  G   UNL     1      40.057 -13.801  10.023  1.00  0.00     0.000 G0
ENDBRANCH  13  17
ENDBRANCH  11  13
ENDBRANCH  10  11
ENDBRANCH   1  10
TORSDOF 0
ENDMDL
MODEL 7
REMARK VINA RESULT:    -5.442     14.046     16.370
REMARK INTER + INTRA:          -6.642
REMARK INTER:                  -7.504
REMARK INTRA:                   0.862
REMARK UNBOUND:                 1.027
REMARK SMILES CC1=CCC(=C(C)C)C(=O)CC(C)=CCC1
REMARK SMILES IDX 12 1 14 2 13 3 15 4 16 5 2 6 1 7 3 8 11 10 9 11 10 12 5 13
REMARK SMILES IDX 6 14 7 15 8 16 4 17
REMARK H PARENT
REMARK Flexibility Score: 60.00
ROOT
ATOM      1  C   UNL     1      30.953 -14.034   2.357  1.00  0.00    -0.070 C 
ATOM      2  C   UNL     1      32.273 -14.205   2.112  1.00  0.00    -0.027 C 
ATOM      3  C   UNL     1      30.302 -14.972   3.346  1.00  0.00     0.039 C 
ENDROOT
BRANCH   2   4
ATOM      4  C   UNL     1      33.096 -13.455   1.091  1.00  0.00     0.032 C 
BRANCH   4   5
ATOM      5  C   UNL     1      32.495 -13.532  -0.326  1.00  0.00     0.034 C 
BRANCH   5   6
ATOM      6  C   UNL     1      32.142 -14.953  -0.721  1.00  0.00    -0.077 C 
ATOM      7  C   UNL     1      33.232 -15.995  -0.698  1.00  0.00     0.039 C 
ATOM      8  C   UNL     1      30.897 -15.347  -1.070  1.00  0.00    -0.023 CG0
ATOM      9  G   UNL     1      29.673 -14.465  -1.120  1.00  0.00     0.000 G0
ENDBRANCH   5   6
ENDBRANCH   4   5
ENDBRANCH   2   4
BRANCH   1  10
ATOM     10  C   UNL     1      30.087 -13.004   1.651  1.00  0.00     0.111 C 
BRANCH  10  11
ATOM     11  C   UNL     1      28.802 -13.612   1.145  1.00  0.00     0.163 C 
ATOM     12  O   UNL     1      27.715 -13.171   1.608  1.00  0.00    -0.294 OA
BRANCH  11  13
ATOM     13  C   UNL     1      28.789 -14.672   0.089  1.00  0.00    -0.002 C 
ATOM     14  C   UNL     1      28.063 -15.822   0.234  1.00  0.00    -0.069 C 
ATOM     15  C   UNL     1      28.025 -16.871  -0.856  1.00  0.00     0.039 C 
ATOM     16  C   UNL     1      27.293 -16.120   1.500  1.00  0.00     0.039 C 
BRANCH  13  17
ATOM     17  C   UNL     1      29.678 -14.451  -1.122  1.00  0.00     0.066 CG0
ATOM     18  G   UNL     1      30.890 -15.346  -1.037  1.00  0.00     0.000 G0
ENDBRANCH  13  17
ENDBRANCH  11  13
ENDBRANCH  10  11
ENDBRANCH   1  10
TORSDOF 0
ENDMDL
MODEL 8
REMARK VINA RESULT:    -5.301     13.347     15.221
REMARK INTER + INTRA:          -6.443
REMARK INTER:                  -6.845
REMARK INTRA:                   0.401
REMARK UNBOUND:                 1.027
REMARK SMILES CC1=CCC(=C(C)C)C(=O)CC(C)=CCC1
REMARK SMILES IDX 12 1 14 2 13 3 15 4 16 5 2 6 1 7 3 8 11 10 9 11 10 12 5 13
REMARK SMILES IDX 6 14 7 15 8 16 4 17
REMARK H PARENT
REMARK Flexibility Score: 60.00
ROOT
ATOM      1  C   UNL     1      30.457 -11.545  -0.732  1.00  0.00    -0.070 C 
ATOM      2  C   UNL     1      29.147 -11.627  -0.400  1.00  0.00    -0.027 C 
ATOM      3  C   UNL     1      31.000 -10.181  -1.087  1.00  0.00     0.039 C 
ENDROOT
BRANCH   2   4
ATOM      4  C   UNL     1      28.375 -12.893  -0.114  1.00  0.00     0.032 C 
BRANCH   4   5
ATOM      5  C   UNL     1      28.454 -13.314   1.365  1.00  0.00     0.034 C 
BRANCH   5   6
ATOM      6  C   UNL     1      28.950 -14.738   1.530  1.00  0.00    -0.077 C 
ATOM      7  C   UNL     1      28.026 -15.867   1.148  1.00  0.00     0.039 C 
ATOM      8  C   UNL     1      30.186 -15.054   1.977  1.00  0.00    -0.023 CG0
ATOM      9  G   UNL     1      31.260 -14.071   2.375  1.00  0.00     0.000 G0
ENDBRANCH   5   6
ENDBRANCH   4   5
ENDBRANCH   2   4
BRANCH   1  10
ATOM     10  C   UNL     1      31.382 -12.747  -0.829  1.00  0.00     0.111 C 
BRANCH  10  11
ATOM     11  C   UNL     1      32.306 -12.834   0.361  1.00  0.00     0.163 C 
ATOM     12  O   UNL     1      33.042 -11.841   0.613  1.00  0.00    -0.294 OA
BRANCH  11  13
ATOM     13  C   UNL     1      32.328 -14.029   1.261  1.00  0.00    -0.002 C 
ATOM     14  C   UNL     1      33.206 -15.059   1.066  1.00  0.00    -0.069 C 
ATOM     15  C   UNL     1      33.247 -16.246   2.004  1.00  0.00     0.039 C 
ATOM     16  C   UNL     1      34.153 -15.082  -0.113  1.00  0.00     0.039 C 
BRANCH  13  17
ATOM     17  C   UNL     1      31.281 -14.086   2.359  1.00  0.00     0.066 CG0
ATOM     18  G   UNL     1      30.180 -15.041   1.967  1.00  0.00     0.000 G0
ENDBRANCH  13  17
ENDBRANCH  11  13
ENDBRANCH  10  11
ENDBRANCH   1  10
TORSDOF 0
ENDMDL
MODEL 9
REMARK VINA RESULT:    -5.241      3.318      6.001
REMARK INTER + INTRA:          -6.358
REMARK INTER:                  -6.772
REMARK INTRA:                   0.413
REMARK UNBOUND:                 1.027
REMARK SMILES CC1=CCC(=C(C)C)C(=O)CC(C)=CCC1
REMARK SMILES IDX 12 1 14 2 13 3 15 4 16 5 2 6 1 7 3 8 11 10 9 11 10 12 5 13
REMARK SMILES IDX 6 14 7 15 8 16 4 17
REMARK H PARENT
REMARK Flexibility Score: 60.00
ROOT
ATOM      1  C   UNL     1      40.680  -9.444   8.164  1.00  0.00    -0.070 C 
ATOM      2  C   UNL     1      41.466  -9.758   9.220  1.00  0.00    -0.027 C 
ATOM      3  C   UNL     1      40.270  -7.999   8.007  1.00  0.00     0.039 C 
ENDROOT
BRANCH   2   4
ATOM      4  C   UNL     1      41.904 -11.145   9.626  1.00  0.00     0.032 C 
BRANCH   4   5
ATOM      5  C   UNL     1      40.774 -11.952  10.292  1.00  0.00     0.034 C 
BRANCH   5   6
ATOM      6  C   UNL     1      40.575 -13.306   9.638  1.00  0.00    -0.077 C 
ATOM      7  C   UNL     1      41.700 -14.308   9.710  1.00  0.00     0.039 C 
ATOM      8  C   UNL     1      39.435 -13.677   9.014  1.00  0.00    -0.023 CG0
ATOM      9  G   UNL     1      38.193 -12.832   8.868  1.00  0.00     0.000 G0
ENDBRANCH   5   6
ENDBRANCH   4   5
ENDBRANCH   2   4
BRANCH   1  10
ATOM     10  C   UNL     1      40.140 -10.467   7.177  1.00  0.00     0.111 C 
BRANCH  10  11
ATOM     11  C   UNL     1      38.680 -10.756   7.420  1.00  0.00     0.163 C 
ATOM     12  O   UNL     1      37.888  -9.778   7.507  1.00  0.00    -0.294 OA
BRANCH  11  13
ATOM     13  C   UNL     1      38.152 -12.153   7.506  1.00  0.00    -0.002 C 
ATOM     14  C   UNL     1      37.606 -12.784   6.422  1.00  0.00    -0.069 C 
ATOM     15  C   UNL     1      37.110 -14.210   6.507  1.00  0.00     0.039 C 
ATOM     16  C   UNL     1      37.438 -12.077   5.095  1.00  0.00     0.039 C 
BRANCH  13  17
ATOM     17  C   UNL     1      38.179 -12.819   8.870  1.00  0.00     0.066 CG0
ATOM     18  G   UNL     1      39.428 -13.656   9.007  1.00  0.00     0.000 G0
ENDBRANCH  13  17
ENDBRANCH  11  13
ENDBRANCH  10  11
ENDBRANCH   1  10
TORSDOF 0
ENDMDL
