MODEL 1
REMARK VINA RESULT:    -4.785      0.000      0.000
REMARK INTER + INTRA:          -4.785
REMARK INTER:                  -4.785
REMARK INTRA:                   0.000
REMARK UNBOUND:                 0.000
REMARK SMILES CC1=CC(=O)[C@H]2C[C@@H]1C2(C)C
REMARK SMILES IDX 1 1 2 2 3 3 4 4 5 5 6 6 7 7 8 8 9 9 10 10 11 11
REMARK H PARENT
REMARK Flexibility Score: inf
ROOT
ATOM      1  C   UNL     1     137.246 183.408 189.824  1.00  0.00     0.040 C 
ATOM      2  C   UNL     1     137.155 184.494 190.847  1.00  0.00    -0.066 C 
ATOM      3  C   UNL     1     138.103 184.639 191.815  1.00  0.00     0.047 C 
ATOM      4  C   UNL     1     137.881 185.746 192.800  1.00  0.00     0.159 C 
ATOM      5  O   UNL     1     138.665 185.956 193.763  1.00  0.00    -0.295 OA
ATOM      6  C   UNL     1     136.639 186.602 192.555  1.00  0.00     0.067 C 
ATOM      7  C   UNL     1     136.673 186.892 191.038  1.00  0.00     0.021 C 
ATOM      8  C   UNL     1     135.997 185.515 190.848  1.00  0.00     0.022 C 
ATOM      9  C   UNL     1     135.432 185.657 192.291  1.00  0.00    -0.019 C 
ATOM     10  C   UNL     1     134.076 186.408 192.322  1.00  0.00     0.012 C 
ATOM     11  C   UNL     1     135.296 184.372 193.156  1.00  0.00     0.012 C 
ENDROOT
TORSDOF 0
ENDMDL
MODEL 2
REMARK VINA RESULT:    -4.778      1.741      2.901
REMARK INTER + INTRA:          -4.778
REMARK INTER:                  -4.778
REMARK INTRA:                   0.000
REMARK UNBOUND:                 0.000
REMARK SMILES CC1=CC(=O)[C@H]2C[C@@H]1C2(C)C
REMARK SMILES IDX 1 1 2 2 3 3 4 4 5 5 6 6 7 7 8 8 9 9 10 10 11 11
REMARK H PARENT
REMARK Flexibility Score: inf
ROOT
ATOM      1  C   UNL     1     138.924 186.617 190.742  1.00  0.00     0.040 C 
ATOM      2  C   UNL     1     137.840 185.648 191.089  1.00  0.00    -0.066 C 
ATOM      3  C   UNL     1     137.957 184.802 192.151  1.00  0.00     0.047 C 
ATOM      4  C   UNL     1     136.815 183.857 192.375  1.00  0.00     0.159 C 
ATOM      5  O   UNL     1     136.823 183.001 193.297  1.00  0.00    -0.295 OA
ATOM      6  C   UNL     1     135.643 184.006 191.406  1.00  0.00     0.067 C 
ATOM      7  C   UNL     1     135.402 185.530 191.335  1.00  0.00     0.021 C 
ATOM      8  C   UNL     1     136.528 185.571 190.278  1.00  0.00     0.022 C 
ATOM      9  C   UNL     1     136.204 184.083 189.958  1.00  0.00    -0.019 C 
ATOM     10  C   UNL     1     135.094 183.939 188.886  1.00  0.00     0.012 C 
ATOM     11  C   UNL     1     137.380 183.142 189.570  1.00  0.00     0.012 C 
ENDROOT
TORSDOF 0
ENDMDL
MODEL 3
REMARK VINA RESULT:    -4.607      1.888      3.446
REMARK INTER + INTRA:          -4.607
REMARK INTER:                  -4.607
REMARK INTRA:                   0.000
REMARK UNBOUND:                 0.000
REMARK SMILES CC1=CC(=O)[C@H]2C[C@@H]1C2(C)C
REMARK SMILES IDX 1 1 2 2 3 3 4 4 5 5 6 6 7 7 8 8 9 9 10 10 11 11
REMARK H PARENT
REMARK Flexibility Score: inf
ROOT
ATOM      1  C   UNL     1     138.008 186.387 194.987  1.00  0.00     0.040 C 
ATOM      2  C   UNL     1     137.230 186.272 193.715  1.00  0.00    -0.066 C 
ATOM      3  C   UNL     1     135.876 186.419 193.695  1.00  0.00     0.047 C 
ATOM      4  C   UNL     1     135.210 186.249 192.363  1.00  0.00     0.159 C 
ATOM      5  O   UNL     1     133.961 186.321 192.223  1.00  0.00    -0.295 OA
ATOM      6  C   UNL     1     136.152 185.981 191.190  1.00  0.00     0.067 C 
ATOM      7  C   UNL     1     137.289 187.009 191.376  1.00  0.00     0.021 C 
ATOM      8  C   UNL     1     137.922 186.001 192.361  1.00  0.00     0.022 C 
ATOM      9  C   UNL     1     137.160 184.873 191.607  1.00  0.00    -0.019 C 
ATOM     10  C   UNL     1     137.964 184.322 190.402  1.00  0.00     0.012 C 
ATOM     11  C   UNL     1     136.631 183.665 192.432  1.00  0.00     0.012 C 
ENDROOT
TORSDOF 0
ENDMDL
MODEL 4
REMARK VINA RESULT:    -4.547      1.507      3.336
REMARK INTER + INTRA:          -4.547
REMARK INTER:                  -4.547
REMARK INTRA:                   0.000
REMARK UNBOUND:                 0.000
REMARK SMILES CC1=CC(=O)[C@H]2C[C@@H]1C2(C)C
REMARK SMILES IDX 1 1 2 2 3 3 4 4 5 5 6 6 7 7 8 8 9 9 10 10 11 11
REMARK H PARENT
REMARK Flexibility Score: inf
ROOT
ATOM      1  C   UNL     1     134.246 186.259 192.522  1.00  0.00     0.040 C 
ATOM      2  C   UNL     1     135.526 185.730 191.959  1.00  0.00    -0.066 C 
ATOM      3  C   UNL     1     136.482 186.566 191.464  1.00  0.00     0.047 C 
ATOM      4  C   UNL     1     137.706 185.912 190.899  1.00  0.00     0.159 C 
ATOM      5  O   UNL     1     138.641 186.573 190.377  1.00  0.00    -0.295 OA
ATOM      6  C   UNL     1     137.739 184.387 190.999  1.00  0.00     0.067 C 
ATOM      7  C   UNL     1     137.287 184.094 192.447  1.00  0.00     0.021 C 
ATOM      8  C   UNL     1     135.837 184.218 191.926  1.00  0.00     0.022 C 
ATOM      9  C   UNL     1     136.370 183.829 190.517  1.00  0.00    -0.019 C 
ATOM     10  C   UNL     1     136.401 182.295 190.301  1.00  0.00     0.012 C 
ATOM     11  C   UNL     1     135.703 184.483 189.273  1.00  0.00     0.012 C 
ENDROOT
TORSDOF 0
ENDMDL
MODEL 5
REMARK VINA RESULT:    -4.520      1.973      2.998
REMARK INTER + INTRA:          -4.520
REMARK INTER:                  -4.520
REMARK INTRA:                   0.000
REMARK UNBOUND:                 0.000
REMARK SMILES CC1=CC(=O)[C@H]2C[C@@H]1C2(C)C
REMARK SMILES IDX 1 1 2 2 3 3 4 4 5 5 6 6 7 7 8 8 9 9 10 10 11 11
REMARK H PARENT
REMARK Flexibility Score: inf
ROOT
ATOM      1  C   UNL     1     138.917 186.294 190.582  1.00  0.00     0.040 C 
ATOM      2  C   UNL     1     137.516 185.827 190.815  1.00  0.00    -0.066 C 
ATOM      3  C   UNL     1     136.598 186.621 191.434  1.00  0.00     0.047 C 
ATOM      4  C   UNL     1     135.237 186.026 191.636  1.00  0.00     0.159 C 
ATOM      5  O   UNL     1     134.315 186.644 192.231  1.00  0.00    -0.295 OA
ATOM      6  C   UNL     1     135.047 184.618 191.073  1.00  0.00     0.067 C 
ATOM      7  C   UNL     1     135.674 184.688 189.663  1.00  0.00     0.021 C 
ATOM      8  C   UNL     1     137.035 184.435 190.351  1.00  0.00     0.022 C 
ATOM      9  C   UNL     1     136.258 183.744 191.508  1.00  0.00    -0.019 C 
ATOM     10  C   UNL     1     136.022 182.235 191.241  1.00  0.00     0.012 C 
ATOM     11  C   UNL     1     136.801 183.902 192.956  1.00  0.00     0.012 C 
ENDROOT
TORSDOF 0
ENDMDL
MODEL 6
REMARK VINA RESULT:    -4.434      0.997      3.176
REMARK INTER + INTRA:          -4.434
REMARK INTER:                  -4.434
REMARK INTRA:                   0.000
REMARK UNBOUND:                 0.000
REMARK SMILES CC1=CC(=O)[C@H]2C[C@@H]1C2(C)C
REMARK SMILES IDX 1 1 2 2 3 3 4 4 5 5 6 6 7 7 8 8 9 9 10 10 11 11
REMARK H PARENT
REMARK Flexibility Score: inf
ROOT
ATOM      1  C   UNL     1     134.113 186.310 192.256  1.00  0.00     0.040 C 
ATOM      2  C   UNL     1     135.493 185.798 192.519  1.00  0.00    -0.066 C 
ATOM      3  C   UNL     1     136.271 186.330 193.503  1.00  0.00     0.047 C 
ATOM      4  C   UNL     1     137.646 185.751 193.646  1.00  0.00     0.159 C 
ATOM      5  O   UNL     1     138.473 186.184 194.491  1.00  0.00    -0.295 OA
ATOM      6  C   UNL     1     137.975 184.600 192.695  1.00  0.00     0.067 C 
ATOM      7  C   UNL     1     136.727 183.692 192.757  1.00  0.00     0.021 C 
ATOM      8  C   UNL     1     136.097 184.633 191.705  1.00  0.00     0.022 C 
ATOM      9  C   UNL     1     137.540 185.007 191.258  1.00  0.00    -0.019 C 
ATOM     10  C   UNL     1     138.091 184.040 190.179  1.00  0.00     0.012 C 
ATOM     11  C   UNL     1     137.809 186.465 190.789  1.00  0.00     0.012 C 
ENDROOT
TORSDOF 0
ENDMDL
MODEL 7
REMARK VINA RESULT:    -4.413      1.559      3.141
REMARK INTER + INTRA:          -4.413
REMARK INTER:                  -4.413
REMARK INTRA:                   0.000
REMARK UNBOUND:                 0.000
REMARK SMILES CC1=CC(=O)[C@H]2C[C@@H]1C2(C)C
REMARK SMILES IDX 1 1 2 2 3 3 4 4 5 5 6 6 7 7 8 8 9 9 10 10 11 11
REMARK H PARENT
REMARK Flexibility Score: inf
ROOT
ATOM      1  C   UNL     1     134.025 186.280 192.282  1.00  0.00     0.040 C 
ATOM      2  C   UNL     1     135.516 186.226 192.379  1.00  0.00    -0.066 C 
ATOM      3  C   UNL     1     136.309 186.722 191.389  1.00  0.00     0.047 C 
ATOM      4  C   UNL     1     137.788 186.579 191.591  1.00  0.00     0.159 C 
ATOM      5  O   UNL     1     138.623 186.963 190.730  1.00  0.00    -0.295 OA
ATOM      6  C   UNL     1     138.210 185.936 192.911  1.00  0.00     0.067 C 
ATOM      7  C   UNL     1     137.335 186.641 193.971  1.00  0.00     0.021 C 
ATOM      8  C   UNL     1     136.229 185.624 193.609  1.00  0.00     0.022 C 
ATOM      9  C   UNL     1     137.353 184.658 193.135  1.00  0.00    -0.019 C 
ATOM     10  C   UNL     1     137.898 183.776 194.287  1.00  0.00     0.012 C 
ATOM     11  C   UNL     1     137.065 183.739 191.914  1.00  0.00     0.012 C 
ENDROOT
TORSDOF 0
ENDMDL
MODEL 8
REMARK VINA RESULT:    -4.395      1.981      2.861
REMARK INTER + INTRA:          -4.395
REMARK INTER:                  -4.395
REMARK INTRA:                   0.000
REMARK UNBOUND:                 0.000
REMARK SMILES CC1=CC(=O)[C@H]2C[C@@H]1C2(C)C
REMARK SMILES IDX 1 1 2 2 3 3 4 4 5 5 6 6 7 7 8 8 9 9 10 10 11 11
REMARK H PARENT
REMARK Flexibility Score: inf
ROOT
ATOM      1  C   UNL     1     139.052 186.639 190.522  1.00  0.00     0.040 C 
ATOM      2  C   UNL     1     138.181 185.657 191.238  1.00  0.00    -0.066 C 
ATOM      3  C   UNL     1     137.695 184.550 190.609  1.00  0.00     0.047 C 
ATOM      4  C   UNL     1     136.809 183.659 191.426  1.00  0.00     0.159 C 
ATOM      5  O   UNL     1     136.267 182.629 190.947  1.00  0.00    -0.295 OA
ATOM      6  C   UNL     1     136.608 184.090 192.879  1.00  0.00     0.067 C 
ATOM      7  C   UNL     1     138.029 184.447 193.366  1.00  0.00     0.021 C 
ATOM      8  C   UNL     1     137.806 185.835 192.725  1.00  0.00     0.022 C 
ATOM      9  C   UNL     1     136.277 185.609 192.904  1.00  0.00    -0.019 C 
ATOM     10  C   UNL     1     135.770 186.080 194.291  1.00  0.00     0.012 C 
ATOM     11  C   UNL     1     135.318 186.174 191.817  1.00  0.00     0.012 C 
ENDROOT
TORSDOF 0
ENDMDL
MODEL 9
REMARK VINA RESULT:    -4.368      1.920      2.664
REMARK INTER + INTRA:          -4.368
REMARK INTER:                  -4.368
REMARK INTRA:                   0.000
REMARK UNBOUND:                 0.000
REMARK SMILES CC1=CC(=O)[C@H]2C[C@@H]1C2(C)C
REMARK SMILES IDX 1 1 2 2 3 3 4 4 5 5 6 6 7 7 8 8 9 9 10 10 11 11
REMARK H PARENT
REMARK Flexibility Score: inf
ROOT
ATOM      1  C   UNL     1     134.846 183.825 188.524  1.00  0.00     0.040 C 
ATOM      2  C   UNL     1     135.617 183.949 189.798  1.00  0.00    -0.066 C 
ATOM      3  C   UNL     1     135.498 183.025 190.792  1.00  0.00     0.047 C 
ATOM      4  C   UNL     1     136.301 183.279 192.033  1.00  0.00     0.159 C 
ATOM      5  O   UNL     1     136.245 182.520 193.035  1.00  0.00    -0.295 OA
ATOM      6  C   UNL     1     137.189 184.522 191.995  1.00  0.00     0.067 C 
ATOM      7  C   UNL     1     137.875 184.454 190.613  1.00  0.00     0.021 C 
ATOM      8  C   UNL     1     136.599 185.115 190.044  1.00  0.00     0.022 C 
ATOM      9  C   UNL     1     136.348 185.715 191.457  1.00  0.00    -0.019 C 
ATOM     10  C   UNL     1     137.061 187.076 191.656  1.00  0.00     0.012 C 
ATOM     11  C   UNL     1     134.877 185.860 191.943  1.00  0.00     0.012 C 
ENDROOT
TORSDOF 0
ENDMDL
