MODEL 1
REMARK VINA RESULT:     3.841      0.000      0.000
REMARK INTER + INTRA:           4.492
REMARK INTER:                   4.515
REMARK INTRA:                  -0.023
REMARK UNBOUND:                -0.023
REMARK SMILES CCCCC(=O)[O-]
REMARK SMILES IDX 4 1 5 2 6 3 7 4 3 5 2 6 1 7
REMARK H PARENT
REMARK Flexibility Score: inf
ROOT
ATOM      1  C   UNL     1      -0.937  -9.064  24.939  1.00  0.00     0.053 C 
ENDROOT
BRANCH   1   2
ATOM      2  C   UNL     1      -2.106  -8.603  24.124  1.00  0.00     0.041 C 
ATOM      3  O   UNL     1      -3.280  -8.757  24.556  1.00  0.00    -0.550 OA
ATOM      4  O   UNL     1      -1.903  -7.974  22.902  1.00  0.00    -0.550 OA
ENDBRANCH   1   2
BRANCH   1   5
ATOM      5  C   UNL     1       0.031  -7.919  25.282  1.00  0.00     0.006 C 
BRANCH   5   6
ATOM      6  C   UNL     1       0.624  -8.009  26.699  1.00  0.00    -0.003 C 
ATOM      7  C   UNL     1       0.953  -9.439  27.125  1.00  0.00     0.004 C 
ENDBRANCH   5   6
ENDBRANCH   1   5
TORSDOF 3
ENDMDL
MODEL 2
REMARK VINA RESULT:     4.299      9.355     10.063
REMARK INTER + INTRA:           5.031
REMARK INTER:                   5.129
REMARK INTRA:                  -0.098
REMARK UNBOUND:                -0.023
REMARK SMILES CCCCC(=O)[O-]
REMARK SMILES IDX 4 1 5 2 6 3 7 4 3 5 2 6 1 7
REMARK H PARENT
REMARK Flexibility Score: inf
ROOT
ATOM      1  C   UNL     1      -5.664 -18.291  25.625  1.00  0.00     0.053 C 
ENDROOT
BRANCH   1   2
ATOM      2  C   UNL     1      -5.584 -18.252  24.129  1.00  0.00     0.041 C 
ATOM      3  O   UNL     1      -4.628 -17.661  23.562  1.00  0.00    -0.550 OA
ATOM      4  O   UNL     1      -6.546 -18.895  23.361  1.00  0.00    -0.550 OA
ENDBRANCH   1   2
BRANCH   1   5
ATOM      5  C   UNL     1      -4.701 -17.297  26.293  1.00  0.00     0.006 C 
BRANCH   5   6
ATOM      6  C   UNL     1      -5.364 -15.976  26.719  1.00  0.00    -0.003 C 
ATOM      7  C   UNL     1      -4.752 -14.749  26.043  1.00  0.00     0.004 C 
ENDBRANCH   5   6
ENDBRANCH   1   5
TORSDOF 3
ENDMDL
MODEL 3
REMARK VINA RESULT:     5.629      2.746      3.815
REMARK INTER + INTRA:           6.593
REMARK INTER:                   6.658
REMARK INTRA:                  -0.065
REMARK UNBOUND:                -0.023
REMARK SMILES CCCCC(=O)[O-]
REMARK SMILES IDX 4 1 5 2 6 3 7 4 3 5 2 6 1 7
REMARK H PARENT
REMARK Flexibility Score: inf
ROOT
ATOM      1  C   UNL     1      -0.784  -9.327  25.699  1.00  0.00     0.053 C 
ENDROOT
BRANCH   1   2
ATOM      2  C   UNL     1       0.384  -8.621  26.317  1.00  0.00     0.041 C 
ATOM      3  O   UNL     1       0.547  -7.386  26.132  1.00  0.00    -0.550 OA
ATOM      4  O   UNL     1       1.275  -9.318  27.123  1.00  0.00    -0.550 OA
ENDBRANCH   1   2
BRANCH   1   5
ATOM      5  C   UNL     1      -1.518  -8.459  24.664  1.00  0.00     0.006 C 
BRANCH   5   6
ATOM      6  C   UNL     1      -1.532  -9.057  23.246  1.00  0.00    -0.003 C 
ATOM      7  C   UNL     1      -1.096 -10.521  23.206  1.00  0.00     0.004 C 
ENDBRANCH   5   6
ENDBRANCH   1   5
TORSDOF 3
ENDMDL
MODEL 4
REMARK VINA RESULT:     5.787      8.919      9.916
REMARK INTER + INTRA:           6.780
REMARK INTER:                   6.839
REMARK INTRA:                  -0.059
REMARK UNBOUND:                -0.023
REMARK SMILES CCCCC(=O)[O-]
REMARK SMILES IDX 4 1 5 2 6 3 7 4 3 5 2 6 1 7
REMARK H PARENT
REMARK Flexibility Score: inf
ROOT
ATOM      1  C   UNL     1      -4.542 -16.864  25.345  1.00  0.00     0.053 C 
ENDROOT
BRANCH   1   2
ATOM      2  C   UNL     1      -4.979 -15.696  26.175  1.00  0.00     0.041 C 
ATOM      3  O   UNL     1      -5.801 -15.859  27.115  1.00  0.00    -0.550 OA
ATOM      4  O   UNL     1      -4.456 -14.432  25.933  1.00  0.00    -0.550 OA
ENDBRANCH   1   2
BRANCH   1   5
ATOM      5  C   UNL     1      -5.389 -18.121  25.604  1.00  0.00     0.006 C 
BRANCH   5   6
ATOM      6  C   UNL     1      -5.980 -18.748  24.330  1.00  0.00    -0.003 C 
ATOM      7  C   UNL     1      -5.551 -18.030  23.051  1.00  0.00     0.004 C 
ENDBRANCH   5   6
ENDBRANCH   1   5
TORSDOF 3
ENDMDL
MODEL 5
REMARK VINA RESULT:     6.110      2.762      4.779
REMARK INTER + INTRA:           7.158
REMARK INTER:                   7.189
REMARK INTRA:                  -0.031
REMARK UNBOUND:                -0.023
REMARK SMILES CCCCC(=O)[O-]
REMARK SMILES IDX 4 1 5 2 6 3 7 4 3 5 2 6 1 7
REMARK H PARENT
REMARK Flexibility Score: inf
ROOT
ATOM      1  C   UNL     1      -2.175  -7.355  23.257  1.00  0.00     0.053 C 
ENDROOT
BRANCH   1   2
ATOM      2  C   UNL     1      -2.436  -8.544  24.129  1.00  0.00     0.041 C 
ATOM      3  O   UNL     1      -3.598  -8.773  24.558  1.00  0.00    -0.550 OA
ATOM      4  O   UNL     1      -1.405  -9.419  24.445  1.00  0.00    -0.550 OA
ENDBRANCH   1   2
BRANCH   1   5
ATOM      5  C   UNL     1      -2.191  -7.707  21.760  1.00  0.00     0.006 C 
BRANCH   5   6
ATOM      6  C   UNL     1      -3.301  -6.997  20.965  1.00  0.00    -0.003 C 
ATOM      7  C   UNL     1      -3.237  -7.274  19.463  1.00  0.00     0.004 C 
ENDBRANCH   5   6
ENDBRANCH   1   5
TORSDOF 3
ENDMDL
MODEL 6
REMARK VINA RESULT:     6.323     12.340     13.722
REMARK INTER + INTRA:           7.410
REMARK INTER:                   7.427
REMARK INTRA:                  -0.017
REMARK UNBOUND:                -0.023
REMARK SMILES CCCCC(=O)[O-]
REMARK SMILES IDX 4 1 5 2 6 3 7 4 3 5 2 6 1 7
REMARK H PARENT
REMARK Flexibility Score: inf
ROOT
ATOM      1  C   UNL     1      -9.335 -15.708  17.388  1.00  0.00     0.053 C 
ENDROOT
BRANCH   1   2
ATOM      2  C   UNL     1      -9.335 -14.321  17.954  1.00  0.00     0.041 C 
ATOM      3  O   UNL     1      -8.545 -14.018  18.887  1.00  0.00    -0.550 OA
ATOM      4  O   UNL     1     -10.182 -13.352  17.431  1.00  0.00    -0.550 OA
ENDBRANCH   1   2
BRANCH   1   5
ATOM      5  C   UNL     1      -9.835 -16.756  18.396  1.00  0.00     0.006 C 
BRANCH   5   6
ATOM      6  C   UNL     1     -10.171 -18.118  17.764  1.00  0.00    -0.003 C 
ATOM      7  C   UNL     1      -8.981 -18.763  17.055  1.00  0.00     0.004 C 
ENDBRANCH   5   6
ENDBRANCH   1   5
TORSDOF 3
ENDMDL
