MODEL 1
REMARK VINA RESULT:    -5.855      0.000      0.000
REMARK INTER + INTRA:         -13.864
REMARK INTER:                 -12.701
REMARK INTRA:                  -1.162
REMARK UNBOUND:                -1.162
REMARK SMILES CCCCCCCCCCCCCCCCCCCCCC(=O)[O-]
REMARK SMILES IDX 12 1 11 2 10 3 9 4 8 5 7 6 6 7 5 8 4 9 3 10 2 11 1 12 13 13
REMARK SMILES IDX 14 14 15 15 16 16 17 17 18 18 19 19 20 20 21 21 22 22 23 23
REMARK SMILES IDX 24 24
REMARK H PARENT
REMARK Flexibility Score: inf
ROOT
ATOM      1  C   UNL     1      11.281   9.370 -18.640  1.00  0.00     0.000 C 
ENDROOT
BRANCH   1   2
ATOM      2  C   UNL     1      10.754  10.668 -19.281  1.00  0.00     0.000 C 
BRANCH   2   3
ATOM      3  C   UNL     1      10.472  11.821 -18.300  1.00  0.00     0.000 C 
BRANCH   3   4
ATOM      4  C   UNL     1       9.787  13.043 -18.949  1.00  0.00    -0.000 C 
BRANCH   4   5
ATOM      5  C   UNL     1       9.528  12.846 -20.454  1.00  0.00    -0.000 C 
BRANCH   5   6
ATOM      6  C   UNL     1       8.080  13.170 -20.857  1.00  0.00    -0.000 C 
BRANCH   6   7
ATOM      7  C   UNL     1       7.797  14.679 -20.871  1.00  0.00    -0.000 C 
BRANCH   7   8
ATOM      8  C   UNL     1       6.469  14.979 -21.582  1.00  0.00    -0.000 C 
BRANCH   8   9
ATOM      9  C   UNL     1       5.667  13.710 -21.920  1.00  0.00    -0.000 C 
BRANCH   9  10
ATOM     10  C   UNL     1       4.486  13.927 -22.884  1.00  0.00    -0.000 C 
BRANCH  10  11
ATOM     11  C   UNL     1       3.141  13.481 -22.292  1.00  0.00    -0.003 C 
ATOM     12  C   UNL     1       2.793  14.284 -21.043  1.00  0.00     0.004 C 
ENDBRANCH  10  11
ENDBRANCH   9  10
ENDBRANCH   8   9
ENDBRANCH   7   8
ENDBRANCH   6   7
ENDBRANCH   5   6
ENDBRANCH   4   5
ENDBRANCH   3   4
ENDBRANCH   2   3
ENDBRANCH   1   2
BRANCH   1  13
ATOM     13  C   UNL     1      12.092   8.459 -19.581  1.00  0.00     0.000 C 
BRANCH  13  14
ATOM     14  C   UNL     1      12.999   7.471 -18.828  1.00  0.00     0.000 C 
BRANCH  14  15
ATOM     15  C   UNL     1      14.178   6.991 -19.693  1.00  0.00     0.000 C 
BRANCH  15  16
ATOM     16  C   UNL     1      14.185   7.640 -21.088  1.00  0.00     0.000 C 
BRANCH  16  17
ATOM     17  C   UNL     1      15.585   7.664 -21.728  1.00  0.00     0.000 C 
BRANCH  17  18
ATOM     18  C   UNL     1      16.374   8.974 -21.526  1.00  0.00     0.000 C 
BRANCH  18  19
ATOM     19  C   UNL     1      17.471   8.910 -20.450  1.00  0.00     0.000 C 
BRANCH  19  20
ATOM     20  C   UNL     1      18.106  10.280 -20.164  1.00  0.00     0.006 C 
BRANCH  20  21
ATOM     21  C   UNL     1      17.281  11.406 -20.792  1.00  0.00     0.053 C 
BRANCH  21  22
ATOM     22  C   UNL     1      17.591  12.713 -20.135  1.00  0.00     0.041 C 
ATOM     23  O   UNL     1      16.666  13.529 -19.880  1.00  0.00    -0.550 OA
ATOM     24  O   UNL     1      18.892  13.006 -19.748  1.00  0.00    -0.550 OA
ENDBRANCH  21  22
ENDBRANCH  20  21
ENDBRANCH  19  20
ENDBRANCH  18  19
ENDBRANCH  17  18
ENDBRANCH  16  17
ENDBRANCH  15  16
ENDBRANCH  14  15
ENDBRANCH  13  14
ENDBRANCH   1  13
TORSDOF 20
ENDMDL
MODEL 2
REMARK VINA RESULT:    -5.850      2.174      3.214
REMARK INTER + INTRA:         -13.853
REMARK INTER:                 -12.500
REMARK INTRA:                  -1.353
REMARK UNBOUND:                -1.162
REMARK SMILES CCCCCCCCCCCCCCCCCCCCCC(=O)[O-]
REMARK SMILES IDX 12 1 11 2 10 3 9 4 8 5 7 6 6 7 5 8 4 9 3 10 2 11 1 12 13 13
REMARK SMILES IDX 14 14 15 15 16 16 17 17 18 18 19 19 20 20 21 21 22 22 23 23
REMARK SMILES IDX 24 24
REMARK H PARENT
REMARK Flexibility Score: inf
ROOT
ATOM      1  C   UNL     1      11.840   8.583 -19.239  1.00  0.00     0.000 C 
ENDROOT
BRANCH   1   2
ATOM      2  C   UNL     1      11.296   9.936 -19.734  1.00  0.00     0.000 C 
BRANCH   2   3
ATOM      3  C   UNL     1      10.506  10.751 -18.693  1.00  0.00     0.000 C 
BRANCH   3   4
ATOM      4  C   UNL     1      11.097  10.688 -17.268  1.00  0.00    -0.000 C 
BRANCH   4   5
ATOM      5  C   UNL     1      10.665  11.882 -16.396  1.00  0.00    -0.000 C 
BRANCH   5   6
ATOM      6  C   UNL     1       9.876  12.940 -17.183  1.00  0.00    -0.000 C 
BRANCH   6   7
ATOM      7  C   UNL     1       9.534  14.173 -16.334  1.00  0.00    -0.000 C 
BRANCH   7   8
ATOM      8  C   UNL     1       9.148  15.362 -17.225  1.00  0.00    -0.000 C 
BRANCH   8   9
ATOM      9  C   UNL     1       9.487  15.135 -18.709  1.00  0.00    -0.000 C 
BRANCH   9  10
ATOM     10  C   UNL     1       8.383  15.556 -19.698  1.00  0.00    -0.000 C 
BRANCH  10  11
ATOM     11  C   UNL     1       8.289  14.630 -20.919  1.00  0.00    -0.003 C 
ATOM     12  C   UNL     1       8.594  13.183 -20.541  1.00  0.00     0.004 C 
ENDBRANCH  10  11
ENDBRANCH   9  10
ENDBRANCH   8   9
ENDBRANCH   7   8
ENDBRANCH   6   7
ENDBRANCH   5   6
ENDBRANCH   4   5
ENDBRANCH   3   4
ENDBRANCH   2   3
ENDBRANCH   1   2
BRANCH   1  13
ATOM     13  C   UNL     1      12.692   7.808 -20.261  1.00  0.00     0.000 C 
BRANCH  13  14
ATOM     14  C   UNL     1      13.794   6.959 -19.606  1.00  0.00     0.000 C 
BRANCH  14  15
ATOM     15  C   UNL     1      14.814   6.438 -20.635  1.00  0.00     0.000 C 
BRANCH  15  16
ATOM     16  C   UNL     1      15.354   7.556 -21.544  1.00  0.00     0.000 C 
BRANCH  16  17
ATOM     17  C   UNL     1      16.454   8.394 -20.869  1.00  0.00     0.000 C 
BRANCH  17  18
ATOM     18  C   UNL     1      16.781   9.729 -21.570  1.00  0.00     0.000 C 
BRANCH  18  19
ATOM     19  C   UNL     1      18.103  10.384 -21.132  1.00  0.00     0.000 C 
BRANCH  19  20
ATOM     20  C   UNL     1      17.889  11.606 -20.225  1.00  0.00     0.006 C 
BRANCH  20  21
ATOM     21  C   UNL     1      18.065  12.908 -21.011  1.00  0.00     0.053 C 
BRANCH  21  22
ATOM     22  C   UNL     1      17.318  14.023 -20.353  1.00  0.00     0.041 C 
ATOM     23  O   UNL     1      16.944  13.916 -19.156  1.00  0.00    -0.550 OA
ATOM     24  O   UNL     1      17.086  15.207 -21.042  1.00  0.00    -0.550 OA
ENDBRANCH  21  22
ENDBRANCH  20  21
ENDBRANCH  19  20
ENDBRANCH  18  19
ENDBRANCH  17  18
ENDBRANCH  16  17
ENDBRANCH  15  16
ENDBRANCH  14  15
ENDBRANCH  13  14
ENDBRANCH   1  13
TORSDOF 20
ENDMDL
MODEL 3
REMARK VINA RESULT:    -5.813      2.503      4.077
REMARK INTER + INTRA:         -13.771
REMARK INTER:                 -12.532
REMARK INTRA:                  -1.240
REMARK UNBOUND:                -1.162
REMARK SMILES CCCCCCCCCCCCCCCCCCCCCC(=O)[O-]
REMARK SMILES IDX 12 1 11 2 10 3 9 4 8 5 7 6 6 7 5 8 4 9 3 10 2 11 1 12 13 13
REMARK SMILES IDX 14 14 15 15 16 16 17 17 18 18 19 19 20 20 21 21 22 22 23 23
REMARK SMILES IDX 24 24
REMARK H PARENT
REMARK Flexibility Score: inf
ROOT
ATOM      1  C   UNL     1      13.357   7.320 -20.211  1.00  0.00     0.000 C 
ENDROOT
BRANCH   1   2
ATOM      2  C   UNL     1      13.131   7.437 -18.692  1.00  0.00     0.000 C 
BRANCH   2   3
ATOM      3  C   UNL     1      12.236   8.609 -18.246  1.00  0.00     0.000 C 
BRANCH   3   4
ATOM      4  C   UNL     1      11.475   9.293 -19.403  1.00  0.00    -0.000 C 
BRANCH   4   5
ATOM      5  C   UNL     1      10.654  10.507 -18.933  1.00  0.00    -0.000 C 
BRANCH   5   6
ATOM      6  C   UNL     1      10.445  11.551 -20.043  1.00  0.00    -0.000 C 
BRANCH   6   7
ATOM      7  C   UNL     1       9.031  12.150 -20.030  1.00  0.00    -0.000 C 
BRANCH   7   8
ATOM      8  C   UNL     1       9.029  13.560 -20.637  1.00  0.00    -0.000 C 
BRANCH   8   9
ATOM      9  C   UNL     1       8.956  14.672 -19.575  1.00  0.00    -0.000 C 
BRANCH   9  10
ATOM     10  C   UNL     1       9.746  14.386 -18.283  1.00  0.00    -0.000 C 
BRANCH  10  11
ATOM     11  C   UNL     1       9.177  15.120 -17.060  1.00  0.00    -0.003 C 
ATOM     12  C   UNL     1       9.821  14.623 -15.769  1.00  0.00     0.004 C 
ENDBRANCH  10  11
ENDBRANCH   9  10
ENDBRANCH   8   9
ENDBRANCH   7   8
ENDBRANCH   6   7
ENDBRANCH   5   6
ENDBRANCH   4   5
ENDBRANCH   3   4
ENDBRANCH   2   3
ENDBRANCH   1   2
BRANCH   1  13
ATOM     13  C   UNL     1      14.752   6.817 -20.627  1.00  0.00     0.000 C 
BRANCH  13  14
ATOM     14  C   UNL     1      15.371   7.639 -21.771  1.00  0.00     0.000 C 
BRANCH  14  15
ATOM     15  C   UNL     1      16.645   8.380 -21.328  1.00  0.00     0.000 C 
BRANCH  15  16
ATOM     16  C   UNL     1      16.686   8.622 -19.809  1.00  0.00     0.000 C 
BRANCH  16  17
ATOM     17  C   UNL     1      17.999   9.277 -19.344  1.00  0.00     0.000 C 
BRANCH  17  18
ATOM     18  C   UNL     1      19.104   9.360 -20.417  1.00  0.00     0.000 C 
BRANCH  18  19
ATOM     19  C   UNL     1      19.565  10.787 -20.764  1.00  0.00     0.000 C 
BRANCH  19  20
ATOM     20  C   UNL     1      18.392  11.755 -20.981  1.00  0.00     0.006 C 
BRANCH  20  21
ATOM     21  C   UNL     1      18.756  13.168 -20.519  1.00  0.00     0.053 C 
BRANCH  21  22
ATOM     22  C   UNL     1      17.521  13.960 -20.227  1.00  0.00     0.041 C 
ATOM     23  O   UNL     1      16.858  13.736 -19.181  1.00  0.00    -0.550 OA
ATOM     24  O   UNL     1      17.135  14.986 -21.080  1.00  0.00    -0.550 OA
ENDBRANCH  21  22
ENDBRANCH  20  21
ENDBRANCH  19  20
ENDBRANCH  18  19
ENDBRANCH  17  18
ENDBRANCH  16  17
ENDBRANCH  15  16
ENDBRANCH  14  15
ENDBRANCH  13  14
ENDBRANCH   1  13
TORSDOF 20
ENDMDL
MODEL 4
REMARK VINA RESULT:    -5.747      1.108      1.755
REMARK INTER + INTRA:         -13.629
REMARK INTER:                 -12.507
REMARK INTRA:                  -1.122
REMARK UNBOUND:                -1.162
REMARK SMILES CCCCCCCCCCCCCCCCCCCCCC(=O)[O-]
REMARK SMILES IDX 12 1 11 2 10 3 9 4 8 5 7 6 6 7 5 8 4 9 3 10 2 11 1 12 13 13
REMARK SMILES IDX 14 14 15 15 16 16 17 17 18 18 19 19 20 20 21 21 22 22 23 23
REMARK SMILES IDX 24 24
REMARK H PARENT
REMARK Flexibility Score: inf
ROOT
ATOM      1  C   UNL     1      10.795  10.079 -18.732  1.00  0.00     0.000 C 
ENDROOT
BRANCH   1   2
ATOM      2  C   UNL     1      11.125  10.478 -17.281  1.00  0.00     0.000 C 
BRANCH   2   3
ATOM      3  C   UNL     1      10.643  11.878 -16.856  1.00  0.00     0.000 C 
BRANCH   3   4
ATOM      4  C   UNL     1      10.232  12.786 -18.036  1.00  0.00    -0.000 C 
BRANCH   4   5
ATOM      5  C   UNL     1       9.660  14.137 -17.571  1.00  0.00    -0.000 C 
BRANCH   5   6
ATOM      6  C   UNL     1       9.258  15.049 -18.741  1.00  0.00    -0.000 C 
BRANCH   6   7
ATOM      7  C   UNL     1       8.893  14.258 -20.006  1.00  0.00    -0.000 C 
BRANCH   7   8
ATOM      8  C   UNL     1       7.877  15.029 -20.860  1.00  0.00    -0.000 C 
BRANCH   8   9
ATOM      9  C   UNL     1       6.759  14.133 -21.422  1.00  0.00    -0.000 C 
BRANCH   9  10
ATOM     10  C   UNL     1       5.519  14.888 -21.934  1.00  0.00    -0.000 C 
BRANCH  10  11
ATOM     11  C   UNL     1       4.372  13.950 -22.341  1.00  0.00    -0.003 C 
ATOM     12  C   UNL     1       4.785  13.040 -23.493  1.00  0.00     0.004 C 
ENDBRANCH  10  11
ENDBRANCH   9  10
ENDBRANCH   8   9
ENDBRANCH   7   8
ENDBRANCH   6   7
ENDBRANCH   5   6
ENDBRANCH   4   5
ENDBRANCH   3   4
ENDBRANCH   2   3
ENDBRANCH   1   2
BRANCH   1  13
ATOM     13  C   UNL     1      11.811   9.130 -19.395  1.00  0.00     0.000 C 
BRANCH  13  14
ATOM     14  C   UNL     1      12.579   8.267 -18.381  1.00  0.00     0.000 C 
BRANCH  14  15
ATOM     15  C   UNL     1      13.148   6.988 -19.021  1.00  0.00     0.000 C 
BRANCH  15  16
ATOM     16  C   UNL     1      13.465   7.170 -20.516  1.00  0.00     0.000 C 
BRANCH  16  17
ATOM     17  C   UNL     1      14.871   6.672 -20.893  1.00  0.00     0.000 C 
BRANCH  17  18
ATOM     18  C   UNL     1      15.843   7.765 -21.383  1.00  0.00     0.000 C 
BRANCH  18  19
ATOM     19  C   UNL     1      16.484   8.609 -20.268  1.00  0.00     0.000 C 
BRANCH  19  20
ATOM     20  C   UNL     1      17.698   9.415 -20.755  1.00  0.00     0.006 C 
BRANCH  20  21
ATOM     21  C   UNL     1      17.277  10.810 -21.224  1.00  0.00     0.053 C 
BRANCH  21  22
ATOM     22  C   UNL     1      17.861  11.861 -20.335  1.00  0.00     0.041 C 
ATOM     23  O   UNL     1      19.099  11.880 -20.106  1.00  0.00    -0.550 OA
ATOM     24  O   UNL     1      17.049  12.856 -19.807  1.00  0.00    -0.550 OA
ENDBRANCH  21  22
ENDBRANCH  20  21
ENDBRANCH  19  20
ENDBRANCH  18  19
ENDBRANCH  17  18
ENDBRANCH  16  17
ENDBRANCH  15  16
ENDBRANCH  14  15
ENDBRANCH  13  14
ENDBRANCH   1  13
TORSDOF 20
ENDMDL
MODEL 5
REMARK VINA RESULT:    -5.741      2.276      3.378
REMARK INTER + INTRA:         -13.617
REMARK INTER:                 -12.206
REMARK INTRA:                  -1.411
REMARK UNBOUND:                -1.162
REMARK SMILES CCCCCCCCCCCCCCCCCCCCCC(=O)[O-]
REMARK SMILES IDX 12 1 11 2 10 3 9 4 8 5 7 6 6 7 5 8 4 9 3 10 2 11 1 12 13 13
REMARK SMILES IDX 14 14 15 15 16 16 17 17 18 18 19 19 20 20 21 21 22 22 23 23
REMARK SMILES IDX 24 24
REMARK H PARENT
REMARK Flexibility Score: inf
ROOT
ATOM      1  C   UNL     1      11.696   8.190 -18.855  1.00  0.00     0.000 C 
ENDROOT
BRANCH   1   2
ATOM      2  C   UNL     1      11.290   9.591 -19.349  1.00  0.00     0.000 C 
BRANCH   2   3
ATOM      3  C   UNL     1      11.042  10.635 -18.244  1.00  0.00     0.000 C 
BRANCH   3   4
ATOM      4  C   UNL     1      10.362  11.928 -18.744  1.00  0.00    -0.000 C 
BRANCH   4   5
ATOM      5  C   UNL     1       9.933  11.838 -20.220  1.00  0.00    -0.000 C 
BRANCH   5   6
ATOM      6  C   UNL     1       8.700  12.700 -20.535  1.00  0.00    -0.000 C 
BRANCH   6   7
ATOM      7  C   UNL     1       9.070  14.133 -20.944  1.00  0.00    -0.000 C 
BRANCH   7   8
ATOM      8  C   UNL     1       8.392  15.157 -20.022  1.00  0.00    -0.000 C 
BRANCH   8   9
ATOM      9  C   UNL     1       9.398  16.014 -19.233  1.00  0.00    -0.000 C 
BRANCH   9  10
ATOM     10  C   UNL     1       9.111  16.125 -17.724  1.00  0.00    -0.000 C 
BRANCH  10  11
ATOM     11  C   UNL     1       9.507  14.862 -16.946  1.00  0.00    -0.003 C 
ATOM     12  C   UNL     1      10.075  15.213 -15.574  1.00  0.00     0.004 C 
ENDBRANCH  10  11
ENDBRANCH   9  10
ENDBRANCH   8   9
ENDBRANCH   7   8
ENDBRANCH   6   7
ENDBRANCH   5   6
ENDBRANCH   4   5
ENDBRANCH   3   4
ENDBRANCH   2   3
ENDBRANCH   1   2
BRANCH   1  13
ATOM     13  C   UNL     1      13.150   7.784 -19.163  1.00  0.00     0.000 C 
BRANCH  13  14
ATOM     14  C   UNL     1      13.326   7.205 -20.577  1.00  0.00     0.000 C 
BRANCH  14  15
ATOM     15  C   UNL     1      14.663   6.459 -20.734  1.00  0.00     0.000 C 
BRANCH  15  16
ATOM     16  C   UNL     1      15.640   7.194 -21.668  1.00  0.00     0.000 C 
BRANCH  16  17
ATOM     17  C   UNL     1      15.403   8.715 -21.701  1.00  0.00     0.000 C 
BRANCH  17  18
ATOM     18  C   UNL     1      16.683   9.575 -21.735  1.00  0.00     0.000 C 
BRANCH  18  19
ATOM     19  C   UNL     1      17.598   9.427 -20.507  1.00  0.00     0.000 C 
BRANCH  19  20
ATOM     20  C   UNL     1      18.732  10.463 -20.481  1.00  0.00     0.006 C 
BRANCH  20  21
ATOM     21  C   UNL     1      18.315  11.748 -21.200  1.00  0.00     0.053 C 
BRANCH  21  22
ATOM     22  C   UNL     1      17.974  12.816 -20.210  1.00  0.00     0.041 C 
ATOM     23  O   UNL     1      18.888  13.471 -19.644  1.00  0.00    -0.550 OA
ATOM     24  O   UNL     1      16.645  13.131 -19.957  1.00  0.00    -0.550 OA
ENDBRANCH  21  22
ENDBRANCH  20  21
ENDBRANCH  19  20
ENDBRANCH  18  19
ENDBRANCH  17  18
ENDBRANCH  16  17
ENDBRANCH  15  16
ENDBRANCH  14  15
ENDBRANCH  13  14
ENDBRANCH   1  13
TORSDOF 20
ENDMDL
MODEL 6
REMARK VINA RESULT:    -5.656      1.777      2.493
REMARK INTER + INTRA:         -13.431
REMARK INTER:                 -12.537
REMARK INTRA:                  -0.895
REMARK UNBOUND:                -1.162
REMARK SMILES CCCCCCCCCCCCCCCCCCCCCC(=O)[O-]
REMARK SMILES IDX 12 1 11 2 10 3 9 4 8 5 7 6 6 7 5 8 4 9 3 10 2 11 1 12 13 13
REMARK SMILES IDX 14 14 15 15 16 16 17 17 18 18 19 19 20 20 21 21 22 22 23 23
REMARK SMILES IDX 24 24
REMARK H PARENT
REMARK Flexibility Score: inf
ROOT
ATOM      1  C   UNL     1      10.641  10.376 -18.781  1.00  0.00     0.000 C 
ENDROOT
BRANCH   1   2
ATOM      2  C   UNL     1      10.620  11.793 -19.385  1.00  0.00     0.000 C 
BRANCH   2   3
ATOM      3  C   UNL     1       9.550  12.032 -20.468  1.00  0.00     0.000 C 
BRANCH   3   4
ATOM      4  C   UNL     1       8.774  13.356 -20.300  1.00  0.00    -0.000 C 
BRANCH   4   5
ATOM      5  C   UNL     1       7.498  13.406 -21.161  1.00  0.00    -0.000 C 
BRANCH   5   6
ATOM      6  C   UNL     1       7.062  14.840 -21.499  1.00  0.00    -0.000 C 
BRANCH   6   7
ATOM      7  C   UNL     1       5.535  14.996 -21.551  1.00  0.00    -0.000 C 
BRANCH   7   8
ATOM      8  C   UNL     1       4.923  14.039 -22.585  1.00  0.00    -0.000 C 
BRANCH   8   9
ATOM      9  C   UNL     1       3.530  13.527 -22.179  1.00  0.00    -0.000 C 
BRANCH   9  10
ATOM     10  C   UNL     1       2.844  14.333 -21.059  1.00  0.00    -0.000 C 
BRANCH  10  11
ATOM     11  C   UNL     1       2.071  13.447 -20.071  1.00  0.00    -0.003 C 
ATOM     12  C   UNL     1       0.629  13.242 -20.524  1.00  0.00     0.004 C 
ENDBRANCH  10  11
ENDBRANCH   9  10
ENDBRANCH   8   9
ENDBRANCH   7   8
ENDBRANCH   6   7
ENDBRANCH   5   6
ENDBRANCH   4   5
ENDBRANCH   3   4
ENDBRANCH   2   3
ENDBRANCH   1   2
BRANCH   1  13
ATOM     13  C   UNL     1      11.569   9.375 -19.494  1.00  0.00     0.000 C 
BRANCH  13  14
ATOM     14  C   UNL     1      11.852   8.116 -18.657  1.00  0.00     0.000 C 
BRANCH  14  15
ATOM     15  C   UNL     1      13.250   7.536 -18.938  1.00  0.00     0.000 C 
BRANCH  15  16
ATOM     16  C   UNL     1      13.456   7.192 -20.424  1.00  0.00     0.000 C 
BRANCH  16  17
ATOM     17  C   UNL     1      14.866   6.653 -20.722  1.00  0.00     0.000 C 
BRANCH  17  18
ATOM     18  C   UNL     1      15.604   7.357 -21.879  1.00  0.00     0.000 C 
BRANCH  18  19
ATOM     19  C   UNL     1      15.986   8.823 -21.607  1.00  0.00     0.000 C 
BRANCH  19  20
ATOM     20  C   UNL     1      17.358   8.966 -20.931  1.00  0.00     0.006 C 
BRANCH  20  21
ATOM     21  C   UNL     1      17.253   8.721 -19.424  1.00  0.00     0.053 C 
BRANCH  21  22
ATOM     22  C   UNL     1      18.590   8.883 -18.772  1.00  0.00     0.041 C 
ATOM     23  O   UNL     1      19.551   9.383 -19.413  1.00  0.00    -0.550 OA
ATOM     24  O   UNL     1      18.759   8.539 -17.437  1.00  0.00    -0.550 OA
ENDBRANCH  21  22
ENDBRANCH  20  21
ENDBRANCH  19  20
ENDBRANCH  18  19
ENDBRANCH  17  18
ENDBRANCH  16  17
ENDBRANCH  15  16
ENDBRANCH  14  15
ENDBRANCH  13  14
ENDBRANCH   1  13
TORSDOF 20
ENDMDL
MODEL 7
REMARK VINA RESULT:    -5.654      1.100      3.036
REMARK INTER + INTRA:         -13.426
REMARK INTER:                 -12.484
REMARK INTRA:                  -0.941
REMARK UNBOUND:                -1.162
REMARK SMILES CCCCCCCCCCCCCCCCCCCCCC(=O)[O-]
REMARK SMILES IDX 12 1 11 2 10 3 9 4 8 5 7 6 6 7 5 8 4 9 3 10 2 11 1 12 13 13
REMARK SMILES IDX 14 14 15 15 16 16 17 17 18 18 19 19 20 20 21 21 22 22 23 23
REMARK SMILES IDX 24 24
REMARK H PARENT
REMARK Flexibility Score: inf
ROOT
ATOM      1  C   UNL     1      13.482   7.455 -20.292  1.00  0.00     0.000 C 
ENDROOT
BRANCH   1   2
ATOM      2  C   UNL     1      12.988   7.325 -18.838  1.00  0.00     0.000 C 
BRANCH   2   3
ATOM      3  C   UNL     1      11.972   8.391 -18.389  1.00  0.00     0.000 C 
BRANCH   3   4
ATOM      4  C   UNL     1      11.484   9.313 -19.527  1.00  0.00    -0.000 C 
BRANCH   4   5
ATOM      5  C   UNL     1      10.639  10.492 -19.011  1.00  0.00    -0.000 C 
BRANCH   5   6
ATOM      6  C   UNL     1      10.662  11.702 -19.960  1.00  0.00    -0.000 C 
BRANCH   6   7
ATOM      7  C   UNL     1       9.253  12.157 -20.369  1.00  0.00    -0.000 C 
BRANCH   7   8
ATOM      8  C   UNL     1       8.980  13.589 -19.889  1.00  0.00    -0.000 C 
BRANCH   8   9
ATOM      9  C   UNL     1       8.135  14.406 -20.883  1.00  0.00    -0.000 C 
BRANCH   9  10
ATOM     10  C   UNL     1       6.953  13.642 -21.509  1.00  0.00    -0.000 C 
BRANCH  10  11
ATOM     11  C   UNL     1       5.700  14.514 -21.678  1.00  0.00    -0.003 C 
ATOM     12  C   UNL     1       4.719  13.886 -22.664  1.00  0.00     0.004 C 
ENDBRANCH  10  11
ENDBRANCH   9  10
ENDBRANCH   8   9
ENDBRANCH   7   8
ENDBRANCH   6   7
ENDBRANCH   5   6
ENDBRANCH   4   5
ENDBRANCH   3   4
ENDBRANCH   2   3
ENDBRANCH   1   2
BRANCH   1  13
ATOM     13  C   UNL     1      14.829   6.769 -20.588  1.00  0.00     0.000 C 
BRANCH  13  14
ATOM     14  C   UNL     1      15.587   7.413 -21.761  1.00  0.00     0.000 C 
BRANCH  14  15
ATOM     15  C   UNL     1      16.589   8.481 -21.288  1.00  0.00     0.000 C 
BRANCH  15  16
ATOM     16  C   UNL     1      16.677   8.565 -19.754  1.00  0.00     0.000 C 
BRANCH  16  17
ATOM     17  C   UNL     1      18.078   8.966 -19.258  1.00  0.00     0.000 C 
BRANCH  17  18
ATOM     18  C   UNL     1      19.141   9.127 -20.363  1.00  0.00     0.000 C 
BRANCH  18  19
ATOM     19  C   UNL     1      19.497  10.583 -20.713  1.00  0.00     0.000 C 
BRANCH  19  20
ATOM     20  C   UNL     1      18.405  11.281 -21.538  1.00  0.00     0.006 C 
BRANCH  20  21
ATOM     21  C   UNL     1      18.551  12.803 -21.460  1.00  0.00     0.053 C 
BRANCH  21  22
ATOM     22  C   UNL     1      18.143  13.301 -20.110  1.00  0.00     0.041 C 
ATOM     23  O   UNL     1      18.998  13.810 -19.338  1.00  0.00    -0.550 OA
ATOM     24  O   UNL     1      16.809  13.259 -19.726  1.00  0.00    -0.550 OA
ENDBRANCH  21  22
ENDBRANCH  20  21
ENDBRANCH  19  20
ENDBRANCH  18  19
ENDBRANCH  17  18
ENDBRANCH  16  17
ENDBRANCH  15  16
ENDBRANCH  14  15
ENDBRANCH  13  14
ENDBRANCH   1  13
TORSDOF 20
ENDMDL
MODEL 8
REMARK VINA RESULT:    -5.636      2.173      4.112
REMARK INTER + INTRA:         -13.387
REMARK INTER:                 -11.661
REMARK INTRA:                  -1.726
REMARK UNBOUND:                -1.162
REMARK SMILES CCCCCCCCCCCCCCCCCCCCCC(=O)[O-]
REMARK SMILES IDX 12 1 11 2 10 3 9 4 8 5 7 6 6 7 5 8 4 9 3 10 2 11 1 12 13 13
REMARK SMILES IDX 14 14 15 15 16 16 17 17 18 18 19 19 20 20 21 21 22 22 23 23
REMARK SMILES IDX 24 24
REMARK H PARENT
REMARK Flexibility Score: inf
ROOT
ATOM      1  C   UNL     1      10.569  10.417 -19.159  1.00  0.00     0.000 C 
ENDROOT
BRANCH   1   2
ATOM      2  C   UNL     1      10.608  11.663 -20.064  1.00  0.00     0.000 C 
BRANCH   2   3
ATOM      3  C   UNL     1       9.235  12.253 -20.435  1.00  0.00     0.000 C 
BRANCH   3   4
ATOM      4  C   UNL     1       9.298  13.700 -20.971  1.00  0.00    -0.000 C 
BRANCH   4   5
ATOM      5  C   UNL     1       8.068  14.533 -20.567  1.00  0.00    -0.000 C 
BRANCH   5   6
ATOM      6  C   UNL     1       8.444  15.855 -19.877  1.00  0.00    -0.000 C 
BRANCH   6   7
ATOM      7  C   UNL     1       9.538  15.675 -18.815  1.00  0.00    -0.000 C 
BRANCH   7   8
ATOM      8  C   UNL     1       8.976  15.911 -17.405  1.00  0.00    -0.000 C 
BRANCH   8   9
ATOM      9  C   UNL     1       9.289  14.760 -16.433  1.00  0.00    -0.000 C 
BRANCH   9  10
ATOM     10  C   UNL     1       9.834  13.481 -17.097  1.00  0.00    -0.000 C 
BRANCH  10  11
ATOM     11  C   UNL     1      10.412  12.481 -16.084  1.00  0.00    -0.003 C 
ATOM     12  C   UNL     1      10.831  13.180 -14.795  1.00  0.00     0.004 C 
ENDBRANCH  10  11
ENDBRANCH   9  10
ENDBRANCH   8   9
ENDBRANCH   7   8
ENDBRANCH   6   7
ENDBRANCH   5   6
ENDBRANCH   4   5
ENDBRANCH   3   4
ENDBRANCH   2   3
ENDBRANCH   1   2
BRANCH   1  13
ATOM     13  C   UNL     1      11.601   9.327 -19.502  1.00  0.00     0.000 C 
BRANCH  13  14
ATOM     14  C   UNL     1      12.150   8.605 -18.260  1.00  0.00     0.000 C 
BRANCH  14  15
ATOM     15  C   UNL     1      13.109   7.459 -18.631  1.00  0.00     0.000 C 
BRANCH  15  16
ATOM     16  C   UNL     1      13.376   7.384 -20.145  1.00  0.00     0.000 C 
BRANCH  16  17
ATOM     17  C   UNL     1      14.569   6.479 -20.496  1.00  0.00     0.000 C 
BRANCH  17  18
ATOM     18  C   UNL     1      15.415   6.947 -21.697  1.00  0.00     0.000 C 
BRANCH  18  19
ATOM     19  C   UNL     1      15.638   8.468 -21.779  1.00  0.00     0.000 C 
BRANCH  19  20
ATOM     20  C   UNL     1      16.865   8.933 -20.980  1.00  0.00     0.006 C 
BRANCH  20  21
ATOM     21  C   UNL     1      17.240  10.372 -21.343  1.00  0.00     0.053 C 
BRANCH  21  22
ATOM     22  C   UNL     1      18.116  10.968 -20.287  1.00  0.00     0.041 C 
ATOM     23  O   UNL     1      17.677  11.880 -19.539  1.00  0.00    -0.550 OA
ATOM     24  O   UNL     1      19.400  10.475 -20.089  1.00  0.00    -0.550 OA
ENDBRANCH  21  22
ENDBRANCH  20  21
ENDBRANCH  19  20
ENDBRANCH  18  19
ENDBRANCH  17  18
ENDBRANCH  16  17
ENDBRANCH  15  16
ENDBRANCH  14  15
ENDBRANCH  13  14
ENDBRANCH   1  13
TORSDOF 20
ENDMDL
MODEL 9
REMARK VINA RESULT:    -5.518      3.599      9.494
REMARK INTER + INTRA:         -13.132
REMARK INTER:                 -11.211
REMARK INTRA:                  -1.920
REMARK UNBOUND:                -1.162
REMARK SMILES CCCCCCCCCCCCCCCCCCCCCC(=O)[O-]
REMARK SMILES IDX 12 1 11 2 10 3 9 4 8 5 7 6 6 7 5 8 4 9 3 10 2 11 1 12 13 13
REMARK SMILES IDX 14 14 15 15 16 16 17 17 18 18 19 19 20 20 21 21 22 22 23 23
REMARK SMILES IDX 24 24
REMARK H PARENT
REMARK Flexibility Score: inf
ROOT
ATOM      1  C   UNL     1      15.624   7.831 -21.770  1.00  0.00     0.000 C 
ENDROOT
BRANCH   1   2
ATOM      2  C   UNL     1      16.684   8.820 -21.247  1.00  0.00     0.000 C 
BRANCH   2   3
ATOM      3  C   UNL     1      16.815   8.897 -19.714  1.00  0.00     0.000 C 
BRANCH   3   4
ATOM      4  C   UNL     1      18.270   9.023 -19.214  1.00  0.00    -0.000 C 
BRANCH   4   5
ATOM      5  C   UNL     1      19.286   9.106 -20.367  1.00  0.00    -0.000 C 
BRANCH   5   6
ATOM      6  C   UNL     1      19.829  10.529 -20.581  1.00  0.00    -0.000 C 
BRANCH   6   7
ATOM      7  C   UNL     1      19.442  11.107 -21.950  1.00  0.00    -0.000 C 
BRANCH   7   8
ATOM      8  C   UNL     1      18.290  12.114 -21.813  1.00  0.00    -0.000 C 
BRANCH   8   9
ATOM      9  C   UNL     1      18.140  12.664 -20.384  1.00  0.00    -0.000 C 
BRANCH   9  10
ATOM     10  C   UNL     1      17.490  14.058 -20.292  1.00  0.00    -0.000 C 
BRANCH  10  11
ATOM     11  C   UNL     1      18.181  14.973 -19.269  1.00  0.00    -0.003 C 
ATOM     12  C   UNL     1      19.682  14.706 -19.214  1.00  0.00     0.004 C 
ENDBRANCH  10  11
ENDBRANCH   9  10
ENDBRANCH   8   9
ENDBRANCH   7   8
ENDBRANCH   6   7
ENDBRANCH   5   6
ENDBRANCH   4   5
ENDBRANCH   3   4
ENDBRANCH   2   3
ENDBRANCH   1   2
BRANCH   1  13
ATOM     13  C   UNL     1      15.235   6.710 -20.789  1.00  0.00     0.000 C 
BRANCH  13  14
ATOM     14  C   UNL     1      13.736   6.703 -20.446  1.00  0.00     0.000 C 
BRANCH  14  15
ATOM     15  C   UNL     1      13.474   7.105 -18.984  1.00  0.00     0.000 C 
BRANCH  15  16
ATOM     16  C   UNL     1      12.119   7.812 -18.803  1.00  0.00     0.000 C 
BRANCH  16  17
ATOM     17  C   UNL     1      12.042   9.154 -19.551  1.00  0.00     0.000 C 
BRANCH  17  18
ATOM     18  C   UNL     1      10.722   9.930 -19.368  1.00  0.00     0.000 C 
BRANCH  18  19
ATOM     19  C   UNL     1      10.760  11.030 -18.292  1.00  0.00     0.000 C 
BRANCH  19  20
ATOM     20  C   UNL     1      10.280  12.392 -18.816  1.00  0.00     0.006 C 
BRANCH  20  21
ATOM     21  C   UNL     1       9.999  12.332 -20.319  1.00  0.00     0.053 C 
BRANCH  21  22
ATOM     22  C   UNL     1       8.674  12.952 -20.631  1.00  0.00     0.041 C 
ATOM     23  O   UNL     1       8.467  14.166 -20.371  1.00  0.00    -0.550 OA
ATOM     24  O   UNL     1       7.688  12.206 -21.263  1.00  0.00    -0.550 OA
ENDBRANCH  21  22
ENDBRANCH  20  21
ENDBRANCH  19  20
ENDBRANCH  18  19
ENDBRANCH  17  18
ENDBRANCH  16  17
ENDBRANCH  15  16
ENDBRANCH  14  15
ENDBRANCH  13  14
ENDBRANCH   1  13
TORSDOF 20
ENDMDL
