MODEL 1
REMARK VINA RESULT:    -4.062      0.000      0.000
REMARK INTER + INTRA:          -9.818
REMARK INTER:                  -7.625
REMARK INTRA:                  -2.193
REMARK UNBOUND:                -2.193
REMARK SMILES O=C([O-])CCCCCCCCCCCCCCC(=O)[O-]
REMARK SMILES IDX 10 1 9 2 8 3 7 4 6 5 5 6 4 7 2 8 1 9 3 10 11 11 12 12 13 13
REMARK SMILES IDX 14 14 15 15 16 16 17 17 18 18 19 19 20 20
REMARK H PARENT
REMARK Flexibility Score: inf
ROOT
ATOM      1  C   UNL     1      17.347  18.446  21.749  1.00  0.00     0.000 C 
ENDROOT
BRANCH   1   2
ATOM      2  C   UNL     1      17.441  19.943  21.384  1.00  0.00     0.000 C 
BRANCH   2   3
ATOM      3  C   UNL     1      16.615  20.855  22.312  1.00  0.00     0.000 C 
BRANCH   3   4
ATOM      4  C   UNL     1      15.447  21.588  21.625  1.00  0.00     0.000 C 
BRANCH   4   5
ATOM      5  C   UNL     1      14.572  22.443  22.565  1.00  0.00     0.000 C 
BRANCH   5   6
ATOM      6  C   UNL     1      14.867  22.275  24.070  1.00  0.00     0.006 C 
BRANCH   6   7
ATOM      7  C   UNL     1      15.553  23.483  24.724  1.00  0.00     0.053 C 
BRANCH   7   8
ATOM      8  C   UNL     1      14.617  24.248  25.608  1.00  0.00     0.041 C 
ATOM      9  O   UNL     1      14.058  23.680  26.583  1.00  0.00    -0.550 OA
ATOM     10  O   UNL     1      14.334  25.580  25.334  1.00  0.00    -0.550 OA
ENDBRANCH   7   8
ENDBRANCH   6   7
ENDBRANCH   5   6
ENDBRANCH   4   5
ENDBRANCH   3   4
ENDBRANCH   2   3
ENDBRANCH   1   2
BRANCH   1  11
ATOM     11  C   UNL     1      16.486  17.653  20.751  1.00  0.00     0.000 C 
BRANCH  11  12
ATOM     12  C   UNL     1      15.177  17.142  21.374  1.00  0.00     0.000 C 
BRANCH  12  13
ATOM     13  C   UNL     1      14.053  18.187  21.311  1.00  0.00     0.000 C 
BRANCH  13  14
ATOM     14  C   UNL     1      13.567  18.562  22.718  1.00  0.00     0.000 C 
BRANCH  14  15
ATOM     15  C   UNL     1      14.249  17.740  23.826  1.00  0.00     0.000 C 
BRANCH  15  16
ATOM     16  C   UNL     1      15.075  18.596  24.810  1.00  0.00     0.006 C 
BRANCH  16  17
ATOM     17  C   UNL     1      15.151  17.962  26.206  1.00  0.00     0.053 C 
BRANCH  17  18
ATOM     18  C   UNL     1      13.798  17.932  26.842  1.00  0.00     0.041 C 
ATOM     19  O   UNL     1      13.195  19.006  27.101  1.00  0.00    -0.550 OA
ATOM     20  O   UNL     1      13.223  16.718  27.196  1.00  0.00    -0.550 OA
ENDBRANCH  17  18
ENDBRANCH  16  17
ENDBRANCH  15  16
ENDBRANCH  14  15
ENDBRANCH  13  14
ENDBRANCH  12  13
ENDBRANCH  11  12
ENDBRANCH   1  11
TORSDOF 15
ENDMDL
MODEL 2
REMARK VINA RESULT:    -4.015      3.123      5.765
REMARK INTER + INTRA:          -9.729
REMARK INTER:                  -7.900
REMARK INTRA:                  -1.829
REMARK UNBOUND:                -2.193
REMARK SMILES O=C([O-])CCCCCCCCCCCCCCC(=O)[O-]
REMARK SMILES IDX 10 1 9 2 8 3 7 4 6 5 5 6 4 7 2 8 1 9 3 10 11 11 12 12 13 13
REMARK SMILES IDX 14 14 15 15 16 16 17 17 18 18 19 19 20 20
REMARK H PARENT
REMARK Flexibility Score: inf
ROOT
ATOM      1  C   UNL     1      16.286  21.699  23.761  1.00  0.00     0.000 C 
ENDROOT
BRANCH   1   2
ATOM      2  C   UNL     1      14.827  21.368  23.384  1.00  0.00     0.000 C 
BRANCH   2   3
ATOM      3  C   UNL     1      14.020  20.743  24.538  1.00  0.00     0.000 C 
BRANCH   3   4
ATOM      4  C   UNL     1      13.888  19.210  24.479  1.00  0.00     0.000 C 
BRANCH   4   5
ATOM      5  C   UNL     1      15.092  18.430  25.049  1.00  0.00     0.000 C 
BRANCH   5   6
ATOM      6  C   UNL     1      14.856  17.771  26.424  1.00  0.00     0.006 C 
BRANCH   6   7
ATOM      7  C   UNL     1      13.484  18.071  27.047  1.00  0.00     0.053 C 
BRANCH   7   8
ATOM      8  C   UNL     1      12.620  16.850  27.111  1.00  0.00     0.041 C 
ATOM      9  O   UNL     1      12.150  16.349  26.056  1.00  0.00    -0.550 OA
ATOM     10  O   UNL     1      12.304  16.284  28.340  1.00  0.00    -0.550 OA
ENDBRANCH   7   8
ENDBRANCH   6   7
ENDBRANCH   5   6
ENDBRANCH   4   5
ENDBRANCH   3   4
ENDBRANCH   2   3
ENDBRANCH   1   2
BRANCH   1  11
ATOM     11  C   UNL     1      17.297  21.116  22.758  1.00  0.00     0.000 C 
BRANCH  11  12
ATOM     12  C   UNL     1      16.669  20.065  21.829  1.00  0.00     0.000 C 
BRANCH  12  13
ATOM     13  C   UNL     1      17.640  18.921  21.502  1.00  0.00     0.000 C 
BRANCH  13  14
ATOM     14  C   UNL     1      16.881  17.647  21.104  1.00  0.00     0.000 C 
BRANCH  14  15
ATOM     15  C   UNL     1      15.370  17.741  21.377  1.00  0.00     0.000 C 
BRANCH  15  16
ATOM     16  C   UNL     1      14.738  16.405  21.822  1.00  0.00     0.006 C 
BRANCH  16  17
ATOM     17  C   UNL     1      13.309  16.234  21.290  1.00  0.00     0.053 C 
BRANCH  17  18
ATOM     18  C   UNL     1      13.304  15.374  20.066  1.00  0.00     0.041 C 
ATOM     19  O   UNL     1      13.611  14.156  20.146  1.00  0.00    -0.550 OA
ATOM     20  O   UNL     1      13.008  15.929  18.828  1.00  0.00    -0.550 OA
ENDBRANCH  17  18
ENDBRANCH  16  17
ENDBRANCH  15  16
ENDBRANCH  14  15
ENDBRANCH  13  14
ENDBRANCH  12  13
ENDBRANCH  11  12
ENDBRANCH   1  11
TORSDOF 15
ENDMDL
MODEL 3
REMARK VINA RESULT:    -3.938      1.408      5.342
REMARK INTER + INTRA:          -9.584
REMARK INTER:                  -8.110
REMARK INTRA:                  -1.473
REMARK UNBOUND:                -2.193
REMARK SMILES O=C([O-])CCCCCCCCCCCCCCC(=O)[O-]
REMARK SMILES IDX 10 1 9 2 8 3 7 4 6 5 5 6 4 7 2 8 1 9 3 10 11 11 12 12 13 13
REMARK SMILES IDX 14 14 15 15 16 16 17 17 18 18 19 19 20 20
REMARK H PARENT
REMARK Flexibility Score: inf
ROOT
ATOM      1  C   UNL     1      15.368  17.482  21.888  1.00  0.00     0.000 C 
ENDROOT
BRANCH   1   2
ATOM      2  C   UNL     1      14.335  18.444  22.512  1.00  0.00     0.000 C 
BRANCH   2   3
ATOM      3  C   UNL     1      14.004  18.122  23.983  1.00  0.00     0.000 C 
BRANCH   3   4
ATOM      4  C   UNL     1      15.091  18.530  24.994  1.00  0.00     0.000 C 
BRANCH   4   5
ATOM      5  C   UNL     1      15.011  17.814  26.359  1.00  0.00     0.000 C 
BRANCH   5   6
ATOM      6  C   UNL     1      13.652  17.922  27.079  1.00  0.00     0.006 C 
BRANCH   6   7
ATOM      7  C   UNL     1      13.237  19.354  27.447  1.00  0.00     0.053 C 
BRANCH   7   8
ATOM      8  C   UNL     1      12.218  19.377  28.545  1.00  0.00     0.041 C 
ATOM      9  O   UNL     1      12.449  20.003  29.612  1.00  0.00    -0.550 OA
ATOM     10  O   UNL     1      11.027  18.676  28.403  1.00  0.00    -0.550 OA
ENDBRANCH   7   8
ENDBRANCH   6   7
ENDBRANCH   5   6
ENDBRANCH   4   5
ENDBRANCH   3   4
ENDBRANCH   2   3
ENDBRANCH   1   2
BRANCH   1  11
ATOM     11  C   UNL     1      16.625  18.216  21.391  1.00  0.00     0.000 C 
BRANCH  11  12
ATOM     12  C   UNL     1      16.613  19.713  21.739  1.00  0.00     0.000 C 
BRANCH  12  13
ATOM     13  C   UNL     1      17.858  20.139  22.532  1.00  0.00     0.000 C 
BRANCH  13  14
ATOM     14  C   UNL     1      17.567  21.373  23.396  1.00  0.00     0.000 C 
BRANCH  14  15
ATOM     15  C   UNL     1      16.063  21.627  23.592  1.00  0.00     0.000 C 
BRANCH  15  16
ATOM     16  C   UNL     1      15.611  23.036  23.152  1.00  0.00     0.006 C 
BRANCH  16  17
ATOM     17  C   UNL     1      15.915  24.100  24.215  1.00  0.00     0.053 C 
BRANCH  17  18
ATOM     18  C   UNL     1      14.673  24.458  24.969  1.00  0.00     0.041 C 
ATOM     19  O   UNL     1      13.635  24.809  24.350  1.00  0.00    -0.550 OA
ATOM     20  O   UNL     1      14.678  24.451  26.358  1.00  0.00    -0.550 OA
ENDBRANCH  17  18
ENDBRANCH  16  17
ENDBRANCH  15  16
ENDBRANCH  14  15
ENDBRANCH  13  14
ENDBRANCH  12  13
ENDBRANCH  11  12
ENDBRANCH   1  11
TORSDOF 15
ENDMDL
MODEL 4
REMARK VINA RESULT:    -3.937      5.729      8.439
REMARK INTER + INTRA:          -9.583
REMARK INTER:                  -8.138
REMARK INTRA:                  -1.446
REMARK UNBOUND:                -2.193
REMARK SMILES O=C([O-])CCCCCCCCCCCCCCC(=O)[O-]
REMARK SMILES IDX 10 1 9 2 8 3 7 4 6 5 5 6 4 7 2 8 1 9 3 10 11 11 12 12 13 13
REMARK SMILES IDX 14 14 15 15 16 16 17 17 18 18 19 19 20 20
REMARK H PARENT
REMARK Flexibility Score: inf
ROOT
ATOM      1  C   UNL     1      11.234  16.956  27.610  1.00  0.00     0.000 C 
ENDROOT
BRANCH   1   2
ATOM      2  C   UNL     1      12.296  17.193  26.517  1.00  0.00     0.000 C 
BRANCH   2   3
ATOM      3  C   UNL     1      13.455  18.101  26.971  1.00  0.00     0.000 C 
BRANCH   3   4
ATOM      4  C   UNL     1      13.072  19.576  27.193  1.00  0.00     0.000 C 
BRANCH   4   5
ATOM      5  C   UNL     1      13.089  20.039  28.665  1.00  0.00     0.000 C 
BRANCH   5   6
ATOM      6  C   UNL     1      11.719  20.454  29.238  1.00  0.00     0.006 C 
BRANCH   6   7
ATOM      7  C   UNL     1      11.718  21.799  29.979  1.00  0.00     0.053 C 
BRANCH   7   8
ATOM      8  C   UNL     1      11.723  21.619  31.466  1.00  0.00     0.041 C 
ATOM      9  O   UNL     1      12.506  22.294  32.185  1.00  0.00    -0.550 OA
ATOM     10  O   UNL     1      10.886  20.680  32.056  1.00  0.00    -0.550 OA
ENDBRANCH   7   8
ENDBRANCH   6   7
ENDBRANCH   5   6
ENDBRANCH   4   5
ENDBRANCH   3   4
ENDBRANCH   2   3
ENDBRANCH   1   2
BRANCH   1  11
ATOM     11  C   UNL     1      11.799  16.191  28.820  1.00  0.00     0.000 C 
BRANCH  11  12
ATOM     12  C   UNL     1      11.304  16.756  30.161  1.00  0.00     0.000 C 
BRANCH  12  13
ATOM     13  C   UNL     1      11.826  15.952  31.361  1.00  0.00     0.000 C 
BRANCH  13  14
ATOM     14  C   UNL     1      10.808  15.949  32.510  1.00  0.00     0.000 C 
BRANCH  14  15
ATOM     15  C   UNL     1       9.600  15.037  32.236  1.00  0.00     0.000 C 
BRANCH  15  16
ATOM     16  C   UNL     1       9.986  13.646  31.690  1.00  0.00     0.006 C 
BRANCH  16  17
ATOM     17  C   UNL     1       9.195  13.278  30.428  1.00  0.00     0.053 C 
BRANCH  17  18
ATOM     18  C   UNL     1       7.774  12.963  30.773  1.00  0.00     0.041 C 
ATOM     19  O   UNL     1       7.498  11.940  31.451  1.00  0.00    -0.550 OA
ATOM     20  O   UNL     1       6.749  13.774  30.302  1.00  0.00    -0.550 OA
ENDBRANCH  17  18
ENDBRANCH  16  17
ENDBRANCH  15  16
ENDBRANCH  14  15
ENDBRANCH  13  14
ENDBRANCH  12  13
ENDBRANCH  11  12
ENDBRANCH   1  11
TORSDOF 15
ENDMDL
MODEL 5
REMARK VINA RESULT:    -3.909      5.361      9.873
REMARK INTER + INTRA:          -9.531
REMARK INTER:                  -8.634
REMARK INTRA:                  -0.897
REMARK UNBOUND:                -2.193
REMARK SMILES O=C([O-])CCCCCCCCCCCCCCC(=O)[O-]
REMARK SMILES IDX 10 1 9 2 8 3 7 4 6 5 5 6 4 7 2 8 1 9 3 10 11 11 12 12 13 13
REMARK SMILES IDX 14 14 15 15 16 16 17 17 18 18 19 19 20 20
REMARK H PARENT
REMARK Flexibility Score: inf
ROOT
ATOM      1  C   UNL     1      11.233  17.457  28.912  1.00  0.00     0.000 C 
ENDROOT
BRANCH   1   2
ATOM      2  C   UNL     1      11.547  17.864  30.367  1.00  0.00     0.000 C 
BRANCH   2   3
ATOM      3  C   UNL     1      11.734  16.663  31.315  1.00  0.00     0.000 C 
BRANCH   3   4
ATOM      4  C   UNL     1      10.774  16.633  32.518  1.00  0.00     0.000 C 
BRANCH   4   5
ATOM      5  C   UNL     1       9.838  15.407  32.575  1.00  0.00     0.000 C 
BRANCH   5   6
ATOM      6  C   UNL     1       9.734  14.600  31.264  1.00  0.00     0.006 C 
BRANCH   6   7
ATOM      7  C   UNL     1       9.493  13.096  31.459  1.00  0.00     0.053 C 
BRANCH   7   8
ATOM      8  C   UNL     1       8.057  12.727  31.246  1.00  0.00     0.041 C 
ATOM      9  O   UNL     1       7.560  11.736  31.844  1.00  0.00    -0.550 OA
ATOM     10  O   UNL     1       7.276  13.457  30.359  1.00  0.00    -0.550 OA
ENDBRANCH   7   8
ENDBRANCH   6   7
ENDBRANCH   5   6
ENDBRANCH   4   5
ENDBRANCH   3   4
ENDBRANCH   2   3
ENDBRANCH   1   2
BRANCH   1  11
ATOM     11  C   UNL     1      12.096  16.276  28.435  1.00  0.00     0.000 C 
BRANCH  11  12
ATOM     12  C   UNL     1      12.860  16.587  27.139  1.00  0.00     0.000 C 
BRANCH  12  13
ATOM     13  C   UNL     1      13.499  17.984  27.159  1.00  0.00     0.000 C 
BRANCH  13  14
ATOM     14  C   UNL     1      14.750  18.033  26.270  1.00  0.00     0.000 C 
BRANCH  14  15
ATOM     15  C   UNL     1      14.580  18.950  25.047  1.00  0.00     0.000 C 
BRANCH  15  16
ATOM     16  C   UNL     1      15.111  18.334  23.735  1.00  0.00     0.006 C 
BRANCH  16  17
ATOM     17  C   UNL     1      15.456  19.404  22.690  1.00  0.00     0.053 C 
BRANCH  17  18
ATOM     18  C   UNL     1      16.935  19.614  22.624  1.00  0.00     0.041 C 
ATOM     19  O   UNL     1      17.628  18.988  21.781  1.00  0.00    -0.550 OA
ATOM     20  O   UNL     1      17.557  20.466  23.529  1.00  0.00    -0.550 OA
ENDBRANCH  17  18
ENDBRANCH  16  17
ENDBRANCH  15  16
ENDBRANCH  14  15
ENDBRANCH  13  14
ENDBRANCH  12  13
ENDBRANCH  11  12
ENDBRANCH   1  11
TORSDOF 15
ENDMDL
MODEL 6
REMARK VINA RESULT:    -3.878      6.738     11.291
REMARK INTER + INTRA:          -9.472
REMARK INTER:                  -8.154
REMARK INTRA:                  -1.318
REMARK UNBOUND:                -2.193
REMARK SMILES O=C([O-])CCCCCCCCCCCCCCC(=O)[O-]
REMARK SMILES IDX 10 1 9 2 8 3 7 4 6 5 5 6 4 7 2 8 1 9 3 10 11 11 12 12 13 13
REMARK SMILES IDX 14 14 15 15 16 16 17 17 18 18 19 19 20 20
REMARK H PARENT
REMARK Flexibility Score: inf
ROOT
ATOM      1  C   UNL     1      11.695  16.785  31.557  1.00  0.00     0.000 C 
ENDROOT
BRANCH   1   2
ATOM      2  C   UNL     1      10.872  16.222  32.735  1.00  0.00     0.000 C 
BRANCH   2   3
ATOM      3  C   UNL     1       9.352  16.415  32.570  1.00  0.00     0.000 C 
BRANCH   3   4
ATOM      4  C   UNL     1       8.519  15.125  32.696  1.00  0.00     0.000 C 
BRANCH   4   5
ATOM      5  C   UNL     1       9.118  13.892  31.986  1.00  0.00     0.000 C 
BRANCH   5   6
ATOM      6  C   UNL     1       8.171  13.180  30.999  1.00  0.00     0.006 C 
BRANCH   6   7
ATOM      7  C   UNL     1       7.610  11.843  31.506  1.00  0.00     0.053 C 
BRANCH   7   8
ATOM      8  C   UNL     1       6.157  11.942  31.855  1.00  0.00     0.041 C 
ATOM      9  O   UNL     1       5.620  11.073  32.591  1.00  0.00    -0.550 OA
ATOM     10  O   UNL     1       5.387  12.977  31.340  1.00  0.00    -0.550 OA
ENDBRANCH   7   8
ENDBRANCH   6   7
ENDBRANCH   5   6
ENDBRANCH   4   5
ENDBRANCH   3   4
ENDBRANCH   2   3
ENDBRANCH   1   2
BRANCH   1  11
ATOM     11  C   UNL     1      11.827  15.779  30.401  1.00  0.00     0.000 C 
BRANCH  11  12
ATOM     12  C   UNL     1      11.195  16.290  29.097  1.00  0.00     0.000 C 
BRANCH  12  13
ATOM     13  C   UNL     1      12.214  16.385  27.952  1.00  0.00     0.000 C 
BRANCH  13  14
ATOM     14  C   UNL     1      12.064  17.706  27.185  1.00  0.00     0.000 C 
BRANCH  14  15
ATOM     15  C   UNL     1      12.925  18.839  27.770  1.00  0.00     0.000 C 
BRANCH  15  16
ATOM     16  C   UNL     1      12.100  19.970  28.419  1.00  0.00     0.006 C 
BRANCH  16  17
ATOM     17  C   UNL     1      12.166  19.930  29.952  1.00  0.00     0.053 C 
BRANCH  17  18
ATOM     18  C   UNL     1      12.622  21.248  30.492  1.00  0.00     0.041 C 
ATOM     19  O   UNL     1      13.848  21.530  30.524  1.00  0.00    -0.550 OA
ATOM     20  O   UNL     1      11.695  22.146  31.007  1.00  0.00    -0.550 OA
ENDBRANCH  17  18
ENDBRANCH  16  17
ENDBRANCH  15  16
ENDBRANCH  14  15
ENDBRANCH  13  14
ENDBRANCH  12  13
ENDBRANCH  11  12
ENDBRANCH   1  11
TORSDOF 15
ENDMDL
MODEL 7
REMARK VINA RESULT:    -3.867      6.078     10.394
REMARK INTER + INTRA:          -9.451
REMARK INTER:                  -7.716
REMARK INTRA:                  -1.734
REMARK UNBOUND:                -2.193
REMARK SMILES O=C([O-])CCCCCCCCCCCCCCC(=O)[O-]
REMARK SMILES IDX 10 1 9 2 8 3 7 4 6 5 5 6 4 7 2 8 1 9 3 10 11 11 12 12 13 13
REMARK SMILES IDX 14 14 15 15 16 16 17 17 18 18 19 19 20 20
REMARK H PARENT
REMARK Flexibility Score: inf
ROOT
ATOM      1  C   UNL     1      11.169  16.319  29.188  1.00  0.00     0.000 C 
ENDROOT
BRANCH   1   2
ATOM      2  C   UNL     1      11.785  15.775  30.494  1.00  0.00     0.000 C 
BRANCH   2   3
ATOM      3  C   UNL     1      11.849  16.819  31.626  1.00  0.00     0.000 C 
BRANCH   3   4
ATOM      4  C   UNL     1      10.830  16.606  32.760  1.00  0.00     0.000 C 
BRANCH   4   5
ATOM      5  C   UNL     1       9.409  16.223  32.296  1.00  0.00     0.000 C 
BRANCH   5   6
ATOM      6  C   UNL     1       8.948  14.806  32.693  1.00  0.00     0.006 C 
BRANCH   6   7
ATOM      7  C   UNL     1       7.788  14.253  31.852  1.00  0.00     0.053 C 
BRANCH   7   8
ATOM      8  C   UNL     1       8.211  13.086  31.014  1.00  0.00     0.041 C 
ATOM      9  O   UNL     1       7.525  12.030  31.003  1.00  0.00    -0.550 OA
ATOM     10  O   UNL     1       9.382  13.152  30.270  1.00  0.00    -0.550 OA
ENDBRANCH   7   8
ENDBRANCH   6   7
ENDBRANCH   5   6
ENDBRANCH   4   5
ENDBRANCH   3   4
ENDBRANCH   2   3
ENDBRANCH   1   2
BRANCH   1  11
ATOM     11  C   UNL     1      12.186  16.362  28.035  1.00  0.00     0.000 C 
BRANCH  11  12
ATOM     12  C   UNL     1      12.531  17.796  27.603  1.00  0.00     0.000 C 
BRANCH  12  13
ATOM     13  C   UNL     1      11.701  18.848  28.354  1.00  0.00     0.000 C 
BRANCH  13  14
ATOM     14  C   UNL     1      12.600  19.943  28.944  1.00  0.00     0.000 C 
BRANCH  14  15
ATOM     15  C   UNL     1      12.196  20.343  30.374  1.00  0.00     0.000 C 
BRANCH  15  16
ATOM     16  C   UNL     1      10.701  20.117  30.680  1.00  0.00     0.006 C 
BRANCH  16  17
ATOM     17  C   UNL     1       9.960  21.431  30.959  1.00  0.00     0.053 C 
BRANCH  17  18
ATOM     18  C   UNL     1       9.554  22.087  29.678  1.00  0.00     0.041 C 
ATOM     19  O   UNL     1       8.530  21.693  29.061  1.00  0.00    -0.550 OA
ATOM     20  O   UNL     1      10.335  23.101  29.138  1.00  0.00    -0.550 OA
ENDBRANCH  17  18
ENDBRANCH  16  17
ENDBRANCH  15  16
ENDBRANCH  14  15
ENDBRANCH  13  14
ENDBRANCH  12  13
ENDBRANCH  11  12
ENDBRANCH   1  11
TORSDOF 15
ENDMDL
MODEL 8
REMARK VINA RESULT:    -3.839      2.141      5.314
REMARK INTER + INTRA:          -9.398
REMARK INTER:                  -7.647
REMARK INTRA:                  -1.751
REMARK UNBOUND:                -2.193
REMARK SMILES O=C([O-])CCCCCCCCCCCCCCC(=O)[O-]
REMARK SMILES IDX 10 1 9 2 8 3 7 4 6 5 5 6 4 7 2 8 1 9 3 10 11 11 12 12 13 13
REMARK SMILES IDX 14 14 15 15 16 16 17 17 18 18 19 19 20 20
REMARK H PARENT
REMARK Flexibility Score: inf
ROOT
ATOM      1  C   UNL     1      14.123  18.471  24.074  1.00  0.00     0.000 C 
ENDROOT
BRANCH   1   2
ATOM      2  C   UNL     1      15.285  18.315  25.078  1.00  0.00     0.000 C 
BRANCH   2   3
ATOM      3  C   UNL     1      14.819  18.147  26.537  1.00  0.00     0.000 C 
BRANCH   3   4
ATOM      4  C   UNL     1      13.444  17.474  26.703  1.00  0.00     0.000 C 
BRANCH   4   5
ATOM      5  C   UNL     1      12.384  18.328  27.431  1.00  0.00     0.000 C 
BRANCH   5   6
ATOM      6  C   UNL     1      12.762  19.809  27.633  1.00  0.00     0.006 C 
BRANCH   6   7
ATOM      7  C   UNL     1      12.912  20.234  29.102  1.00  0.00     0.053 C 
BRANCH   7   8
ATOM      8  C   UNL     1      11.714  19.859  29.918  1.00  0.00     0.041 C 
ATOM      9  O   UNL     1      10.632  20.491  29.786  1.00  0.00    -0.550 OA
ATOM     10  O   UNL     1      11.801  18.832  30.850  1.00  0.00    -0.550 OA
ENDBRANCH   7   8
ENDBRANCH   6   7
ENDBRANCH   5   6
ENDBRANCH   4   5
ENDBRANCH   3   4
ENDBRANCH   2   3
ENDBRANCH   1   2
BRANCH   1  11
ATOM     11  C   UNL     1      14.375  17.706  22.764  1.00  0.00     0.000 C 
BRANCH  11  12
ATOM     12  C   UNL     1      14.944  18.604  21.654  1.00  0.00     0.000 C 
BRANCH  12  13
ATOM     13  C   UNL     1      16.471  18.486  21.533  1.00  0.00     0.000 C 
BRANCH  13  14
ATOM     14  C   UNL     1      17.136  19.869  21.561  1.00  0.00     0.000 C 
BRANCH  14  15
ATOM     15  C   UNL     1      17.798  20.188  22.913  1.00  0.00     0.000 C 
BRANCH  15  16
ATOM     16  C   UNL     1      17.365  21.546  23.507  1.00  0.00     0.006 C 
BRANCH  16  17
ATOM     17  C   UNL     1      15.909  21.890  23.166  1.00  0.00     0.053 C 
BRANCH  17  18
ATOM     18  C   UNL     1      15.225  22.504  24.346  1.00  0.00     0.041 C 
ATOM     19  O   UNL     1      15.685  23.552  24.871  1.00  0.00    -0.550 OA
ATOM     20  O   UNL     1      14.107  21.892  24.897  1.00  0.00    -0.550 OA
ENDBRANCH  17  18
ENDBRANCH  16  17
ENDBRANCH  15  16
ENDBRANCH  14  15
ENDBRANCH  13  14
ENDBRANCH  12  13
ENDBRANCH  11  12
ENDBRANCH   1  11
TORSDOF 15
ENDMDL
MODEL 9
REMARK VINA RESULT:    -3.782      4.827      8.718
REMARK INTER + INTRA:          -9.291
REMARK INTER:                  -7.446
REMARK INTRA:                  -1.845
REMARK UNBOUND:                -2.193
REMARK SMILES O=C([O-])CCCCCCCCCCCCCCC(=O)[O-]
REMARK SMILES IDX 10 1 9 2 8 3 7 4 6 5 5 6 4 7 2 8 1 9 3 10 11 11 12 12 13 13
REMARK SMILES IDX 14 14 15 15 16 16 17 17 18 18 19 19 20 20
REMARK H PARENT
REMARK Flexibility Score: inf
ROOT
ATOM      1  C   UNL     1      11.778  16.349  31.395  1.00  0.00     0.000 C 
ENDROOT
BRANCH   1   2
ATOM      2  C   UNL     1      11.705  15.831  29.942  1.00  0.00     0.000 C 
BRANCH   2   3
ATOM      3  C   UNL     1      10.620  16.525  29.096  1.00  0.00     0.000 C 
BRANCH   3   4
ATOM      4  C   UNL     1      11.111  17.083  27.748  1.00  0.00     0.000 C 
BRANCH   4   5
ATOM      5  C   UNL     1      12.626  16.933  27.493  1.00  0.00     0.000 C 
BRANCH   5   6
ATOM      6  C   UNL     1      13.365  18.241  27.146  1.00  0.00     0.006 C 
BRANCH   6   7
ATOM      7  C   UNL     1      14.644  18.050  26.317  1.00  0.00     0.053 C 
BRANCH   7   8
ATOM      8  C   UNL     1      14.554  18.730  24.985  1.00  0.00     0.041 C 
ATOM      9  O   UNL     1      13.447  18.816  24.390  1.00  0.00    -0.550 OA
ATOM     10  O   UNL     1      15.698  19.240  24.386  1.00  0.00    -0.550 OA
ENDBRANCH   7   8
ENDBRANCH   6   7
ENDBRANCH   5   6
ENDBRANCH   4   5
ENDBRANCH   3   4
ENDBRANCH   2   3
ENDBRANCH   1   2
BRANCH   1  11
ATOM     11  C   UNL     1      10.721  15.697  32.302  1.00  0.00     0.000 C 
BRANCH  11  12
ATOM     12  C   UNL     1       9.930  16.727  33.124  1.00  0.00     0.000 C 
BRANCH  12  13
ATOM     13  C   UNL     1      10.363  18.170  32.826  1.00  0.00     0.000 C 
BRANCH  13  14
ATOM     14  C   UNL     1       9.271  18.928  32.059  1.00  0.00     0.000 C 
BRANCH  14  15
ATOM     15  C   UNL     1       9.821  19.717  30.858  1.00  0.00     0.000 C 
BRANCH  15  16
ATOM     16  C   UNL     1      11.361  19.809  30.831  1.00  0.00     0.006 C 
BRANCH  16  17
ATOM     17  C   UNL     1      11.860  20.926  29.905  1.00  0.00     0.053 C 
BRANCH  17  18
ATOM     18  C   UNL     1      11.340  22.254  30.359  1.00  0.00     0.041 C 
ATOM     19  O   UNL     1      10.762  23.020  29.546  1.00  0.00    -0.550 OA
ATOM     20  O   UNL     1      11.540  22.666  31.671  1.00  0.00    -0.550 OA
ENDBRANCH  17  18
ENDBRANCH  16  17
ENDBRANCH  15  16
ENDBRANCH  14  15
ENDBRANCH  13  14
ENDBRANCH  12  13
ENDBRANCH  11  12
ENDBRANCH   1  11
TORSDOF 15
ENDMDL
