MODEL 1
REMARK VINA RESULT:    -2.917      0.000      0.000
REMARK INTER + INTRA:         -10.731
REMARK INTER:                  -6.668
REMARK INTRA:                  -4.062
REMARK UNBOUND:                -4.062
REMARK SMILES CCCCCCCCCCCCCCCCCCCCCCCC(=O)[O-]
REMARK SMILES IDX 13 1 14 2 15 3 16 4 17 5 18 6 19 7 20 8 21 9 22 10 23 11
REMARK SMILES IDX 24 12 25 13 26 14 12 15 11 16 10 17 9 18 8 19 7 20 6 21 5 22
REMARK SMILES IDX 4 23 3 24 2 25 1 26
REMARK H PARENT
REMARK Flexibility Score: inf
ROOT
ATOM      1  C   UNL     1      33.787  12.046  22.626  1.00  0.00     0.000 C 
ENDROOT
BRANCH   1   2
ATOM      2  C   UNL     1      34.736  11.004  23.239  1.00  0.00     0.000 C 
BRANCH   2   3
ATOM      3  C   UNL     1      36.211  11.279  22.898  1.00  0.00     0.000 C 
BRANCH   3   4
ATOM      4  C   UNL     1      37.059   9.998  22.870  1.00  0.00     0.000 C 
BRANCH   4   5
ATOM      5  C   UNL     1      36.500   8.940  21.901  1.00  0.00     0.000 C 
BRANCH   5   6
ATOM      6  C   UNL     1      37.217   7.586  22.019  1.00  0.00     0.000 C 
BRANCH   6   7
ATOM      7  C   UNL     1      37.427   6.906  20.655  1.00  0.00     0.000 C 
BRANCH   7   8
ATOM      8  C   UNL     1      36.162   6.192  20.145  1.00  0.00     0.000 C 
BRANCH   8   9
ATOM      9  C   UNL     1      35.359   5.443  21.224  1.00  0.00     0.000 C 
BRANCH   9  10
ATOM     10  C   UNL     1      34.066   4.812  20.676  1.00  0.00     0.006 C 
BRANCH  10  11
ATOM     11  C   UNL     1      33.094   4.416  21.797  1.00  0.00     0.053 C 
BRANCH  11  12
ATOM     12  C   UNL     1      31.925   3.639  21.274  1.00  0.00     0.041 C 
ATOM     13  O   UNL     1      31.901   2.384  21.375  1.00  0.00    -0.550 OA
ATOM     14  O   UNL     1      30.875   4.299  20.647  1.00  0.00    -0.550 OA
ENDBRANCH  11  12
ENDBRANCH  10  11
ENDBRANCH   9  10
ENDBRANCH   8   9
ENDBRANCH   7   8
ENDBRANCH   6   7
ENDBRANCH   5   6
ENDBRANCH   4   5
ENDBRANCH   3   4
ENDBRANCH   2   3
ENDBRANCH   1   2
BRANCH   1  15
ATOM     15  C   UNL     1      32.305  11.672  22.807  1.00  0.00     0.000 C 
BRANCH  15  16
ATOM     16  C   UNL     1      32.110  10.216  23.266  1.00  0.00     0.000 C 
BRANCH  16  17
ATOM     17  C   UNL     1      30.894   9.499  22.647  1.00  0.00     0.000 C 
BRANCH  17  18
ATOM     18  C   UNL     1      31.132   8.030  22.246  1.00  0.00    -0.000 C 
BRANCH  18  19
ATOM     19  C   UNL     1      31.773   7.823  20.861  1.00  0.00    -0.000 C 
BRANCH  19  20
ATOM     20  C   UNL     1      33.252   8.240  20.821  1.00  0.00    -0.000 C 
BRANCH  20  21
ATOM     21  C   UNL     1      33.645   8.935  19.504  1.00  0.00    -0.000 C 
BRANCH  21  22
ATOM     22  C   UNL     1      33.839  10.460  19.599  1.00  0.00    -0.000 C 
BRANCH  22  23
ATOM     23  C   UNL     1      35.061  10.962  18.815  1.00  0.00    -0.000 C 
BRANCH  23  24
ATOM     24  C   UNL     1      35.793   9.796  18.134  1.00  0.00    -0.000 C 
BRANCH  24  25
ATOM     25  C   UNL     1      37.298   9.783  18.444  1.00  0.00    -0.003 C 
ATOM     26  C   UNL     1      37.764  11.048  19.164  1.00  0.00     0.004 C 
ENDBRANCH  24  25
ENDBRANCH  23  24
ENDBRANCH  22  23
ENDBRANCH  21  22
ENDBRANCH  20  21
ENDBRANCH  19  20
ENDBRANCH  18  19
ENDBRANCH  17  18
ENDBRANCH  16  17
ENDBRANCH  15  16
ENDBRANCH   1  15
TORSDOF 22
ENDMDL
MODEL 2
REMARK VINA RESULT:    -2.891      2.826      5.178
REMARK INTER + INTRA:         -10.672
REMARK INTER:                  -6.988
REMARK INTRA:                  -3.684
REMARK UNBOUND:                -4.062
REMARK SMILES CCCCCCCCCCCCCCCCCCCCCCCC(=O)[O-]
REMARK SMILES IDX 13 1 14 2 15 3 16 4 17 5 18 6 19 7 20 8 21 9 22 10 23 11
REMARK SMILES IDX 24 12 25 13 26 14 12 15 11 16 10 17 9 18 8 19 7 20 6 21 5 22
REMARK SMILES IDX 4 23 3 24 2 25 1 26
REMARK H PARENT
REMARK Flexibility Score: inf
ROOT
ATOM      1  C   UNL     1      32.615   7.014  20.442  1.00  0.00     0.000 C 
ENDROOT
BRANCH   1   2
ATOM      2  C   UNL     1      31.323   6.183  20.474  1.00  0.00     0.000 C 
BRANCH   2   3
ATOM      3  C   UNL     1      31.569   4.725  20.901  1.00  0.00     0.000 C 
BRANCH   3   4
ATOM      4  C   UNL     1      32.969   4.514  21.498  1.00  0.00     0.000 C 
BRANCH   4   5
ATOM      5  C   UNL     1      33.671   3.266  20.930  1.00  0.00     0.000 C 
BRANCH   5   6
ATOM      6  C   UNL     1      35.065   3.574  20.361  1.00  0.00     0.000 C 
BRANCH   6   7
ATOM      7  C   UNL     1      35.095   4.872  19.534  1.00  0.00     0.000 C 
BRANCH   7   8
ATOM      8  C   UNL     1      36.206   5.838  19.983  1.00  0.00     0.000 C 
BRANCH   8   9
ATOM      9  C   UNL     1      36.222   6.154  21.490  1.00  0.00     0.000 C 
BRANCH   9  10
ATOM     10  C   UNL     1      37.619   5.999  22.118  1.00  0.00     0.006 C 
BRANCH  10  11
ATOM     11  C   UNL     1      38.323   7.350  22.308  1.00  0.00     0.053 C 
BRANCH  11  12
ATOM     12  C   UNL     1      38.666   7.606  23.744  1.00  0.00     0.041 C 
ATOM     13  O   UNL     1      37.972   7.094  24.662  1.00  0.00    -0.550 OA
ATOM     14  O   UNL     1      39.732   8.436  24.068  1.00  0.00    -0.550 OA
ENDBRANCH  11  12
ENDBRANCH  10  11
ENDBRANCH   9  10
ENDBRANCH   8   9
ENDBRANCH   7   8
ENDBRANCH   6   7
ENDBRANCH   5   6
ENDBRANCH   4   5
ENDBRANCH   3   4
ENDBRANCH   2   3
ENDBRANCH   1   2
BRANCH   1  15
ATOM     15  C   UNL     1      32.496   8.321  21.244  1.00  0.00     0.000 C 
BRANCH  15  16
ATOM     16  C   UNL     1      31.235   8.366  22.125  1.00  0.00     0.000 C 
BRANCH  16  17
ATOM     17  C   UNL     1      31.028   9.687  22.892  1.00  0.00     0.000 C 
BRANCH  17  18
ATOM     18  C   UNL     1      32.322  10.412  23.312  1.00  0.00    -0.000 C 
BRANCH  18  19
ATOM     19  C   UNL     1      32.606  11.730  22.570  1.00  0.00    -0.000 C 
BRANCH  19  20
ATOM     20  C   UNL     1      34.096  12.109  22.575  1.00  0.00    -0.000 C 
BRANCH  20  21
ATOM     21  C   UNL     1      34.944  11.200  23.484  1.00  0.00    -0.000 C 
BRANCH  21  22
ATOM     22  C   UNL     1      36.114  10.481  22.787  1.00  0.00    -0.000 C 
BRANCH  22  23
ATOM     23  C   UNL     1      35.702   9.792  21.477  1.00  0.00    -0.000 C 
BRANCH  23  24
ATOM     24  C   UNL     1      36.613  10.224  20.318  1.00  0.00    -0.000 C 
BRANCH  24  25
ATOM     25  C   UNL     1      35.845  10.407  19.001  1.00  0.00    -0.003 C 
ATOM     26  C   UNL     1      34.354  10.667  19.217  1.00  0.00     0.004 C 
ENDBRANCH  24  25
ENDBRANCH  23  24
ENDBRANCH  22  23
ENDBRANCH  21  22
ENDBRANCH  20  21
ENDBRANCH  19  20
ENDBRANCH  18  19
ENDBRANCH  17  18
ENDBRANCH  16  17
ENDBRANCH  15  16
ENDBRANCH   1  15
TORSDOF 22
ENDMDL
MODEL 3
REMARK VINA RESULT:    -2.762      2.795      5.499
REMARK INTER + INTRA:         -10.376
REMARK INTER:                  -6.377
REMARK INTRA:                  -3.999
REMARK UNBOUND:                -4.062
REMARK SMILES CCCCCCCCCCCCCCCCCCCCCCCC(=O)[O-]
REMARK SMILES IDX 13 1 14 2 15 3 16 4 17 5 18 6 19 7 20 8 21 9 22 10 23 11
REMARK SMILES IDX 24 12 25 13 26 14 12 15 11 16 10 17 9 18 8 19 7 20 6 21 5 22
REMARK SMILES IDX 4 23 3 24 2 25 1 26
REMARK H PARENT
REMARK Flexibility Score: inf
ROOT
ATOM      1  C   UNL     1      32.039   7.349  21.005  1.00  0.00     0.000 C 
ENDROOT
BRANCH   1   2
ATOM      2  C   UNL     1      32.436   8.764  21.455  1.00  0.00     0.000 C 
BRANCH   2   3
ATOM      3  C   UNL     1      31.488   9.329  22.528  1.00  0.00     0.000 C 
BRANCH   3   4
ATOM      4  C   UNL     1      32.080  10.545  23.257  1.00  0.00     0.000 C 
BRANCH   4   5
ATOM      5  C   UNL     1      32.665  11.587  22.287  1.00  0.00     0.000 C 
BRANCH   5   6
ATOM      6  C   UNL     1      34.031  12.125  22.744  1.00  0.00     0.000 C 
BRANCH   6   7
ATOM      7  C   UNL     1      34.793  11.127  23.635  1.00  0.00     0.000 C 
BRANCH   7   8
ATOM      8  C   UNL     1      35.755  10.230  22.835  1.00  0.00     0.000 C 
BRANCH   8   9
ATOM      9  C   UNL     1      37.216  10.714  22.799  1.00  0.00     0.000 C 
BRANCH   9  10
ATOM     10  C   UNL     1      38.230   9.556  22.824  1.00  0.00     0.006 C 
BRANCH  10  11
ATOM     11  C   UNL     1      37.784   8.415  23.749  1.00  0.00     0.053 C 
BRANCH  11  12
ATOM     12  C   UNL     1      38.764   7.282  23.753  1.00  0.00     0.041 C 
ATOM     13  O   UNL     1      39.984   7.499  23.532  1.00  0.00    -0.550 OA
ATOM     14  O   UNL     1      38.325   5.982  23.969  1.00  0.00    -0.550 OA
ENDBRANCH  11  12
ENDBRANCH  10  11
ENDBRANCH   9  10
ENDBRANCH   8   9
ENDBRANCH   7   8
ENDBRANCH   6   7
ENDBRANCH   5   6
ENDBRANCH   4   5
ENDBRANCH   3   4
ENDBRANCH   2   3
ENDBRANCH   1   2
BRANCH   1  15
ATOM     15  C   UNL     1      31.856   7.244  19.481  1.00  0.00     0.000 C 
BRANCH  15  16
ATOM     16  C   UNL     1      31.502   5.818  19.021  1.00  0.00     0.000 C 
BRANCH  16  17
ATOM     17  C   UNL     1      32.582   4.758  19.313  1.00  0.00     0.000 C 
BRANCH  17  18
ATOM     18  C   UNL     1      33.903   4.936  18.537  1.00  0.00    -0.000 C 
BRANCH  18  19
ATOM     19  C   UNL     1      35.181   4.618  19.335  1.00  0.00    -0.000 C 
BRANCH  19  20
ATOM     20  C   UNL     1      35.059   4.978  20.825  1.00  0.00    -0.000 C 
BRANCH  20  21
ATOM     21  C   UNL     1      35.886   6.217  21.213  1.00  0.00    -0.000 C 
BRANCH  21  22
ATOM     22  C   UNL     1      35.586   7.489  20.397  1.00  0.00    -0.000 C 
BRANCH  22  23
ATOM     23  C   UNL     1      36.847   8.129  19.796  1.00  0.00    -0.000 C 
BRANCH  23  24
ATOM     24  C   UNL     1      36.543   9.533  19.251  1.00  0.00    -0.000 C 
BRANCH  24  25
ATOM     25  C   UNL     1      35.036   9.803  19.125  1.00  0.00    -0.003 C 
ATOM     26  C   UNL     1      34.728  11.208  18.609  1.00  0.00     0.004 C 
ENDBRANCH  24  25
ENDBRANCH  23  24
ENDBRANCH  22  23
ENDBRANCH  21  22
ENDBRANCH  20  21
ENDBRANCH  19  20
ENDBRANCH  18  19
ENDBRANCH  17  18
ENDBRANCH  16  17
ENDBRANCH  15  16
ENDBRANCH   1  15
TORSDOF 22
ENDMDL
MODEL 4
REMARK VINA RESULT:    -2.739      2.626      4.985
REMARK INTER + INTRA:         -10.323
REMARK INTER:                  -6.651
REMARK INTRA:                  -3.673
REMARK UNBOUND:                -4.062
REMARK SMILES CCCCCCCCCCCCCCCCCCCCCCCC(=O)[O-]
REMARK SMILES IDX 13 1 14 2 15 3 16 4 17 5 18 6 19 7 20 8 21 9 22 10 23 11
REMARK SMILES IDX 24 12 25 13 26 14 12 15 11 16 10 17 9 18 8 19 7 20 6 21 5 22
REMARK SMILES IDX 4 23 3 24 2 25 1 26
REMARK H PARENT
REMARK Flexibility Score: inf
ROOT
ATOM      1  C   UNL     1      31.927   8.835  21.932  1.00  0.00     0.000 C 
ENDROOT
BRANCH   1   2
ATOM      2  C   UNL     1      31.095   7.558  21.738  1.00  0.00     0.000 C 
BRANCH   2   3
ATOM      3  C   UNL     1      31.261   6.954  20.333  1.00  0.00     0.000 C 
BRANCH   3   4
ATOM      4  C   UNL     1      31.555   5.446  20.368  1.00  0.00     0.000 C 
BRANCH   4   5
ATOM      5  C   UNL     1      32.018   4.968  21.757  1.00  0.00     0.000 C 
BRANCH   5   6
ATOM      6  C   UNL     1      33.435   4.373  21.740  1.00  0.00     0.000 C 
BRANCH   6   7
ATOM      7  C   UNL     1      34.451   5.285  21.028  1.00  0.00     0.000 C 
BRANCH   7   8
ATOM      8  C   UNL     1      35.491   4.493  20.213  1.00  0.00     0.000 C 
BRANCH   8   9
ATOM      9  C   UNL     1      36.705   5.313  19.740  1.00  0.00     0.000 C 
BRANCH   9  10
ATOM     10  C   UNL     1      37.956   5.083  20.607  1.00  0.00     0.006 C 
BRANCH  10  11
ATOM     11  C   UNL     1      37.873   5.819  21.952  1.00  0.00     0.053 C 
BRANCH  11  12
ATOM     12  C   UNL     1      38.869   5.295  22.940  1.00  0.00     0.041 C 
ATOM     13  O   UNL     1      38.536   5.112  24.140  1.00  0.00    -0.550 OA
ATOM     14  O   UNL     1      40.176   5.041  22.542  1.00  0.00    -0.550 OA
ENDBRANCH  11  12
ENDBRANCH  10  11
ENDBRANCH   9  10
ENDBRANCH   8   9
ENDBRANCH   7   8
ENDBRANCH   6   7
ENDBRANCH   5   6
ENDBRANCH   4   5
ENDBRANCH   3   4
ENDBRANCH   2   3
ENDBRANCH   1   2
BRANCH   1  15
ATOM     15  C   UNL     1      31.265   9.829  22.903  1.00  0.00     0.000 C 
BRANCH  15  16
ATOM     16  C   UNL     1      32.029  11.162  23.003  1.00  0.00     0.000 C 
BRANCH  16  17
ATOM     17  C   UNL     1      33.546  11.022  23.231  1.00  0.00     0.000 C 
BRANCH  17  18
ATOM     18  C   UNL     1      34.411  12.125  22.588  1.00  0.00    -0.000 C 
BRANCH  18  19
ATOM     19  C   UNL     1      35.875  11.735  22.313  1.00  0.00    -0.000 C 
BRANCH  19  20
ATOM     20  C   UNL     1      36.300  10.457  23.055  1.00  0.00    -0.000 C 
BRANCH  20  21
ATOM     21  C   UNL     1      36.736   9.326  22.104  1.00  0.00    -0.000 C 
BRANCH  21  22
ATOM     22  C   UNL     1      35.587   8.585  21.396  1.00  0.00    -0.000 C 
BRANCH  22  23
ATOM     23  C   UNL     1      35.524   8.872  19.888  1.00  0.00    -0.000 C 
BRANCH  23  24
ATOM     24  C   UNL     1      34.285   9.711  19.540  1.00  0.00    -0.000 C 
BRANCH  24  25
ATOM     25  C   UNL     1      33.577   9.219  18.269  1.00  0.00    -0.003 C 
ATOM     26  C   UNL     1      33.867   7.750  17.962  1.00  0.00     0.004 C 
ENDBRANCH  24  25
ENDBRANCH  23  24
ENDBRANCH  22  23
ENDBRANCH  21  22
ENDBRANCH  20  21
ENDBRANCH  19  20
ENDBRANCH  18  19
ENDBRANCH  17  18
ENDBRANCH  16  17
ENDBRANCH  15  16
ENDBRANCH   1  15
TORSDOF 22
ENDMDL
MODEL 5
REMARK VINA RESULT:    -2.720      2.773      5.369
REMARK INTER + INTRA:         -10.280
REMARK INTER:                  -6.325
REMARK INTRA:                  -3.955
REMARK UNBOUND:                -4.062
REMARK SMILES CCCCCCCCCCCCCCCCCCCCCCCC(=O)[O-]
REMARK SMILES IDX 13 1 14 2 15 3 16 4 17 5 18 6 19 7 20 8 21 9 22 10 23 11
REMARK SMILES IDX 24 12 25 13 26 14 12 15 11 16 10 17 9 18 8 19 7 20 6 21 5 22
REMARK SMILES IDX 4 23 3 24 2 25 1 26
REMARK H PARENT
REMARK Flexibility Score: inf
ROOT
ATOM      1  C   UNL     1      32.638   9.126  21.378  1.00  0.00     0.000 C 
ENDROOT
BRANCH   1   2
ATOM      2  C   UNL     1      32.720   7.625  21.058  1.00  0.00     0.000 C 
BRANCH   2   3
ATOM      3  C   UNL     1      31.367   7.044  20.610  1.00  0.00     0.000 C 
BRANCH   3   4
ATOM      4  C   UNL     1      31.329   5.510  20.690  1.00  0.00     0.000 C 
BRANCH   4   5
ATOM      5  C   UNL     1      32.354   4.945  21.690  1.00  0.00     0.000 C 
BRANCH   5   6
ATOM      6  C   UNL     1      33.271   3.880  21.066  1.00  0.00     0.000 C 
BRANCH   6   7
ATOM      7  C   UNL     1      34.651   4.441  20.680  1.00  0.00     0.000 C 
BRANCH   7   8
ATOM      8  C   UNL     1      34.867   4.493  19.156  1.00  0.00     0.000 C 
BRANCH   8   9
ATOM      9  C   UNL     1      34.740   5.894  18.531  1.00  0.00     0.000 C 
BRANCH   9  10
ATOM     10  C   UNL     1      35.690   6.923  19.171  1.00  0.00     0.006 C 
BRANCH  10  11
ATOM     11  C   UNL     1      35.480   8.335  18.608  1.00  0.00     0.053 C 
BRANCH  11  12
ATOM     12  C   UNL     1      36.739   8.896  18.019  1.00  0.00     0.041 C 
ATOM     13  O   UNL     1      37.861   8.464  18.393  1.00  0.00    -0.550 OA
ATOM     14  O   UNL     1      36.673   9.919  17.082  1.00  0.00    -0.550 OA
ENDBRANCH  11  12
ENDBRANCH  10  11
ENDBRANCH   9  10
ENDBRANCH   8   9
ENDBRANCH   7   8
ENDBRANCH   6   7
ENDBRANCH   5   6
ENDBRANCH   4   5
ENDBRANCH   3   4
ENDBRANCH   2   3
ENDBRANCH   1   2
BRANCH   1  15
ATOM     15  C   UNL     1      31.667   9.432  22.531  1.00  0.00     0.000 C 
BRANCH  15  16
ATOM     16  C   UNL     1      32.141  10.601  23.414  1.00  0.00     0.000 C 
BRANCH  16  17
ATOM     17  C   UNL     1      33.297  11.430  22.823  1.00  0.00     0.000 C 
BRANCH  17  18
ATOM     18  C   UNL     1      34.635  11.325  23.581  1.00  0.00    -0.000 C 
BRANCH  18  19
ATOM     19  C   UNL     1      35.895  11.536  22.722  1.00  0.00    -0.000 C 
BRANCH  19  20
ATOM     20  C   UNL     1      36.040  10.486  21.608  1.00  0.00    -0.000 C 
BRANCH  20  21
ATOM     21  C   UNL     1      36.384   9.084  22.145  1.00  0.00    -0.000 C 
BRANCH  21  22
ATOM     22  C   UNL     1      37.566   9.030  23.132  1.00  0.00    -0.000 C 
BRANCH  22  23
ATOM     23  C   UNL     1      38.104   7.608  23.350  1.00  0.00    -0.000 C 
BRANCH  23  24
ATOM     24  C   UNL     1      37.202   6.569  22.667  1.00  0.00    -0.000 C 
BRANCH  24  25
ATOM     25  C   UNL     1      37.995   5.577  21.803  1.00  0.00    -0.003 C 
ATOM     26  C   UNL     1      39.005   6.267  20.887  1.00  0.00     0.004 C 
ENDBRANCH  24  25
ENDBRANCH  23  24
ENDBRANCH  22  23
ENDBRANCH  21  22
ENDBRANCH  20  21
ENDBRANCH  19  20
ENDBRANCH  18  19
ENDBRANCH  17  18
ENDBRANCH  16  17
ENDBRANCH  15  16
ENDBRANCH   1  15
TORSDOF 22
ENDMDL
MODEL 6
REMARK VINA RESULT:    -2.711      2.504      4.860
REMARK INTER + INTRA:         -10.260
REMARK INTER:                  -6.801
REMARK INTRA:                  -3.458
REMARK UNBOUND:                -4.062
REMARK SMILES CCCCCCCCCCCCCCCCCCCCCCCC(=O)[O-]
REMARK SMILES IDX 13 1 14 2 15 3 16 4 17 5 18 6 19 7 20 8 21 9 22 10 23 11
REMARK SMILES IDX 24 12 25 13 26 14 12 15 11 16 10 17 9 18 8 19 7 20 6 21 5 22
REMARK SMILES IDX 4 23 3 24 2 25 1 26
REMARK H PARENT
REMARK Flexibility Score: inf
ROOT
ATOM      1  C   UNL     1      32.166   8.750  21.793  1.00  0.00     0.000 C 
ENDROOT
BRANCH   1   2
ATOM      2  C   UNL     1      31.613   9.808  22.761  1.00  0.00     0.000 C 
BRANCH   2   3
ATOM      3  C   UNL     1      32.410  11.124  22.713  1.00  0.00     0.000 C 
BRANCH   3   4
ATOM      4  C   UNL     1      33.755  11.027  23.449  1.00  0.00     0.000 C 
BRANCH   4   5
ATOM      5  C   UNL     1      34.748  12.119  23.010  1.00  0.00     0.000 C 
BRANCH   5   6
ATOM      6  C   UNL     1      35.984  11.548  22.298  1.00  0.00     0.000 C 
BRANCH   6   7
ATOM      7  C   UNL     1      35.699  10.207  21.599  1.00  0.00     0.000 C 
BRANCH   7   8
ATOM      8  C   UNL     1      36.577   9.060  22.132  1.00  0.00     0.000 C 
BRANCH   8   9
ATOM      9  C   UNL     1      37.511   9.443  23.294  1.00  0.00     0.000 C 
BRANCH   9  10
ATOM     10  C   UNL     1      38.183   8.222  23.948  1.00  0.00     0.006 C 
BRANCH  10  11
ATOM     11  C   UNL     1      38.868   7.315  22.917  1.00  0.00     0.053 C 
BRANCH  11  12
ATOM     12  C   UNL     1      38.608   5.865  23.187  1.00  0.00     0.041 C 
ATOM     13  O   UNL     1      38.367   5.076  22.235  1.00  0.00    -0.550 OA
ATOM     14  O   UNL     1      38.599   5.390  24.493  1.00  0.00    -0.550 OA
ENDBRANCH  11  12
ENDBRANCH  10  11
ENDBRANCH   9  10
ENDBRANCH   8   9
ENDBRANCH   7   8
ENDBRANCH   6   7
ENDBRANCH   5   6
ENDBRANCH   4   5
ENDBRANCH   3   4
ENDBRANCH   2   3
ENDBRANCH   1   2
BRANCH   1  15
ATOM     15  C   UNL     1      31.158   7.622  21.513  1.00  0.00     0.000 C 
BRANCH  15  16
ATOM     16  C   UNL     1      31.628   6.667  20.401  1.00  0.00     0.000 C 
BRANCH  16  17
ATOM     17  C   UNL     1      31.388   5.172  20.688  1.00  0.00     0.000 C 
BRANCH  17  18
ATOM     18  C   UNL     1      32.191   4.594  21.871  1.00  0.00    -0.000 C 
BRANCH  18  19
ATOM     19  C   UNL     1      33.277   3.573  21.490  1.00  0.00    -0.000 C 
BRANCH  19  20
ATOM     20  C   UNL     1      34.265   4.114  20.444  1.00  0.00    -0.000 C 
BRANCH  20  21
ATOM     21  C   UNL     1      35.155   5.248  20.986  1.00  0.00    -0.000 C 
BRANCH  21  22
ATOM     22  C   UNL     1      35.342   6.447  20.038  1.00  0.00    -0.000 C 
BRANCH  22  23
ATOM     23  C   UNL     1      35.029   6.110  18.572  1.00  0.00    -0.000 C 
BRANCH  23  24
ATOM     24  C   UNL     1      34.226   7.239  17.909  1.00  0.00    -0.000 C 
BRANCH  24  25
ATOM     25  C   UNL     1      34.396   8.585  18.629  1.00  0.00    -0.003 C 
ATOM     26  C   UNL     1      33.338   9.611  18.223  1.00  0.00     0.004 C 
ENDBRANCH  24  25
ENDBRANCH  23  24
ENDBRANCH  22  23
ENDBRANCH  21  22
ENDBRANCH  20  21
ENDBRANCH  19  20
ENDBRANCH  18  19
ENDBRANCH  17  18
ENDBRANCH  16  17
ENDBRANCH  15  16
ENDBRANCH   1  15
TORSDOF 22
ENDMDL
MODEL 7
REMARK VINA RESULT:    -2.700      1.852      4.447
REMARK INTER + INTRA:         -10.236
REMARK INTER:                  -7.024
REMARK INTRA:                  -3.212
REMARK UNBOUND:                -4.062
REMARK SMILES CCCCCCCCCCCCCCCCCCCCCCCC(=O)[O-]
REMARK SMILES IDX 13 1 14 2 15 3 16 4 17 5 18 6 19 7 20 8 21 9 22 10 23 11
REMARK SMILES IDX 24 12 25 13 26 14 12 15 11 16 10 17 9 18 8 19 7 20 6 21 5 22
REMARK SMILES IDX 4 23 3 24 2 25 1 26
REMARK H PARENT
REMARK Flexibility Score: inf
ROOT
ATOM      1  C   UNL     1      31.223   9.575  22.872  1.00  0.00     0.000 C 
ENDROOT
BRANCH   1   2
ATOM      2  C   UNL     1      31.897   8.647  21.850  1.00  0.00     0.000 C 
BRANCH   2   3
ATOM      3  C   UNL     1      31.033   7.420  21.509  1.00  0.00     0.000 C 
BRANCH   3   4
ATOM      4  C   UNL     1      31.874   6.204  21.089  1.00  0.00     0.000 C 
BRANCH   4   5
ATOM      5  C   UNL     1      33.294   6.595  20.639  1.00  0.00     0.000 C 
BRANCH   5   6
ATOM      6  C   UNL     1      34.355   5.566  21.057  1.00  0.00     0.000 C 
BRANCH   6   7
ATOM      7  C   UNL     1      35.118   4.979  19.856  1.00  0.00     0.000 C 
BRANCH   7   8
ATOM      8  C   UNL     1      34.379   5.189  18.522  1.00  0.00     0.000 C 
BRANCH   8   9
ATOM      9  C   UNL     1      33.828   3.905  17.875  1.00  0.00     0.000 C 
BRANCH   9  10
ATOM     10  C   UNL     1      32.636   3.311  18.648  1.00  0.00     0.006 C 
BRANCH  10  11
ATOM     11  C   UNL     1      32.875   1.848  19.046  1.00  0.00     0.053 C 
BRANCH  11  12
ATOM     12  C   UNL     1      32.817   1.655  20.530  1.00  0.00     0.041 C 
ATOM     13  O   UNL     1      32.961   0.507  21.027  1.00  0.00    -0.550 OA
ATOM     14  O   UNL     1      32.570   2.739  21.364  1.00  0.00    -0.550 OA
ENDBRANCH  11  12
ENDBRANCH  10  11
ENDBRANCH   9  10
ENDBRANCH   8   9
ENDBRANCH   7   8
ENDBRANCH   6   7
ENDBRANCH   5   6
ENDBRANCH   4   5
ENDBRANCH   3   4
ENDBRANCH   2   3
ENDBRANCH   1   2
BRANCH   1  15
ATOM     15  C   UNL     1      32.199  10.607  23.467  1.00  0.00     0.000 C 
BRANCH  15  16
ATOM     16  C   UNL     1      32.664  11.649  22.434  1.00  0.00     0.000 C 
BRANCH  16  17
ATOM     17  C   UNL     1      34.153  12.036  22.532  1.00  0.00     0.000 C 
BRANCH  17  18
ATOM     18  C   UNL     1      35.013  11.116  23.422  1.00  0.00    -0.000 C 
BRANCH  18  19
ATOM     19  C   UNL     1      36.118  10.337  22.686  1.00  0.00    -0.000 C 
BRANCH  19  20
ATOM     20  C   UNL     1      35.575   9.485  21.526  1.00  0.00    -0.000 C 
BRANCH  20  21
ATOM     21  C   UNL     1      36.552   8.380  21.084  1.00  0.00    -0.000 C 
BRANCH  21  22
ATOM     22  C   UNL     1      37.640   8.016  22.111  1.00  0.00    -0.000 C 
BRANCH  22  23
ATOM     23  C   UNL     1      37.315   6.742  22.906  1.00  0.00    -0.000 C 
BRANCH  23  24
ATOM     24  C   UNL     1      38.446   5.710  22.776  1.00  0.00    -0.000 C 
BRANCH  24  25
ATOM     25  C   UNL     1      38.609   5.192  21.340  1.00  0.00    -0.003 C 
ATOM     26  C   UNL     1      38.349   3.690  21.220  1.00  0.00     0.004 C 
ENDBRANCH  24  25
ENDBRANCH  23  24
ENDBRANCH  22  23
ENDBRANCH  21  22
ENDBRANCH  20  21
ENDBRANCH  19  20
ENDBRANCH  18  19
ENDBRANCH  17  18
ENDBRANCH  16  17
ENDBRANCH  15  16
ENDBRANCH   1  15
TORSDOF 22
ENDMDL
MODEL 8
REMARK VINA RESULT:    -2.677      3.814      5.471
REMARK INTER + INTRA:         -10.183
REMARK INTER:                  -5.695
REMARK INTRA:                  -4.488
REMARK UNBOUND:                -4.062
REMARK SMILES CCCCCCCCCCCCCCCCCCCCCCCC(=O)[O-]
REMARK SMILES IDX 13 1 14 2 15 3 16 4 17 5 18 6 19 7 20 8 21 9 22 10 23 11
REMARK SMILES IDX 24 12 25 13 26 14 12 15 11 16 10 17 9 18 8 19 7 20 6 21 5 22
REMARK SMILES IDX 4 23 3 24 2 25 1 26
REMARK H PARENT
REMARK Flexibility Score: inf
ROOT
ATOM      1  C   UNL     1      36.874   9.526  22.615  1.00  0.00     0.000 C 
ENDROOT
BRANCH   1   2
ATOM      2  C   UNL     1      37.998   9.081  23.564  1.00  0.00     0.000 C 
BRANCH   2   3
ATOM      3  C   UNL     1      38.214   7.557  23.548  1.00  0.00     0.000 C 
BRANCH   3   4
ATOM      4  C   UNL     1      37.202   6.827  22.652  1.00  0.00     0.000 C 
BRANCH   4   5
ATOM      5  C   UNL     1      37.875   5.828  21.692  1.00  0.00     0.000 C 
BRANCH   5   6
ATOM      6  C   UNL     1      36.917   5.305  20.609  1.00  0.00     0.000 C 
BRANCH   6   7
ATOM      7  C   UNL     1      37.000   6.116  19.304  1.00  0.00     0.000 C 
BRANCH   7   8
ATOM      8  C   UNL     1      38.381   6.763  19.092  1.00  0.00     0.000 C 
BRANCH   8   9
ATOM      9  C   UNL     1      38.350   8.182  18.495  1.00  0.00     0.000 C 
BRANCH   9  10
ATOM     10  C   UNL     1      38.647   9.274  19.538  1.00  0.00     0.006 C 
BRANCH  10  11
ATOM     11  C   UNL     1      39.897   8.957  20.371  1.00  0.00     0.053 C 
BRANCH  11  12
ATOM     12  C   UNL     1      41.070   9.793  19.960  1.00  0.00     0.041 C 
ATOM     13  O   UNL     1      41.385  10.814  20.625  1.00  0.00    -0.550 OA
ATOM     14  O   UNL     1      41.796   9.462  18.822  1.00  0.00    -0.550 OA
ENDBRANCH  11  12
ENDBRANCH  10  11
ENDBRANCH   9  10
ENDBRANCH   8   9
ENDBRANCH   7   8
ENDBRANCH   6   7
ENDBRANCH   5   6
ENDBRANCH   4   5
ENDBRANCH   3   4
ENDBRANCH   2   3
ENDBRANCH   1   2
BRANCH   1  15
ATOM     15  C   UNL     1      36.392  10.959  22.903  1.00  0.00     0.000 C 
BRANCH  15  16
ATOM     16  C   UNL     1      34.925  11.011  23.367  1.00  0.00     0.000 C 
BRANCH  16  17
ATOM     17  C   UNL     1      34.070  12.099  22.689  1.00  0.00     0.000 C 
BRANCH  17  18
ATOM     18  C   UNL     1      32.572  11.762  22.545  1.00  0.00    -0.000 C 
BRANCH  18  19
ATOM     19  C   UNL     1      32.091  10.551  23.363  1.00  0.00    -0.000 C 
BRANCH  19  20
ATOM     20  C   UNL     1      31.227   9.580  22.540  1.00  0.00    -0.000 C 
BRANCH  20  21
ATOM     21  C   UNL     1      32.034   8.407  21.953  1.00  0.00    -0.000 C 
BRANCH  21  22
ATOM     22  C   UNL     1      32.719   8.692  20.603  1.00  0.00    -0.000 C 
BRANCH  22  23
ATOM     23  C   UNL     1      34.234   8.439  20.631  1.00  0.00    -0.000 C 
BRANCH  23  24
ATOM     24  C   UNL     1      34.925   9.112  19.435  1.00  0.00    -0.000 C 
BRANCH  24  25
ATOM     25  C   UNL     1      34.510  10.582  19.265  1.00  0.00    -0.003 C 
ATOM     26  C   UNL     1      35.690  11.546  19.376  1.00  0.00     0.004 C 
ENDBRANCH  24  25
ENDBRANCH  23  24
ENDBRANCH  22  23
ENDBRANCH  21  22
ENDBRANCH  20  21
ENDBRANCH  19  20
ENDBRANCH  18  19
ENDBRANCH  17  18
ENDBRANCH  16  17
ENDBRANCH  15  16
ENDBRANCH   1  15
TORSDOF 22
ENDMDL
MODEL 9
REMARK VINA RESULT:    -2.673      2.131      4.773
REMARK INTER + INTRA:         -10.172
REMARK INTER:                  -5.645
REMARK INTRA:                  -4.528
REMARK UNBOUND:                -4.062
REMARK SMILES CCCCCCCCCCCCCCCCCCCCCCCC(=O)[O-]
REMARK SMILES IDX 13 1 14 2 15 3 16 4 17 5 18 6 19 7 20 8 21 9 22 10 23 11
REMARK SMILES IDX 24 12 25 13 26 14 12 15 11 16 10 17 9 18 8 19 7 20 6 21 5 22
REMARK SMILES IDX 4 23 3 24 2 25 1 26
REMARK H PARENT
REMARK Flexibility Score: inf
ROOT
ATOM      1  C   UNL     1      35.402   8.772  19.551  1.00  0.00     0.000 C 
ENDROOT
BRANCH   1   2
ATOM      2  C   UNL     1      34.454   8.256  20.646  1.00  0.00     0.000 C 
BRANCH   2   3
ATOM      3  C   UNL     1      33.054   7.921  20.103  1.00  0.00     0.000 C 
BRANCH   3   4
ATOM      4  C   UNL     1      32.146   7.282  21.165  1.00  0.00     0.000 C 
BRANCH   4   5
ATOM      5  C   UNL     1      31.596   5.913  20.725  1.00  0.00     0.000 C 
BRANCH   5   6
ATOM      6  C   UNL     1      32.041   4.768  21.649  1.00  0.00     0.000 C 
BRANCH   6   7
ATOM      7  C   UNL     1      33.572   4.622  21.716  1.00  0.00     0.000 C 
BRANCH   7   8
ATOM      8  C   UNL     1      34.162   3.966  20.455  1.00  0.00     0.000 C 
BRANCH   8   9
ATOM      9  C   UNL     1      35.363   4.708  19.839  1.00  0.00     0.000 C 
BRANCH   9  10
ATOM     10  C   UNL     1      35.078   5.230  18.419  1.00  0.00     0.006 C 
BRANCH  10  11
ATOM     11  C   UNL     1      33.653   4.900  17.955  1.00  0.00     0.053 C 
BRANCH  11  12
ATOM     12  C   UNL     1      33.240   5.733  16.780  1.00  0.00     0.041 C 
ATOM     13  O   UNL     1      32.033   6.054  16.624  1.00  0.00    -0.550 OA
ATOM     14  O   UNL     1      34.184   6.128  15.840  1.00  0.00    -0.550 OA
ENDBRANCH  11  12
ENDBRANCH  10  11
ENDBRANCH   9  10
ENDBRANCH   8   9
ENDBRANCH   7   8
ENDBRANCH   6   7
ENDBRANCH   5   6
ENDBRANCH   4   5
ENDBRANCH   3   4
ENDBRANCH   2   3
ENDBRANCH   1   2
BRANCH   1  15
ATOM     15  C   UNL     1      35.662  10.284  19.660  1.00  0.00     0.000 C 
BRANCH  15  16
ATOM     16  C   UNL     1      34.419  11.127  19.323  1.00  0.00     0.000 C 
BRANCH  16  17
ATOM     17  C   UNL     1      33.966  12.088  20.440  1.00  0.00     0.000 C 
BRANCH  17  18
ATOM     18  C   UNL     1      32.810  11.572  21.321  1.00  0.00    -0.000 C 
BRANCH  18  19
ATOM     19  C   UNL     1      33.226  11.042  22.704  1.00  0.00    -0.000 C 
BRANCH  19  20
ATOM     20  C   UNL     1      34.524  11.682  23.223  1.00  0.00    -0.000 C 
BRANCH  20  21
ATOM     21  C   UNL     1      35.712  10.702  23.244  1.00  0.00    -0.000 C 
BRANCH  21  22
ATOM     22  C   UNL     1      37.068  11.305  22.835  1.00  0.00    -0.000 C 
BRANCH  22  23
ATOM     23  C   UNL     1      38.190  10.260  22.745  1.00  0.00    -0.000 C 
BRANCH  23  24
ATOM     24  C   UNL     1      37.712   8.895  23.264  1.00  0.00    -0.000 C 
BRANCH  24  25
ATOM     25  C   UNL     1      37.898   7.774  22.231  1.00  0.00    -0.003 C 
ATOM     26  C   UNL     1      37.120   6.507  22.587  1.00  0.00     0.004 C 
ENDBRANCH  24  25
ENDBRANCH  23  24
ENDBRANCH  22  23
ENDBRANCH  21  22
ENDBRANCH  20  21
ENDBRANCH  19  20
ENDBRANCH  18  19
ENDBRANCH  17  18
ENDBRANCH  16  17
ENDBRANCH  15  16
ENDBRANCH   1  15
TORSDOF 22
ENDMDL
