MODEL 1
REMARK VINA RESULT:    -4.489      0.000      0.000
REMARK INTER + INTRA:          -6.933
REMARK INTER:                  -6.851
REMARK INTRA:                  -0.082
REMARK UNBOUND:                -0.082
REMARK SMILES CC1=CCC[C@@H](C)C(=O)C[C@H](C(C)C)C(=O)C1
REMARK SMILES IDX 8 1 9 2 6 3 7 4 5 5 4 6 3 7 2 8 1 9 10 11 11 12 15 13 16 14
REMARK SMILES IDX 17 15 12 17 13 18 14 19
REMARK H PARENT
REMARK Flexibility Score: 70.00
ROOT
ATOM      1  C   UNL     1     -14.370  12.687   0.055  1.00  0.00     0.136 C 
ATOM      2  O   UNL     1     -15.178  13.087  -0.771  1.00  0.00    -0.299 OA
ENDROOT
BRANCH   1   3
ATOM      3  C   UNL     1     -14.085  11.200   0.173  1.00  0.00     0.053 C 
ATOM      4  C   UNL     1     -15.350  10.426   0.574  1.00  0.00     0.016 C 
BRANCH   3   5
ATOM      5  C   UNL     1     -12.939  10.952   1.184  1.00  0.00     0.015 C 
BRANCH   5   6
ATOM      6  C   UNL     1     -13.443  10.326   2.497  1.00  0.00     0.028 C 
BRANCH   6   7
ATOM      7  C   UNL     1     -12.859  11.029   3.694  1.00  0.00    -0.028 C 
ATOM      8  C   UNL     1     -13.436  12.075   4.330  1.00  0.00    -0.070 CG0
ATOM      9  C   UNL     1     -12.749  12.623   5.555  1.00  0.00     0.039 C 
ATOM     10  G   UNL     1     -14.733  12.721   3.864  1.00  0.00     0.000 G0
ENDBRANCH   6   7
ENDBRANCH   5   6
ENDBRANCH   3   5
ENDBRANCH   1   3
BRANCH   1  11
ATOM     11  C   UNL     1     -13.696  13.688   0.964  1.00  0.00     0.087 C 
BRANCH  11  12
ATOM     12  C   UNL     1     -14.714  14.448   1.850  1.00  0.00     0.066 C 
BRANCH  12  13
ATOM     13  C   UNL     1     -14.572  14.112   3.331  1.00  0.00     0.140 C 
ATOM     14  O   UNL     1     -14.232  15.002   4.098  1.00  0.00    -0.299 OA
BRANCH  13  15
ATOM     15  C   UNL     1     -14.746  12.713   3.874  1.00  0.00     0.106 CG0
ATOM     16  G   UNL     1     -13.428  12.096   4.320  1.00  0.00     0.000 G0
ENDBRANCH  13  15
ENDBRANCH  12  13
BRANCH  12  17
ATOM     17  C   UNL     1     -14.761  15.978   1.539  1.00  0.00    -0.006 C 
ATOM     18  C   UNL     1     -16.140  16.518   1.121  1.00  0.00     0.008 C 
ATOM     19  C   UNL     1     -13.698  16.379   0.504  1.00  0.00     0.008 C 
ENDBRANCH  12  17
ENDBRANCH  11  12
ENDBRANCH   1  11
TORSDOF 1
ENDMDL
MODEL 2
REMARK VINA RESULT:    -3.118      1.497      3.670
REMARK INTER + INTRA:          -4.840
REMARK INTER:                  -5.900
REMARK INTRA:                   1.060
REMARK UNBOUND:                -0.082
REMARK SMILES CC1=CCC[C@@H](C)C(=O)C[C@H](C(C)C)C(=O)C1
REMARK SMILES IDX 8 1 9 2 6 3 7 4 5 5 4 6 3 7 2 8 1 9 10 11 11 12 15 13 16 14
REMARK SMILES IDX 17 15 12 17 13 18 14 19
REMARK H PARENT
REMARK Flexibility Score: 70.00
ROOT
ATOM      1  C   UNL     1     -13.739  13.703   3.996  1.00  0.00     0.136 C 
ATOM      2  O   UNL     1     -12.574  13.986   3.751  1.00  0.00    -0.299 OA
ENDROOT
BRANCH   1   3
ATOM      3  C   UNL     1     -14.054  12.606   4.998  1.00  0.00     0.053 C 
ATOM      4  C   UNL     1     -12.917  12.450   6.020  1.00  0.00     0.016 C 
BRANCH   3   5
ATOM      5  C   UNL     1     -14.326  11.271   4.263  1.00  0.00     0.015 C 
BRANCH   5   6
ATOM      6  C   UNL     1     -13.305  11.001   3.143  1.00  0.00     0.028 C 
BRANCH   6   7
ATOM      7  C   UNL     1     -13.994  10.633   1.856  1.00  0.00    -0.028 C 
ATOM      8  C   UNL     1     -14.017  11.407   0.746  1.00  0.00    -0.070 CG0
ATOM      9  C   UNL     1     -14.699  10.860  -0.483  1.00  0.00     0.039 C 
ATOM     10  G   UNL     1     -13.396  12.795   0.685  1.00  0.00     0.000 G0
ENDBRANCH   6   7
ENDBRANCH   5   6
ENDBRANCH   3   5
ENDBRANCH   1   3
BRANCH   1  11
ATOM     11  C   UNL     1     -14.840  14.437   3.267  1.00  0.00     0.087 C 
BRANCH  11  12
ATOM     12  C   UNL     1     -14.374  14.963   1.887  1.00  0.00     0.066 C 
BRANCH  12  13
ATOM     13  C   UNL     1     -14.432  13.895   0.799  1.00  0.00     0.140 C 
ATOM     14  O   UNL     1     -15.394  13.888   0.044  1.00  0.00    -0.299 OA
BRANCH  13  15
ATOM     15  C   UNL     1     -13.403  12.797   0.673  1.00  0.00     0.106 CG0
ATOM     16  G   UNL     1     -14.023  11.409   0.749  1.00  0.00     0.000 G0
ENDBRANCH  13  15
ENDBRANCH  12  13
BRANCH  12  17
ATOM     17  C   UNL     1     -15.049  16.317   1.497  1.00  0.00    -0.006 C 
ATOM     18  C   UNL     1     -16.539  16.223   1.129  1.00  0.00     0.008 C 
ATOM     19  C   UNL     1     -14.271  17.036   0.383  1.00  0.00     0.008 C 
ENDBRANCH  12  17
ENDBRANCH  11  12
ENDBRANCH   1  11
TORSDOF 1
ENDMDL
MODEL 3
REMARK VINA RESULT:    -2.816      1.873      4.658
REMARK INTER + INTRA:          -4.379
REMARK INTER:                  -5.496
REMARK INTRA:                   1.117
REMARK UNBOUND:                -0.082
REMARK SMILES CC1=CCC[C@@H](C)C(=O)C[C@H](C(C)C)C(=O)C1
REMARK SMILES IDX 8 1 9 2 6 3 7 4 5 5 4 6 3 7 2 8 1 9 10 11 11 12 15 13 16 14
REMARK SMILES IDX 17 15 12 17 13 18 14 19
REMARK H PARENT
REMARK Flexibility Score: 70.00
ROOT
ATOM      1  C   UNL     1     -14.382  14.636   2.936  1.00  0.00     0.136 C 
ATOM      2  O   UNL     1     -15.528  14.617   3.363  1.00  0.00    -0.299 OA
ENDROOT
BRANCH   1   3
ATOM      3  C   UNL     1     -14.058  15.432   1.683  1.00  0.00     0.053 C 
ATOM      4  C   UNL     1     -15.334  16.004   1.048  1.00  0.00     0.016 C 
BRANCH   3   5
ATOM      5  C   UNL     1     -13.283  14.550   0.674  1.00  0.00     0.015 C 
BRANCH   5   6
ATOM      6  C   UNL     1     -14.139  14.169  -0.548  1.00  0.00     0.028 C 
BRANCH   6   7
ATOM      7  C   UNL     1     -14.784  12.821  -0.362  1.00  0.00    -0.028 C 
ATOM      8  C   UNL     1     -14.324  11.855   0.466  1.00  0.00    -0.070 CG0
ATOM      9  C   UNL     1     -15.126  10.584   0.582  1.00  0.00     0.039 C 
ATOM     10  G   UNL     1     -13.041  11.991   1.274  1.00  0.00     0.000 G0
ENDBRANCH   6   7
ENDBRANCH   5   6
ENDBRANCH   3   5
ENDBRANCH   1   3
BRANCH   1  11
ATOM     11  C   UNL     1     -13.320  13.838   3.654  1.00  0.00     0.087 C 
BRANCH  11  12
ATOM     12  C   UNL     1     -13.729  12.355   3.835  1.00  0.00     0.066 C 
BRANCH  12  13
ATOM     13  C   UNL     1     -13.232  11.464   2.701  1.00  0.00     0.140 C 
ATOM     14  O   UNL     1     -12.903  10.316   2.966  1.00  0.00    -0.299 OA
BRANCH  13  15
ATOM     15  C   UNL     1     -13.045  11.963   1.288  1.00  0.00     0.106 CG0
ATOM     16  G   UNL     1     -14.315  11.842   0.457  1.00  0.00     0.000 G0
ENDBRANCH  13  15
ENDBRANCH  12  13
BRANCH  12  17
ATOM     17  C   UNL     1     -13.415  11.811   5.265  1.00  0.00    -0.006 C 
ATOM     18  C   UNL     1     -14.644  11.570   6.158  1.00  0.00     0.008 C 
ATOM     19  C   UNL     1     -12.394  12.698   5.996  1.00  0.00     0.008 C 
ENDBRANCH  12  17
ENDBRANCH  11  12
ENDBRANCH   1  11
TORSDOF 1
ENDMDL
MODEL 4
REMARK VINA RESULT:    -2.684      1.821      4.407
REMARK INTER + INTRA:          -4.178
REMARK INTER:                  -4.801
REMARK INTRA:                   0.623
REMARK UNBOUND:                -0.082
REMARK SMILES CC1=CCC[C@@H](C)C(=O)C[C@H](C(C)C)C(=O)C1
REMARK SMILES IDX 8 1 9 2 6 3 7 4 5 5 4 6 3 7 2 8 1 9 10 11 11 12 15 13 16 14
REMARK SMILES IDX 17 15 12 17 13 18 14 19
REMARK H PARENT
REMARK Flexibility Score: 70.00
ROOT
ATOM      1  C   UNL     1     -13.396  10.246   3.432  1.00  0.00     0.136 C 
ATOM      2  O   UNL     1     -14.368   9.936   4.107  1.00  0.00    -0.299 OA
ENDROOT
BRANCH   1   3
ATOM      3  C   UNL     1     -13.370   9.910   1.951  1.00  0.00     0.053 C 
ATOM      4  C   UNL     1     -11.950  10.044   1.381  1.00  0.00     0.016 C 
BRANCH   3   5
ATOM      5  C   UNL     1     -14.364  10.811   1.179  1.00  0.00     0.015 C 
BRANCH   5   6
ATOM      6  C   UNL     1     -13.674  12.029   0.538  1.00  0.00     0.028 C 
BRANCH   6   7
ATOM      7  C   UNL     1     -14.456  13.292   0.787  1.00  0.00    -0.028 C 
ATOM      8  C   UNL     1     -14.204  14.169   1.786  1.00  0.00    -0.070 CG0
ATOM      9  C   UNL     1     -15.044  15.420   1.857  1.00  0.00     0.039 C 
ATOM     10  G   UNL     1     -13.125  13.949   2.837  1.00  0.00     0.000 G0
ENDBRANCH   6   7
ENDBRANCH   5   6
ENDBRANCH   3   5
ENDBRANCH   1   3
BRANCH   1  11
ATOM     11  C   UNL     1     -12.228  10.931   4.101  1.00  0.00     0.087 C 
BRANCH  11  12
ATOM     12  C   UNL     1     -12.656  12.227   4.833  1.00  0.00     0.066 C 
BRANCH  12  13
ATOM     13  C   UNL     1     -13.600  13.089   4.003  1.00  0.00     0.140 C 
ATOM     14  O   UNL     1     -14.800  13.025   4.234  1.00  0.00    -0.299 OA
BRANCH  13  15
ATOM     15  C   UNL     1     -13.129  13.947   2.852  1.00  0.00     0.106 CG0
ATOM     16  G   UNL     1     -14.207  14.143   1.795  1.00  0.00     0.000 G0
ENDBRANCH  13  15
ENDBRANCH  12  13
BRANCH  12  17
ATOM     17  C   UNL     1     -13.142  11.963   6.294  1.00  0.00    -0.006 C 
ATOM     18  C   UNL     1     -13.411  13.225   7.132  1.00  0.00     0.008 C 
ATOM     19  C   UNL     1     -12.188  11.021   7.046  1.00  0.00     0.008 C 
ENDBRANCH  12  17
ENDBRANCH  11  12
ENDBRANCH   1  11
TORSDOF 1
ENDMDL
MODEL 5
REMARK VINA RESULT:    -2.617      1.782      4.176
REMARK INTER + INTRA:          -4.075
REMARK INTER:                  -4.153
REMARK INTRA:                   0.078
REMARK UNBOUND:                -0.082
REMARK SMILES CC1=CCC[C@@H](C)C(=O)C[C@H](C(C)C)C(=O)C1
REMARK SMILES IDX 8 1 9 2 6 3 7 4 5 5 4 6 3 7 2 8 1 9 10 11 11 12 15 13 16 14
REMARK SMILES IDX 17 15 12 17 13 18 14 19
REMARK H PARENT
REMARK Flexibility Score: 70.00
ROOT
ATOM      1  C   UNL     1     -13.899  11.451   1.721  1.00  0.00     0.136 C 
ATOM      2  O   UNL     1     -12.731  11.168   1.492  1.00  0.00    -0.299 OA
ENDROOT
BRANCH   1   3
ATOM      3  C   UNL     1     -14.896  11.521   0.577  1.00  0.00     0.053 C 
ATOM      4  C   UNL     1     -15.312  10.115   0.120  1.00  0.00     0.016 C 
BRANCH   3   5
ATOM      5  C   UNL     1     -14.304  12.334  -0.600  1.00  0.00     0.015 C 
BRANCH   5   6
ATOM      6  C   UNL     1     -13.810  13.724  -0.161  1.00  0.00     0.028 C 
BRANCH   6   7
ATOM      7  C   UNL     1     -14.964  14.666   0.065  1.00  0.00    -0.028 C 
ATOM      8  C   UNL     1     -15.133  15.425   1.172  1.00  0.00    -0.070 CG0
ATOM      9  C   UNL     1     -16.312  16.364   1.211  1.00  0.00     0.039 C 
ATOM     10  G   UNL     1     -14.199  15.368   2.372  1.00  0.00     0.000 G0
ENDBRANCH   6   7
ENDBRANCH   5   6
ENDBRANCH   3   5
ENDBRANCH   1   3
BRANCH   1  11
ATOM     11  C   UNL     1     -14.314  11.754   3.141  1.00  0.00     0.087 C 
BRANCH  11  12
ATOM     12  C   UNL     1     -13.703  13.081   3.655  1.00  0.00     0.066 C 
BRANCH  12  13
ATOM     13  C   UNL     1     -14.586  14.289   3.360  1.00  0.00     0.140 C 
ATOM     14  O   UNL     1     -15.686  14.348   3.892  1.00  0.00    -0.299 OA
BRANCH  13  15
ATOM     15  C   UNL     1     -14.200  15.366   2.374  1.00  0.00     0.106 CG0
ATOM     16  G   UNL     1     -15.137  15.420   1.176  1.00  0.00     0.000 G0
ENDBRANCH  13  15
ENDBRANCH  12  13
BRANCH  12  17
ATOM     17  C   UNL     1     -13.213  12.988   5.135  1.00  0.00    -0.006 C 
ATOM     18  C   UNL     1     -11.686  12.970   5.319  1.00  0.00     0.008 C 
ATOM     19  C   UNL     1     -13.849  11.796   5.868  1.00  0.00     0.008 C 
ENDBRANCH  12  17
ENDBRANCH  11  12
ENDBRANCH   1  11
TORSDOF 1
ENDMDL
MODEL 6
REMARK VINA RESULT:    -2.140      1.830      4.059
REMARK INTER + INTRA:          -3.348
REMARK INTER:                  -4.063
REMARK INTRA:                   0.715
REMARK UNBOUND:                -0.082
REMARK SMILES CC1=CCC[C@@H](C)C(=O)C[C@H](C(C)C)C(=O)C1
REMARK SMILES IDX 8 1 9 2 6 3 7 4 5 5 4 6 3 7 2 8 1 9 10 11 11 12 15 13 16 14
REMARK SMILES IDX 17 15 12 17 13 18 14 19
REMARK H PARENT
REMARK Flexibility Score: 70.00
ROOT
ATOM      1  C   UNL     1     -14.249  14.372   2.546  1.00  0.00     0.136 C 
ATOM      2  O   UNL     1     -13.982  15.473   3.009  1.00  0.00    -0.299 OA
ENDROOT
BRANCH   1   3
ATOM      3  C   UNL     1     -13.712  13.977   1.182  1.00  0.00     0.053 C 
ATOM      4  C   UNL     1     -12.856  15.102   0.580  1.00  0.00     0.016 C 
BRANCH   3   5
ATOM      5  C   UNL     1     -14.877  13.599   0.236  1.00  0.00     0.015 C 
BRANCH   5   6
ATOM      6  C   UNL     1     -14.873  12.103  -0.128  1.00  0.00     0.028 C 
BRANCH   6   7
ATOM      7  C   UNL     1     -13.600  11.437   0.322  1.00  0.00    -0.028 C 
ATOM      8  C   UNL     1     -13.450  10.769   1.489  1.00  0.00    -0.070 CG0
ATOM      9  C   UNL     1     -12.124  10.104   1.758  1.00  0.00     0.039 C 
ATOM     10  G   UNL     1     -14.549  10.667   2.537  1.00  0.00     0.000 G0
ENDBRANCH   6   7
ENDBRANCH   5   6
ENDBRANCH   3   5
ENDBRANCH   1   3
BRANCH   1  11
ATOM     11  C   UNL     1     -15.138  13.442   3.337  1.00  0.00     0.087 C 
BRANCH  11  12
ATOM     12  C   UNL     1     -14.336  12.594   4.354  1.00  0.00     0.066 C 
BRANCH  12  13
ATOM     13  C   UNL     1     -14.122  11.158   3.886  1.00  0.00     0.140 C 
ATOM     14  O   UNL     1     -13.514  10.392   4.621  1.00  0.00    -0.299 OA
BRANCH  13  15
ATOM     15  C   UNL     1     -14.547  10.669   2.522  1.00  0.00     0.106 CG0
ATOM     16  G   UNL     1     -13.429  10.772   1.494  1.00  0.00     0.000 G0
ENDBRANCH  13  15
ENDBRANCH  12  13
BRANCH  12  17
ATOM     17  C   UNL     1     -13.038  13.310   4.848  1.00  0.00    -0.006 C 
ATOM     18  C   UNL     1     -11.739  12.859   4.159  1.00  0.00     0.008 C 
ATOM     19  C   UNL     1     -12.887  13.219   6.375  1.00  0.00     0.008 C 
ENDBRANCH  12  17
ENDBRANCH  11  12
ENDBRANCH   1  11
TORSDOF 1
ENDMDL
MODEL 7
REMARK VINA RESULT:    -1.897      1.460      3.475
REMARK INTER + INTRA:          -2.976
REMARK INTER:                  -6.719
REMARK INTRA:                   3.742
REMARK UNBOUND:                -0.082
REMARK SMILES CC1=CCC[C@@H](C)C(=O)C[C@H](C(C)C)C(=O)C1
REMARK SMILES IDX 8 1 9 2 6 3 7 4 5 5 4 6 3 7 2 8 1 9 10 11 11 12 15 13 16 14
REMARK SMILES IDX 17 15 12 17 13 18 14 19
REMARK H PARENT
REMARK Flexibility Score: 70.00
ROOT
ATOM      1  C   UNL     1     -14.015  13.711   3.766  1.00  0.00     0.136 C 
ATOM      2  O   UNL     1     -15.042  14.353   3.596  1.00  0.00    -0.299 OA
ENDROOT
BRANCH   1   3
ATOM      3  C   UNL     1     -13.743  13.066   5.115  1.00  0.00     0.053 C 
ATOM      4  C   UNL     1     -12.235  12.898   5.351  1.00  0.00     0.016 C 
BRANCH   3   5
ATOM      5  C   UNL     1     -14.475  11.706   5.215  1.00  0.00     0.015 C 
BRANCH   5   6
ATOM      6  C   UNL     1     -13.517  10.550   5.554  1.00  0.00     0.028 C 
BRANCH   6   7
ATOM      7  C   UNL     1     -12.702  10.148   4.353  1.00  0.00    -0.028 C 
ATOM      8  C   UNL     1     -13.070  10.357   3.068  1.00  0.00    -0.070 CG0
ATOM      9  C   UNL     1     -12.107   9.950   1.981  1.00  0.00     0.039 C 
ATOM     10  G   UNL     1     -14.405  10.973   2.673  1.00  0.00     0.000 G0
ENDBRANCH   6   7
ENDBRANCH   5   6
ENDBRANCH   3   5
ENDBRANCH   1   3
BRANCH   1  11
ATOM     11  C   UNL     1     -13.024  13.601   2.632  1.00  0.00     0.087 C 
BRANCH  11  12
ATOM     12  C   UNL     1     -13.700  13.167   1.308  1.00  0.00     0.066 C 
BRANCH  12  13
ATOM     13  C   UNL     1     -14.293  11.764   1.382  1.00  0.00     0.140 C 
ATOM     14  O   UNL     1     -14.779  11.285   0.366  1.00  0.00    -0.299 OA
BRANCH  13  15
ATOM     15  C   UNL     1     -14.388  10.981   2.670  1.00  0.00     0.106 CG0
ATOM     16  G   UNL     1     -13.057  10.360   3.071  1.00  0.00     0.000 G0
ENDBRANCH  13  15
ENDBRANCH  12  13
BRANCH  12  17
ATOM     17  C   UNL     1     -14.675  14.249   0.744  1.00  0.00    -0.006 C 
ATOM     18  C   UNL     1     -15.367  13.881  -0.580  1.00  0.00     0.008 C 
ATOM     19  C   UNL     1     -13.990  15.620   0.620  1.00  0.00     0.008 C 
ENDBRANCH  12  17
ENDBRANCH  11  12
ENDBRANCH   1  11
TORSDOF 1
ENDMDL
MODEL 8
REMARK VINA RESULT:    -1.776      1.641      4.095
REMARK INTER + INTRA:          -2.792
REMARK INTER:                  -3.500
REMARK INTRA:                   0.708
REMARK UNBOUND:                -0.082
REMARK SMILES CC1=CCC[C@@H](C)C(=O)C[C@H](C(C)C)C(=O)C1
REMARK SMILES IDX 8 1 9 2 6 3 7 4 5 5 4 6 3 7 2 8 1 9 10 11 11 12 15 13 16 14
REMARK SMILES IDX 17 15 12 17 13 18 14 19
REMARK H PARENT
REMARK Flexibility Score: 70.00
ROOT
ATOM      1  C   UNL     1     -14.537  13.367   1.314  1.00  0.00     0.136 C 
ATOM      2  O   UNL     1     -13.992  13.360   0.219  1.00  0.00    -0.299 OA
ENDROOT
BRANCH   1   3
ATOM      3  C   UNL     1     -14.952  14.687   1.941  1.00  0.00     0.053 C 
ATOM      4  C   UNL     1     -13.983  15.813   1.548  1.00  0.00     0.016 C 
BRANCH   3   5
ATOM      5  C   UNL     1     -15.042  14.545   3.480  1.00  0.00     0.015 C 
BRANCH   5   6
ATOM      6  C   UNL     1     -13.656  14.398   4.135  1.00  0.00     0.028 C 
BRANCH   6   7
ATOM      7  C   UNL     1     -13.757  13.715   5.474  1.00  0.00    -0.028 C 
ATOM      8  C   UNL     1     -13.178  12.532   5.780  1.00  0.00    -0.070 CG0
ATOM      9  C   UNL     1     -13.325  12.017   7.190  1.00  0.00     0.039 C 
ATOM     10  G   UNL     1     -12.396  11.701   4.772  1.00  0.00     0.000 G0
ENDBRANCH   6   7
ENDBRANCH   5   6
ENDBRANCH   3   5
ENDBRANCH   1   3
BRANCH   1  11
ATOM     11  C   UNL     1     -14.756  12.057   2.032  1.00  0.00     0.087 C 
BRANCH  11  12
ATOM     12  C   UNL     1     -13.423  11.335   2.347  1.00  0.00     0.066 C 
BRANCH  12  13
ATOM     13  C   UNL     1     -13.291  10.956   3.818  1.00  0.00     0.140 C 
ATOM     14  O   UNL     1     -13.994  10.053   4.250  1.00  0.00    -0.299 OA
BRANCH  13  15
ATOM     15  C   UNL     1     -12.399  11.704   4.781  1.00  0.00     0.106 CG0
ATOM     16  G   UNL     1     -13.192  12.540   5.775  1.00  0.00     0.000 G0
ENDBRANCH  13  15
ENDBRANCH  12  13
BRANCH  12  17
ATOM     17  C   UNL     1     -13.116  10.170   1.352  1.00  0.00    -0.006 C 
ATOM     18  C   UNL     1     -11.623   9.876   1.130  1.00  0.00     0.008 C 
ATOM     19  C   UNL     1     -13.822  10.377   0.003  1.00  0.00     0.008 C 
ENDBRANCH  12  17
ENDBRANCH  11  12
ENDBRANCH   1  11
TORSDOF 1
ENDMDL
MODEL 9
REMARK VINA RESULT:    -1.538      1.959      4.890
REMARK INTER + INTRA:          -2.429
REMARK INTER:                  -3.817
REMARK INTRA:                   1.388
REMARK UNBOUND:                -0.082
REMARK SMILES CC1=CCC[C@@H](C)C(=O)C[C@H](C(C)C)C(=O)C1
REMARK SMILES IDX 8 1 9 2 6 3 7 4 5 5 4 6 3 7 2 8 1 9 10 11 11 12 15 13 16 14
REMARK SMILES IDX 17 15 12 17 13 18 14 19
REMARK H PARENT
REMARK Flexibility Score: 70.00
ROOT
ATOM      1  C   UNL     1     -13.122  12.224   3.665  1.00  0.00     0.136 C 
ATOM      2  O   UNL     1     -13.620  11.175   4.049  1.00  0.00    -0.299 OA
ENDROOT
BRANCH   1   3
ATOM      3  C   UNL     1     -12.810  13.322   4.668  1.00  0.00     0.053 C 
ATOM      4  C   UNL     1     -12.282  12.732   5.984  1.00  0.00     0.016 C 
BRANCH   3   5
ATOM      5  C   UNL     1     -14.065  14.194   4.915  1.00  0.00     0.015 C 
BRANCH   5   6
ATOM      6  C   UNL     1     -14.911  14.375   3.642  1.00  0.00     0.028 C 
BRANCH   6   7
ATOM      7  C   UNL     1     -14.431  15.551   2.832  1.00  0.00    -0.028 C 
ATOM      8  C   UNL     1     -14.609  15.691   1.497  1.00  0.00    -0.070 CG0
ATOM      9  C   UNL     1     -14.121  16.962   0.849  1.00  0.00     0.039 C 
ATOM     10  G   UNL     1     -15.268  14.629   0.629  1.00  0.00     0.000 G0
ENDBRANCH   6   7
ENDBRANCH   5   6
ENDBRANCH   3   5
ENDBRANCH   1   3
BRANCH   1  11
ATOM     11  C   UNL     1     -12.857  12.412   2.190  1.00  0.00     0.087 C 
BRANCH  11  12
ATOM     12  C   UNL     1     -14.151  12.299   1.347  1.00  0.00     0.066 C 
BRANCH  12  13
ATOM     13  C   UNL     1     -14.325  13.462   0.375  1.00  0.00     0.140 C 
ATOM     14  O   UNL     1     -13.624  13.490  -0.628  1.00  0.00    -0.299 OA
BRANCH  13  15
ATOM     15  C   UNL     1     -15.255  14.621   0.642  1.00  0.00     0.106 CG0
ATOM     16  G   UNL     1     -14.608  15.699   1.499  1.00  0.00     0.000 G0
ENDBRANCH  13  15
ENDBRANCH  12  13
BRANCH  12  17
ATOM     17  C   UNL     1     -14.330  10.888   0.701  1.00  0.00    -0.006 C 
ATOM     18  C   UNL     1     -13.116   9.952   0.826  1.00  0.00     0.008 C 
ATOM     19  C   UNL     1     -14.772  10.990  -0.767  1.00  0.00     0.008 C 
ENDBRANCH  12  17
ENDBRANCH  11  12
ENDBRANCH   1  11
TORSDOF 1
ENDMDL
