MODEL 1
REMARK VINA RESULT:    -5.586      0.000      0.000
REMARK INTER + INTRA:         -10.955
REMARK INTER:                  -9.504
REMARK INTRA:                  -1.451
REMARK UNBOUND:                -1.451
REMARK SMILES CCCCCCCCCCCCCC(=O)[O-]
REMARK SMILES IDX 8 1 9 2 10 3 11 4 12 5 13 6 14 7 15 8 16 9 7 10 6 11 5 12
REMARK SMILES IDX 4 13 3 14 2 15 1 16
REMARK H PARENT
REMARK Flexibility Score: inf
ROOT
ATOM      1  C   UNL     1     -12.134  -9.946  11.645  1.00  0.00     0.000 C 
ENDROOT
BRANCH   1   2
ATOM      2  C   UNL     1     -12.615  -9.226  10.376  1.00  0.00     0.000 C 
BRANCH   2   3
ATOM      3  C   UNL     1     -11.888  -7.889  10.195  1.00  0.00     0.000 C 
BRANCH   3   4
ATOM      4  C   UNL     1     -10.507  -8.096   9.555  1.00  0.00     0.000 C 
BRANCH   4   5
ATOM      5  C   UNL     1     -10.466  -9.286   8.578  1.00  0.00     0.006 C 
BRANCH   5   6
ATOM      6  C   UNL     1      -9.338 -10.293   8.865  1.00  0.00     0.053 C 
BRANCH   6   7
ATOM      7  C   UNL     1      -8.748 -10.874   7.616  1.00  0.00     0.041 C 
ATOM      8  O   UNL     1      -9.359 -11.777   6.984  1.00  0.00    -0.550 OA
ATOM      9  O   UNL     1      -7.537 -10.397   7.131  1.00  0.00    -0.550 OA
ENDBRANCH   6   7
ENDBRANCH   5   6
ENDBRANCH   4   5
ENDBRANCH   3   4
ENDBRANCH   2   3
ENDBRANCH   1   2
BRANCH   1  10
ATOM     10  C   UNL     1     -11.962 -11.459  11.438  1.00  0.00     0.000 C 
BRANCH  10  11
ATOM     11  C   UNL     1     -12.930 -12.028  10.390  1.00  0.00    -0.000 C 
BRANCH  11  12
ATOM     12  C   UNL     1     -12.168 -12.802   9.304  1.00  0.00    -0.000 C 
BRANCH  12  13
ATOM     13  C   UNL     1     -10.907 -13.498   9.844  1.00  0.00    -0.000 C 
BRANCH  13  14
ATOM     14  C   UNL     1     -10.389 -14.598   8.901  1.00  0.00    -0.000 C 
BRANCH  14  15
ATOM     15  C   UNL     1     -10.191 -15.943   9.619  1.00  0.00    -0.003 C 
ATOM     16  C   UNL     1     -11.200 -17.004   9.180  1.00  0.00     0.004 C 
ENDBRANCH  14  15
ENDBRANCH  13  14
ENDBRANCH  12  13
ENDBRANCH  11  12
ENDBRANCH  10  11
ENDBRANCH   1  10
TORSDOF 12
ENDMDL
MODEL 2
REMARK VINA RESULT:    -5.525      2.055      5.224
REMARK INTER + INTRA:         -10.852
REMARK INTER:                  -9.095
REMARK INTRA:                  -1.757
REMARK UNBOUND:                -1.451
REMARK SMILES CCCCCCCCCCCCCC(=O)[O-]
REMARK SMILES IDX 8 1 9 2 10 3 11 4 12 5 13 6 14 7 15 8 16 9 7 10 6 11 5 12
REMARK SMILES IDX 4 13 3 14 2 15 1 16
REMARK H PARENT
REMARK Flexibility Score: inf
ROOT
ATOM      1  C   UNL     1      -9.305 -10.547   9.181  1.00  0.00     0.000 C 
ENDROOT
BRANCH   1   2
ATOM      2  C   UNL     1      -8.927 -10.996   7.761  1.00  0.00     0.000 C 
BRANCH   2   3
ATOM      3  C   UNL     1      -9.623 -12.313   7.398  1.00  0.00     0.000 C 
BRANCH   3   4
ATOM      4  C   UNL     1     -11.080 -12.318   7.886  1.00  0.00     0.000 C 
BRANCH   4   5
ATOM      5  C   UNL     1     -11.559 -13.708   8.347  1.00  0.00     0.006 C 
BRANCH   5   6
ATOM      6  C   UNL     1     -10.640 -14.372   9.387  1.00  0.00     0.053 C 
BRANCH   6   7
ATOM      7  C   UNL     1     -10.169 -15.730   8.960  1.00  0.00     0.041 C 
ATOM      8  O   UNL     1      -9.009 -15.884   8.494  1.00  0.00    -0.550 OA
ATOM      9  O   UNL     1     -11.001 -16.833   9.108  1.00  0.00    -0.550 OA
ENDBRANCH   6   7
ENDBRANCH   5   6
ENDBRANCH   4   5
ENDBRANCH   3   4
ENDBRANCH   2   3
ENDBRANCH   1   2
BRANCH   1  10
ATOM     10  C   UNL     1      -9.298  -9.018   9.340  1.00  0.00     0.000 C 
BRANCH  10  11
ATOM     11  C   UNL     1     -10.542  -8.353   8.732  1.00  0.00    -0.000 C 
BRANCH  11  12
ATOM     12  C   UNL     1     -11.342  -7.604   9.808  1.00  0.00    -0.000 C 
BRANCH  12  13
ATOM     13  C   UNL     1     -12.182  -8.546  10.687  1.00  0.00    -0.000 C 
BRANCH  13  14
ATOM     14  C   UNL     1     -12.999  -9.554   9.859  1.00  0.00    -0.000 C 
BRANCH  14  15
ATOM     15  C   UNL     1     -13.323 -10.834  10.645  1.00  0.00    -0.003 C 
ATOM     16  C   UNL     1     -12.116 -11.386  11.404  1.00  0.00     0.004 C 
ENDBRANCH  14  15
ENDBRANCH  13  14
ENDBRANCH  12  13
ENDBRANCH  11  12
ENDBRANCH  10  11
ENDBRANCH   1  10
TORSDOF 12
ENDMDL
MODEL 3
REMARK VINA RESULT:    -5.512      1.275      1.909
REMARK INTER + INTRA:         -10.830
REMARK INTER:                  -9.299
REMARK INTRA:                  -1.530
REMARK UNBOUND:                -1.451
REMARK SMILES CCCCCCCCCCCCCC(=O)[O-]
REMARK SMILES IDX 8 1 9 2 10 3 11 4 12 5 13 6 14 7 15 8 16 9 7 10 6 11 5 12
REMARK SMILES IDX 4 13 3 14 2 15 1 16
REMARK H PARENT
REMARK Flexibility Score: inf
ROOT
ATOM      1  C   UNL     1     -12.994  -8.772  10.211  1.00  0.00     0.000 C 
ENDROOT
BRANCH   1   2
ATOM      2  C   UNL     1     -11.604  -8.454  10.784  1.00  0.00     0.000 C 
BRANCH   2   3
ATOM      3  C   UNL     1     -10.587  -8.222   9.660  1.00  0.00     0.000 C 
BRANCH   3   4
ATOM      4  C   UNL     1      -9.704  -9.462   9.452  1.00  0.00     0.000 C 
BRANCH   4   5
ATOM      5  C   UNL     1      -9.905 -10.122   8.075  1.00  0.00     0.006 C 
BRANCH   5   6
ATOM      6  C   UNL     1      -8.633 -10.774   7.503  1.00  0.00     0.053 C 
BRANCH   6   7
ATOM      7  C   UNL     1      -7.573  -9.772   7.160  1.00  0.00     0.041 C 
ATOM      8  O   UNL     1      -6.381 -10.141   6.985  1.00  0.00    -0.550 OA
ATOM      9  O   UNL     1      -7.906  -8.433   7.001  1.00  0.00    -0.550 OA
ENDBRANCH   6   7
ENDBRANCH   5   6
ENDBRANCH   4   5
ENDBRANCH   3   4
ENDBRANCH   2   3
ENDBRANCH   1   2
BRANCH   1  10
ATOM     10  C   UNL     1     -13.371 -10.254  10.360  1.00  0.00     0.000 C 
BRANCH  10  11
ATOM     11  C   UNL     1     -12.494 -10.989  11.384  1.00  0.00    -0.000 C 
BRANCH  11  12
ATOM     12  C   UNL     1     -11.788 -12.191  10.738  1.00  0.00    -0.000 C 
BRANCH  12  13
ATOM     13  C   UNL     1     -12.665 -12.902   9.693  1.00  0.00    -0.000 C 
BRANCH  13  14
ATOM     14  C   UNL     1     -11.874 -13.308   8.437  1.00  0.00    -0.000 C 
BRANCH  14  15
ATOM     15  C   UNL     1     -10.474 -13.844   8.771  1.00  0.00    -0.003 C 
ATOM     16  C   UNL     1     -10.484 -15.317   9.179  1.00  0.00     0.004 C 
ENDBRANCH  14  15
ENDBRANCH  13  14
ENDBRANCH  12  13
ENDBRANCH  11  12
ENDBRANCH  10  11
ENDBRANCH   1  10
TORSDOF 12
ENDMDL
MODEL 4
REMARK VINA RESULT:    -5.509      2.048      4.895
REMARK INTER + INTRA:         -10.825
REMARK INTER:                  -9.358
REMARK INTRA:                  -1.467
REMARK UNBOUND:                -1.451
REMARK SMILES CCCCCCCCCCCCCC(=O)[O-]
REMARK SMILES IDX 8 1 9 2 10 3 11 4 12 5 13 6 14 7 15 8 16 9 7 10 6 11 5 12
REMARK SMILES IDX 4 13 3 14 2 15 1 16
REMARK H PARENT
REMARK Flexibility Score: inf
ROOT
ATOM      1  C   UNL     1     -13.516 -10.327  10.638  1.00  0.00     0.000 C 
ENDROOT
BRANCH   1   2
ATOM      2  C   UNL     1     -12.465 -11.009  11.529  1.00  0.00     0.000 C 
BRANCH   2   3
ATOM      3  C   UNL     1     -11.761 -12.144  10.776  1.00  0.00     0.000 C 
BRANCH   3   4
ATOM      4  C   UNL     1     -12.655 -12.700   9.658  1.00  0.00     0.000 C 
BRANCH   4   5
ATOM      5  C   UNL     1     -11.942 -13.743   8.776  1.00  0.00     0.006 C 
BRANCH   5   6
ATOM      6  C   UNL     1     -10.636 -14.287   9.383  1.00  0.00     0.053 C 
BRANCH   6   7
ATOM      7  C   UNL     1     -10.328 -15.684   8.937  1.00  0.00     0.041 C 
ATOM      8  O   UNL     1      -9.164 -15.992   8.567  1.00  0.00    -0.550 OA
ATOM      9  O   UNL     1     -11.320 -16.657   8.959  1.00  0.00    -0.550 OA
ENDBRANCH   6   7
ENDBRANCH   5   6
ENDBRANCH   4   5
ENDBRANCH   3   4
ENDBRANCH   2   3
ENDBRANCH   1   2
BRANCH   1  10
ATOM     10  C   UNL     1     -13.011  -9.009  10.031  1.00  0.00     0.000 C 
BRANCH  10  11
ATOM     11  C   UNL     1     -11.792  -8.442  10.775  1.00  0.00    -0.000 C 
BRANCH  11  12
ATOM     12  C   UNL     1     -10.906  -7.621   9.826  1.00  0.00    -0.000 C 
BRANCH  12  13
ATOM     13  C   UNL     1     -10.243  -8.482   8.738  1.00  0.00    -0.000 C 
BRANCH  13  14
ATOM     14  C   UNL     1      -9.421  -9.644   9.323  1.00  0.00    -0.000 C 
BRANCH  14  15
ATOM     15  C   UNL     1      -9.270 -10.813   8.336  1.00  0.00    -0.003 C 
ATOM     16  C   UNL     1      -8.105 -10.623   7.365  1.00  0.00     0.004 C 
ENDBRANCH  14  15
ENDBRANCH  13  14
ENDBRANCH  12  13
ENDBRANCH  11  12
ENDBRANCH  10  11
ENDBRANCH   1  10
TORSDOF 12
ENDMDL
MODEL 5
REMARK VINA RESULT:    -5.289      2.224      4.718
REMARK INTER + INTRA:         -10.450
REMARK INTER:                  -8.752
REMARK INTRA:                  -1.698
REMARK UNBOUND:                -1.451
REMARK SMILES CCCCCCCCCCCCCC(=O)[O-]
REMARK SMILES IDX 8 1 9 2 10 3 11 4 12 5 13 6 14 7 15 8 16 9 7 10 6 11 5 12
REMARK SMILES IDX 4 13 3 14 2 15 1 16
REMARK H PARENT
REMARK Flexibility Score: inf
ROOT
ATOM      1  C   UNL     1     -13.864  -9.514  10.492  1.00  0.00     0.000 C 
ENDROOT
BRANCH   1   2
ATOM      2  C   UNL     1     -13.295 -10.932  10.658  1.00  0.00     0.000 C 
BRANCH   2   3
ATOM      3  C   UNL     1     -12.002 -10.911  11.481  1.00  0.00     0.000 C 
BRANCH   3   4
ATOM      4  C   UNL     1     -10.852 -11.582  10.715  1.00  0.00     0.000 C 
BRANCH   4   5
ATOM      5  C   UNL     1     -11.280 -12.132   9.342  1.00  0.00     0.006 C 
BRANCH   5   6
ATOM      6  C   UNL     1     -10.561 -13.432   8.937  1.00  0.00     0.053 C 
BRANCH   6   7
ATOM      7  C   UNL     1     -11.507 -14.496   8.470  1.00  0.00     0.041 C 
ATOM      8  O   UNL     1     -12.499 -14.196   7.754  1.00  0.00    -0.550 OA
ATOM      9  O   UNL     1     -11.277 -15.826   8.799  1.00  0.00    -0.550 OA
ENDBRANCH   6   7
ENDBRANCH   5   6
ENDBRANCH   4   5
ENDBRANCH   3   4
ENDBRANCH   2   3
ENDBRANCH   1   2
BRANCH   1  10
ATOM     10  C   UNL     1     -13.168  -8.724   9.373  1.00  0.00     0.000 C 
BRANCH  10  11
ATOM     11  C   UNL     1     -12.422  -7.487   9.896  1.00  0.00    -0.000 C 
BRANCH  11  12
ATOM     12  C   UNL     1     -10.908  -7.743   9.948  1.00  0.00    -0.000 C 
BRANCH  12  13
ATOM     13  C   UNL     1     -10.382  -8.453   8.689  1.00  0.00    -0.000 C 
BRANCH  13  14
ATOM     14  C   UNL     1      -8.995  -9.084   8.903  1.00  0.00    -0.000 C 
BRANCH  14  15
ATOM     15  C   UNL     1      -8.314  -9.468   7.579  1.00  0.00    -0.003 C 
ATOM     16  C   UNL     1      -8.316 -10.975   7.326  1.00  0.00     0.004 C 
ENDBRANCH  14  15
ENDBRANCH  13  14
ENDBRANCH  12  13
ENDBRANCH  11  12
ENDBRANCH  10  11
ENDBRANCH   1  10
TORSDOF 12
ENDMDL
MODEL 6
REMARK VINA RESULT:    -5.104      2.633      3.925
REMARK INTER + INTRA:         -10.135
REMARK INTER:                  -8.470
REMARK INTRA:                  -1.665
REMARK UNBOUND:                -1.451
REMARK SMILES CCCCCCCCCCCCCC(=O)[O-]
REMARK SMILES IDX 8 1 9 2 10 3 11 4 12 5 13 6 14 7 15 8 16 9 7 10 6 11 5 12
REMARK SMILES IDX 4 13 3 14 2 15 1 16
REMARK H PARENT
REMARK Flexibility Score: inf
ROOT
ATOM      1  C   UNL     1      -9.015  -9.674   8.493  1.00  0.00     0.000 C 
ENDROOT
BRANCH   1   2
ATOM      2  C   UNL     1      -9.574  -8.320   8.030  1.00  0.00     0.000 C 
BRANCH   2   3
ATOM      3  C   UNL     1     -10.751  -7.882   8.909  1.00  0.00     0.000 C 
BRANCH   3   4
ATOM      4  C   UNL     1     -12.067  -8.502   8.416  1.00  0.00     0.000 C 
BRANCH   4   5
ATOM      5  C   UNL     1     -12.877  -9.174   9.540  1.00  0.00     0.006 C 
BRANCH   5   6
ATOM      6  C   UNL     1     -12.108  -9.320  10.865  1.00  0.00     0.053 C 
BRANCH   6   7
ATOM      7  C   UNL     1     -12.648 -10.417  11.731  1.00  0.00     0.041 C 
ATOM      8  O   UNL     1     -13.655 -11.080  11.365  1.00  0.00    -0.550 OA
ATOM      9  O   UNL     1     -12.020 -10.730  12.930  1.00  0.00    -0.550 OA
ENDBRANCH   6   7
ENDBRANCH   5   6
ENDBRANCH   4   5
ENDBRANCH   3   4
ENDBRANCH   2   3
ENDBRANCH   1   2
BRANCH   1  10
ATOM     10  C   UNL     1      -9.152 -10.769   7.423  1.00  0.00     0.000 C 
BRANCH  10  11
ATOM     11  C   UNL     1      -9.582 -12.122   8.010  1.00  0.00    -0.000 C 
BRANCH  11  12
ATOM     12  C   UNL     1     -10.135 -11.949   9.433  1.00  0.00    -0.000 C 
BRANCH  12  13
ATOM     13  C   UNL     1     -11.077 -13.092   9.847  1.00  0.00    -0.000 C 
BRANCH  13  14
ATOM     14  C   UNL     1     -12.187 -13.348   8.811  1.00  0.00    -0.000 C 
BRANCH  14  15
ATOM     15  C   UNL     1     -12.192 -14.798   8.301  1.00  0.00    -0.003 C 
ATOM     16  C   UNL     1     -10.935 -15.572   8.700  1.00  0.00     0.004 C 
ENDBRANCH  14  15
ENDBRANCH  13  14
ENDBRANCH  12  13
ENDBRANCH  11  12
ENDBRANCH  10  11
ENDBRANCH   1  10
TORSDOF 12
ENDMDL
MODEL 7
REMARK VINA RESULT:    -5.028      3.036      4.820
REMARK INTER + INTRA:         -10.006
REMARK INTER:                  -8.479
REMARK INTRA:                  -1.527
REMARK UNBOUND:                -1.451
REMARK SMILES CCCCCCCCCCCCCC(=O)[O-]
REMARK SMILES IDX 8 1 9 2 10 3 11 4 12 5 13 6 14 7 15 8 16 9 7 10 6 11 5 12
REMARK SMILES IDX 4 13 3 14 2 15 1 16
REMARK H PARENT
REMARK Flexibility Score: inf
ROOT
ATOM      1  C   UNL     1     -12.700 -12.141  10.507  1.00  0.00     0.000 C 
ENDROOT
BRANCH   1   2
ATOM      2  C   UNL     1     -13.286 -10.736  10.710  1.00  0.00     0.000 C 
BRANCH   2   3
ATOM      3  C   UNL     1     -12.594  -9.716   9.798  1.00  0.00     0.000 C 
BRANCH   3   4
ATOM      4  C   UNL     1     -12.278  -8.421  10.561  1.00  0.00     0.000 C 
BRANCH   4   5
ATOM      5  C   UNL     1     -11.911  -7.247   9.633  1.00  0.00     0.006 C 
BRANCH   5   6
ATOM      6  C   UNL     1     -12.935  -6.098   9.643  1.00  0.00     0.053 C 
BRANCH   6   7
ATOM      7  C   UNL     1     -14.092  -6.345   8.723  1.00  0.00     0.041 C 
ATOM      8  O   UNL     1     -13.900  -6.829   7.576  1.00  0.00    -0.550 OA
ATOM      9  O   UNL     1     -15.387  -6.070   9.144  1.00  0.00    -0.550 OA
ENDBRANCH   6   7
ENDBRANCH   5   6
ENDBRANCH   4   5
ENDBRANCH   3   4
ENDBRANCH   2   3
ENDBRANCH   1   2
BRANCH   1  10
ATOM     10  C   UNL     1     -11.163 -12.151  10.530  1.00  0.00     0.000 C 
BRANCH  10  11
ATOM     11  C   UNL     1     -10.559 -13.020   9.416  1.00  0.00    -0.000 C 
BRANCH  11  12
ATOM     12  C   UNL     1     -11.221 -12.713   8.064  1.00  0.00    -0.000 C 
BRANCH  12  13
ATOM     13  C   UNL     1     -10.573 -11.519   7.343  1.00  0.00    -0.000 C 
BRANCH  13  14
ATOM     14  C   UNL     1      -9.037 -11.613   7.307  1.00  0.00    -0.000 C 
BRANCH  14  15
ATOM     15  C   UNL     1      -8.358 -10.272   7.626  1.00  0.00    -0.003 C 
ATOM     16  C   UNL     1      -8.995  -9.552   8.814  1.00  0.00     0.004 C 
ENDBRANCH  14  15
ENDBRANCH  13  14
ENDBRANCH  12  13
ENDBRANCH  11  12
ENDBRANCH  10  11
ENDBRANCH   1  10
TORSDOF 12
ENDMDL
MODEL 8
REMARK VINA RESULT:    -4.979      2.732      4.571
REMARK INTER + INTRA:          -9.922
REMARK INTER:                  -8.466
REMARK INTRA:                  -1.456
REMARK UNBOUND:                -1.451
REMARK SMILES CCCCCCCCCCCCCC(=O)[O-]
REMARK SMILES IDX 8 1 9 2 10 3 11 4 12 5 13 6 14 7 15 8 16 9 7 10 6 11 5 12
REMARK SMILES IDX 4 13 3 14 2 15 1 16
REMARK H PARENT
REMARK Flexibility Score: inf
ROOT
ATOM      1  C   UNL     1      -9.796  -8.795   7.974  1.00  0.00     0.000 C 
ENDROOT
BRANCH   1   2
ATOM      2  C   UNL     1      -9.830  -8.885   9.507  1.00  0.00     0.000 C 
BRANCH   2   3
ATOM      3  C   UNL     1     -10.873  -7.924  10.090  1.00  0.00     0.000 C 
BRANCH   3   4
ATOM      4  C   UNL     1     -12.036  -8.697  10.730  1.00  0.00     0.000 C 
BRANCH   4   5
ATOM      5  C   UNL     1     -13.283  -8.768   9.829  1.00  0.00     0.006 C 
BRANCH   5   6
ATOM      6  C   UNL     1     -13.963  -7.407   9.594  1.00  0.00     0.053 C 
BRANCH   6   7
ATOM      7  C   UNL     1     -13.693  -6.852   8.229  1.00  0.00     0.041 C 
ATOM      8  O   UNL     1     -13.755  -5.611   8.022  1.00  0.00    -0.550 OA
ATOM      9  O   UNL     1     -13.339  -7.703   7.189  1.00  0.00    -0.550 OA
ENDBRANCH   6   7
ENDBRANCH   5   6
ENDBRANCH   4   5
ENDBRANCH   3   4
ENDBRANCH   2   3
ENDBRANCH   1   2
BRANCH   1  10
ATOM     10  C   UNL     1      -8.611  -9.558   7.362  1.00  0.00     0.000 C 
BRANCH  10  11
ATOM     11  C   UNL     1      -8.629 -11.056   7.705  1.00  0.00    -0.000 C 
BRANCH  11  12
ATOM     12  C   UNL     1      -9.797 -11.764   7.002  1.00  0.00    -0.000 C 
BRANCH  12  13
ATOM     13  C   UNL     1     -10.967 -12.068   7.953  1.00  0.00    -0.000 C 
BRANCH  13  14
ATOM     14  C   UNL     1     -10.504 -12.718   9.269  1.00  0.00    -0.000 C 
BRANCH  14  15
ATOM     15  C   UNL     1     -11.346 -12.269  10.474  1.00  0.00    -0.003 C 
ATOM     16  C   UNL     1     -12.849 -12.404  10.231  1.00  0.00     0.004 C 
ENDBRANCH  14  15
ENDBRANCH  13  14
ENDBRANCH  12  13
ENDBRANCH  11  12
ENDBRANCH  10  11
ENDBRANCH   1  10
TORSDOF 12
ENDMDL
MODEL 9
REMARK VINA RESULT:    -4.978      1.835      5.473
REMARK INTER + INTRA:          -9.921
REMARK INTER:                  -8.569
REMARK INTRA:                  -1.352
REMARK UNBOUND:                -1.451
REMARK SMILES CCCCCCCCCCCCCC(=O)[O-]
REMARK SMILES IDX 8 1 9 2 10 3 11 4 12 5 13 6 14 7 15 8 16 9 7 10 6 11 5 12
REMARK SMILES IDX 4 13 3 14 2 15 1 16
REMARK H PARENT
REMARK Flexibility Score: inf
ROOT
ATOM      1  C   UNL     1     -12.366 -11.370  11.334  1.00  0.00     0.000 C 
ENDROOT
BRANCH   1   2
ATOM      2  C   UNL     1     -12.126 -12.490  10.310  1.00  0.00     0.000 C 
BRANCH   2   3
ATOM      3  C   UNL     1     -10.634 -12.622   9.982  1.00  0.00     0.000 C 
BRANCH   3   4
ATOM      4  C   UNL     1     -10.428 -13.079   8.530  1.00  0.00     0.000 C 
BRANCH   4   5
ATOM      5  C   UNL     1      -9.659 -12.052   7.677  1.00  0.00     0.006 C 
BRANCH   5   6
ATOM      6  C   UNL     1     -10.200 -10.615   7.789  1.00  0.00     0.053 C 
BRANCH   6   7
ATOM      7  C   UNL     1      -9.152  -9.634   8.220  1.00  0.00     0.041 C 
ATOM      8  O   UNL     1      -8.880  -9.489   9.441  1.00  0.00    -0.550 OA
ATOM      9  O   UNL     1      -8.452  -8.902   7.270  1.00  0.00    -0.550 OA
ENDBRANCH   6   7
ENDBRANCH   5   6
ENDBRANCH   4   5
ENDBRANCH   3   4
ENDBRANCH   2   3
ENDBRANCH   1   2
BRANCH   1  10
ATOM     10  C   UNL     1     -13.571 -10.487  10.974  1.00  0.00     0.000 C 
BRANCH  10  11
ATOM     11  C   UNL     1     -13.198  -9.329  10.036  1.00  0.00    -0.000 C 
BRANCH  11  12
ATOM     12  C   UNL     1     -12.033  -8.511  10.613  1.00  0.00    -0.000 C 
BRANCH  12  13
ATOM     13  C   UNL     1     -11.700  -7.271   9.767  1.00  0.00    -0.000 C 
BRANCH  13  14
ATOM     14  C   UNL     1     -12.757  -6.994   8.684  1.00  0.00    -0.000 C 
BRANCH  14  15
ATOM     15  C   UNL     1     -13.528  -5.688   8.935  1.00  0.00    -0.003 C 
ATOM     16  C   UNL     1     -14.524  -5.800  10.090  1.00  0.00     0.004 C 
ENDBRANCH  14  15
ENDBRANCH  13  14
ENDBRANCH  12  13
ENDBRANCH  11  12
ENDBRANCH  10  11
ENDBRANCH   1  10
TORSDOF 12
ENDMDL
