MODEL 1
REMARK VINA RESULT:    -3.638      0.000      0.000
REMARK INTER + INTRA:          -8.144
REMARK INTER:                  -6.402
REMARK INTRA:                  -1.742
REMARK UNBOUND:                -1.742
REMARK SMILES CCCCCCCCCCCCCCC(=O)[O-]
REMARK SMILES IDX 9 1 10 2 11 3 12 4 13 5 14 6 15 7 16 8 17 9 8 10 7 11 6 12
REMARK SMILES IDX 5 13 4 14 3 15 2 16 1 17
REMARK H PARENT
REMARK Flexibility Score: inf
ROOT
ATOM      1  C   UNL     1     -10.211   4.177  -7.606  1.00  0.00     0.000 C 
ENDROOT
BRANCH   1   2
ATOM      2  C   UNL     1     -10.497   4.024  -9.105  1.00  0.00     0.000 C 
BRANCH   2   3
ATOM      3  C   UNL     1     -11.118   2.651  -9.410  1.00  0.00     0.000 C 
BRANCH   3   4
ATOM      4  C   UNL     1     -10.795   2.149 -10.829  1.00  0.00     0.000 C 
BRANCH   4   5
ATOM      5  C   UNL     1      -9.901   0.897 -10.888  1.00  0.00     0.006 C 
BRANCH   5   6
ATOM      6  C   UNL     1      -8.427   1.228 -11.150  1.00  0.00     0.053 C 
BRANCH   6   7
ATOM      7  C   UNL     1      -7.616   1.013  -9.911  1.00  0.00     0.041 C 
ATOM      8  O   UNL     1      -6.382   1.265  -9.910  1.00  0.00    -0.550 OA
ATOM      9  O   UNL     1      -8.232   0.582  -8.743  1.00  0.00    -0.550 OA
ENDBRANCH   6   7
ENDBRANCH   5   6
ENDBRANCH   4   5
ENDBRANCH   3   4
ENDBRANCH   2   3
ENDBRANCH   1   2
BRANCH   1  10
ATOM     10  C   UNL     1      -8.707   4.059  -7.320  1.00  0.00     0.000 C 
BRANCH  10  11
ATOM     11  C   UNL     1      -7.849   4.270  -8.577  1.00  0.00    -0.000 C 
BRANCH  11  12
ATOM     12  C   UNL     1      -6.700   5.268  -8.348  1.00  0.00    -0.000 C 
BRANCH  12  13
ATOM     13  C   UNL     1      -7.100   6.715  -8.675  1.00  0.00    -0.000 C 
BRANCH  13  14
ATOM     14  C   UNL     1      -8.073   6.807  -9.862  1.00  0.00    -0.000 C 
BRANCH  14  15
ATOM     15  C   UNL     1      -7.314   6.777 -11.197  1.00  0.00    -0.000 C 
BRANCH  15  16
ATOM     16  C   UNL     1      -7.798   5.653 -12.125  1.00  0.00    -0.003 C 
ATOM     17  C   UNL     1      -9.254   5.262 -11.874  1.00  0.00     0.004 C 
ENDBRANCH  15  16
ENDBRANCH  14  15
ENDBRANCH  13  14
ENDBRANCH  12  13
ENDBRANCH  11  12
ENDBRANCH  10  11
ENDBRANCH   1  10
TORSDOF 13
ENDMDL
MODEL 2
REMARK VINA RESULT:    -3.504      1.521      2.845
REMARK INTER + INTRA:          -7.909
REMARK INTER:                  -6.137
REMARK INTRA:                  -1.773
REMARK UNBOUND:                -1.742
REMARK SMILES CCCCCCCCCCCCCCC(=O)[O-]
REMARK SMILES IDX 9 1 10 2 11 3 12 4 13 5 14 6 15 7 16 8 17 9 8 10 7 11 6 12
REMARK SMILES IDX 5 13 4 14 3 15 2 16 1 17
REMARK H PARENT
REMARK Flexibility Score: inf
ROOT
ATOM      1  C   UNL     1      -9.693   4.112  -7.796  1.00  0.00     0.000 C 
ENDROOT
BRANCH   1   2
ATOM      2  C   UNL     1      -8.881   3.043  -8.539  1.00  0.00     0.000 C 
BRANCH   2   3
ATOM      3  C   UNL     1      -9.223   1.636  -8.023  1.00  0.00     0.000 C 
BRANCH   3   4
ATOM      4  C   UNL     1      -9.575   0.652  -9.153  1.00  0.00     0.000 C 
BRANCH   4   5
ATOM      5  C   UNL     1     -10.211   1.294 -10.400  1.00  0.00     0.006 C 
BRANCH   5   6
ATOM      6  C   UNL     1      -9.624   0.759 -11.712  1.00  0.00     0.053 C 
BRANCH   6   7
ATOM      7  C   UNL     1      -8.245   1.300 -11.925  1.00  0.00     0.041 C 
ATOM      8  O   UNL     1      -8.039   2.542 -11.890  1.00  0.00    -0.550 OA
ATOM      9  O   UNL     1      -7.178   0.431 -12.113  1.00  0.00    -0.550 OA
ENDBRANCH   6   7
ENDBRANCH   5   6
ENDBRANCH   4   5
ENDBRANCH   3   4
ENDBRANCH   2   3
ENDBRANCH   1   2
BRANCH   1  10
ATOM     10  C   UNL     1     -11.080   4.287  -8.432  1.00  0.00     0.000 C 
BRANCH  10  11
ATOM     11  C   UNL     1     -11.106   5.400  -9.493  1.00  0.00    -0.000 C 
BRANCH  11  12
ATOM     12  C   UNL     1     -10.657   4.905 -10.879  1.00  0.00    -0.000 C 
BRANCH  12  13
ATOM     13  C   UNL     1      -9.321   5.521 -11.323  1.00  0.00    -0.000 C 
BRANCH  13  14
ATOM     14  C   UNL     1      -8.915   6.733 -10.469  1.00  0.00    -0.000 C 
BRANCH  14  15
ATOM     15  C   UNL     1      -7.412   6.701 -10.151  1.00  0.00    -0.000 C 
BRANCH  15  16
ATOM     16  C   UNL     1      -7.130   6.647  -8.642  1.00  0.00    -0.003 C 
ATOM     17  C   UNL     1      -6.387   5.380  -8.223  1.00  0.00     0.004 C 
ENDBRANCH  15  16
ENDBRANCH  14  15
ENDBRANCH  13  14
ENDBRANCH  12  13
ENDBRANCH  11  12
ENDBRANCH  10  11
ENDBRANCH   1  10
TORSDOF 13
ENDMDL
MODEL 3
REMARK VINA RESULT:    -3.455      1.500      3.080
REMARK INTER + INTRA:          -7.822
REMARK INTER:                  -6.029
REMARK INTRA:                  -1.793
REMARK UNBOUND:                -1.742
REMARK SMILES CCCCCCCCCCCCCCC(=O)[O-]
REMARK SMILES IDX 9 1 10 2 11 3 12 4 13 5 14 6 15 7 16 8 17 9 8 10 7 11 6 12
REMARK SMILES IDX 5 13 4 14 3 15 2 16 1 17
REMARK H PARENT
REMARK Flexibility Score: inf
ROOT
ATOM      1  C   UNL     1     -11.124   2.132 -10.321  1.00  0.00     0.000 C 
ENDROOT
BRANCH   1   2
ATOM      2  C   UNL     1     -10.751   3.032  -9.137  1.00  0.00     0.000 C 
BRANCH   2   3
ATOM      3  C   UNL     1      -9.401   2.615  -8.533  1.00  0.00     0.000 C 
BRANCH   3   4
ATOM      4  C   UNL     1      -9.281   1.095  -8.324  1.00  0.00     0.000 C 
BRANCH   4   5
ATOM      5  C   UNL     1      -8.190   0.406  -9.164  1.00  0.00     0.006 C 
BRANCH   5   6
ATOM      6  C   UNL     1      -7.265   1.402  -9.874  1.00  0.00     0.053 C 
BRANCH   6   7
ATOM      7  C   UNL     1      -6.237   0.674 -10.682  1.00  0.00     0.041 C 
ATOM      8  O   UNL     1      -5.310   0.044 -10.107  1.00  0.00    -0.550 OA
ATOM      9  O   UNL     1      -6.329   0.650 -12.067  1.00  0.00    -0.550 OA
ENDBRANCH   6   7
ENDBRANCH   5   6
ENDBRANCH   4   5
ENDBRANCH   3   4
ENDBRANCH   2   3
ENDBRANCH   1   2
BRANCH   1  10
ATOM     10  C   UNL     1     -10.317   2.509 -11.572  1.00  0.00     0.000 C 
BRANCH  10  11
ATOM     11  C   UNL     1     -10.256   4.028 -11.800  1.00  0.00    -0.000 C 
BRANCH  11  12
ATOM     12  C   UNL     1      -8.816   4.571 -11.782  1.00  0.00    -0.000 C 
BRANCH  12  13
ATOM     13  C   UNL     1      -8.738   6.024 -11.287  1.00  0.00    -0.000 C 
BRANCH  13  14
ATOM     14  C   UNL     1      -9.643   6.286 -10.072  1.00  0.00    -0.000 C 
BRANCH  14  15
ATOM     15  C   UNL     1      -8.806   6.554  -8.813  1.00  0.00    -0.000 C 
BRANCH  15  16
ATOM     16  C   UNL     1      -7.316   6.242  -9.017  1.00  0.00    -0.003 C 
ATOM     17  C   UNL     1      -6.882   4.949  -8.328  1.00  0.00     0.004 C 
ENDBRANCH  15  16
ENDBRANCH  14  15
ENDBRANCH  13  14
ENDBRANCH  12  13
ENDBRANCH  11  12
ENDBRANCH  10  11
ENDBRANCH   1  10
TORSDOF 13
ENDMDL
MODEL 4
REMARK VINA RESULT:    -3.412     11.985     15.342
REMARK INTER + INTRA:          -7.747
REMARK INTER:                  -6.445
REMARK INTRA:                  -1.302
REMARK UNBOUND:                -1.742
REMARK SMILES CCCCCCCCCCCCCCC(=O)[O-]
REMARK SMILES IDX 9 1 10 2 11 3 12 4 13 5 14 6 15 7 16 8 17 9 8 10 7 11 6 12
REMARK SMILES IDX 5 13 4 14 3 15 2 16 1 17
REMARK H PARENT
REMARK Flexibility Score: inf
ROOT
ATOM      1  C   UNL     1      -0.531  -7.160 -10.259  1.00  0.00     0.000 C 
ENDROOT
BRANCH   1   2
ATOM      2  C   UNL     1      -1.254  -6.224 -11.235  1.00  0.00     0.000 C 
BRANCH   2   3
ATOM      3  C   UNL     1      -0.837  -4.763 -11.007  1.00  0.00     0.000 C 
BRANCH   3   4
ATOM      4  C   UNL     1       0.269  -4.296 -11.969  1.00  0.00     0.000 C 
BRANCH   4   5
ATOM      5  C   UNL     1       1.655  -4.109 -11.326  1.00  0.00     0.006 C 
BRANCH   5   6
ATOM      6  C   UNL     1       2.282  -2.746 -11.643  1.00  0.00     0.053 C 
BRANCH   6   7
ATOM      7  C   UNL     1       2.669  -2.043 -10.379  1.00  0.00     0.041 C 
ATOM      8  O   UNL     1       1.901  -2.066  -9.381  1.00  0.00    -0.550 OA
ATOM      9  O   UNL     1       3.899  -1.406 -10.286  1.00  0.00    -0.550 OA
ENDBRANCH   6   7
ENDBRANCH   5   6
ENDBRANCH   4   5
ENDBRANCH   3   4
ENDBRANCH   2   3
ENDBRANCH   1   2
BRANCH   1  10
ATOM     10  C   UNL     1       0.765  -7.704 -10.878  1.00  0.00     0.000 C 
BRANCH  10  11
ATOM     11  C   UNL     1       0.503  -8.776 -11.948  1.00  0.00    -0.000 C 
BRANCH  11  12
ATOM     12  C   UNL     1       1.331 -10.053 -11.720  1.00  0.00    -0.000 C 
BRANCH  12  13
ATOM     13  C   UNL     1       0.461 -11.320 -11.668  1.00  0.00    -0.000 C 
BRANCH  13  14
ATOM     14  C   UNL     1       0.437 -11.965 -10.274  1.00  0.00    -0.000 C 
BRANCH  14  15
ATOM     15  C   UNL     1      -0.994 -12.012  -9.716  1.00  0.00    -0.000 C 
BRANCH  15  16
ATOM     16  C   UNL     1      -1.565 -10.614  -9.437  1.00  0.00    -0.003 C 
ATOM     17  C   UNL     1      -2.726 -10.253 -10.363  1.00  0.00     0.004 C 
ENDBRANCH  15  16
ENDBRANCH  14  15
ENDBRANCH  13  14
ENDBRANCH  12  13
ENDBRANCH  11  12
ENDBRANCH  10  11
ENDBRANCH   1  10
TORSDOF 13
ENDMDL
MODEL 5
REMARK VINA RESULT:    -3.207     11.958     15.431
REMARK INTER + INTRA:          -7.386
REMARK INTER:                  -6.483
REMARK INTRA:                  -0.903
REMARK UNBOUND:                -1.742
REMARK SMILES CCCCCCCCCCCCCCC(=O)[O-]
REMARK SMILES IDX 9 1 10 2 11 3 12 4 13 5 14 6 15 7 16 8 17 9 8 10 7 11 6 12
REMARK SMILES IDX 5 13 4 14 3 15 2 16 1 17
REMARK H PARENT
REMARK Flexibility Score: inf
ROOT
ATOM      1  C   UNL     1      -0.871  -7.005 -11.273  1.00  0.00     0.000 C 
ENDROOT
BRANCH   1   2
ATOM      2  C   UNL     1       0.057  -5.784 -11.279  1.00  0.00     0.000 C 
BRANCH   2   3
ATOM      3  C   UNL     1      -0.751  -4.479 -11.221  1.00  0.00     0.000 C 
BRANCH   3   4
ATOM      4  C   UNL     1      -0.096  -3.331 -12.010  1.00  0.00     0.000 C 
BRANCH   4   5
ATOM      5  C   UNL     1       1.443  -3.308 -11.967  1.00  0.00     0.006 C 
BRANCH   5   6
ATOM      6  C   UNL     1       2.013  -1.904 -11.729  1.00  0.00     0.053 C 
BRANCH   6   7
ATOM      7  C   UNL     1       2.628  -1.815 -10.368  1.00  0.00     0.041 C 
ATOM      8  O   UNL     1       1.979  -2.184  -9.353  1.00  0.00    -0.550 OA
ATOM      9  O   UNL     1       3.936  -1.370 -10.223  1.00  0.00    -0.550 OA
ENDBRANCH   6   7
ENDBRANCH   5   6
ENDBRANCH   4   5
ENDBRANCH   3   4
ENDBRANCH   2   3
ENDBRANCH   1   2
BRANCH   1  10
ATOM     10  C   UNL     1      -0.246  -8.173 -12.050  1.00  0.00     0.000 C 
BRANCH  10  11
ATOM     11  C   UNL     1      -1.077  -9.463 -11.946  1.00  0.00    -0.000 C 
BRANCH  11  12
ATOM     12  C   UNL     1      -2.047  -9.446 -10.751  1.00  0.00    -0.000 C 
BRANCH  12  13
ATOM     13  C   UNL     1      -2.459 -10.857 -10.304  1.00  0.00    -0.000 C 
BRANCH  13  14
ATOM     14  C   UNL     1      -1.578 -11.400  -9.168  1.00  0.00    -0.000 C 
BRANCH  14  15
ATOM     15  C   UNL     1      -1.132 -12.841  -9.460  1.00  0.00    -0.000 C 
BRANCH  15  16
ATOM     16  C   UNL     1      -0.207 -12.936 -10.682  1.00  0.00    -0.003 C 
ATOM     17  C   UNL     1       1.118 -12.203 -10.480  1.00  0.00     0.004 C 
ENDBRANCH  15  16
ENDBRANCH  14  15
ENDBRANCH  13  14
ENDBRANCH  12  13
ENDBRANCH  11  12
ENDBRANCH  10  11
ENDBRANCH   1  10
TORSDOF 13
ENDMDL
MODEL 6
REMARK VINA RESULT:    -3.164      1.729      5.323
REMARK INTER + INTRA:          -7.310
REMARK INTER:                  -5.972
REMARK INTRA:                  -1.338
REMARK UNBOUND:                -1.742
REMARK SMILES CCCCCCCCCCCCCCC(=O)[O-]
REMARK SMILES IDX 9 1 10 2 11 3 12 4 13 5 14 6 15 7 16 8 17 9 8 10 7 11 6 12
REMARK SMILES IDX 5 13 4 14 3 15 2 16 1 17
REMARK H PARENT
REMARK Flexibility Score: inf
ROOT
ATOM      1  C   UNL     1      -9.172   3.943 -11.793  1.00  0.00     0.000 C 
ENDROOT
BRANCH   1   2
ATOM      2  C   UNL     1      -8.449   5.254 -12.125  1.00  0.00     0.000 C 
BRANCH   2   3
ATOM      3  C   UNL     1      -8.658   6.294 -11.013  1.00  0.00     0.000 C 
BRANCH   3   4
ATOM      4  C   UNL     1      -7.346   6.706 -10.322  1.00  0.00     0.000 C 
BRANCH   4   5
ATOM      5  C   UNL     1      -7.382   6.671  -8.783  1.00  0.00     0.006 C 
BRANCH   5   6
ATOM      6  C   UNL     1      -8.705   6.130  -8.229  1.00  0.00     0.053 C 
BRANCH   6   7
ATOM      7  C   UNL     1      -8.591   4.666  -7.940  1.00  0.00     0.041 C 
ATOM      8  O   UNL     1      -9.601   4.012  -7.568  1.00  0.00    -0.550 OA
ATOM      9  O   UNL     1      -7.380   4.012  -8.131  1.00  0.00    -0.550 OA
ENDBRANCH   6   7
ENDBRANCH   5   6
ENDBRANCH   4   5
ENDBRANCH   3   4
ENDBRANCH   2   3
ENDBRANCH   1   2
BRANCH   1  10
ATOM     10  C   UNL     1     -10.575   4.217 -11.231  1.00  0.00     0.000 C 
BRANCH  10  11
ATOM     11  C   UNL     1     -11.114   3.047 -10.392  1.00  0.00    -0.000 C 
BRANCH  11  12
ATOM     12  C   UNL     1     -10.829   1.678 -11.036  1.00  0.00    -0.000 C 
BRANCH  12  13
ATOM     13  C   UNL     1     -10.336   0.637 -10.017  1.00  0.00    -0.000 C 
BRANCH  13  14
ATOM     14  C   UNL     1      -9.078   1.095  -9.263  1.00  0.00    -0.000 C 
BRANCH  14  15
ATOM     15  C   UNL     1      -7.868   1.167 -10.207  1.00  0.00    -0.000 C 
BRANCH  15  16
ATOM     16  C   UNL     1      -6.735   0.219  -9.786  1.00  0.00    -0.003 C 
ATOM     17  C   UNL     1      -5.366   0.673 -10.289  1.00  0.00     0.004 C 
ENDBRANCH  15  16
ENDBRANCH  14  15
ENDBRANCH  13  14
ENDBRANCH  12  13
ENDBRANCH  11  12
ENDBRANCH  10  11
ENDBRANCH   1  10
TORSDOF 13
ENDMDL
MODEL 7
REMARK VINA RESULT:    -3.034      1.710      2.895
REMARK INTER + INTRA:          -7.082
REMARK INTER:                  -6.010
REMARK INTRA:                  -1.072
REMARK UNBOUND:                -1.742
REMARK SMILES CCCCCCCCCCCCCCC(=O)[O-]
REMARK SMILES IDX 9 1 10 2 11 3 12 4 13 5 14 6 15 7 16 8 17 9 8 10 7 11 6 12
REMARK SMILES IDX 5 13 4 14 3 15 2 16 1 17
REMARK H PARENT
REMARK Flexibility Score: inf
ROOT
ATOM      1  C   UNL     1      -9.750   4.751  -7.302  1.00  0.00     0.000 C 
ENDROOT
BRANCH   1   2
ATOM      2  C   UNL     1      -8.868   3.496  -7.290  1.00  0.00     0.000 C 
BRANCH   2   3
ATOM      3  C   UNL     1      -8.608   2.993  -8.718  1.00  0.00     0.000 C 
BRANCH   3   4
ATOM      4  C   UNL     1      -8.999   1.518  -8.916  1.00  0.00     0.000 C 
BRANCH   4   5
ATOM      5  C   UNL     1      -7.856   0.599  -9.384  1.00  0.00     0.006 C 
BRANCH   5   6
ATOM      6  C   UNL     1      -6.793   1.338 -10.205  1.00  0.00     0.053 C 
BRANCH   6   7
ATOM      7  C   UNL     1      -5.841   0.363 -10.825  1.00  0.00     0.041 C 
ATOM      8  O   UNL     1      -5.703   0.321 -12.076  1.00  0.00    -0.550 OA
ATOM      9  O   UNL     1      -5.071  -0.465 -10.019  1.00  0.00    -0.550 OA
ENDBRANCH   6   7
ENDBRANCH   5   6
ENDBRANCH   4   5
ENDBRANCH   3   4
ENDBRANCH   2   3
ENDBRANCH   1   2
BRANCH   1  10
ATOM     10  C   UNL     1     -10.983   4.547  -8.195  1.00  0.00     0.000 C 
BRANCH  10  11
ATOM     11  C   UNL     1     -11.036   5.543  -9.365  1.00  0.00    -0.000 C 
BRANCH  11  12
ATOM     12  C   UNL     1     -10.987   4.846 -10.736  1.00  0.00    -0.000 C 
BRANCH  12  13
ATOM     13  C   UNL     1      -9.596   4.281 -11.063  1.00  0.00    -0.000 C 
BRANCH  13  14
ATOM     14  C   UNL     1      -8.855   5.110 -12.125  1.00  0.00    -0.000 C 
BRANCH  14  15
ATOM     15  C   UNL     1      -8.063   6.254 -11.473  1.00  0.00    -0.000 C 
BRANCH  15  16
ATOM     16  C   UNL     1      -7.457   5.855 -10.119  1.00  0.00    -0.003 C 
ATOM     17  C   UNL     1      -7.514   6.983  -9.090  1.00  0.00     0.004 C 
ENDBRANCH  15  16
ENDBRANCH  14  15
ENDBRANCH  13  14
ENDBRANCH  12  13
ENDBRANCH  11  12
ENDBRANCH  10  11
ENDBRANCH   1  10
TORSDOF 13
ENDMDL
MODEL 8
REMARK VINA RESULT:    -2.724     11.743     15.156
REMARK INTER + INTRA:          -6.536
REMARK INTER:                  -5.530
REMARK INTRA:                  -1.006
REMARK UNBOUND:                -1.742
REMARK SMILES CCCCCCCCCCCCCCC(=O)[O-]
REMARK SMILES IDX 9 1 10 2 11 3 12 4 13 5 14 6 15 7 16 8 17 9 8 10 7 11 6 12
REMARK SMILES IDX 5 13 4 14 3 15 2 16 1 17
REMARK H PARENT
REMARK Flexibility Score: inf
ROOT
ATOM      1  C   UNL     1      -0.751  -8.166 -11.657  1.00  0.00     0.000 C 
ENDROOT
BRANCH   1   2
ATOM      2  C   UNL     1      -0.323  -6.695 -11.720  1.00  0.00     0.000 C 
BRANCH   2   3
ATOM      3  C   UNL     1      -1.476  -5.769 -11.301  1.00  0.00     0.000 C 
BRANCH   3   4
ATOM      4  C   UNL     1      -1.064  -4.287 -11.239  1.00  0.00     0.000 C 
BRANCH   4   5
ATOM      5  C   UNL     1       0.197  -3.929 -12.046  1.00  0.00     0.006 C 
BRANCH   5   6
ATOM      6  C   UNL     1       0.949  -2.721 -11.474  1.00  0.00     0.053 C 
BRANCH   6   7
ATOM      7  C   UNL     1       2.084  -3.175 -10.610  1.00  0.00     0.041 C 
ATOM      8  O   UNL     1       2.416  -4.389 -10.586  1.00  0.00    -0.550 OA
ATOM      9  O   UNL     1       2.807  -2.249  -9.869  1.00  0.00    -0.550 OA
ENDBRANCH   6   7
ENDBRANCH   5   6
ENDBRANCH   4   5
ENDBRANCH   3   4
ENDBRANCH   2   3
ENDBRANCH   1   2
BRANCH   1  10
ATOM     10  C   UNL     1       0.468  -9.085 -11.481  1.00  0.00     0.000 C 
BRANCH  10  11
ATOM     11  C   UNL     1       0.235 -10.178 -10.426  1.00  0.00    -0.000 C 
BRANCH  11  12
ATOM     12  C   UNL     1      -1.194 -10.152  -9.854  1.00  0.00    -0.000 C 
BRANCH  12  13
ATOM     13  C   UNL     1      -1.664 -11.536  -9.376  1.00  0.00    -0.000 C 
BRANCH  13  14
ATOM     14  C   UNL     1      -1.917 -12.509 -10.538  1.00  0.00    -0.000 C 
BRANCH  14  15
ATOM     15  C   UNL     1      -2.463 -11.767 -11.767  1.00  0.00    -0.000 C 
BRANCH  15  16
ATOM     16  C   UNL     1      -3.982 -11.552 -11.700  1.00  0.00    -0.003 C 
ATOM     17  C   UNL     1      -4.382 -10.088 -11.880  1.00  0.00     0.004 C 
ENDBRANCH  15  16
ENDBRANCH  14  15
ENDBRANCH  13  14
ENDBRANCH  12  13
ENDBRANCH  11  12
ENDBRANCH  10  11
ENDBRANCH   1  10
TORSDOF 13
ENDMDL
MODEL 9
REMARK VINA RESULT:    -2.691     12.201     15.155
REMARK INTER + INTRA:          -6.478
REMARK INTER:                  -5.839
REMARK INTRA:                  -0.639
REMARK UNBOUND:                -1.742
REMARK SMILES CCCCCCCCCCCCCCC(=O)[O-]
REMARK SMILES IDX 9 1 10 2 11 3 12 4 13 5 14 6 15 7 16 8 17 9 8 10 7 11 6 12
REMARK SMILES IDX 5 13 4 14 3 15 2 16 1 17
REMARK H PARENT
REMARK Flexibility Score: inf
ROOT
ATOM      1  C   UNL     1      -0.777  -4.667 -11.334  1.00  0.00     0.000 C 
ENDROOT
BRANCH   1   2
ATOM      2  C   UNL     1       0.683  -4.374 -11.699  1.00  0.00     0.000 C 
BRANCH   2   3
ATOM      3  C   UNL     1       1.171  -3.083 -11.024  1.00  0.00     0.000 C 
BRANCH   3   4
ATOM      4  C   UNL     1       1.462  -1.953 -12.028  1.00  0.00     0.000 C 
BRANCH   4   5
ATOM      5  C   UNL     1       2.940  -1.531 -12.121  1.00  0.00     0.006 C 
BRANCH   5   6
ATOM      6  C   UNL     1       3.631  -1.469 -10.753  1.00  0.00     0.053 C 
BRANCH   6   7
ATOM      7  C   UNL     1       5.118  -1.433 -10.922  1.00  0.00     0.041 C 
ATOM      8  O   UNL     1       5.811  -0.619 -10.256  1.00  0.00    -0.550 OA
ATOM      9  O   UNL     1       5.743  -2.331 -11.777  1.00  0.00    -0.550 OA
ENDBRANCH   6   7
ENDBRANCH   5   6
ENDBRANCH   4   5
ENDBRANCH   3   4
ENDBRANCH   2   3
ENDBRANCH   1   2
BRANCH   1  10
ATOM     10  C   UNL     1      -1.156  -6.109 -11.703  1.00  0.00     0.000 C 
BRANCH  10  11
ATOM     11  C   UNL     1      -0.838  -7.109 -10.580  1.00  0.00    -0.000 C 
BRANCH  11  12
ATOM     12  C   UNL     1       0.430  -7.933 -10.864  1.00  0.00    -0.000 C 
BRANCH  12  13
ATOM     13  C   UNL     1       0.131  -9.427 -11.071  1.00  0.00    -0.000 C 
BRANCH  13  14
ATOM     14  C   UNL     1      -1.327  -9.688 -11.480  1.00  0.00    -0.000 C 
BRANCH  14  15
ATOM     15  C   UNL     1      -1.773 -11.095 -11.054  1.00  0.00    -0.000 C 
BRANCH  15  16
ATOM     16  C   UNL     1      -1.728 -11.292  -9.531  1.00  0.00    -0.003 C 
ATOM     17  C   UNL     1      -1.383 -12.725  -9.129  1.00  0.00     0.004 C 
ENDBRANCH  15  16
ENDBRANCH  14  15
ENDBRANCH  13  14
ENDBRANCH  12  13
ENDBRANCH  11  12
ENDBRANCH  10  11
ENDBRANCH   1  10
TORSDOF 13
ENDMDL
