MODEL 1
REMARK VINA RESULT:    -4.847      0.000      0.000
REMARK INTER + INTRA:          -6.457
REMARK INTER:                  -6.264
REMARK INTRA:                  -0.193
REMARK UNBOUND:                -0.193
REMARK SMILES C=CC(=O)CCCCC
REMARK SMILES IDX 6 1 7 2 8 3 9 4 5 5 3 6 4 7 2 8 1 9
REMARK H PARENT
REMARK Flexibility Score: inf
ROOT
ATOM      1  C   UNL     1     -13.841 -14.086  28.362  1.00  0.00     0.008 C 
ENDROOT
BRANCH   1   2
ATOM      2  C   UNL     1     -14.372 -13.883  29.791  1.00  0.00     0.000 C 
BRANCH   2   3
ATOM      3  C   UNL     1     -13.879 -14.969  30.761  1.00  0.00    -0.003 C 
ATOM      4  C   UNL     1     -14.546 -14.883  32.133  1.00  0.00     0.004 C 
ENDBRANCH   2   3
ENDBRANCH   1   2
BRANCH   1   5
ATOM      5  C   UNL     1     -12.703 -15.115  28.307  1.00  0.00     0.080 C 
BRANCH   5   6
ATOM      6  C   UNL     1     -12.903 -16.117  27.206  1.00  0.00     0.155 C 
ATOM      7  O   UNL     1     -13.954 -16.072  26.512  1.00  0.00    -0.295 OA
BRANCH   6   8
ATOM      8  C   UNL     1     -11.886 -17.158  26.961  1.00  0.00     0.039 C 
ATOM      9  C   UNL     1     -11.057 -17.118  25.919  1.00  0.00     0.012 C 
ENDBRANCH   6   8
ENDBRANCH   5   6
ENDBRANCH   1   5
TORSDOF 5
ENDMDL
MODEL 2
REMARK VINA RESULT:    -4.831      2.153      2.597
REMARK INTER + INTRA:          -6.436
REMARK INTER:                  -6.230
REMARK INTRA:                  -0.206
REMARK UNBOUND:                -0.193
REMARK SMILES C=CC(=O)CCCCC
REMARK SMILES IDX 6 1 7 2 8 3 9 4 5 5 3 6 4 7 2 8 1 9
REMARK H PARENT
REMARK Flexibility Score: inf
ROOT
ATOM      1  C   UNL     1     -12.817 -15.586  28.932  1.00  0.00     0.008 C 
ENDROOT
BRANCH   1   2
ATOM      2  C   UNL     1     -13.499 -14.329  28.365  1.00  0.00     0.000 C 
BRANCH   2   3
ATOM      3  C   UNL     1     -14.386 -13.622  29.402  1.00  0.00    -0.003 C 
ATOM      4  C   UNL     1     -15.043 -12.356  28.855  1.00  0.00     0.004 C 
ENDBRANCH   2   3
ENDBRANCH   1   2
BRANCH   1   5
ATOM      5  C   UNL     1     -11.300 -15.578  28.699  1.00  0.00     0.080 C 
BRANCH   5   6
ATOM      6  C   UNL     1     -10.800 -16.903  28.200  1.00  0.00     0.155 C 
ATOM      7  O   UNL     1      -9.882 -17.495  28.831  1.00  0.00    -0.295 OA
BRANCH   6   8
ATOM      8  C   UNL     1     -11.362 -17.489  26.968  1.00  0.00     0.039 C 
ATOM      9  C   UNL     1     -10.911 -17.173  25.755  1.00  0.00     0.012 C 
ENDBRANCH   6   8
ENDBRANCH   5   6
ENDBRANCH   1   5
TORSDOF 5
ENDMDL
MODEL 3
REMARK VINA RESULT:    -4.677      2.637      4.538
REMARK INTER + INTRA:          -6.237
REMARK INTER:                  -5.841
REMARK INTRA:                  -0.396
REMARK UNBOUND:                -0.193
REMARK SMILES C=CC(=O)CCCCC
REMARK SMILES IDX 6 1 7 2 8 3 9 4 5 5 3 6 4 7 2 8 1 9
REMARK H PARENT
REMARK Flexibility Score: inf
ROOT
ATOM      1  C   UNL     1     -12.803 -16.123  29.287  1.00  0.00     0.008 C 
ENDROOT
BRANCH   1   2
ATOM      2  C   UNL     1     -12.672 -14.735  28.638  1.00  0.00     0.000 C 
BRANCH   2   3
ATOM      3  C   UNL     1     -14.012 -14.210  28.098  1.00  0.00    -0.003 C 
ATOM      4  C   UNL     1     -14.594 -13.084  28.952  1.00  0.00     0.004 C 
ENDBRANCH   2   3
ENDBRANCH   1   2
BRANCH   1   5
ATOM      5  C   UNL     1     -12.331 -16.127  30.748  1.00  0.00     0.080 C 
BRANCH   5   6
ATOM      6  C   UNL     1     -13.257 -16.905  31.638  1.00  0.00     0.155 C 
ATOM      7  O   UNL     1     -13.195 -18.165  31.644  1.00  0.00    -0.295 OA
BRANCH   6   8
ATOM      8  C   UNL     1     -14.247 -16.199  32.474  1.00  0.00     0.039 C 
ATOM      9  C   UNL     1     -14.560 -14.918  32.283  1.00  0.00     0.012 C 
ENDBRANCH   6   8
ENDBRANCH   5   6
ENDBRANCH   1   5
TORSDOF 5
ENDMDL
MODEL 4
REMARK VINA RESULT:    -4.630      2.659      3.577
REMARK INTER + INTRA:          -6.176
REMARK INTER:                  -5.985
REMARK INTRA:                  -0.191
REMARK UNBOUND:                -0.193
REMARK SMILES C=CC(=O)CCCCC
REMARK SMILES IDX 6 1 7 2 8 3 9 4 5 5 3 6 4 7 2 8 1 9
REMARK H PARENT
REMARK Flexibility Score: inf
ROOT
ATOM      1  C   UNL     1     -12.147 -15.505  28.941  1.00  0.00     0.008 C 
ENDROOT
BRANCH   1   2
ATOM      2  C   UNL     1     -13.225 -14.644  28.262  1.00  0.00     0.000 C 
BRANCH   2   3
ATOM      3  C   UNL     1     -14.190 -14.006  29.273  1.00  0.00    -0.003 C 
ATOM      4  C   UNL     1     -14.741 -12.662  28.798  1.00  0.00     0.004 C 
ENDBRANCH   2   3
ENDBRANCH   1   2
BRANCH   1   5
ATOM      5  C   UNL     1     -12.634 -16.103  30.269  1.00  0.00     0.080 C 
BRANCH   5   6
ATOM      6  C   UNL     1     -12.949 -17.567  30.146  1.00  0.00     0.155 C 
ATOM      7  O   UNL     1     -13.236 -18.045  29.015  1.00  0.00    -0.295 OA
BRANCH   6   8
ATOM      8  C   UNL     1     -12.946 -18.427  31.345  1.00  0.00     0.039 C 
ATOM      9  C   UNL     1     -12.622 -19.718  31.299  1.00  0.00     0.012 C 
ENDBRANCH   6   8
ENDBRANCH   5   6
ENDBRANCH   1   5
TORSDOF 5
ENDMDL
MODEL 5
REMARK VINA RESULT:    -4.599      1.942      4.659
REMARK INTER + INTRA:          -6.136
REMARK INTER:                  -5.818
REMARK INTRA:                  -0.318
REMARK UNBOUND:                -0.193
REMARK SMILES C=CC(=O)CCCCC
REMARK SMILES IDX 6 1 7 2 8 3 9 4 5 5 3 6 4 7 2 8 1 9
REMARK H PARENT
REMARK Flexibility Score: inf
ROOT
ATOM      1  C   UNL     1     -12.568 -17.214  28.767  1.00  0.00     0.008 C 
ENDROOT
BRANCH   1   2
ATOM      2  C   UNL     1     -13.133 -17.366  27.344  1.00  0.00     0.000 C 
BRANCH   2   3
ATOM      3  C   UNL     1     -12.287 -16.630  26.294  1.00  0.00    -0.003 C 
ATOM      4  C   UNL     1     -11.009 -17.383  25.928  1.00  0.00     0.004 C 
ENDBRANCH   2   3
ENDBRANCH   1   2
BRANCH   1   5
ATOM      5  C   UNL     1     -12.141 -15.771  29.070  1.00  0.00     0.080 C 
BRANCH   5   6
ATOM      6  C   UNL     1     -13.307 -14.907  29.454  1.00  0.00     0.155 C 
ATOM      7  O   UNL     1     -13.855 -15.070  30.578  1.00  0.00    -0.295 OA
BRANCH   6   8
ATOM      8  C   UNL     1     -13.821 -13.897  28.509  1.00  0.00     0.039 C 
ATOM      9  C   UNL     1     -14.680 -12.947  28.875  1.00  0.00     0.012 C 
ENDBRANCH   6   8
ENDBRANCH   5   6
ENDBRANCH   1   5
TORSDOF 5
ENDMDL
MODEL 6
REMARK VINA RESULT:    -4.494      2.470      3.077
REMARK INTER + INTRA:          -6.000
REMARK INTER:                  -5.841
REMARK INTRA:                  -0.159
REMARK UNBOUND:                -0.193
REMARK SMILES C=CC(=O)CCCCC
REMARK SMILES IDX 6 1 7 2 8 3 9 4 5 5 3 6 4 7 2 8 1 9
REMARK H PARENT
REMARK Flexibility Score: inf
ROOT
ATOM      1  C   UNL     1     -12.444 -15.299  28.643  1.00  0.00     0.008 C 
ENDROOT
BRANCH   1   2
ATOM      2  C   UNL     1     -13.564 -14.366  28.153  1.00  0.00     0.000 C 
BRANCH   2   3
ATOM      3  C   UNL     1     -14.326 -13.703  29.311  1.00  0.00    -0.003 C 
ATOM      4  C   UNL     1     -15.024 -12.408  28.897  1.00  0.00     0.004 C 
ENDBRANCH   2   3
ENDBRANCH   1   2
BRANCH   1   5
ATOM      5  C   UNL     1     -12.969 -16.388  29.589  1.00  0.00     0.080 C 
BRANCH   5   6
ATOM      6  C   UNL     1     -12.546 -17.763  29.157  1.00  0.00     0.155 C 
ATOM      7  O   UNL     1     -11.397 -18.182  29.465  1.00  0.00    -0.295 OA
BRANCH   6   8
ATOM      8  C   UNL     1     -13.460 -18.600  28.356  1.00  0.00     0.039 C 
ATOM      9  C   UNL     1     -13.597 -19.909  28.563  1.00  0.00     0.012 C 
ENDBRANCH   6   8
ENDBRANCH   5   6
ENDBRANCH   1   5
TORSDOF 5
ENDMDL
MODEL 7
REMARK VINA RESULT:    -4.390      1.686      3.081
REMARK INTER + INTRA:          -5.866
REMARK INTER:                  -5.336
REMARK INTRA:                  -0.530
REMARK UNBOUND:                -0.193
REMARK SMILES C=CC(=O)CCCCC
REMARK SMILES IDX 6 1 7 2 8 3 9 4 5 5 3 6 4 7 2 8 1 9
REMARK H PARENT
REMARK Flexibility Score: inf
ROOT
ATOM      1  C   UNL     1     -12.223 -16.909  29.320  1.00  0.00     0.008 C 
ENDROOT
BRANCH   1   2
ATOM      2  C   UNL     1     -13.227 -16.969  30.483  1.00  0.00     0.000 C 
BRANCH   2   3
ATOM      3  C   UNL     1     -12.766 -16.155  31.702  1.00  0.00    -0.003 C 
ATOM      4  C   UNL     1     -13.899 -15.872  32.688  1.00  0.00     0.004 C 
ENDBRANCH   2   3
ENDBRANCH   1   2
BRANCH   1   5
ATOM      5  C   UNL     1     -12.089 -15.493  28.743  1.00  0.00     0.080 C 
BRANCH   5   6
ATOM      6  C   UNL     1     -13.304 -15.088  27.958  1.00  0.00     0.155 C 
ATOM      7  O   UNL     1     -13.691 -15.811  27.000  1.00  0.00    -0.295 OA
BRANCH   6   8
ATOM      8  C   UNL     1     -14.018 -13.840  28.292  1.00  0.00     0.039 C 
ATOM      9  C   UNL     1     -14.542 -13.617  29.496  1.00  0.00     0.012 C 
ENDBRANCH   6   8
ENDBRANCH   5   6
ENDBRANCH   1   5
TORSDOF 5
ENDMDL
MODEL 8
REMARK VINA RESULT:    -4.386      1.571      2.984
REMARK INTER + INTRA:          -5.860
REMARK INTER:                  -5.414
REMARK INTRA:                  -0.446
REMARK UNBOUND:                -0.193
REMARK SMILES C=CC(=O)CCCCC
REMARK SMILES IDX 6 1 7 2 8 3 9 4 5 5 3 6 4 7 2 8 1 9
REMARK H PARENT
REMARK Flexibility Score: inf
ROOT
ATOM      1  C   UNL     1     -12.387 -16.437  30.883  1.00  0.00     0.008 C 
ENDROOT
BRANCH   1   2
ATOM      2  C   UNL     1     -13.266 -17.282  31.821  1.00  0.00     0.000 C 
BRANCH   2   3
ATOM      3  C   UNL     1     -14.206 -16.421  32.679  1.00  0.00    -0.003 C 
ATOM      4  C   UNL     1     -14.461 -15.041  32.077  1.00  0.00     0.004 C 
ENDBRANCH   2   3
ENDBRANCH   1   2
BRANCH   1   5
ATOM      5  C   UNL     1     -12.305 -17.035  29.471  1.00  0.00     0.080 C 
BRANCH   5   6
ATOM      6  C   UNL     1     -12.892 -16.119  28.436  1.00  0.00     0.155 C 
ATOM      7  O   UNL     1     -13.416 -16.612  27.400  1.00  0.00    -0.295 OA
BRANCH   6   8
ATOM      8  C   UNL     1     -12.830 -14.657  28.622  1.00  0.00     0.039 C 
ATOM      9  C   UNL     1     -13.903 -13.875  28.514  1.00  0.00     0.012 C 
ENDBRANCH   6   8
ENDBRANCH   5   6
ENDBRANCH   1   5
TORSDOF 5
ENDMDL
MODEL 9
REMARK VINA RESULT:    -4.385      2.130      3.756
REMARK INTER + INTRA:          -5.859
REMARK INTER:                  -5.343
REMARK INTRA:                  -0.516
REMARK UNBOUND:                -0.193
REMARK SMILES C=CC(=O)CCCCC
REMARK SMILES IDX 6 1 7 2 8 3 9 4 5 5 3 6 4 7 2 8 1 9
REMARK H PARENT
REMARK Flexibility Score: inf
ROOT
ATOM      1  C   UNL     1     -12.504 -16.044  27.824  1.00  0.00     0.008 C 
ENDROOT
BRANCH   1   2
ATOM      2  C   UNL     1     -13.655 -15.040  27.639  1.00  0.00     0.000 C 
BRANCH   2   3
ATOM      3  C   UNL     1     -13.535 -13.828  28.576  1.00  0.00    -0.003 C 
ATOM      4  C   UNL     1     -14.891 -13.230  28.947  1.00  0.00     0.004 C 
ENDBRANCH   2   3
ENDBRANCH   1   2
BRANCH   1   5
ATOM      5  C   UNL     1     -11.569 -15.648  28.976  1.00  0.00     0.080 C 
BRANCH   5   6
ATOM      6  C   UNL     1     -11.681 -16.588  30.141  1.00  0.00     0.155 C 
ATOM      7  O   UNL     1     -11.265 -17.773  30.022  1.00  0.00    -0.295 OA
BRANCH   6   8
ATOM      8  C   UNL     1     -12.297 -16.133  31.402  1.00  0.00     0.039 C 
ATOM      9  C   UNL     1     -13.616 -16.089  31.579  1.00  0.00     0.012 C 
ENDBRANCH   6   8
ENDBRANCH   5   6
ENDBRANCH   1   5
TORSDOF 5
ENDMDL
