MODEL 1
REMARK VINA RESULT:    20.027      0.000      0.000
REMARK INTER + INTRA:          23.447
REMARK INTER:                  23.539
REMARK INTRA:                  -0.092
REMARK UNBOUND:                -0.092
REMARK SMILES O=c1c(O)c(-c2ccc(O)c(O)c2)oc2cc(O)ccc12
REMARK SMILES IDX 5 1 3 2 2 3 1 4 21 5 15 6 14 7 16 8 17 9 19 10 20 11 6 12
REMARK SMILES IDX 7 13 8 14 9 15 13 16 11 17 10 18 12 20 4 22 18 24
REMARK H PARENT 10 19 12 21 4 23 18 25
REMARK Flexibility Score: inf
ROOT
ATOM      1  C   UNL     1      -6.249   7.085  16.068  1.00  0.00     0.180 A 
ATOM      2  C   UNL     1      -7.221   6.791  15.089  1.00  0.00     0.208 A 
ATOM      3  C   UNL     1      -7.527   5.448  14.821  1.00  0.00     0.235 A 
ATOM      4  O   UNL     1      -8.400   5.159  13.956  1.00  0.00    -0.285 OA
ATOM      5  C   UNL     1      -6.848   4.434  15.515  1.00  0.00     0.069 A 
ATOM      6  C   UNL     1      -5.872   4.809  16.464  1.00  0.00     0.142 A 
ATOM      7  O   UNL     1      -5.619   6.093  16.694  1.00  0.00    -0.452 OA
ATOM      8  C   UNL     1      -5.167   3.828  17.169  1.00  0.00     0.094 A 
ATOM      9  C   UNL     1      -5.427   2.470  16.939  1.00  0.00     0.119 A 
ATOM     10  C   UNL     1      -6.395   2.095  16.001  1.00  0.00     0.047 A 
ATOM     11  C   UNL     1      -7.104   3.068  15.290  1.00  0.00     0.020 A 
ENDROOT
BRANCH   1  12
ATOM     12  C   UNL     1      -5.886   8.476  16.422  1.00  0.00     0.025 A 
ATOM     13  C   UNL     1      -4.579   8.960  16.241  1.00  0.00     0.016 A 
ATOM     14  C   UNL     1      -4.265  10.284  16.560  1.00  0.00     0.051 A 
ATOM     15  C   UNL     1      -5.255  11.146  17.050  1.00  0.00     0.157 A 
ATOM     16  C   UNL     1      -6.878   9.350  16.895  1.00  0.00     0.062 A 
ATOM     17  C   UNL     1      -6.564  10.678  17.215  1.00  0.00     0.158 A 
BRANCH  15  18
ATOM     18  O   UNL     1      -4.945  12.466  17.371  1.00  0.00    -0.504 OA
ATOM     19  H   UNL     1      -5.148  13.228  16.736  1.00  0.00     0.293 HD
ENDBRANCH  15  18
BRANCH  17  20
ATOM     20  O   UNL     1      -7.549  11.540  17.696  1.00  0.00    -0.504 OA
ATOM     21  H   UNL     1      -8.506  11.487  17.368  1.00  0.00     0.293 HD
ENDBRANCH  17  20
ENDBRANCH   1  12
BRANCH   2  22
ATOM     22  O   UNL     1      -7.845   7.820  14.379  1.00  0.00    -0.502 OA
ATOM     23  H   UNL     1      -7.619   8.796  14.530  1.00  0.00     0.293 HD
ENDBRANCH   2  22
BRANCH   9  24
ATOM     24  O   UNL     1      -4.731   1.487  17.637  1.00  0.00    -0.508 OA
ATOM     25  H   UNL     1      -3.731   1.552  17.789  1.00  0.00     0.293 HD
ENDBRANCH   9  24
TORSDOF 5
ENDMDL
