MODEL 1
REMARK VINA RESULT:    -3.221      0.000      0.000
REMARK INTER + INTRA:         -13.319
REMARK INTER:                  -8.117
REMARK INTRA:                  -5.202
REMARK UNBOUND:                -5.202
REMARK SMILES CCCCCCCCCCCCCCCCCCCCCCCCCCCC(=O)[O-]
REMARK SMILES IDX 15 1 16 2 17 3 18 4 19 5 20 6 21 7 22 8 23 9 24 10 25 11
REMARK SMILES IDX 26 12 27 13 28 14 29 15 30 16 14 17 13 18 12 19 11 20 10 21
REMARK SMILES IDX 9 22 8 23 7 24 6 25 5 26 4 27 3 28 2 29 1 30
REMARK H PARENT
REMARK Flexibility Score: inf
ROOT
ATOM      1  C   UNL     1       1.836  71.838  12.402  1.00  0.00     0.000 C 
ENDROOT
BRANCH   1   2
ATOM      2  C   UNL     1       2.524  73.057  11.758  1.00  0.00     0.000 C 
BRANCH   2   3
ATOM      3  C   UNL     1       3.409  72.684  10.560  1.00  0.00     0.000 C 
BRANCH   3   4
ATOM      4  C   UNL     1       4.765  72.139  11.024  1.00  0.00     0.000 C 
BRANCH   4   5
ATOM      5  C   UNL     1       5.047  70.765  10.398  1.00  0.00     0.000 C 
BRANCH   5   6
ATOM      6  C   UNL     1       4.921  69.617  11.412  1.00  0.00     0.000 C 
BRANCH   6   7
ATOM      7  C   UNL     1       5.156  70.076  12.858  1.00  0.00     0.000 C 
BRANCH   7   8
ATOM      8  C   UNL     1       4.613  69.044  13.858  1.00  0.00     0.000 C 
BRANCH   8   9
ATOM      9  C   UNL     1       3.531  69.621  14.789  1.00  0.00     0.000 C 
BRANCH   9  10
ATOM     10  C   UNL     1       2.787  68.579  15.645  1.00  0.00     0.000 C 
BRANCH  10  11
ATOM     11  C   UNL     1       2.598  69.025  17.102  1.00  0.00     0.000 C 
BRANCH  11  12
ATOM     12  C   UNL     1       2.244  70.518  17.177  1.00  0.00     0.006 C 
BRANCH  12  13
ATOM     13  C   UNL     1       3.084  71.263  18.224  1.00  0.00     0.053 C 
BRANCH  13  14
ATOM     14  C   UNL     1       2.513  72.613  18.534  1.00  0.00     0.041 C 
ATOM     15  O   UNL     1       3.027  73.648  18.037  1.00  0.00    -0.550 OA
ATOM     16  O   UNL     1       1.393  72.722  19.348  1.00  0.00    -0.550 OA
ENDBRANCH  13  14
ENDBRANCH  12  13
ENDBRANCH  11  12
ENDBRANCH  10  11
ENDBRANCH   9  10
ENDBRANCH   8   9
ENDBRANCH   7   8
ENDBRANCH   6   7
ENDBRANCH   5   6
ENDBRANCH   4   5
ENDBRANCH   3   4
ENDBRANCH   2   3
ENDBRANCH   1   2
BRANCH   1  17
ATOM     17  C   UNL     1       1.100  70.905  11.424  1.00  0.00     0.000 C 
BRANCH  17  18
ATOM     18  C   UNL     1       1.424  69.419  11.648  1.00  0.00     0.000 C 
BRANCH  18  19
ATOM     19  C   UNL     1       0.512  68.757  12.697  1.00  0.00     0.000 C 
BRANCH  19  20
ATOM     20  C   UNL     1       0.176  67.278  12.434  1.00  0.00     0.000 C 
BRANCH  20  21
ATOM     21  C   UNL     1       0.850  66.724  11.170  1.00  0.00     0.000 C 
BRANCH  21  22
ATOM     22  C   UNL     1       1.850  65.614  11.527  1.00  0.00    -0.000 C 
BRANCH  22  23
ATOM     23  C   UNL     1       3.131  66.155  12.182  1.00  0.00    -0.000 C 
BRANCH  23  24
ATOM     24  C   UNL     1       3.407  65.515  13.555  1.00  0.00    -0.000 C 
BRANCH  24  25
ATOM     25  C   UNL     1       2.945  64.050  13.627  1.00  0.00    -0.000 C 
BRANCH  25  26
ATOM     26  C   UNL     1       1.909  63.812  14.739  1.00  0.00    -0.000 C 
BRANCH  26  27
ATOM     27  C   UNL     1       1.648  65.068  15.591  1.00  0.00    -0.000 C 
BRANCH  27  28
ATOM     28  C   UNL     1       0.212  65.623  15.520  1.00  0.00    -0.000 C 
BRANCH  28  29
ATOM     29  C   UNL     1      -0.198  66.518  16.704  1.00  0.00    -0.003 C 
ATOM     30  C   UNL     1      -0.902  67.802  16.265  1.00  0.00     0.004 C 
ENDBRANCH  28  29
ENDBRANCH  27  28
ENDBRANCH  26  27
ENDBRANCH  25  26
ENDBRANCH  24  25
ENDBRANCH  23  24
ENDBRANCH  22  23
ENDBRANCH  21  22
ENDBRANCH  20  21
ENDBRANCH  19  20
ENDBRANCH  18  19
ENDBRANCH  17  18
ENDBRANCH   1  17
TORSDOF 26
ENDMDL
MODEL 2
REMARK VINA RESULT:    -3.132      4.907      8.277
REMARK INTER + INTRA:         -13.095
REMARK INTER:                  -7.847
REMARK INTRA:                  -5.248
REMARK UNBOUND:                -5.202
REMARK SMILES CCCCCCCCCCCCCCCCCCCCCCCCCCCC(=O)[O-]
REMARK SMILES IDX 15 1 16 2 17 3 18 4 19 5 20 6 21 7 22 8 23 9 24 10 25 11
REMARK SMILES IDX 26 12 27 13 28 14 29 15 30 16 14 17 13 18 12 19 11 20 10 21
REMARK SMILES IDX 9 22 8 23 7 24 6 25 5 26 4 27 3 28 2 29 1 30
REMARK H PARENT
REMARK Flexibility Score: inf
ROOT
ATOM      1  C   UNL     1       1.740  70.403  13.091  1.00  0.00     0.000 C 
ENDROOT
BRANCH   1   2
ATOM      2  C   UNL     1       2.739  69.442  12.419  1.00  0.00     0.000 C 
BRANCH   2   3
ATOM      3  C   UNL     1       2.078  68.508  11.394  1.00  0.00     0.000 C 
BRANCH   3   4
ATOM      4  C   UNL     1       1.430  67.302  12.085  1.00  0.00     0.000 C 
BRANCH   4   5
ATOM      5  C   UNL     1       0.855  66.321  11.052  1.00  0.00     0.000 C 
BRANCH   5   6
ATOM      6  C   UNL     1      -0.117  66.996  10.072  1.00  0.00     0.000 C 
BRANCH   6   7
ATOM      7  C   UNL     1      -0.168  66.291   8.709  1.00  0.00     0.000 C 
BRANCH   7   8
ATOM      8  C   UNL     1      -0.013  67.300   7.561  1.00  0.00     0.000 C 
BRANCH   8   9
ATOM      9  C   UNL     1       1.337  68.040   7.589  1.00  0.00     0.000 C 
BRANCH   9  10
ATOM     10  C   UNL     1       2.564  67.147   7.849  1.00  0.00     0.000 C 
BRANCH  10  11
ATOM     11  C   UNL     1       2.790  66.103   6.745  1.00  0.00     0.000 C 
BRANCH  11  12
ATOM     12  C   UNL     1       3.544  64.882   7.293  1.00  0.00     0.006 C 
BRANCH  12  13
ATOM     13  C   UNL     1       2.937  64.364   8.603  1.00  0.00     0.053 C 
BRANCH  13  14
ATOM     14  C   UNL     1       2.300  63.019   8.425  1.00  0.00     0.041 C 
ATOM     15  O   UNL     1       2.721  62.027   9.075  1.00  0.00    -0.550 OA
ATOM     16  O   UNL     1       1.220  62.871   7.564  1.00  0.00    -0.550 OA
ENDBRANCH  13  14
ENDBRANCH  12  13
ENDBRANCH  11  12
ENDBRANCH  10  11
ENDBRANCH   9  10
ENDBRANCH   8   9
ENDBRANCH   7   8
ENDBRANCH   6   7
ENDBRANCH   5   6
ENDBRANCH   4   5
ENDBRANCH   3   4
ENDBRANCH   2   3
ENDBRANCH   1   2
BRANCH   1  17
ATOM     17  C   UNL     1       1.890  71.886  12.703  1.00  0.00     0.000 C 
BRANCH  17  18
ATOM     18  C   UNL     1       3.356  72.326  12.563  1.00  0.00     0.000 C 
BRANCH  18  19
ATOM     19  C   UNL     1       3.615  73.157  11.293  1.00  0.00     0.000 C 
BRANCH  19  20
ATOM     20  C   UNL     1       2.976  72.603  10.006  1.00  0.00     0.000 C 
BRANCH  20  21
ATOM     21  C   UNL     1       1.955  73.564   9.380  1.00  0.00     0.000 C 
BRANCH  21  22
ATOM     22  C   UNL     1       0.607  72.861   9.160  1.00  0.00    -0.000 C 
BRANCH  22  23
ATOM     23  C   UNL     1       0.709  71.331   9.271  1.00  0.00    -0.000 C 
BRANCH  23  24
ATOM     24  C   UNL     1      -0.557  70.698   9.878  1.00  0.00    -0.000 C 
BRANCH  24  25
ATOM     25  C   UNL     1      -1.373  71.697  10.716  1.00  0.00    -0.000 C 
BRANCH  25  26
ATOM     26  C   UNL     1      -1.768  71.129  12.090  1.00  0.00    -0.000 C 
BRANCH  26  27
ATOM     27  C   UNL     1      -1.643  69.596  12.162  1.00  0.00    -0.000 C 
BRANCH  27  28
ATOM     28  C   UNL     1      -2.979  68.827  12.169  1.00  0.00    -0.000 C 
BRANCH  28  29
ATOM     29  C   UNL     1      -3.461  68.347  10.788  1.00  0.00    -0.003 C 
ATOM     30  C   UNL     1      -4.636  69.162  10.250  1.00  0.00     0.004 C 
ENDBRANCH  28  29
ENDBRANCH  27  28
ENDBRANCH  26  27
ENDBRANCH  25  26
ENDBRANCH  24  25
ENDBRANCH  23  24
ENDBRANCH  22  23
ENDBRANCH  21  22
ENDBRANCH  20  21
ENDBRANCH  19  20
ENDBRANCH  18  19
ENDBRANCH  17  18
ENDBRANCH   1  17
TORSDOF 26
ENDMDL
MODEL 3
REMARK VINA RESULT:    -3.105      3.520      6.509
REMARK INTER + INTRA:         -13.027
REMARK INTER:                  -7.294
REMARK INTRA:                  -5.733
REMARK UNBOUND:                -5.202
REMARK SMILES CCCCCCCCCCCCCCCCCCCCCCCCCCCC(=O)[O-]
REMARK SMILES IDX 15 1 16 2 17 3 18 4 19 5 20 6 21 7 22 8 23 9 24 10 25 11
REMARK SMILES IDX 26 12 27 13 28 14 29 15 30 16 14 17 13 18 12 19 11 20 10 21
REMARK SMILES IDX 9 22 8 23 7 24 6 25 5 26 4 27 3 28 2 29 1 30
REMARK H PARENT
REMARK Flexibility Score: inf
ROOT
ATOM      1  C   UNL     1       5.598  63.326  16.989  1.00  0.00     0.000 C 
ENDROOT
BRANCH   1   2
ATOM      2  C   UNL     1       5.071  64.767  17.134  1.00  0.00     0.000 C 
BRANCH   2   3
ATOM      3  C   UNL     1       5.407  65.397  18.493  1.00  0.00     0.000 C 
BRANCH   3   4
ATOM      4  C   UNL     1       4.397  66.491  18.859  1.00  0.00     0.000 C 
BRANCH   4   5
ATOM      5  C   UNL     1       2.967  66.060  18.501  1.00  0.00     0.000 C 
BRANCH   5   6
ATOM      6  C   UNL     1       2.316  65.202  19.597  1.00  0.00     0.000 C 
BRANCH   6   7
ATOM      7  C   UNL     1       1.880  66.029  20.815  1.00  0.00     0.000 C 
BRANCH   7   8
ATOM      8  C   UNL     1       0.777  67.028  20.435  1.00  0.00     0.000 C 
BRANCH   8   9
ATOM      9  C   UNL     1       1.097  68.471  20.867  1.00  0.00     0.000 C 
BRANCH   9  10
ATOM     10  C   UNL     1       2.589  68.760  21.116  1.00  0.00     0.000 C 
BRANCH  10  11
ATOM     11  C   UNL     1       3.080  70.029  20.405  1.00  0.00     0.000 C 
BRANCH  11  12
ATOM     12  C   UNL     1       2.910  69.906  18.884  1.00  0.00     0.006 C 
BRANCH  12  13
ATOM     13  C   UNL     1       1.862  70.884  18.335  1.00  0.00     0.053 C 
BRANCH  13  14
ATOM     14  C   UNL     1       2.184  72.302  18.698  1.00  0.00     0.041 C 
ATOM     15  O   UNL     1       3.243  72.839  18.281  1.00  0.00    -0.550 OA
ATOM     16  O   UNL     1       1.297  73.039  19.472  1.00  0.00    -0.550 OA
ENDBRANCH  13  14
ENDBRANCH  12  13
ENDBRANCH  11  12
ENDBRANCH  10  11
ENDBRANCH   9  10
ENDBRANCH   8   9
ENDBRANCH   7   8
ENDBRANCH   6   7
ENDBRANCH   5   6
ENDBRANCH   4   5
ENDBRANCH   3   4
ENDBRANCH   2   3
ENDBRANCH   1   2
BRANCH   1  17
ATOM     17  C   UNL     1       4.537  62.270  16.632  1.00  0.00     0.000 C 
BRANCH  17  18
ATOM     18  C   UNL     1       3.304  62.321  17.548  1.00  0.00     0.000 C 
BRANCH  18  19
ATOM     19  C   UNL     1       2.033  62.795  16.819  1.00  0.00     0.000 C 
BRANCH  19  20
ATOM     20  C   UNL     1       2.094  62.726  15.282  1.00  0.00     0.000 C 
BRANCH  20  21
ATOM     21  C   UNL     1       1.658  64.033  14.603  1.00  0.00     0.000 C 
BRANCH  21  22
ATOM     22  C   UNL     1       2.816  65.041  14.564  1.00  0.00    -0.000 C 
BRANCH  22  23
ATOM     23  C   UNL     1       2.342  66.496  14.716  1.00  0.00    -0.000 C 
BRANCH  23  24
ATOM     24  C   UNL     1       1.081  66.796  13.885  1.00  0.00    -0.000 C 
BRANCH  24  25
ATOM     25  C   UNL     1       0.138  67.792  14.580  1.00  0.00    -0.000 C 
BRANCH  25  26
ATOM     26  C   UNL     1       0.711  68.319  15.907  1.00  0.00    -0.000 C 
BRANCH  26  27
ATOM     27  C   UNL     1      -0.178  67.981  17.118  1.00  0.00    -0.000 C 
BRANCH  27  28
ATOM     28  C   UNL     1      -1.130  66.784  16.921  1.00  0.00    -0.000 C 
BRANCH  28  29
ATOM     29  C   UNL     1      -0.529  65.411  17.269  1.00  0.00    -0.003 C 
ATOM     30  C   UNL     1      -1.326  64.664  18.338  1.00  0.00     0.004 C 
ENDBRANCH  28  29
ENDBRANCH  27  28
ENDBRANCH  26  27
ENDBRANCH  25  26
ENDBRANCH  24  25
ENDBRANCH  23  24
ENDBRANCH  22  23
ENDBRANCH  21  22
ENDBRANCH  20  21
ENDBRANCH  19  20
ENDBRANCH  18  19
ENDBRANCH  17  18
ENDBRANCH   1  17
TORSDOF 26
ENDMDL
MODEL 4
REMARK VINA RESULT:    -3.073      3.418      6.766
REMARK INTER + INTRA:         -12.947
REMARK INTER:                  -6.836
REMARK INTRA:                  -6.110
REMARK UNBOUND:                -5.202
REMARK SMILES CCCCCCCCCCCCCCCCCCCCCCCCCCCC(=O)[O-]
REMARK SMILES IDX 15 1 16 2 17 3 18 4 19 5 20 6 21 7 22 8 23 9 24 10 25 11
REMARK SMILES IDX 26 12 27 13 28 14 29 15 30 16 14 17 13 18 12 19 11 20 10 21
REMARK SMILES IDX 9 22 8 23 7 24 6 25 5 26 4 27 3 28 2 29 1 30
REMARK H PARENT
REMARK Flexibility Score: inf
ROOT
ATOM      1  C   UNL     1       3.432  66.174  12.509  1.00  0.00     0.000 C 
ENDROOT
BRANCH   1   2
ATOM      2  C   UNL     1       2.115  65.477  12.901  1.00  0.00     0.000 C 
BRANCH   2   3
ATOM      3  C   UNL     1       0.930  66.447  13.008  1.00  0.00     0.000 C 
BRANCH   3   4
ATOM      4  C   UNL     1       0.197  66.278  14.344  1.00  0.00     0.000 C 
BRANCH   4   5
ATOM      5  C   UNL     1      -0.476  67.592  14.771  1.00  0.00     0.000 C 
BRANCH   5   6
ATOM      6  C   UNL     1       0.181  68.215  16.013  1.00  0.00     0.000 C 
BRANCH   6   7
ATOM      7  C   UNL     1       1.315  69.187  15.657  1.00  0.00     0.000 C 
BRANCH   7   8
ATOM      8  C   UNL     1       2.546  68.944  16.542  1.00  0.00     0.000 C 
BRANCH   8   9
ATOM      9  C   UNL     1       3.776  68.469  15.747  1.00  0.00     0.000 C 
BRANCH   9  10
ATOM     10  C   UNL     1       4.209  67.018  16.026  1.00  0.00     0.000 C 
BRANCH  10  11
ATOM     11  C   UNL     1       3.394  66.353  17.144  1.00  0.00     0.000 C 
BRANCH  11  12
ATOM     12  C   UNL     1       2.769  65.036  16.657  1.00  0.00     0.006 C 
BRANCH  12  13
ATOM     13  C   UNL     1       3.742  64.213  15.802  1.00  0.00     0.053 C 
BRANCH  13  14
ATOM     14  C   UNL     1       3.231  62.825  15.562  1.00  0.00     0.041 C 
ATOM     15  O   UNL     1       2.089  62.646  15.065  1.00  0.00    -0.550 OA
ATOM     16  O   UNL     1       4.032  61.730  15.860  1.00  0.00    -0.550 OA
ENDBRANCH  13  14
ENDBRANCH  12  13
ENDBRANCH  11  12
ENDBRANCH  10  11
ENDBRANCH   9  10
ENDBRANCH   8   9
ENDBRANCH   7   8
ENDBRANCH   6   7
ENDBRANCH   5   6
ENDBRANCH   4   5
ENDBRANCH   3   4
ENDBRANCH   2   3
ENDBRANCH   1   2
BRANCH   1  17
ATOM     17  C   UNL     1       3.364  67.710  12.427  1.00  0.00     0.000 C 
BRANCH  17  18
ATOM     18  C   UNL     1       4.666  68.343  11.908  1.00  0.00     0.000 C 
BRANCH  18  19
ATOM     19  C   UNL     1       4.533  69.854  11.642  1.00  0.00     0.000 C 
BRANCH  19  20
ATOM     20  C   UNL     1       4.425  70.735  12.901  1.00  0.00     0.000 C 
BRANCH  20  21
ATOM     21  C   UNL     1       2.989  71.194  13.192  1.00  0.00     0.000 C 
BRANCH  21  22
ATOM     22  C   UNL     1       2.135  71.160  11.916  1.00  0.00    -0.000 C 
BRANCH  22  23
ATOM     23  C   UNL     1       0.842  70.345  12.086  1.00  0.00    -0.000 C 
BRANCH  23  24
ATOM     24  C   UNL     1       0.581  69.399  10.900  1.00  0.00    -0.000 C 
BRANCH  24  25
ATOM     25  C   UNL     1       1.356  69.808   9.636  1.00  0.00    -0.000 C 
BRANCH  25  26
ATOM     26  C   UNL     1       2.152  68.640   9.028  1.00  0.00    -0.000 C 
BRANCH  26  27
ATOM     27  C   UNL     1       1.527  67.267   9.338  1.00  0.00    -0.000 C 
BRANCH  27  28
ATOM     28  C   UNL     1       2.129  66.080   8.559  1.00  0.00    -0.000 C 
BRANCH  28  29
ATOM     29  C   UNL     1       2.026  64.718   9.268  1.00  0.00    -0.003 C 
ATOM     30  C   UNL     1       3.058  63.707   8.770  1.00  0.00     0.004 C 
ENDBRANCH  28  29
ENDBRANCH  27  28
ENDBRANCH  26  27
ENDBRANCH  25  26
ENDBRANCH  24  25
ENDBRANCH  23  24
ENDBRANCH  22  23
ENDBRANCH  21  22
ENDBRANCH  20  21
ENDBRANCH  19  20
ENDBRANCH  18  19
ENDBRANCH  17  18
ENDBRANCH   1  17
TORSDOF 26
ENDMDL
MODEL 5
REMARK VINA RESULT:    -3.063      5.497      9.614
REMARK INTER + INTRA:         -12.920
REMARK INTER:                  -7.078
REMARK INTRA:                  -5.842
REMARK UNBOUND:                -5.202
REMARK SMILES CCCCCCCCCCCCCCCCCCCCCCCCCCCC(=O)[O-]
REMARK SMILES IDX 15 1 16 2 17 3 18 4 19 5 20 6 21 7 22 8 23 9 24 10 25 11
REMARK SMILES IDX 26 12 27 13 28 14 29 15 30 16 14 17 13 18 12 19 11 20 10 21
REMARK SMILES IDX 9 22 8 23 7 24 6 25 5 26 4 27 3 28 2 29 1 30
REMARK H PARENT
REMARK Flexibility Score: inf
ROOT
ATOM      1  C   UNL     1       3.811  65.935  19.320  1.00  0.00     0.000 C 
ENDROOT
BRANCH   1   2
ATOM      2  C   UNL     1       2.776  65.470  20.362  1.00  0.00     0.000 C 
BRANCH   2   3
ATOM      3  C   UNL     1       1.340  65.887  20.011  1.00  0.00     0.000 C 
BRANCH   3   4
ATOM      4  C   UNL     1       1.260  66.443  18.584  1.00  0.00     0.000 C 
BRANCH   4   5
ATOM      5  C   UNL     1       0.529  65.462  17.654  1.00  0.00     0.000 C 
BRANCH   5   6
ATOM      6  C   UNL     1       1.471  64.802  16.635  1.00  0.00     0.000 C 
BRANCH   6   7
ATOM      7  C   UNL     1       1.509  63.272  16.770  1.00  0.00     0.000 C 
BRANCH   7   8
ATOM      8  C   UNL     1       2.654  62.829  17.692  1.00  0.00     0.000 C 
BRANCH   8   9
ATOM      9  C   UNL     1       2.181  61.931  18.850  1.00  0.00     0.000 C 
BRANCH   9  10
ATOM     10  C   UNL     1       0.787  62.270  19.409  1.00  0.00     0.000 C 
BRANCH  10  11
ATOM     11  C   UNL     1       0.755  62.334  20.943  1.00  0.00     0.000 C 
BRANCH  11  12
ATOM     12  C   UNL     1       2.025  61.713  21.543  1.00  0.00     0.006 C 
BRANCH  12  13
ATOM     13  C   UNL     1       1.723  60.453  22.365  1.00  0.00     0.053 C 
BRANCH  13  14
ATOM     14  C   UNL     1       1.957  59.204  21.570  1.00  0.00     0.041 C 
ATOM     15  O   UNL     1       1.101  58.814  20.734  1.00  0.00    -0.550 OA
ATOM     16  O   UNL     1       3.136  58.488  21.733  1.00  0.00    -0.550 OA
ENDBRANCH  13  14
ENDBRANCH  12  13
ENDBRANCH  11  12
ENDBRANCH  10  11
ENDBRANCH   9  10
ENDBRANCH   8   9
ENDBRANCH   7   8
ENDBRANCH   6   7
ENDBRANCH   5   6
ENDBRANCH   4   5
ENDBRANCH   3   4
ENDBRANCH   2   3
ENDBRANCH   1   2
BRANCH   1  17
ATOM     17  C   UNL     1       5.214  66.240  19.877  1.00  0.00     0.000 C 
BRANCH  17  18
ATOM     18  C   UNL     1       5.212  66.533  21.386  1.00  0.00     0.000 C 
BRANCH  18  19
ATOM     19  C   UNL     1       5.805  67.912  21.731  1.00  0.00     0.000 C 
BRANCH  19  20
ATOM     20  C   UNL     1       4.936  69.118  21.327  1.00  0.00     0.000 C 
BRANCH  20  21
ATOM     21  C   UNL     1       3.498  69.028  21.860  1.00  0.00     0.000 C 
BRANCH  21  22
ATOM     22  C   UNL     1       2.484  69.333  20.747  1.00  0.00    -0.000 C 
BRANCH  22  23
ATOM     23  C   UNL     1       3.155  69.675  19.407  1.00  0.00    -0.000 C 
BRANCH  23  24
ATOM     24  C   UNL     1       2.143  70.132  18.340  1.00  0.00    -0.000 C 
BRANCH  24  25
ATOM     25  C   UNL     1       2.693  69.999  16.910  1.00  0.00    -0.000 C 
BRANCH  25  26
ATOM     26  C   UNL     1       3.398  68.653  16.672  1.00  0.00    -0.000 C 
BRANCH  26  27
ATOM     27  C   UNL     1       3.066  68.038  15.300  1.00  0.00    -0.000 C 
BRANCH  27  28
ATOM     28  C   UNL     1       3.921  66.818  14.901  1.00  0.00    -0.000 C 
BRANCH  28  29
ATOM     29  C   UNL     1       4.953  66.376  15.954  1.00  0.00    -0.003 C 
ATOM     30  C   UNL     1       5.212  64.870  15.939  1.00  0.00     0.004 C 
ENDBRANCH  28  29
ENDBRANCH  27  28
ENDBRANCH  26  27
ENDBRANCH  25  26
ENDBRANCH  24  25
ENDBRANCH  23  24
ENDBRANCH  22  23
ENDBRANCH  21  22
ENDBRANCH  20  21
ENDBRANCH  19  20
ENDBRANCH  18  19
ENDBRANCH  17  18
ENDBRANCH   1  17
TORSDOF 26
ENDMDL
MODEL 6
REMARK VINA RESULT:    -3.053      2.156      5.222
REMARK INTER + INTRA:         -12.896
REMARK INTER:                  -7.560
REMARK INTRA:                  -5.336
REMARK UNBOUND:                -5.202
REMARK SMILES CCCCCCCCCCCCCCCCCCCCCCCCCCCC(=O)[O-]
REMARK SMILES IDX 15 1 16 2 17 3 18 4 19 5 20 6 21 7 22 8 23 9 24 10 25 11
REMARK SMILES IDX 26 12 27 13 28 14 29 15 30 16 14 17 13 18 12 19 11 20 10 21
REMARK SMILES IDX 9 22 8 23 7 24 6 25 5 26 4 27 3 28 2 29 1 30
REMARK H PARENT
REMARK Flexibility Score: inf
ROOT
ATOM      1  C   UNL     1       5.510  64.542  17.216  1.00  0.00     0.000 C 
ENDROOT
BRANCH   1   2
ATOM      2  C   UNL     1       5.671  65.436  15.972  1.00  0.00     0.000 C 
BRANCH   2   3
ATOM      3  C   UNL     1       5.113  66.853  16.173  1.00  0.00     0.000 C 
BRANCH   3   4
ATOM      4  C   UNL     1       5.195  67.667  14.877  1.00  0.00     0.000 C 
BRANCH   4   5
ATOM      5  C   UNL     1       4.832  66.801  13.661  1.00  0.00     0.000 C 
BRANCH   5   6
ATOM      6  C   UNL     1       4.086  67.590  12.574  1.00  0.00     0.000 C 
BRANCH   6   7
ATOM      7  C   UNL     1       2.599  67.790  12.904  1.00  0.00     0.000 C 
BRANCH   7   8
ATOM      8  C   UNL     1       2.161  69.234  12.615  1.00  0.00     0.000 C 
BRANCH   8   9
ATOM      9  C   UNL     1       1.654  69.971  13.868  1.00  0.00     0.000 C 
BRANCH   9  10
ATOM     10  C   UNL     1       2.057  69.329  15.208  1.00  0.00     0.000 C 
BRANCH  10  11
ATOM     11  C   UNL     1       2.306  70.362  16.317  1.00  0.00     0.000 C 
BRANCH  11  12
ATOM     12  C   UNL     1       2.573  69.669  17.661  1.00  0.00     0.006 C 
BRANCH  12  13
ATOM     13  C   UNL     1       3.035  70.656  18.742  1.00  0.00     0.053 C 
BRANCH  13  14
ATOM     14  C   UNL     1       2.053  71.771  18.931  1.00  0.00     0.041 C 
ATOM     15  O   UNL     1       2.401  72.964  18.730  1.00  0.00    -0.550 OA
ATOM     16  O   UNL     1       0.744  71.489  19.299  1.00  0.00    -0.550 OA
ENDBRANCH  13  14
ENDBRANCH  12  13
ENDBRANCH  11  12
ENDBRANCH  10  11
ENDBRANCH   9  10
ENDBRANCH   8   9
ENDBRANCH   7   8
ENDBRANCH   6   7
ENDBRANCH   5   6
ENDBRANCH   4   5
ENDBRANCH   3   4
ENDBRANCH   2   3
ENDBRANCH   1   2
BRANCH   1  17
ATOM     17  C   UNL     1       5.664  63.030  16.964  1.00  0.00     0.000 C 
BRANCH  17  18
ATOM     18  C   UNL     1       4.319  62.287  16.916  1.00  0.00     0.000 C 
BRANCH  18  19
ATOM     19  C   UNL     1       3.749  62.169  15.490  1.00  0.00     0.000 C 
BRANCH  19  20
ATOM     20  C   UNL     1       2.335  62.745  15.300  1.00  0.00     0.000 C 
BRANCH  20  21
ATOM     21  C   UNL     1       2.322  64.054  14.496  1.00  0.00     0.000 C 
BRANCH  21  22
ATOM     22  C   UNL     1       1.985  65.248  15.402  1.00  0.00    -0.000 C 
BRANCH  22  23
ATOM     23  C   UNL     1       1.637  64.825  16.839  1.00  0.00    -0.000 C 
BRANCH  23  24
ATOM     24  C   UNL     1       1.524  66.026  17.796  1.00  0.00    -0.000 C 
BRANCH  24  25
ATOM     25  C   UNL     1       0.285  66.893  17.512  1.00  0.00    -0.000 C 
BRANCH  25  26
ATOM     26  C   UNL     1      -0.986  66.053  17.297  1.00  0.00    -0.000 C 
BRANCH  26  27
ATOM     27  C   UNL     1      -1.956  66.687  16.283  1.00  0.00    -0.000 C 
BRANCH  27  28
ATOM     28  C   UNL     1      -1.322  67.707  15.316  1.00  0.00    -0.000 C 
BRANCH  28  29
ATOM     29  C   UNL     1      -0.827  67.118  13.982  1.00  0.00    -0.003 C 
ATOM     30  C   UNL     1      -1.775  67.399  12.817  1.00  0.00     0.004 C 
ENDBRANCH  28  29
ENDBRANCH  27  28
ENDBRANCH  26  27
ENDBRANCH  25  26
ENDBRANCH  24  25
ENDBRANCH  23  24
ENDBRANCH  22  23
ENDBRANCH  21  22
ENDBRANCH  20  21
ENDBRANCH  19  20
ENDBRANCH  18  19
ENDBRANCH  17  18
ENDBRANCH   1  17
TORSDOF 26
ENDMDL
MODEL 7
REMARK VINA RESULT:    -3.040      2.633      7.007
REMARK INTER + INTRA:         -12.863
REMARK INTER:                  -8.193
REMARK INTRA:                  -4.670
REMARK UNBOUND:                -5.202
REMARK SMILES CCCCCCCCCCCCCCCCCCCCCCCCCCCC(=O)[O-]
REMARK SMILES IDX 15 1 16 2 17 3 18 4 19 5 20 6 21 7 22 8 23 9 24 10 25 11
REMARK SMILES IDX 26 12 27 13 28 14 29 15 30 16 14 17 13 18 12 19 11 20 10 21
REMARK SMILES IDX 9 22 8 23 7 24 6 25 5 26 4 27 3 28 2 29 1 30
REMARK H PARENT
REMARK Flexibility Score: inf
ROOT
ATOM      1  C   UNL     1       1.524  63.690  16.328  1.00  0.00     0.000 C 
ENDROOT
BRANCH   1   2
ATOM      2  C   UNL     1       2.901  63.063  16.037  1.00  0.00     0.000 C 
BRANCH   2   3
ATOM      3  C   UNL     1       3.696  63.827  14.968  1.00  0.00     0.000 C 
BRANCH   3   4
ATOM      4  C   UNL     1       2.866  64.015  13.692  1.00  0.00     0.000 C 
BRANCH   4   5
ATOM      5  C   UNL     1       2.833  65.492  13.272  1.00  0.00     0.000 C 
BRANCH   5   6
ATOM      6  C   UNL     1       1.591  65.841  12.437  1.00  0.00     0.000 C 
BRANCH   6   7
ATOM      7  C   UNL     1       0.523  66.589  13.250  1.00  0.00     0.000 C 
BRANCH   7   8
ATOM      8  C   UNL     1      -0.054  67.766  12.450  1.00  0.00     0.000 C 
BRANCH   8   9
ATOM      9  C   UNL     1       1.027  68.734  11.938  1.00  0.00     0.000 C 
BRANCH   9  10
ATOM     10  C   UNL     1       1.837  69.445  13.037  1.00  0.00     0.000 C 
BRANCH  10  11
ATOM     11  C   UNL     1       3.351  69.230  12.901  1.00  0.00     0.000 C 
BRANCH  11  12
ATOM     12  C   UNL     1       4.120  70.516  13.240  1.00  0.00     0.006 C 
BRANCH  12  13
ATOM     13  C   UNL     1       3.258  71.773  13.062  1.00  0.00     0.053 C 
BRANCH  13  14
ATOM     14  C   UNL     1       3.666  72.558  11.853  1.00  0.00     0.041 C 
ATOM     15  O   UNL     1       3.227  73.724  11.675  1.00  0.00    -0.550 OA
ATOM     16  O   UNL     1       4.559  72.011  10.939  1.00  0.00    -0.550 OA
ENDBRANCH  13  14
ENDBRANCH  12  13
ENDBRANCH  11  12
ENDBRANCH  10  11
ENDBRANCH   9  10
ENDBRANCH   8   9
ENDBRANCH   7   8
ENDBRANCH   6   7
ENDBRANCH   5   6
ENDBRANCH   4   5
ENDBRANCH   3   4
ENDBRANCH   2   3
ENDBRANCH   1   2
BRANCH   1  17
ATOM     17  C   UNL     1       1.410  64.432  17.672  1.00  0.00     0.000 C 
BRANCH  17  18
ATOM     18  C   UNL     1       1.213  65.948  17.509  1.00  0.00     0.000 C 
BRANCH  18  19
ATOM     19  C   UNL     1       2.533  66.702  17.265  1.00  0.00     0.000 C 
BRANCH  19  20
ATOM     20  C   UNL     1       2.464  67.820  16.209  1.00  0.00     0.000 C 
BRANCH  20  21
ATOM     21  C   UNL     1       3.209  69.094  16.632  1.00  0.00     0.000 C 
BRANCH  21  22
ATOM     22  C   UNL     1       2.264  70.305  16.635  1.00  0.00    -0.000 C 
BRANCH  22  23
ATOM     23  C   UNL     1       2.633  71.345  17.706  1.00  0.00    -0.000 C 
BRANCH  23  24
ATOM     24  C   UNL     1       1.638  71.359  18.882  1.00  0.00    -0.000 C 
BRANCH  24  25
ATOM     25  C   UNL     1       0.528  70.306  18.729  1.00  0.00    -0.000 C 
BRANCH  25  26
ATOM     26  C   UNL     1       0.773  69.060  19.597  1.00  0.00    -0.000 C 
BRANCH  26  27
ATOM     27  C   UNL     1       1.847  69.287  20.677  1.00  0.00    -0.000 C 
BRANCH  27  28
ATOM     28  C   UNL     1       3.211  68.626  20.397  1.00  0.00    -0.000 C 
BRANCH  28  29
ATOM     29  C   UNL     1       4.436  69.490  20.746  1.00  0.00    -0.003 C 
ATOM     30  C   UNL     1       4.932  69.272  22.174  1.00  0.00     0.004 C 
ENDBRANCH  28  29
ENDBRANCH  27  28
ENDBRANCH  26  27
ENDBRANCH  25  26
ENDBRANCH  24  25
ENDBRANCH  23  24
ENDBRANCH  22  23
ENDBRANCH  21  22
ENDBRANCH  20  21
ENDBRANCH  19  20
ENDBRANCH  18  19
ENDBRANCH  17  18
ENDBRANCH   1  17
TORSDOF 26
ENDMDL
MODEL 8
REMARK VINA RESULT:    -3.038      2.558      5.732
REMARK INTER + INTRA:         -12.857
REMARK INTER:                  -7.304
REMARK INTRA:                  -5.554
REMARK UNBOUND:                -5.202
REMARK SMILES CCCCCCCCCCCCCCCCCCCCCCCCCCCC(=O)[O-]
REMARK SMILES IDX 15 1 16 2 17 3 18 4 19 5 20 6 21 7 22 8 23 9 24 10 25 11
REMARK SMILES IDX 26 12 27 13 28 14 29 15 30 16 14 17 13 18 12 19 11 20 10 21
REMARK SMILES IDX 9 22 8 23 7 24 6 25 5 26 4 27 3 28 2 29 1 30
REMARK H PARENT
REMARK Flexibility Score: inf
ROOT
ATOM      1  C   UNL     1      -1.740  64.768  15.086  1.00  0.00     0.000 C 
ENDROOT
BRANCH   1   2
ATOM      2  C   UNL     1      -1.094  65.921  14.294  1.00  0.00     0.000 C 
BRANCH   2   3
ATOM      3  C   UNL     1      -0.039  66.689  15.103  1.00  0.00     0.000 C 
BRANCH   3   4
ATOM      4  C   UNL     1       1.345  66.577  14.453  1.00  0.00     0.000 C 
BRANCH   4   5
ATOM      5  C   UNL     1       1.237  66.022  13.024  1.00  0.00     0.000 C 
BRANCH   5   6
ATOM      6  C   UNL     1       2.610  65.805  12.369  1.00  0.00     0.000 C 
BRANCH   6   7
ATOM      7  C   UNL     1       3.166  67.084  11.724  1.00  0.00     0.000 C 
BRANCH   7   8
ATOM      8  C   UNL     1       4.431  67.562  12.452  1.00  0.00     0.000 C 
BRANCH   8   9
ATOM      9  C   UNL     1       4.380  69.053  12.831  1.00  0.00     0.000 C 
BRANCH   9  10
ATOM     10  C   UNL     1       3.849  69.346  14.246  1.00  0.00     0.000 C 
BRANCH  10  11
ATOM     11  C   UNL     1       2.779  70.447  14.268  1.00  0.00     0.000 C 
BRANCH  11  12
ATOM     12  C   UNL     1       1.497  69.979  13.564  1.00  0.00     0.006 C 
BRANCH  12  13
ATOM     13  C   UNL     1       0.873  71.083  12.699  1.00  0.00     0.053 C 
BRANCH  13  14
ATOM     14  C   UNL     1       1.876  71.691  11.767  1.00  0.00     0.041 C 
ATOM     15  O   UNL     1       2.304  71.036  10.781  1.00  0.00    -0.550 OA
ATOM     16  O   UNL     1       2.313  72.993  11.972  1.00  0.00    -0.550 OA
ENDBRANCH  13  14
ENDBRANCH  12  13
ENDBRANCH  11  12
ENDBRANCH  10  11
ENDBRANCH   9  10
ENDBRANCH   8   9
ENDBRANCH   7   8
ENDBRANCH   6   7
ENDBRANCH   5   6
ENDBRANCH   4   5
ENDBRANCH   3   4
ENDBRANCH   2   3
ENDBRANCH   1   2
BRANCH   1  17
ATOM     17  C   UNL     1      -1.245  64.607  16.535  1.00  0.00     0.000 C 
BRANCH  17  18
ATOM     18  C   UNL     1      -1.105  63.137  16.963  1.00  0.00     0.000 C 
BRANCH  18  19
ATOM     19  C   UNL     1       0.352  62.733  17.256  1.00  0.00     0.000 C 
BRANCH  19  20
ATOM     20  C   UNL     1       1.423  63.638  16.621  1.00  0.00     0.000 C 
BRANCH  20  21
ATOM     21  C   UNL     1       1.910  63.126  15.257  1.00  0.00     0.000 C 
BRANCH  21  22
ATOM     22  C   UNL     1       3.430  62.903  15.268  1.00  0.00    -0.000 C 
BRANCH  22  23
ATOM     23  C   UNL     1       4.175  63.928  16.139  1.00  0.00    -0.000 C 
BRANCH  23  24
ATOM     24  C   UNL     1       4.713  65.117  15.322  1.00  0.00    -0.000 C 
BRANCH  24  25
ATOM     25  C   UNL     1       4.849  66.398  16.162  1.00  0.00    -0.000 C 
BRANCH  25  26
ATOM     26  C   UNL     1       3.706  66.560  17.178  1.00  0.00    -0.000 C 
BRANCH  26  27
ATOM     27  C   UNL     1       3.422  68.033  17.528  1.00  0.00    -0.000 C 
BRANCH  27  28
ATOM     28  C   UNL     1       1.931  68.421  17.580  1.00  0.00    -0.000 C 
BRANCH  28  29
ATOM     29  C   UNL     1       1.656  69.925  17.759  1.00  0.00    -0.003 C 
ATOM     30  C   UNL     1       0.472  70.209  18.682  1.00  0.00     0.004 C 
ENDBRANCH  28  29
ENDBRANCH  27  28
ENDBRANCH  26  27
ENDBRANCH  25  26
ENDBRANCH  24  25
ENDBRANCH  23  24
ENDBRANCH  22  23
ENDBRANCH  21  22
ENDBRANCH  20  21
ENDBRANCH  19  20
ENDBRANCH  18  19
ENDBRANCH  17  18
ENDBRANCH   1  17
TORSDOF 26
ENDMDL
MODEL 9
REMARK VINA RESULT:    -3.014      4.093      7.829
REMARK INTER + INTRA:         -12.797
REMARK INTER:                  -7.085
REMARK INTRA:                  -5.712
REMARK UNBOUND:                -5.202
REMARK SMILES CCCCCCCCCCCCCCCCCCCCCCCCCCCC(=O)[O-]
REMARK SMILES IDX 15 1 16 2 17 3 18 4 19 5 20 6 21 7 22 8 23 9 24 10 25 11
REMARK SMILES IDX 26 12 27 13 28 14 29 15 30 16 14 17 13 18 12 19 11 20 10 21
REMARK SMILES IDX 9 22 8 23 7 24 6 25 5 26 4 27 3 28 2 29 1 30
REMARK H PARENT
REMARK Flexibility Score: inf
ROOT
ATOM      1  C   UNL     1       2.629  71.110  16.957  1.00  0.00     0.000 C 
ENDROOT
BRANCH   1   2
ATOM      2  C   UNL     1       2.372  69.904  16.034  1.00  0.00     0.000 C 
BRANCH   2   3
ATOM      3  C   UNL     1       3.377  68.762  16.243  1.00  0.00     0.000 C 
BRANCH   3   4
ATOM      4  C   UNL     1       2.669  67.480  16.698  1.00  0.00     0.000 C 
BRANCH   4   5
ATOM      5  C   UNL     1       1.175  67.521  16.338  1.00  0.00     0.000 C 
BRANCH   5   6
ATOM      6  C   UNL     1       0.287  66.905  17.431  1.00  0.00     0.000 C 
BRANCH   6   7
ATOM      7  C   UNL     1       0.783  65.526  17.888  1.00  0.00     0.000 C 
BRANCH   7   8
ATOM      8  C   UNL     1       0.307  64.424  16.930  1.00  0.00     0.000 C 
BRANCH   8   9
ATOM      9  C   UNL     1       1.340  63.298  16.746  1.00  0.00     0.000 C 
BRANCH   9  10
ATOM     10  C   UNL     1       2.009  63.247  15.360  1.00  0.00     0.000 C 
BRANCH  10  11
ATOM     11  C   UNL     1       1.506  64.345  14.412  1.00  0.00     0.000 C 
BRANCH  11  12
ATOM     12  C   UNL     1       2.682  65.120  13.798  1.00  0.00     0.006 C 
BRANCH  12  13
ATOM     13  C   UNL     1       4.029  64.713  14.411  1.00  0.00     0.053 C 
BRANCH  13  14
ATOM     14  C   UNL     1       5.037  65.818  14.318  1.00  0.00     0.041 C 
ATOM     15  O   UNL     1       6.061  65.806  15.048  1.00  0.00    -0.550 OA
ATOM     16  O   UNL     1       4.858  66.845  13.399  1.00  0.00    -0.550 OA
ENDBRANCH  13  14
ENDBRANCH  12  13
ENDBRANCH  11  12
ENDBRANCH  10  11
ENDBRANCH   9  10
ENDBRANCH   8   9
ENDBRANCH   7   8
ENDBRANCH   6   7
ENDBRANCH   5   6
ENDBRANCH   4   5
ENDBRANCH   3   4
ENDBRANCH   2   3
ENDBRANCH   1   2
BRANCH   1  17
ATOM     17  C   UNL     1       2.766  70.776  18.454  1.00  0.00     0.000 C 
BRANCH  17  18
ATOM     18  C   UNL     1       1.416  70.748  19.191  1.00  0.00     0.000 C 
BRANCH  18  19
ATOM     19  C   UNL     1       1.187  69.442  19.974  1.00  0.00     0.000 C 
BRANCH  19  20
ATOM     20  C   UNL     1       2.445  68.582  20.196  1.00  0.00     0.000 C 
BRANCH  20  21
ATOM     21  C   UNL     1       3.193  68.933  21.490  1.00  0.00     0.000 C 
BRANCH  21  22
ATOM     22  C   UNL     1       4.640  69.352  21.189  1.00  0.00    -0.000 C 
BRANCH  22  23
ATOM     23  C   UNL     1       5.670  68.573  22.023  1.00  0.00    -0.000 C 
BRANCH  23  24
ATOM     24  C   UNL     1       5.042  67.894  23.254  1.00  0.00    -0.000 C 
BRANCH  24  25
ATOM     25  C   UNL     1       5.479  66.428  23.407  1.00  0.00    -0.000 C 
BRANCH  25  26
ATOM     26  C   UNL     1       5.325  65.627  22.102  1.00  0.00    -0.000 C 
BRANCH  26  27
ATOM     27  C   UNL     1       3.890  65.113  21.883  1.00  0.00    -0.000 C 
BRANCH  27  28
ATOM     28  C   UNL     1       3.412  65.104  20.417  1.00  0.00    -0.000 C 
BRANCH  28  29
ATOM     29  C   UNL     1       4.447  65.603  19.392  1.00  0.00    -0.003 C 
ATOM     30  C   UNL     1       4.522  64.724  18.144  1.00  0.00     0.004 C 
ENDBRANCH  28  29
ENDBRANCH  27  28
ENDBRANCH  26  27
ENDBRANCH  25  26
ENDBRANCH  24  25
ENDBRANCH  23  24
ENDBRANCH  22  23
ENDBRANCH  21  22
ENDBRANCH  20  21
ENDBRANCH  19  20
ENDBRANCH  18  19
ENDBRANCH  17  18
ENDBRANCH   1  17
TORSDOF 26
ENDMDL
