MODEL 1
REMARK VINA RESULT:    -4.112      0.000      0.000
REMARK INTER + INTRA:          -6.600
REMARK INTER:                  -5.074
REMARK INTRA:                  -1.526
REMARK UNBOUND:                -1.526
REMARK SMILES CC(C)=CCC[C@@H](C)c1ccc(C)cc1
REMARK SMILES IDX 6 1 7 2 8 3 9 4 13 5 12 6 11 7 14 8 10 9 15 10 5 11 4 12
REMARK SMILES IDX 2 13 1 14 3 15
REMARK H PARENT
REMARK Flexibility Score: inf
ROOT
ATOM      1  C   UNL     1     -44.014 -13.470  -3.717  1.00  0.00     0.012 C 
ENDROOT
BRANCH   1   2
ATOM      2  C   UNL     1     -43.813 -14.865  -3.085  1.00  0.00     0.016 C 
ATOM      3  C   UNL     1     -42.395 -15.383  -3.353  1.00  0.00     0.013 C 
BRANCH   2   4
ATOM      4  C   UNL     1     -44.103 -14.856  -1.593  1.00  0.00    -0.045 A 
ATOM      5  C   UNL     1     -44.915 -14.716   2.647  1.00  0.00     0.044 C 
ATOM      6  C   UNL     1     -44.648 -14.793   1.173  1.00  0.00    -0.051 A 
ATOM      7  C   UNL     1     -45.535 -14.198   0.263  1.00  0.00     0.004 A 
ATOM      8  C   UNL     1     -43.478 -15.399   0.698  1.00  0.00     0.004 A 
ATOM      9  C   UNL     1     -45.267 -14.235  -1.109  1.00  0.00     0.004 A 
ATOM     10  C   UNL     1     -43.209 -15.437  -0.673  1.00  0.00     0.004 A 
ENDBRANCH   2   4
ENDBRANCH   1   2
BRANCH   1  11
ATOM     11  C   UNL     1     -42.859 -12.512  -3.382  1.00  0.00     0.028 C 
BRANCH  11  12
ATOM     12  C   UNL     1     -43.214 -11.637  -2.207  1.00  0.00    -0.028 C 
ATOM     13  C   UNL     1     -42.505 -11.586  -1.057  1.00  0.00    -0.080 C 
ATOM     14  C   UNL     1     -42.935 -10.657   0.049  1.00  0.00     0.039 C 
ATOM     15  C   UNL     1     -41.308 -12.472  -0.813  1.00  0.00     0.039 C 
ENDBRANCH  11  12
ENDBRANCH   1  11
TORSDOF 4
ENDMDL
MODEL 2
REMARK VINA RESULT:    -4.002      1.487      2.861
REMARK INTER + INTRA:          -6.464
REMARK INTER:                  -5.335
REMARK INTRA:                  -1.130
REMARK UNBOUND:                -1.526
REMARK SMILES CC(C)=CCC[C@@H](C)c1ccc(C)cc1
REMARK SMILES IDX 6 1 7 2 8 3 9 4 13 5 12 6 11 7 14 8 10 9 15 10 5 11 4 12
REMARK SMILES IDX 2 13 1 14 3 15
REMARK H PARENT
REMARK Flexibility Score: inf
ROOT
ATOM      1  C   UNL     1     -44.208 -12.478  -1.606  1.00  0.00     0.012 C 
ENDROOT
BRANCH   1   2
ATOM      2  C   UNL     1     -45.415 -13.302  -1.109  1.00  0.00     0.016 C 
ATOM      3  C   UNL     1     -45.899 -14.268  -2.198  1.00  0.00     0.013 C 
BRANCH   2   4
ATOM      4  C   UNL     1     -45.095 -14.059   0.169  1.00  0.00    -0.045 A 
ATOM      5  C   UNL     1     -44.174 -16.111   3.857  1.00  0.00     0.044 C 
ATOM      6  C   UNL     1     -44.508 -15.425   2.565  1.00  0.00    -0.051 A 
ATOM      7  C   UNL     1     -45.688 -14.676   2.449  1.00  0.00     0.004 A 
ATOM      8  C   UNL     1     -43.612 -15.471   1.489  1.00  0.00     0.004 A 
ATOM      9  C   UNL     1     -45.982 -14.004   1.258  1.00  0.00     0.004 A 
ATOM     10  C   UNL     1     -43.905 -14.800   0.299  1.00  0.00     0.004 A 
ENDBRANCH   2   4
ENDBRANCH   1   2
BRANCH   1  11
ATOM     11  C   UNL     1     -43.618 -13.043  -2.908  1.00  0.00     0.028 C 
BRANCH  11  12
ATOM     12  C   UNL     1     -42.161 -13.387  -2.730  1.00  0.00    -0.028 C 
ATOM     13  C   UNL     1     -41.666 -14.644  -2.795  1.00  0.00    -0.080 C 
ATOM     14  C   UNL     1     -40.186 -14.876  -2.625  1.00  0.00     0.039 C 
ATOM     15  C   UNL     1     -42.555 -15.849  -2.985  1.00  0.00     0.039 C 
ENDBRANCH  11  12
ENDBRANCH   1  11
TORSDOF 4
ENDMDL
MODEL 3
REMARK VINA RESULT:    -3.998      1.848      5.088
REMARK INTER + INTRA:          -6.459
REMARK INTER:                  -4.985
REMARK INTRA:                  -1.474
REMARK UNBOUND:                -1.526
REMARK SMILES CC(C)=CCC[C@@H](C)c1ccc(C)cc1
REMARK SMILES IDX 6 1 7 2 8 3 9 4 13 5 12 6 11 7 14 8 10 9 15 10 5 11 4 12
REMARK SMILES IDX 2 13 1 14 3 15
REMARK H PARENT
REMARK Flexibility Score: inf
ROOT
ATOM      1  C   UNL     1     -41.921 -14.082  -0.306  1.00  0.00     0.012 C 
ENDROOT
BRANCH   1   2
ATOM      2  C   UNL     1     -40.790 -13.281  -0.989  1.00  0.00     0.016 C 
ATOM      3  C   UNL     1     -39.957 -14.188  -1.902  1.00  0.00     0.013 C 
BRANCH   2   4
ATOM      4  C   UNL     1     -41.331 -12.094  -1.768  1.00  0.00    -0.045 A 
ATOM      5  C   UNL     1     -42.962  -8.779  -4.007  1.00  0.00     0.044 C 
ATOM      6  C   UNL     1     -42.377  -9.910  -3.213  1.00  0.00    -0.051 A 
ATOM      7  C   UNL     1     -43.001 -10.342  -2.034  1.00  0.00     0.004 A 
ATOM      8  C   UNL     1     -41.242 -10.586  -3.680  1.00  0.00     0.004 A 
ATOM      9  C   UNL     1     -42.479 -11.421  -1.314  1.00  0.00     0.004 A 
ATOM     10  C   UNL     1     -40.719 -11.665  -2.961  1.00  0.00     0.004 A 
ENDBRANCH   2   4
ENDBRANCH   1   2
BRANCH   1  11
ATOM     11  C   UNL     1     -42.536 -15.130  -1.248  1.00  0.00     0.028 C 
BRANCH  11  12
ATOM     12  C   UNL     1     -44.019 -14.904  -1.402  1.00  0.00    -0.028 C 
ATOM     13  C   UNL     1     -44.597 -14.397  -2.514  1.00  0.00    -0.080 C 
ATOM     14  C   UNL     1     -46.095 -14.233  -2.572  1.00  0.00     0.039 C 
ATOM     15  C   UNL     1     -43.787 -13.934  -3.700  1.00  0.00     0.039 C 
ENDBRANCH  11  12
ENDBRANCH   1  11
TORSDOF 4
ENDMDL
MODEL 4
REMARK VINA RESULT:    -3.971      1.447      4.489
REMARK INTER + INTRA:          -6.426
REMARK INTER:                  -4.945
REMARK INTRA:                  -1.481
REMARK UNBOUND:                -1.526
REMARK SMILES CC(C)=CCC[C@@H](C)c1ccc(C)cc1
REMARK SMILES IDX 6 1 7 2 8 3 9 4 13 5 12 6 11 7 14 8 10 9 15 10 5 11 4 12
REMARK SMILES IDX 2 13 1 14 3 15
REMARK H PARENT
REMARK Flexibility Score: inf
ROOT
ATOM      1  C   UNL     1     -42.320 -14.892   0.249  1.00  0.00     0.012 C 
ENDROOT
BRANCH   1   2
ATOM      2  C   UNL     1     -41.979 -14.863  -1.257  1.00  0.00     0.016 C 
ATOM      3  C   UNL     1     -42.852 -15.858  -2.031  1.00  0.00     0.013 C 
BRANCH   2   4
ATOM      4  C   UNL     1     -42.117 -13.468  -1.841  1.00  0.00    -0.045 A 
ATOM      5  C   UNL     1     -42.455  -9.534  -3.595  1.00  0.00     0.044 C 
ATOM      6  C   UNL     1     -42.363 -10.894  -2.968  1.00  0.00    -0.051 A 
ATOM      7  C   UNL     1     -43.001 -11.991  -3.564  1.00  0.00     0.004 A 
ATOM      8  C   UNL     1     -41.584 -11.091  -1.819  1.00  0.00     0.004 A 
ATOM      9  C   UNL     1     -42.884 -13.266  -3.002  1.00  0.00     0.004 A 
ATOM     10  C   UNL     1     -41.466 -12.364  -1.257  1.00  0.00     0.004 A 
ENDBRANCH   2   4
ENDBRANCH   1   2
BRANCH   1  11
ATOM     11  C   UNL     1     -43.836 -14.951   0.497  1.00  0.00     0.028 C 
BRANCH  11  12
ATOM     12  C   UNL     1     -44.412 -13.563   0.622  1.00  0.00    -0.028 C 
ATOM     13  C   UNL     1     -45.385 -13.071  -0.179  1.00  0.00    -0.080 C 
ATOM     14  C   UNL     1     -45.906 -11.675   0.047  1.00  0.00     0.039 C 
ATOM     15  C   UNL     1     -45.944 -13.858  -1.339  1.00  0.00     0.039 C 
ENDBRANCH  11  12
ENDBRANCH   1  11
TORSDOF 4
ENDMDL
MODEL 5
REMARK VINA RESULT:    -3.962      1.896      3.791
REMARK INTER + INTRA:          -6.415
REMARK INTER:                  -4.993
REMARK INTRA:                  -1.422
REMARK UNBOUND:                -1.526
REMARK SMILES CC(C)=CCC[C@@H](C)c1ccc(C)cc1
REMARK SMILES IDX 6 1 7 2 8 3 9 4 13 5 12 6 11 7 14 8 10 9 15 10 5 11 4 12
REMARK SMILES IDX 2 13 1 14 3 15
REMARK H PARENT
REMARK Flexibility Score: inf
ROOT
ATOM      1  C   UNL     1     -44.550 -15.754  -2.989  1.00  0.00     0.012 C 
ENDROOT
BRANCH   1   2
ATOM      2  C   UNL     1     -44.760 -14.411  -3.722  1.00  0.00     0.016 C 
ATOM      3  C   UNL     1     -46.233 -14.228  -4.109  1.00  0.00     0.013 C 
BRANCH   2   4
ATOM      4  C   UNL     1     -44.277 -13.233  -2.892  1.00  0.00    -0.045 A 
ATOM      5  C   UNL     1     -42.803  -9.937  -0.521  1.00  0.00     0.044 C 
ATOM      6  C   UNL     1     -43.338 -11.062  -1.357  1.00  0.00    -0.051 A 
ATOM      7  C   UNL     1     -42.779 -11.334  -2.614  1.00  0.00     0.004 A 
ATOM      8  C   UNL     1     -44.352 -11.891  -0.860  1.00  0.00     0.004 A 
ATOM      9  C   UNL     1     -43.249 -12.407  -3.378  1.00  0.00     0.004 A 
ATOM     10  C   UNL     1     -44.823 -12.964  -1.622  1.00  0.00     0.004 A 
ENDBRANCH   2   4
ENDBRANCH   1   2
BRANCH   1  11
ATOM     11  C   UNL     1     -43.065 -16.031  -2.706  1.00  0.00     0.028 C 
BRANCH  11  12
ATOM     12  C   UNL     1     -42.721 -15.693  -1.277  1.00  0.00    -0.028 C 
ATOM     13  C   UNL     1     -41.669 -14.926  -0.911  1.00  0.00    -0.080 C 
ATOM     14  C   UNL     1     -41.429 -14.630   0.547  1.00  0.00     0.039 C 
ATOM     15  C   UNL     1     -40.681 -14.387  -1.917  1.00  0.00     0.039 C 
ENDBRANCH  11  12
ENDBRANCH   1  11
TORSDOF 4
ENDMDL
MODEL 6
REMARK VINA RESULT:    -3.946      7.194      9.226
REMARK INTER + INTRA:          -6.395
REMARK INTER:                  -4.856
REMARK INTRA:                  -1.539
REMARK UNBOUND:                -1.526
REMARK SMILES CC(C)=CCC[C@@H](C)c1ccc(C)cc1
REMARK SMILES IDX 6 1 7 2 8 3 9 4 13 5 12 6 11 7 14 8 10 9 15 10 5 11 4 12
REMARK SMILES IDX 2 13 1 14 3 15
REMARK H PARENT
REMARK Flexibility Score: inf
ROOT
ATOM      1  C   UNL     1     -45.725 -18.218   4.438  1.00  0.00     0.012 C 
ENDROOT
BRANCH   1   2
ATOM      2  C   UNL     1     -46.219 -16.849   4.956  1.00  0.00     0.016 C 
ATOM      3  C   UNL     1     -47.457 -17.019   5.845  1.00  0.00     0.013 C 
BRANCH   2   4
ATOM      4  C   UNL     1     -45.128 -16.100   5.702  1.00  0.00    -0.045 A 
ATOM      5  C   UNL     1     -42.078 -13.871   7.798  1.00  0.00     0.044 C 
ATOM      6  C   UNL     1     -43.129 -14.671   7.087  1.00  0.00    -0.051 A 
ATOM      7  C   UNL     1     -44.449 -14.683   7.562  1.00  0.00     0.004 A 
ATOM      8  C   UNL     1     -42.816 -15.357   5.906  1.00  0.00     0.004 A 
ATOM      9  C   UNL     1     -45.438 -15.396   6.879  1.00  0.00     0.004 A 
ATOM     10  C   UNL     1     -43.804 -16.071   5.222  1.00  0.00     0.004 A 
ENDBRANCH   2   4
ENDBRANCH   1   2
BRANCH   1  11
ATOM     11  C   UNL     1     -45.808 -19.308   5.518  1.00  0.00     0.028 C 
BRANCH  11  12
ATOM     12  C   UNL     1     -44.462 -19.527   6.162  1.00  0.00    -0.028 C 
ATOM     13  C   UNL     1     -44.202 -19.306   7.471  1.00  0.00    -0.080 C 
ATOM     14  C   UNL     1     -42.825 -19.579   8.018  1.00  0.00     0.039 C 
ATOM     15  C   UNL     1     -45.239 -18.742   8.411  1.00  0.00     0.039 C 
ENDBRANCH  11  12
ENDBRANCH   1  11
TORSDOF 4
ENDMDL
MODEL 7
REMARK VINA RESULT:    -3.920      8.469     10.737
REMARK INTER + INTRA:          -6.363
REMARK INTER:                  -4.853
REMARK INTRA:                  -1.509
REMARK UNBOUND:                -1.526
REMARK SMILES CC(C)=CCC[C@@H](C)c1ccc(C)cc1
REMARK SMILES IDX 6 1 7 2 8 3 9 4 13 5 12 6 11 7 14 8 10 9 15 10 5 11 4 12
REMARK SMILES IDX 2 13 1 14 3 15
REMARK H PARENT
REMARK Flexibility Score: inf
ROOT
ATOM      1  C   UNL     1     -47.454 -18.799   7.993  1.00  0.00     0.012 C 
ENDROOT
BRANCH   1   2
ATOM      2  C   UNL     1     -46.427 -17.701   8.347  1.00  0.00     0.016 C 
ATOM      3  C   UNL     1     -46.351 -17.497   9.864  1.00  0.00     0.013 C 
BRANCH   2   4
ATOM      4  C   UNL     1     -45.051 -18.012   7.782  1.00  0.00    -0.045 A 
ATOM      5  C   UNL     1     -41.095 -18.888   6.284  1.00  0.00     0.044 C 
ATOM      6  C   UNL     1     -42.482 -18.598   6.778  1.00  0.00    -0.051 A 
ATOM      7  C   UNL     1     -43.118 -19.488   7.656  1.00  0.00     0.004 A 
ATOM      8  C   UNL     1     -43.123 -17.404   6.423  1.00  0.00     0.004 A 
ATOM      9  C   UNL     1     -44.395 -19.201   8.148  1.00  0.00     0.004 A 
ATOM     10  C   UNL     1     -44.399 -17.116   6.914  1.00  0.00     0.004 A 
ENDBRANCH   2   4
ENDBRANCH   1   2
BRANCH   1  11
ATOM     11  C   UNL     1     -47.604 -18.982   6.474  1.00  0.00     0.028 C 
BRANCH  11  12
ATOM     12  C   UNL     1     -47.232 -20.385   6.066  1.00  0.00    -0.028 C 
ATOM     13  C   UNL     1     -46.236 -20.685   5.202  1.00  0.00    -0.080 C 
ATOM     14  C   UNL     1     -45.931 -22.125   4.879  1.00  0.00     0.039 C 
ATOM     15  C   UNL     1     -45.435 -19.616   4.499  1.00  0.00     0.039 C 
ENDBRANCH  11  12
ENDBRANCH   1  11
TORSDOF 4
ENDMDL
MODEL 8
REMARK VINA RESULT:    -3.875      1.103      2.058
REMARK INTER + INTRA:          -6.307
REMARK INTER:                  -4.959
REMARK INTRA:                  -1.348
REMARK UNBOUND:                -1.526
REMARK SMILES CC(C)=CCC[C@@H](C)c1ccc(C)cc1
REMARK SMILES IDX 6 1 7 2 8 3 9 4 13 5 12 6 11 7 14 8 10 9 15 10 5 11 4 12
REMARK SMILES IDX 2 13 1 14 3 15
REMARK H PARENT
REMARK Flexibility Score: inf
ROOT
ATOM      1  C   UNL     1     -41.124 -14.782  -2.119  1.00  0.00     0.012 C 
ENDROOT
BRANCH   1   2
ATOM      2  C   UNL     1     -42.594 -15.073  -2.495  1.00  0.00     0.016 C 
ATOM      3  C   UNL     1     -42.761 -16.530  -2.943  1.00  0.00     0.013 C 
BRANCH   2   4
ATOM      4  C   UNL     1     -43.542 -14.756  -1.351  1.00  0.00    -0.045 A 
ATOM      5  C   UNL     1     -46.248 -13.966   1.922  1.00  0.00     0.044 C 
ATOM      6  C   UNL     1     -45.297 -14.210   0.788  1.00  0.00    -0.051 A 
ATOM      7  C   UNL     1     -44.038 -14.778   1.033  1.00  0.00     0.004 A 
ATOM      8  C   UNL     1     -45.685 -13.937  -0.530  1.00  0.00     0.004 A 
ATOM      9  C   UNL     1     -43.166 -15.042  -0.027  1.00  0.00     0.004 A 
ATOM     10  C   UNL     1     -44.814 -14.201  -1.591  1.00  0.00     0.004 A 
ENDBRANCH   2   4
ENDBRANCH   1   2
BRANCH   1  11
ATOM     11  C   UNL     1     -40.703 -13.352  -2.499  1.00  0.00     0.028 C 
BRANCH  11  12
ATOM     12  C   UNL     1     -40.973 -12.397  -1.364  1.00  0.00    -0.028 C 
ATOM     13  C   UNL     1     -41.965 -11.477  -1.366  1.00  0.00    -0.080 C 
ATOM     14  C   UNL     1     -42.162 -10.585  -0.168  1.00  0.00     0.039 C 
ATOM     15  C   UNL     1     -42.865 -11.271  -2.560  1.00  0.00     0.039 C 
ENDBRANCH  11  12
ENDBRANCH   1  11
TORSDOF 4
ENDMDL
