MODEL 1
REMARK VINA RESULT:    -2.866      0.000      0.000
REMARK INTER + INTRA:          -3.453
REMARK INTER:                  -3.201
REMARK INTRA:                  -0.253
REMARK UNBOUND:                -0.253
REMARK SMILES CC(=O)c1ccc(O)cc1O
REMARK SMILES IDX 4 1 10 2 9 3 7 4 6 5 5 6 2 7 1 8 3 9 11 10 8 12
REMARK H PARENT 11 11 8 13
REMARK Flexibility Score: inf
ROOT
ATOM      1  C   UNL     1      10.684  14.591   1.391  1.00  0.00     0.059 A 
ATOM      2  C   UNL     1      10.787  15.996   1.540  1.00  0.00     0.130 A 
ATOM      3  C   UNL     1       9.637  16.754   1.798  1.00  0.00     0.093 A 
ATOM      4  C   UNL     1       8.383  16.144   1.877  1.00  0.00     0.119 A 
ATOM      5  C   UNL     1       8.273  14.761   1.700  1.00  0.00     0.047 A 
ATOM      6  C   UNL     1       9.413  13.991   1.460  1.00  0.00     0.019 A 
ENDROOT
BRANCH   1   7
ATOM      7  C   UNL     1      11.877  13.732   1.201  1.00  0.00     0.163 C 
ATOM      8  C   UNL     1      12.030  12.879  -0.020  1.00  0.00     0.093 C 
ATOM      9  O   UNL     1      12.742  13.647   2.114  1.00  0.00    -0.294 OA
ENDBRANCH   1   7
BRANCH   2  10
ATOM     10  O   UNL     1      12.001  16.677   1.410  1.00  0.00    -0.507 OA
ATOM     11  H   UNL     1      12.182  17.354   0.682  1.00  0.00     0.293 HD
ENDBRANCH   2  10
BRANCH   4  12
ATOM     12  O   UNL     1       7.255  16.921   2.125  1.00  0.00    -0.508 OA
ATOM     13  H   UNL     1       7.158  17.853   1.739  1.00  0.00     0.293 HD
ENDBRANCH   4  12
TORSDOF 3
ENDMDL
MODEL 2
REMARK VINA RESULT:    -2.428      1.863      4.486
REMARK INTER + INTRA:          -2.965
REMARK INTER:                  -2.749
REMARK INTRA:                  -0.215
REMARK UNBOUND:                -0.253
REMARK SMILES CC(=O)c1ccc(O)cc1O
REMARK SMILES IDX 4 1 10 2 9 3 7 4 6 5 5 6 2 7 1 8 3 9 11 10 8 12
REMARK H PARENT 11 11 8 13
REMARK Flexibility Score: inf
ROOT
ATOM      1  C   UNL     1       9.918  14.742   1.256  1.00  0.00     0.059 A 
ATOM      2  C   UNL     1       9.955  14.160  -0.036  1.00  0.00     0.130 A 
ATOM      3  C   UNL     1      11.125  13.530  -0.481  1.00  0.00     0.093 A 
ATOM      4  C   UNL     1      12.268  13.499   0.321  1.00  0.00     0.119 A 
ATOM      5  C   UNL     1      12.245  14.099   1.585  1.00  0.00     0.047 A 
ATOM      6  C   UNL     1      11.080  14.713   2.048  1.00  0.00     0.019 A 
ENDROOT
BRANCH   1   7
ATOM      7  C   UNL     1       8.682  15.345   1.810  1.00  0.00     0.163 C 
ATOM      8  C   UNL     1       8.599  16.812   2.098  1.00  0.00     0.093 C 
ATOM      9  O   UNL     1       7.709  14.608   2.125  1.00  0.00    -0.294 OA
ENDBRANCH   1   7
BRANCH   2  10
ATOM     10  O   UNL     1       8.868  14.212  -0.913  1.00  0.00    -0.507 OA
ATOM     11  H   UNL     1       8.958  14.432  -1.895  1.00  0.00     0.293 HD
ENDBRANCH   2  10
BRANCH   4  12
ATOM     12  O   UNL     1      13.420  12.875  -0.148  1.00  0.00    -0.508 OA
ATOM     13  H   UNL     1      13.600  11.893   0.026  1.00  0.00     0.293 HD
ENDBRANCH   4  12
TORSDOF 3
ENDMDL
MODEL 3
REMARK VINA RESULT:    -1.837      1.368      3.995
REMARK INTER + INTRA:          -2.304
REMARK INTER:                  -2.022
REMARK INTRA:                  -0.282
REMARK UNBOUND:                -0.253
REMARK SMILES CC(=O)c1ccc(O)cc1O
REMARK SMILES IDX 4 1 10 2 9 3 7 4 6 5 5 6 2 7 1 8 3 9 11 10 8 12
REMARK H PARENT 11 11 8 13
REMARK Flexibility Score: inf
ROOT
ATOM      1  C   UNL     1       9.668  15.111   1.238  1.00  0.00     0.059 A 
ATOM      2  C   UNL     1      10.971  15.660   1.336  1.00  0.00     0.130 A 
ATOM      3  C   UNL     1      12.034  15.054   0.653  1.00  0.00     0.093 A 
ATOM      4  C   UNL     1      11.830  13.894  -0.097  1.00  0.00     0.119 A 
ATOM      5  C   UNL     1      10.552  13.331  -0.172  1.00  0.00     0.047 A 
ATOM      6  C   UNL     1       9.480  13.935   0.489  1.00  0.00     0.019 A 
ENDROOT
BRANCH   1   7
ATOM      7  C   UNL     1       8.493  15.759   1.870  1.00  0.00     0.163 C 
ATOM      8  C   UNL     1       7.232  14.993   2.125  1.00  0.00     0.093 C 
ATOM      9  O   UNL     1       8.517  16.994   2.123  1.00  0.00    -0.294 OA
ENDBRANCH   1   7
BRANCH   2  10
ATOM     10  O   UNL     1      11.254  16.781   2.121  1.00  0.00    -0.507 OA
ATOM     11  H   UNL     1      10.846  17.691   1.958  1.00  0.00     0.293 HD
ENDBRANCH   2  10
BRANCH   4  12
ATOM     12  O   UNL     1      12.906  13.306  -0.758  1.00  0.00    -0.508 OA
ATOM     13  H   UNL     1      12.765  12.635  -1.505  1.00  0.00     0.293 HD
ENDBRANCH   4  12
TORSDOF 3
ENDMDL
MODEL 4
REMARK VINA RESULT:    -1.818      1.760      2.368
REMARK INTER + INTRA:          -2.283
REMARK INTER:                  -1.976
REMARK INTRA:                  -0.307
REMARK UNBOUND:                -0.253
REMARK SMILES CC(=O)c1ccc(O)cc1O
REMARK SMILES IDX 4 1 10 2 9 3 7 4 6 5 5 6 2 7 1 8 3 9 11 10 8 12
REMARK H PARENT 11 11 8 13
REMARK Flexibility Score: inf
ROOT
ATOM      1  C   UNL     1      11.416  14.247   1.064  1.00  0.00     0.059 A 
ATOM      2  C   UNL     1      10.222  14.130   0.309  1.00  0.00     0.130 A 
ATOM      3  C   UNL     1       9.213  15.091   0.453  1.00  0.00     0.093 A 
ATOM      4  C   UNL     1       9.356  16.147   1.356  1.00  0.00     0.119 A 
ATOM      5  C   UNL     1      10.520  16.248   2.125  1.00  0.00     0.047 A 
ATOM      6  C   UNL     1      11.541  15.307   1.979  1.00  0.00     0.019 A 
ENDROOT
BRANCH   1   7
ATOM      7  C   UNL     1      12.549  13.306   0.890  1.00  0.00     0.163 C 
ATOM      8  C   UNL     1      13.386  12.879   2.056  1.00  0.00     0.093 C 
ATOM      9  O   UNL     1      12.874  12.921  -0.266  1.00  0.00    -0.294 OA
ENDBRANCH   1   7
BRANCH   2  10
ATOM     10  O   UNL     1       9.988  13.065  -0.564  1.00  0.00    -0.507 OA
ATOM     11  H   UNL     1      10.608  12.272  -0.652  1.00  0.00     0.293 HD
ENDBRANCH   2  10
BRANCH   4  12
ATOM     12  O   UNL     1       8.334  17.084   1.486  1.00  0.00    -0.508 OA
ATOM     13  H   UNL     1       7.640  17.012   2.221  1.00  0.00     0.293 HD
ENDBRANCH   4  12
TORSDOF 3
ENDMDL
MODEL 5
REMARK VINA RESULT:    -0.715      1.429      2.265
REMARK INTER + INTRA:          -1.051
REMARK INTER:                  -0.868
REMARK INTRA:                  -0.183
REMARK UNBOUND:                -0.253
REMARK SMILES CC(=O)c1ccc(O)cc1O
REMARK SMILES IDX 4 1 10 2 9 3 7 4 6 5 5 6 2 7 1 8 3 9 11 10 8 12
REMARK H PARENT 11 11 8 13
REMARK Flexibility Score: inf
ROOT
ATOM      1  C   UNL     1       9.966  15.066   1.400  1.00  0.00     0.059 A 
ATOM      2  C   UNL     1       8.701  14.618   1.854  1.00  0.00     0.130 A 
ATOM      3  C   UNL     1       7.674  15.545   2.077  1.00  0.00     0.093 A 
ATOM      4  C   UNL     1       7.894  16.911   1.888  1.00  0.00     0.119 A 
ATOM      5  C   UNL     1       9.150  17.360   1.468  1.00  0.00     0.047 A 
ATOM      6  C   UNL     1      10.176  16.446   1.225  1.00  0.00     0.019 A 
ENDROOT
BRANCH   1   7
ATOM      7  C   UNL     1      11.060  14.122   1.068  1.00  0.00     0.163 C 
ATOM      8  C   UNL     1      11.297  13.676  -0.342  1.00  0.00     0.093 C 
ATOM      9  O   UNL     1      11.754  13.615   1.990  1.00  0.00    -0.294 OA
ENDBRANCH   1   7
BRANCH   2  10
ATOM     10  O   UNL     1       8.435  13.273   2.125  1.00  0.00    -0.507 OA
ATOM     11  H   UNL     1       9.157  12.582   2.270  1.00  0.00     0.293 HD
ENDBRANCH   2  10
BRANCH   4  12
ATOM     12  O   UNL     1       6.859  17.813   2.124  1.00  0.00    -0.508 OA
ATOM     13  H   UNL     1       6.519  17.994   3.061  1.00  0.00     0.293 HD
ENDBRANCH   4  12
TORSDOF 3
ENDMDL
