MODEL 1
REMARK VINA RESULT:    -4.309      0.000      0.000
REMARK INTER + INTRA:          -9.315
REMARK INTER:                  -7.836
REMARK INTRA:                  -1.479
REMARK UNBOUND:                -1.479
REMARK SMILES CCCCCCCCCCCCCCCC(=O)[O-]
REMARK SMILES IDX 9 1 10 2 11 3 12 4 13 5 14 6 15 7 16 8 17 9 18 10 8 11 7 12
REMARK SMILES IDX 6 13 5 14 4 15 3 16 2 17 1 18
REMARK H PARENT
REMARK Flexibility Score: inf
ROOT
ATOM      1  C   UNL     1     -31.544  14.328  13.021  1.00  0.00     0.000 C 
ENDROOT
BRANCH   1   2
ATOM      2  C   UNL     1     -33.032  14.161  13.369  1.00  0.00     0.000 C 
BRANCH   2   3
ATOM      3  C   UNL     1     -33.548  12.732  13.122  1.00  0.00     0.000 C 
BRANCH   3   4
ATOM      4  C   UNL     1     -32.689  11.608  13.737  1.00  0.00     0.000 C 
BRANCH   4   5
ATOM      5  C   UNL     1     -32.552  10.338  12.876  1.00  0.00     0.000 C 
BRANCH   5   6
ATOM      6  C   UNL     1     -31.106   9.942  12.515  1.00  0.00     0.006 C 
BRANCH   6   7
ATOM      7  C   UNL     1     -30.206  11.136  12.150  1.00  0.00     0.053 C 
BRANCH   7   8
ATOM      8  C   UNL     1     -28.932  11.155  12.939  1.00  0.00     0.041 C 
ATOM      9  O   UNL     1     -28.311  10.084  13.168  1.00  0.00    -0.550 OA
ATOM     10  O   UNL     1     -28.411  12.360  13.392  1.00  0.00    -0.550 OA
ENDBRANCH   7   8
ENDBRANCH   6   7
ENDBRANCH   5   6
ENDBRANCH   4   5
ENDBRANCH   3   4
ENDBRANCH   2   3
ENDBRANCH   1   2
BRANCH   1  11
ATOM     11  C   UNL     1     -30.719  14.868  14.200  1.00  0.00     0.000 C 
BRANCH  11  12
ATOM     12  C   UNL     1     -31.256  14.405  15.563  1.00  0.00    -0.000 C 
BRANCH  12  13
ATOM     13  C   UNL     1     -30.312  13.382  16.206  1.00  0.00    -0.000 C 
BRANCH  13  14
ATOM     14  C   UNL     1     -29.276  14.077  17.102  1.00  0.00    -0.000 C 
BRANCH  14  15
ATOM     15  C   UNL     1     -29.875  15.239  17.909  1.00  0.00    -0.000 C 
BRANCH  15  16
ATOM     16  C   UNL     1     -29.024  16.515  17.830  1.00  0.00    -0.000 C 
BRANCH  16  17
ATOM     17  C   UNL     1     -28.440  16.870  19.203  1.00  0.00    -0.003 C 
ATOM     18  C   UNL     1     -27.068  16.231  19.401  1.00  0.00     0.004 C 
ENDBRANCH  16  17
ENDBRANCH  15  16
ENDBRANCH  14  15
ENDBRANCH  13  14
ENDBRANCH  12  13
ENDBRANCH  11  12
ENDBRANCH   1  11
TORSDOF 14
ENDMDL
MODEL 2
REMARK VINA RESULT:    -4.277      1.263      2.275
REMARK INTER + INTRA:          -9.257
REMARK INTER:                  -8.152
REMARK INTRA:                  -1.105
REMARK UNBOUND:                -1.479
REMARK SMILES CCCCCCCCCCCCCCCC(=O)[O-]
REMARK SMILES IDX 9 1 10 2 11 3 12 4 13 5 14 6 15 7 16 8 17 9 18 10 8 11 7 12
REMARK SMILES IDX 6 13 5 14 4 15 3 16 2 17 1 18
REMARK H PARENT
REMARK Flexibility Score: inf
ROOT
ATOM      1  C   UNL     1     -31.142  14.668  15.598  1.00  0.00     0.000 C 
ENDROOT
BRANCH   1   2
ATOM      2  C   UNL     1     -31.008  14.972  14.096  1.00  0.00     0.000 C 
BRANCH   2   3
ATOM      3  C   UNL     1     -32.169  14.397  13.264  1.00  0.00     0.000 C 
BRANCH   3   4
ATOM      4  C   UNL     1     -32.932  13.228  13.918  1.00  0.00     0.000 C 
BRANCH   4   5
ATOM      5  C   UNL     1     -32.785  11.868  13.210  1.00  0.00     0.000 C 
BRANCH   5   6
ATOM      6  C   UNL     1     -31.459  11.128  13.477  1.00  0.00     0.006 C 
BRANCH   6   7
ATOM      7  C   UNL     1     -30.403  11.324  12.374  1.00  0.00     0.053 C 
BRANCH   7   8
ATOM      8  C   UNL     1     -29.003  11.293  12.909  1.00  0.00     0.041 C 
ATOM      9  O   UNL     1     -28.482  12.336  13.383  1.00  0.00    -0.550 OA
ATOM     10  O   UNL     1     -28.286  10.103  12.915  1.00  0.00    -0.550 OA
ENDBRANCH   7   8
ENDBRANCH   6   7
ENDBRANCH   5   6
ENDBRANCH   4   5
ENDBRANCH   3   4
ENDBRANCH   2   3
ENDBRANCH   1   2
BRANCH   1  11
ATOM     11  C   UNL     1     -29.826  14.173  16.219  1.00  0.00     0.000 C 
BRANCH  11  12
ATOM     12  C   UNL     1     -28.605  14.971  15.737  1.00  0.00    -0.000 C 
BRANCH  12  13
ATOM     13  C   UNL     1     -27.831  15.558  16.924  1.00  0.00    -0.000 C 
BRANCH  13  14
ATOM     14  C   UNL     1     -28.789  16.150  17.969  1.00  0.00    -0.000 C 
BRANCH  14  15
ATOM     15  C   UNL     1     -28.052  16.788  19.156  1.00  0.00    -0.000 C 
BRANCH  15  16
ATOM     16  C   UNL     1     -28.870  17.897  19.834  1.00  0.00    -0.000 C 
BRANCH  16  17
ATOM     17  C   UNL     1     -28.571  17.957  21.336  1.00  0.00    -0.003 C 
ATOM     18  C   UNL     1     -27.139  18.414  21.597  1.00  0.00     0.004 C 
ENDBRANCH  16  17
ENDBRANCH  15  16
ENDBRANCH  14  15
ENDBRANCH  13  14
ENDBRANCH  12  13
ENDBRANCH  11  12
ENDBRANCH   1  11
TORSDOF 14
ENDMDL
MODEL 3
REMARK VINA RESULT:    -4.216      1.582      2.710
REMARK INTER + INTRA:          -9.145
REMARK INTER:                  -6.777
REMARK INTRA:                  -2.368
REMARK UNBOUND:                -1.479
REMARK SMILES CCCCCCCCCCCCCCCC(=O)[O-]
REMARK SMILES IDX 9 1 10 2 11 3 12 4 13 5 14 6 15 7 16 8 17 9 18 10 8 11 7 12
REMARK SMILES IDX 6 13 5 14 4 15 3 16 2 17 1 18
REMARK H PARENT
REMARK Flexibility Score: inf
ROOT
ATOM      1  C   UNL     1     -32.752  13.339  13.102  1.00  0.00     0.000 C 
ENDROOT
BRANCH   1   2
ATOM      2  C   UNL     1     -31.539  14.231  12.787  1.00  0.00     0.000 C 
BRANCH   2   3
ATOM      3  C   UNL     1     -31.042  15.019  14.013  1.00  0.00     0.000 C 
BRANCH   3   4
ATOM      4  C   UNL     1     -29.700  14.540  14.602  1.00  0.00     0.000 C 
BRANCH   4   5
ATOM      5  C   UNL     1     -29.193  13.186  14.070  1.00  0.00     0.000 C 
BRANCH   5   6
ATOM      6  C   UNL     1     -29.553  11.963  14.937  1.00  0.00     0.006 C 
BRANCH   6   7
ATOM      7  C   UNL     1     -30.180  10.801  14.147  1.00  0.00     0.053 C 
BRANCH   7   8
ATOM      8  C   UNL     1     -29.203  10.149  13.215  1.00  0.00     0.041 C 
ATOM      9  O   UNL     1     -29.588   9.706  12.102  1.00  0.00    -0.550 OA
ATOM     10  O   UNL     1     -27.862  10.061  13.562  1.00  0.00    -0.550 OA
ENDBRANCH   7   8
ENDBRANCH   6   7
ENDBRANCH   5   6
ENDBRANCH   4   5
ENDBRANCH   3   4
ENDBRANCH   2   3
ENDBRANCH   1   2
BRANCH   1  11
ATOM     11  C   UNL     1     -33.403  13.682  14.451  1.00  0.00     0.000 C 
BRANCH  11  12
ATOM     12  C   UNL     1     -33.258  12.554  15.484  1.00  0.00    -0.000 C 
BRANCH  12  13
ATOM     13  C   UNL     1     -33.324  13.108  16.913  1.00  0.00    -0.000 C 
BRANCH  13  14
ATOM     14  C   UNL     1     -31.946  13.051  17.589  1.00  0.00    -0.000 C 
BRANCH  14  15
ATOM     15  C   UNL     1     -31.285  14.434  17.706  1.00  0.00    -0.000 C 
BRANCH  15  16
ATOM     16  C   UNL     1     -29.868  14.365  18.295  1.00  0.00    -0.000 C 
BRANCH  16  17
ATOM     17  C   UNL     1     -29.178  15.732  18.222  1.00  0.00    -0.003 C 
ATOM     18  C   UNL     1     -27.818  15.627  17.537  1.00  0.00     0.004 C 
ENDBRANCH  16  17
ENDBRANCH  15  16
ENDBRANCH  14  15
ENDBRANCH  13  14
ENDBRANCH  12  13
ENDBRANCH  11  12
ENDBRANCH   1  11
TORSDOF 14
ENDMDL
MODEL 4
REMARK VINA RESULT:    -4.174      1.483      2.581
REMARK INTER + INTRA:          -9.069
REMARK INTER:                  -7.413
REMARK INTRA:                  -1.656
REMARK UNBOUND:                -1.479
REMARK SMILES CCCCCCCCCCCCCCCC(=O)[O-]
REMARK SMILES IDX 9 1 10 2 11 3 12 4 13 5 14 6 15 7 16 8 17 9 18 10 8 11 7 12
REMARK SMILES IDX 6 13 5 14 4 15 3 16 2 17 1 18
REMARK H PARENT
REMARK Flexibility Score: inf
ROOT
ATOM      1  C   UNL     1     -32.981  13.634  17.013  1.00  0.00     0.000 C 
ENDROOT
BRANCH   1   2
ATOM      2  C   UNL     1     -33.006  12.543  15.931  1.00  0.00     0.000 C 
BRANCH   2   3
ATOM      3  C   UNL     1     -34.030  12.828  14.817  1.00  0.00     0.000 C 
BRANCH   3   4
ATOM      4  C   UNL     1     -33.426  13.130  13.431  1.00  0.00     0.000 C 
BRANCH   4   5
ATOM      5  C   UNL     1     -32.551  14.396  13.355  1.00  0.00     0.000 C 
BRANCH   5   6
ATOM      6  C   UNL     1     -31.036  14.140  13.226  1.00  0.00     0.006 C 
BRANCH   6   7
ATOM      7  C   UNL     1     -30.683  12.734  12.709  1.00  0.00     0.053 C 
BRANCH   7   8
ATOM      8  C   UNL     1     -29.667  12.045  13.569  1.00  0.00     0.041 C 
ATOM      9  O   UNL     1     -29.995  11.589  14.696  1.00  0.00    -0.550 OA
ATOM     10  O   UNL     1     -28.367  11.875  13.112  1.00  0.00    -0.550 OA
ENDBRANCH   7   8
ENDBRANCH   6   7
ENDBRANCH   5   6
ENDBRANCH   4   5
ENDBRANCH   3   4
ENDBRANCH   2   3
ENDBRANCH   1   2
BRANCH   1  11
ATOM     11  C   UNL     1     -31.568  13.892  17.560  1.00  0.00     0.000 C 
BRANCH  11  12
ATOM     12  C   UNL     1     -30.780  14.903  16.713  1.00  0.00    -0.000 C 
BRANCH  12  13
ATOM     13  C   UNL     1     -29.314  14.473  16.570  1.00  0.00    -0.000 C 
BRANCH  13  14
ATOM     14  C   UNL     1     -28.366  15.648  16.854  1.00  0.00    -0.000 C 
BRANCH  14  15
ATOM     15  C   UNL     1     -27.329  15.324  17.941  1.00  0.00    -0.000 C 
BRANCH  15  16
ATOM     16  C   UNL     1     -27.451  16.240  19.167  1.00  0.00    -0.000 C 
BRANCH  16  17
ATOM     17  C   UNL     1     -28.638  17.199  19.018  1.00  0.00    -0.003 C 
ATOM     18  C   UNL     1     -29.117  17.699  20.378  1.00  0.00     0.004 C 
ENDBRANCH  16  17
ENDBRANCH  15  16
ENDBRANCH  14  15
ENDBRANCH  13  14
ENDBRANCH  12  13
ENDBRANCH  11  12
ENDBRANCH   1  11
TORSDOF 14
ENDMDL
MODEL 5
REMARK VINA RESULT:    -4.095      1.699      2.889
REMARK INTER + INTRA:          -8.925
REMARK INTER:                  -6.987
REMARK INTRA:                  -1.938
REMARK UNBOUND:                -1.479
REMARK SMILES CCCCCCCCCCCCCCCC(=O)[O-]
REMARK SMILES IDX 9 1 10 2 11 3 12 4 13 5 14 6 15 7 16 8 17 9 18 10 8 11 7 12
REMARK SMILES IDX 6 13 5 14 4 15 3 16 2 17 1 18
REMARK H PARENT
REMARK Flexibility Score: inf
ROOT
ATOM      1  C   UNL     1     -33.962  13.195  14.061  1.00  0.00     0.000 C 
ENDROOT
BRANCH   1   2
ATOM      2  C   UNL     1     -34.068  11.798  13.428  1.00  0.00     0.000 C 
BRANCH   2   3
ATOM      3  C   UNL     1     -33.557  10.680  14.355  1.00  0.00     0.000 C 
BRANCH   3   4
ATOM      4  C   UNL     1     -32.118  10.867  14.878  1.00  0.00     0.000 C 
BRANCH   4   5
ATOM      5  C   UNL     1     -31.024  10.149  14.066  1.00  0.00     0.000 C 
BRANCH   5   6
ATOM      6  C   UNL     1     -31.038  10.433  12.551  1.00  0.00     0.006 C 
BRANCH   6   7
ATOM      7  C   UNL     1     -29.638  10.601  11.934  1.00  0.00     0.053 C 
BRANCH   7   8
ATOM      8  C   UNL     1     -28.607  10.991  12.949  1.00  0.00     0.041 C 
ATOM      9  O   UNL     1     -28.518  12.186  13.336  1.00  0.00    -0.550 OA
ATOM     10  O   UNL     1     -27.767  10.029  13.495  1.00  0.00    -0.550 OA
ENDBRANCH   7   8
ENDBRANCH   6   7
ENDBRANCH   5   6
ENDBRANCH   4   5
ENDBRANCH   3   4
ENDBRANCH   2   3
ENDBRANCH   1   2
BRANCH   1  11
ATOM     11  C   UNL     1     -33.306  14.221  13.123  1.00  0.00     0.000 C 
BRANCH  11  12
ATOM     12  C   UNL     1     -31.775  14.092  13.081  1.00  0.00    -0.000 C 
BRANCH  12  13
ATOM     13  C   UNL     1     -31.120  14.985  14.143  1.00  0.00    -0.000 C 
BRANCH  13  14
ATOM     14  C   UNL     1     -30.556  14.143  15.297  1.00  0.00    -0.000 C 
BRANCH  14  15
ATOM     15  C   UNL     1     -30.175  14.994  16.519  1.00  0.00    -0.000 C 
BRANCH  15  16
ATOM     16  C   UNL     1     -31.073  14.720  17.734  1.00  0.00    -0.000 C 
BRANCH  16  17
ATOM     17  C   UNL     1     -31.835  13.400  17.566  1.00  0.00    -0.003 C 
ATOM     18  C   UNL     1     -33.344  13.624  17.613  1.00  0.00     0.004 C 
ENDBRANCH  16  17
ENDBRANCH  15  16
ENDBRANCH  14  15
ENDBRANCH  13  14
ENDBRANCH  12  13
ENDBRANCH  11  12
ENDBRANCH   1  11
TORSDOF 14
ENDMDL
MODEL 6
REMARK VINA RESULT:    -4.048      6.601      9.009
REMARK INTER + INTRA:          -8.839
REMARK INTER:                  -6.701
REMARK INTRA:                  -2.138
REMARK UNBOUND:                -1.479
REMARK SMILES CCCCCCCCCCCCCCCC(=O)[O-]
REMARK SMILES IDX 9 1 10 2 11 3 12 4 13 5 14 6 15 7 16 8 17 9 18 10 8 11 7 12
REMARK SMILES IDX 6 13 5 14 4 15 3 16 2 17 1 18
REMARK H PARENT
REMARK Flexibility Score: inf
ROOT
ATOM      1  C   UNL     1     -28.325  15.893  17.483  1.00  0.00     0.000 C 
ENDROOT
BRANCH   1   2
ATOM      2  C   UNL     1     -29.291  16.433  18.550  1.00  0.00     0.000 C 
BRANCH   2   3
ATOM      3  C   UNL     1     -28.881  17.819  19.081  1.00  0.00     0.000 C 
BRANCH   3   4
ATOM      4  C   UNL     1     -28.653  17.898  20.604  1.00  0.00     0.000 C 
BRANCH   4   5
ATOM      5  C   UNL     1     -29.754  17.256  21.469  1.00  0.00     0.000 C 
BRANCH   5   6
ATOM      6  C   UNL     1     -30.265  18.127  22.634  1.00  0.00     0.006 C 
BRANCH   6   7
ATOM      7  C   UNL     1     -31.629  17.684  23.192  1.00  0.00     0.053 C 
BRANCH   7   8
ATOM      8  C   UNL     1     -31.514  16.527  24.138  1.00  0.00     0.041 C 
ATOM      9  O   UNL     1     -32.407  15.641  24.167  1.00  0.00    -0.550 OA
ATOM     10  O   UNL     1     -30.403  16.409  24.962  1.00  0.00    -0.550 OA
ENDBRANCH   7   8
ENDBRANCH   6   7
ENDBRANCH   5   6
ENDBRANCH   4   5
ENDBRANCH   3   4
ENDBRANCH   2   3
ENDBRANCH   1   2
BRANCH   1  11
ATOM     11  C   UNL     1     -26.962  15.490  18.068  1.00  0.00     0.000 C 
BRANCH  11  12
ATOM     12  C   UNL     1     -27.091  14.658  19.353  1.00  0.00    -0.000 C 
BRANCH  12  13
ATOM     13  C   UNL     1     -26.000  15.036  20.363  1.00  0.00    -0.000 C 
BRANCH  13  14
ATOM     14  C   UNL     1     -25.222  16.275  19.895  1.00  0.00    -0.000 C 
BRANCH  14  15
ATOM     15  C   UNL     1     -25.056  17.326  21.004  1.00  0.00    -0.000 C 
BRANCH  15  16
ATOM     16  C   UNL     1     -25.005  16.703  22.407  1.00  0.00    -0.000 C 
BRANCH  16  17
ATOM     17  C   UNL     1     -26.000  17.391  23.348  1.00  0.00    -0.003 C 
ATOM     18  C   UNL     1     -27.093  16.426  23.797  1.00  0.00     0.004 C 
ENDBRANCH  16  17
ENDBRANCH  15  16
ENDBRANCH  14  15
ENDBRANCH  13  14
ENDBRANCH  12  13
ENDBRANCH  11  12
ENDBRANCH   1  11
TORSDOF 14
ENDMDL
MODEL 7
REMARK VINA RESULT:    -4.043      1.635      2.612
REMARK INTER + INTRA:          -8.831
REMARK INTER:                  -6.900
REMARK INTRA:                  -1.931
REMARK UNBOUND:                -1.479
REMARK SMILES CCCCCCCCCCCCCCCC(=O)[O-]
REMARK SMILES IDX 9 1 10 2 11 3 12 4 13 5 14 6 15 7 16 8 17 9 18 10 8 11 7 12
REMARK SMILES IDX 6 13 5 14 4 15 3 16 2 17 1 18
REMARK H PARENT
REMARK Flexibility Score: inf
ROOT
ATOM      1  C   UNL     1     -33.825  12.823  13.947  1.00  0.00     0.000 C 
ENDROOT
BRANCH   1   2
ATOM      2  C   UNL     1     -33.445  12.875  15.436  1.00  0.00     0.000 C 
BRANCH   2   3
ATOM      3  C   UNL     1     -33.008  11.507  15.991  1.00  0.00     0.000 C 
BRANCH   3   4
ATOM      4  C   UNL     1     -31.603  11.473  16.624  1.00  0.00     0.000 C 
BRANCH   4   5
ATOM      5  C   UNL     1     -30.562  10.622  15.871  1.00  0.00     0.000 C 
BRANCH   5   6
ATOM      6  C   UNL     1     -30.510  10.847  14.346  1.00  0.00     0.006 C 
BRANCH   6   7
ATOM      7  C   UNL     1     -30.888   9.604  13.519  1.00  0.00     0.053 C 
BRANCH   7   8
ATOM      8  C   UNL     1     -30.114   9.511  12.239  1.00  0.00     0.041 C 
ATOM      9  O   UNL     1     -30.321   8.560  11.441  1.00  0.00    -0.550 OA
ATOM     10  O   UNL     1     -29.190  10.494  11.911  1.00  0.00    -0.550 OA
ENDBRANCH   7   8
ENDBRANCH   6   7
ENDBRANCH   5   6
ENDBRANCH   4   5
ENDBRANCH   3   4
ENDBRANCH   2   3
ENDBRANCH   1   2
BRANCH   1  11
ATOM     11  C   UNL     1     -33.206  13.974  13.139  1.00  0.00     0.000 C 
BRANCH  11  12
ATOM     12  C   UNL     1     -31.670  13.956  13.161  1.00  0.00    -0.000 C 
BRANCH  12  13
ATOM     13  C   UNL     1     -31.118  15.172  13.917  1.00  0.00    -0.000 C 
BRANCH  13  14
ATOM     14  C   UNL     1     -30.025  14.753  14.911  1.00  0.00    -0.000 C 
BRANCH  14  15
ATOM     15  C   UNL     1     -30.484  14.850  16.374  1.00  0.00    -0.000 C 
BRANCH  15  16
ATOM     16  C   UNL     1     -29.382  14.459  17.368  1.00  0.00    -0.000 C 
BRANCH  16  17
ATOM     17  C   UNL     1     -28.331  15.569  17.485  1.00  0.00    -0.003 C 
ATOM     18  C   UNL     1     -28.901  16.797  18.189  1.00  0.00     0.004 C 
ENDBRANCH  16  17
ENDBRANCH  15  16
ENDBRANCH  14  15
ENDBRANCH  13  14
ENDBRANCH  12  13
ENDBRANCH  11  12
ENDBRANCH   1  11
TORSDOF 14
ENDMDL
MODEL 8
REMARK VINA RESULT:    -4.034      3.353      6.020
REMARK INTER + INTRA:          -8.814
REMARK INTER:                  -6.152
REMARK INTRA:                  -2.662
REMARK UNBOUND:                -1.479
REMARK SMILES CCCCCCCCCCCCCCCC(=O)[O-]
REMARK SMILES IDX 9 1 10 2 11 3 12 4 13 5 14 6 15 7 16 8 17 9 18 10 8 11 7 12
REMARK SMILES IDX 6 13 5 14 4 15 3 16 2 17 1 18
REMARK H PARENT
REMARK Flexibility Score: inf
ROOT
ATOM      1  C   UNL     1     -29.277  11.492  13.090  1.00  0.00     0.000 C 
ENDROOT
BRANCH   1   2
ATOM      2  C   UNL     1     -29.352  10.875  14.496  1.00  0.00     0.000 C 
BRANCH   2   3
ATOM      3  C   UNL     1     -30.157  11.736  15.486  1.00  0.00     0.000 C 
BRANCH   3   4
ATOM      4  C   UNL     1     -31.510  11.141  15.925  1.00  0.00     0.000 C 
BRANCH   4   5
ATOM      5  C   UNL     1     -32.734  11.631  15.127  1.00  0.00     0.000 C 
BRANCH   5   6
ATOM      6  C   UNL     1     -32.857  13.161  14.988  1.00  0.00     0.006 C 
BRANCH   6   7
ATOM      7  C   UNL     1     -32.777  13.664  13.535  1.00  0.00     0.053 C 
BRANCH   7   8
ATOM      8  C   UNL     1     -31.516  14.426  13.261  1.00  0.00     0.041 C 
ATOM      9  O   UNL     1     -30.999  14.405  12.113  1.00  0.00    -0.550 OA
ATOM     10  O   UNL     1     -30.930  15.187  14.263  1.00  0.00    -0.550 OA
ENDBRANCH   7   8
ENDBRANCH   6   7
ENDBRANCH   5   6
ENDBRANCH   4   5
ENDBRANCH   3   4
ENDBRANCH   2   3
ENDBRANCH   1   2
BRANCH   1  11
ATOM     11  C   UNL     1     -30.369  10.955  12.150  1.00  0.00     0.000 C 
BRANCH  11  12
ATOM     12  C   UNL     1     -30.381   9.420  12.071  1.00  0.00    -0.000 C 
BRANCH  12  13
ATOM     13  C   UNL     1     -31.816   8.880  12.108  1.00  0.00    -0.000 C 
BRANCH  13  14
ATOM     14  C   UNL     1     -32.182   8.387  13.516  1.00  0.00    -0.000 C 
BRANCH  14  15
ATOM     15  C   UNL     1     -31.170   7.374  14.072  1.00  0.00    -0.000 C 
BRANCH  15  16
ATOM     16  C   UNL     1     -30.985   7.495  15.592  1.00  0.00    -0.000 C 
BRANCH  16  17
ATOM     17  C   UNL     1     -29.500   7.621  15.954  1.00  0.00    -0.003 C 
ATOM     18  C   UNL     1     -29.318   8.317  17.300  1.00  0.00     0.004 C 
ENDBRANCH  16  17
ENDBRANCH  15  16
ENDBRANCH  14  15
ENDBRANCH  13  14
ENDBRANCH  12  13
ENDBRANCH  11  12
ENDBRANCH   1  11
TORSDOF 14
ENDMDL
MODEL 9
REMARK VINA RESULT:    -4.001      2.859      6.082
REMARK INTER + INTRA:          -8.754
REMARK INTER:                  -6.266
REMARK INTRA:                  -2.488
REMARK UNBOUND:                -1.479
REMARK SMILES CCCCCCCCCCCCCCCC(=O)[O-]
REMARK SMILES IDX 9 1 10 2 11 3 12 4 13 5 14 6 15 7 16 8 17 9 18 10 8 11 7 12
REMARK SMILES IDX 6 13 5 14 4 15 3 16 2 17 1 18
REMARK H PARENT
REMARK Flexibility Score: inf
ROOT
ATOM      1  C   UNL     1     -30.996  11.624  16.217  1.00  0.00     0.000 C 
ENDROOT
BRANCH   1   2
ATOM      2  C   UNL     1     -32.516  11.664  16.445  1.00  0.00     0.000 C 
BRANCH   2   3
ATOM      3  C   UNL     1     -33.320  11.294  15.185  1.00  0.00     0.000 C 
BRANCH   3   4
ATOM      4  C   UNL     1     -34.006  12.477  14.472  1.00  0.00     0.000 C 
BRANCH   4   5
ATOM      5  C   UNL     1     -33.262  13.025  13.239  1.00  0.00     0.000 C 
BRANCH   5   6
ATOM      6  C   UNL     1     -32.573  14.389  13.441  1.00  0.00     0.006 C 
BRANCH   6   7
ATOM      7  C   UNL     1     -31.053  14.363  13.194  1.00  0.00     0.053 C 
BRANCH   7   8
ATOM      8  C   UNL     1     -30.266  14.655  14.436  1.00  0.00     0.041 C 
ATOM      9  O   UNL     1     -30.849  15.053  15.478  1.00  0.00    -0.550 OA
ATOM     10  O   UNL     1     -28.892  14.453  14.453  1.00  0.00    -0.550 OA
ENDBRANCH   7   8
ENDBRANCH   6   7
ENDBRANCH   5   6
ENDBRANCH   4   5
ENDBRANCH   3   4
ENDBRANCH   2   3
ENDBRANCH   1   2
BRANCH   1  11
ATOM     11  C   UNL     1     -30.592  10.651  15.098  1.00  0.00     0.000 C 
BRANCH  11  12
ATOM     12  C   UNL     1     -29.186  10.932  14.546  1.00  0.00    -0.000 C 
BRANCH  12  13
ATOM     13  C   UNL     1     -29.212  11.058  13.018  1.00  0.00    -0.000 C 
BRANCH  13  14
ATOM     14  C   UNL     1     -30.611  10.752  12.464  1.00  0.00    -0.000 C 
BRANCH  14  15
ATOM     15  C   UNL     1     -30.708   9.351  11.839  1.00  0.00    -0.000 C 
BRANCH  15  16
ATOM     16  C   UNL     1     -32.129   8.772  11.902  1.00  0.00    -0.000 C 
BRANCH  16  17
ATOM     17  C   UNL     1     -32.416   8.174  13.285  1.00  0.00    -0.003 C 
ATOM     18  C   UNL     1     -31.291   7.242  13.727  1.00  0.00     0.004 C 
ENDBRANCH  16  17
ENDBRANCH  15  16
ENDBRANCH  14  15
ENDBRANCH  13  14
ENDBRANCH  12  13
ENDBRANCH  11  12
ENDBRANCH   1  11
TORSDOF 14
ENDMDL
