MODEL 1
REMARK VINA RESULT:    -4.035      0.000      0.000
REMARK INTER + INTRA:          -6.381
REMARK INTER:                  -6.158
REMARK INTRA:                  -0.223
REMARK UNBOUND:                -0.223
REMARK SMILES CC1=CCC[C@H](C)C(=O)C[C@@H](C(C)C)C(=O)C1
REMARK SMILES IDX 8 1 9 2 6 3 7 4 5 5 4 6 3 7 2 8 1 9 10 11 11 12 15 13 16 14
REMARK SMILES IDX 17 15 12 17 13 18 14 19
REMARK H PARENT
REMARK Flexibility Score: 70.00
ROOT
ATOM      1  C   UNL     1       7.184 -18.294  23.973  1.00  0.00     0.136 C 
ATOM      2  O   UNL     1       6.180 -17.720  24.367  1.00  0.00    -0.299 OA
ENDROOT
BRANCH   1   3
ATOM      3  C   UNL     1       7.342 -19.773  24.298  1.00  0.00     0.053 C 
ATOM      4  C   UNL     1       6.917 -20.061  25.745  1.00  0.00     0.016 C 
BRANCH   3   5
ATOM      5  C   UNL     1       6.585 -20.692  23.308  1.00  0.00     0.015 C 
BRANCH   5   6
ATOM      6  C   UNL     1       7.471 -21.535  22.366  1.00  0.00     0.028 C 
BRANCH   6   7
ATOM      7  C   UNL     1       8.950 -21.222  22.360  1.00  0.00    -0.028 C 
ATOM      8  C   UNL     1       9.605 -20.448  21.461  1.00  0.00    -0.070 CG0
ATOM      9  C   UNL     1      11.110 -20.398  21.541  1.00  0.00     0.039 C 
ATOM     10  G   UNL     1       8.910 -19.586  20.427  1.00  0.00     0.000 G0
ENDBRANCH   6   7
ENDBRANCH   5   6
ENDBRANCH   3   5
ENDBRANCH   1   3
BRANCH   1  11
ATOM     11  C   UNL     1       8.188 -17.496  23.156  1.00  0.00     0.087 C 
BRANCH  11  12
ATOM     12  C   UNL     1       7.886 -17.463  21.632  1.00  0.00     0.066 C 
BRANCH  12  13
ATOM     13  C   UNL     1       8.995 -18.113  20.826  1.00  0.00     0.140 C 
ATOM     14  O   UNL     1       9.990 -17.468  20.528  1.00  0.00    -0.299 OA
BRANCH  13  15
ATOM     15  C   UNL     1       8.918 -19.568  20.420  1.00  0.00     0.106 CG0
ATOM     16  G   UNL     1       9.600 -20.435  21.458  1.00  0.00     0.000 G0
ENDBRANCH  13  15
ENDBRANCH  12  13
BRANCH  12  17
ATOM     17  C   UNL     1       7.518 -16.044  21.085  1.00  0.00    -0.006 C 
ATOM     18  C   UNL     1       6.497 -16.133  19.938  1.00  0.00     0.008 C 
ATOM     19  C   UNL     1       7.008 -15.054  22.149  1.00  0.00     0.008 C 
ENDBRANCH  12  17
ENDBRANCH  11  12
ENDBRANCH   1  11
TORSDOF 1
ENDMDL
MODEL 2
REMARK VINA RESULT:    -3.814      2.994      4.936
REMARK INTER + INTRA:          -6.043
REMARK INTER:                  -5.871
REMARK INTRA:                  -0.172
REMARK UNBOUND:                -0.223
REMARK SMILES CC1=CCC[C@H](C)C(=O)C[C@@H](C(C)C)C(=O)C1
REMARK SMILES IDX 8 1 9 2 6 3 7 4 5 5 4 6 3 7 2 8 1 9 10 11 11 12 15 13 16 14
REMARK SMILES IDX 17 15 12 17 13 18 14 19
REMARK H PARENT
REMARK Flexibility Score: 70.00
ROOT
ATOM      1  C   UNL     1       9.586 -19.754  22.881  1.00  0.00     0.136 C 
ATOM      2  O   UNL     1      10.166 -20.825  22.783  1.00  0.00    -0.299 OA
ENDROOT
BRANCH   1   3
ATOM      3  C   UNL     1       8.100 -19.768  23.212  1.00  0.00     0.053 C 
ATOM      4  C   UNL     1       7.478 -21.130  22.871  1.00  0.00     0.016 C 
BRANCH   3   5
ATOM      5  C   UNL     1       7.807 -19.380  24.682  1.00  0.00     0.015 C 
BRANCH   5   6
ATOM      6  C   UNL     1       6.886 -18.158  24.881  1.00  0.00     0.028 C 
BRANCH   6   7
ATOM      7  C   UNL     1       6.914 -17.100  23.800  1.00  0.00    -0.028 C 
ATOM      8  C   UNL     1       7.740 -16.028  23.745  1.00  0.00    -0.070 CG0
ATOM      9  C   UNL     1       7.492 -15.004  22.666  1.00  0.00     0.039 C 
ATOM     10  G   UNL     1       8.931 -15.833  24.661  1.00  0.00     0.000 G0
ENDBRANCH   6   7
ENDBRANCH   5   6
ENDBRANCH   3   5
ENDBRANCH   1   3
BRANCH   1  11
ATOM     11  C   UNL     1      10.400 -18.482  22.698  1.00  0.00     0.087 C 
BRANCH  11  12
ATOM     12  C   UNL     1      10.691 -17.718  24.020  1.00  0.00     0.066 C 
BRANCH  12  13
ATOM     13  C   UNL     1      10.220 -16.277  23.950  1.00  0.00     0.140 C 
ATOM     14  O   UNL     1      10.841 -15.466  23.280  1.00  0.00    -0.299 OA
BRANCH  13  15
ATOM     15  C   UNL     1       8.961 -15.831  24.659  1.00  0.00     0.106 CG0
ATOM     16  G   UNL     1       7.760 -16.020  23.754  1.00  0.00     0.000 G0
ENDBRANCH  13  15
ENDBRANCH  12  13
BRANCH  12  17
ATOM     17  C   UNL     1      12.174 -17.827  24.506  1.00  0.00    -0.006 C 
ATOM     18  C   UNL     1      12.382 -19.062  25.400  1.00  0.00     0.008 C 
ATOM     19  C   UNL     1      13.225 -17.829  23.380  1.00  0.00     0.008 C 
ENDBRANCH  12  17
ENDBRANCH  11  12
ENDBRANCH   1  11
TORSDOF 1
ENDMDL
MODEL 3
REMARK VINA RESULT:    -3.786      1.910      4.280
REMARK INTER + INTRA:          -6.000
REMARK INTER:                  -5.701
REMARK INTRA:                  -0.299
REMARK UNBOUND:                -0.223
REMARK SMILES CC1=CCC[C@H](C)C(=O)C[C@@H](C(C)C)C(=O)C1
REMARK SMILES IDX 8 1 9 2 6 3 7 4 5 5 4 6 3 7 2 8 1 9 10 11 11 12 15 13 16 14
REMARK SMILES IDX 17 15 12 17 13 18 14 19
REMARK H PARENT
REMARK Flexibility Score: 70.00
ROOT
ATOM      1  C   UNL     1       7.244 -20.099  22.941  1.00  0.00     0.136 C 
ATOM      2  O   UNL     1       7.122 -20.884  23.870  1.00  0.00    -0.299 OA
ENDROOT
BRANCH   1   3
ATOM      3  C   UNL     1       7.349 -18.615  23.262  1.00  0.00     0.053 C 
ATOM      4  C   UNL     1       6.368 -18.228  24.379  1.00  0.00     0.016 C 
BRANCH   3   5
ATOM      5  C   UNL     1       8.791 -18.176  23.618  1.00  0.00     0.015 C 
BRANCH   5   6
ATOM      6  C   UNL     1       9.501 -17.297  22.567  1.00  0.00     0.028 C 
BRANCH   6   7
ATOM      7  C   UNL     1       8.730 -16.985  21.304  1.00  0.00    -0.028 C 
ATOM      8  C   UNL     1       8.926 -17.539  20.084  1.00  0.00    -0.070 CG0
ATOM      9  C   UNL     1       8.156 -16.967  18.920  1.00  0.00     0.039 C 
ATOM     10  G   UNL     1       9.823 -18.734  19.835  1.00  0.00     0.000 G0
ENDBRANCH   6   7
ENDBRANCH   5   6
ENDBRANCH   3   5
ENDBRANCH   1   3
BRANCH   1  11
ATOM     11  C   UNL     1       7.316 -20.667  21.532  1.00  0.00     0.087 C 
BRANCH  11  12
ATOM     12  C   UNL     1       8.762 -20.858  20.996  1.00  0.00     0.066 C 
BRANCH  12  13
ATOM     13  C   UNL     1       9.016 -20.020  19.756  1.00  0.00     0.140 C 
ATOM     14  O   UNL     1       8.527 -20.352  18.687  1.00  0.00    -0.299 OA
BRANCH  13  15
ATOM     15  C   UNL     1       9.830 -18.746  19.827  1.00  0.00     0.106 CG0
ATOM     16  G   UNL     1       8.920 -17.563  20.088  1.00  0.00     0.000 G0
ENDBRANCH  13  15
ENDBRANCH  12  13
BRANCH  12  17
ATOM     17  C   UNL     1       9.172 -22.353  20.787  1.00  0.00    -0.006 C 
ATOM     18  C   UNL     1      10.590 -22.625  21.317  1.00  0.00     0.008 C 
ATOM     19  C   UNL     1       8.196 -23.382  21.388  1.00  0.00     0.008 C 
ENDBRANCH  12  17
ENDBRANCH  11  12
ENDBRANCH   1  11
TORSDOF 1
ENDMDL
MODEL 4
REMARK VINA RESULT:    -3.742      2.363      4.180
REMARK INTER + INTRA:          -5.934
REMARK INTER:                  -5.934
REMARK INTRA:                   0.000
REMARK UNBOUND:                -0.223
REMARK SMILES CC1=CCC[C@H](C)C(=O)C[C@@H](C(C)C)C(=O)C1
REMARK SMILES IDX 8 1 9 2 6 3 7 4 5 5 4 6 3 7 2 8 1 9 10 11 11 12 15 13 16 14
REMARK SMILES IDX 17 15 12 17 13 18 14 19
REMARK H PARENT
REMARK Flexibility Score: 70.00
ROOT
ATOM      1  C   UNL     1       7.911 -17.149  23.519  1.00  0.00     0.136 C 
ATOM      2  O   UNL     1       6.714 -16.906  23.560  1.00  0.00    -0.299 OA
ENDROOT
BRANCH   1   3
ATOM      3  C   UNL     1       8.835 -16.371  24.446  1.00  0.00     0.053 C 
ATOM      4  C   UNL     1       9.274 -17.240  25.633  1.00  0.00     0.016 C 
BRANCH   3   5
ATOM      5  C   UNL     1      10.063 -15.777  23.713  1.00  0.00     0.015 C 
BRANCH   5   6
ATOM      6  C   UNL     1      11.420 -16.436  24.039  1.00  0.00     0.028 C 
BRANCH   6   7
ATOM      7  C   UNL     1      12.135 -17.126  22.898  1.00  0.00    -0.028 C 
ATOM      8  C   UNL     1      12.251 -18.463  22.713  1.00  0.00    -0.070 CG0
ATOM      9  C   UNL     1      13.146 -18.942  21.598  1.00  0.00     0.039 C 
ATOM     10  G   UNL     1      11.489 -19.495  23.518  1.00  0.00     0.000 G0
ENDBRANCH   6   7
ENDBRANCH   5   6
ENDBRANCH   3   5
ENDBRANCH   1   3
BRANCH   1  11
ATOM     11  C   UNL     1       8.386 -18.235  22.567  1.00  0.00     0.087 C 
BRANCH  11  12
ATOM     12  C   UNL     1       8.864 -19.535  23.273  1.00  0.00     0.066 C 
BRANCH  12  13
ATOM     13  C   UNL     1      10.246 -19.952  22.805  1.00  0.00     0.140 C 
ATOM     14  O   UNL     1      10.369 -20.628  21.796  1.00  0.00    -0.299 OA
BRANCH  13  15
ATOM     15  C   UNL     1      11.489 -19.503  23.543  1.00  0.00     0.106 CG0
ATOM     16  G   UNL     1      12.237 -18.473  22.722  1.00  0.00     0.000 G0
ENDBRANCH  13  15
ENDBRANCH  12  13
BRANCH  12  17
ATOM     17  C   UNL     1       7.839 -20.714  23.197  1.00  0.00    -0.006 C 
ATOM     18  C   UNL     1       6.802 -20.630  24.330  1.00  0.00     0.008 C 
ATOM     19  C   UNL     1       7.110 -20.852  21.847  1.00  0.00     0.008 C 
ENDBRANCH  12  17
ENDBRANCH  11  12
ENDBRANCH   1  11
TORSDOF 1
ENDMDL
MODEL 5
REMARK VINA RESULT:    -3.688      2.324      4.922
REMARK INTER + INTRA:          -5.851
REMARK INTER:                  -5.995
REMARK INTRA:                   0.145
REMARK UNBOUND:                -0.223
REMARK SMILES CC1=CCC[C@H](C)C(=O)C[C@@H](C(C)C)C(=O)C1
REMARK SMILES IDX 8 1 9 2 6 3 7 4 5 5 4 6 3 7 2 8 1 9 10 11 11 12 15 13 16 14
REMARK SMILES IDX 17 15 12 17 13 18 14 19
REMARK H PARENT
REMARK Flexibility Score: 70.00
ROOT
ATOM      1  C   UNL     1       7.766 -18.017  20.257  1.00  0.00     0.136 C 
ATOM      2  O   UNL     1       6.926 -18.452  19.482  1.00  0.00    -0.299 OA
ENDROOT
BRANCH   1   3
ATOM      3  C   UNL     1       7.750 -16.528  20.574  1.00  0.00     0.053 C 
ATOM      4  C   UNL     1       6.934 -15.756  19.526  1.00  0.00     0.016 C 
BRANCH   3   5
ATOM      5  C   UNL     1       7.241 -16.222  22.004  1.00  0.00     0.015 C 
BRANCH   5   6
ATOM      6  C   UNL     1       7.993 -15.105  22.758  1.00  0.00     0.028 C 
BRANCH   6   7
ATOM      7  C   UNL     1       8.651 -15.489  24.064  1.00  0.00    -0.028 C 
ATOM      8  C   UNL     1       9.611 -16.430  24.236  1.00  0.00    -0.070 CG0
ATOM      9  C   UNL     1      10.015 -16.772  25.648  1.00  0.00     0.039 C 
ATOM     10  G   UNL     1      10.341 -17.108  23.095  1.00  0.00     0.000 G0
ENDBRANCH   6   7
ENDBRANCH   5   6
ENDBRANCH   3   5
ENDBRANCH   1   3
BRANCH   1  11
ATOM     11  C   UNL     1       8.746 -19.002  20.874  1.00  0.00     0.087 C 
BRANCH  11  12
ATOM     12  C   UNL     1       8.702 -19.055  22.426  1.00  0.00     0.066 C 
BRANCH  12  13
ATOM     13  C   UNL     1      10.008 -18.588  23.041  1.00  0.00     0.140 C 
ATOM     14  O   UNL     1      10.806 -19.407  23.471  1.00  0.00    -0.299 OA
BRANCH  13  15
ATOM     15  C   UNL     1      10.369 -17.120  23.090  1.00  0.00     0.106 CG0
ATOM     16  G   UNL     1       9.630 -16.440  24.225  1.00  0.00     0.000 G0
ENDBRANCH  13  15
ENDBRANCH  12  13
BRANCH  12  17
ATOM     17  C   UNL     1       8.243 -20.435  23.005  1.00  0.00    -0.006 C 
ATOM     18  C   UNL     1       6.788 -20.378  23.501  1.00  0.00     0.008 C 
ATOM     19  C   UNL     1       8.409 -21.626  22.043  1.00  0.00     0.008 C 
ENDBRANCH  12  17
ENDBRANCH  11  12
ENDBRANCH   1  11
TORSDOF 1
ENDMDL
MODEL 6
REMARK VINA RESULT:    -3.634      2.565      4.032
REMARK INTER + INTRA:          -5.769
REMARK INTER:                  -5.736
REMARK INTRA:                  -0.033
REMARK UNBOUND:                -0.223
REMARK SMILES CC1=CCC[C@H](C)C(=O)C[C@@H](C(C)C)C(=O)C1
REMARK SMILES IDX 8 1 9 2 6 3 7 4 5 5 4 6 3 7 2 8 1 9 10 11 11 12 15 13 16 14
REMARK SMILES IDX 17 15 12 17 13 18 14 19
REMARK H PARENT
REMARK Flexibility Score: 70.00
ROOT
ATOM      1  C   UNL     1      10.892 -16.214  23.070  1.00  0.00     0.136 C 
ATOM      2  O   UNL     1      10.819 -15.138  23.646  1.00  0.00    -0.299 OA
ENDROOT
BRANCH   1   3
ATOM      3  C   UNL     1      12.234 -16.932  23.055  1.00  0.00     0.053 C 
ATOM      4  C   UNL     1      13.378 -15.944  22.784  1.00  0.00     0.016 C 
BRANCH   3   5
ATOM      5  C   UNL     1      12.498 -17.742  24.348  1.00  0.00     0.015 C 
BRANCH   5   6
ATOM      6  C   UNL     1      11.942 -19.181  24.362  1.00  0.00     0.028 C 
BRANCH   6   7
ATOM      7  C   UNL     1      11.777 -19.862  23.022  1.00  0.00    -0.028 C 
ATOM      8  C   UNL     1      10.646 -20.435  22.544  1.00  0.00    -0.070 CG0
ATOM      9  C   UNL     1      10.740 -21.204  21.251  1.00  0.00     0.039 C 
ATOM     10  G   UNL     1       9.287 -20.295  23.200  1.00  0.00     0.000 G0
ENDBRANCH   6   7
ENDBRANCH   5   6
ENDBRANCH   3   5
ENDBRANCH   1   3
BRANCH   1  11
ATOM     11  C   UNL     1       9.627 -16.772  22.437  1.00  0.00     0.087 C 
BRANCH  11  12
ATOM     12  C   UNL     1       8.819 -17.723  23.364  1.00  0.00     0.066 C 
BRANCH  12  13
ATOM     13  C   UNL     1       8.571 -19.069  22.708  1.00  0.00     0.140 C 
ATOM     14  O   UNL     1       7.821 -19.149  21.747  1.00  0.00    -0.299 OA
BRANCH  13  15
ATOM     15  C   UNL     1       9.276 -20.317  23.192  1.00  0.00     0.106 CG0
ATOM     16  G   UNL     1      10.635 -20.437  22.532  1.00  0.00     0.000 G0
ENDBRANCH  13  15
ENDBRANCH  12  13
BRANCH  12  17
ATOM     17  C   UNL     1       7.502 -17.096  23.930  1.00  0.00    -0.006 C 
ATOM     18  C   UNL     1       6.879 -16.106  22.931  1.00  0.00     0.008 C 
ATOM     19  C   UNL     1       6.436 -18.117  24.370  1.00  0.00     0.008 C 
ENDBRANCH  12  17
ENDBRANCH  11  12
ENDBRANCH   1  11
TORSDOF 1
ENDMDL
MODEL 7
REMARK VINA RESULT:    -3.629      2.002      3.044
REMARK INTER + INTRA:          -5.760
REMARK INTER:                  -5.497
REMARK INTRA:                  -0.264
REMARK UNBOUND:                -0.223
REMARK SMILES CC1=CCC[C@H](C)C(=O)C[C@@H](C(C)C)C(=O)C1
REMARK SMILES IDX 8 1 9 2 6 3 7 4 5 5 4 6 3 7 2 8 1 9 10 11 11 12 15 13 16 14
REMARK SMILES IDX 17 15 12 17 13 18 14 19
REMARK H PARENT
REMARK Flexibility Score: 70.00
ROOT
ATOM      1  C   UNL     1       7.973 -20.765  22.802  1.00  0.00     0.136 C 
ATOM      2  O   UNL     1       6.912 -21.131  23.286  1.00  0.00    -0.299 OA
ENDROOT
BRANCH   1   3
ATOM      3  C   UNL     1       8.424 -21.399  21.494  1.00  0.00     0.053 C 
ATOM      4  C   UNL     1       8.056 -22.890  21.455  1.00  0.00     0.016 C 
BRANCH   3   5
ATOM      5  C   UNL     1       7.875 -20.663  20.247  1.00  0.00     0.015 C 
BRANCH   5   6
ATOM      6  C   UNL     1       8.926 -19.935  19.382  1.00  0.00     0.028 C 
BRANCH   6   7
ATOM      7  C   UNL     1      10.336 -19.878  19.927  1.00  0.00    -0.028 C 
ATOM      8  C   UNL     1      10.923 -18.816  20.530  1.00  0.00    -0.070 CG0
ATOM      9  C   UNL     1      12.392 -18.915  20.853  1.00  0.00     0.039 C 
ATOM     10  G   UNL     1      10.176 -17.567  20.953  1.00  0.00     0.000 G0
ENDBRANCH   6   7
ENDBRANCH   5   6
ENDBRANCH   3   5
ENDBRANCH   1   3
BRANCH   1  11
ATOM     11  C   UNL     1       8.750 -19.676  23.527  1.00  0.00     0.087 C 
BRANCH  11  12
ATOM     12  C   UNL     1       8.542 -18.251  22.945  1.00  0.00     0.066 C 
BRANCH  12  13
ATOM     13  C   UNL     1       9.845 -17.648  22.455  1.00  0.00     0.140 C 
ATOM     14  O   UNL     1      10.675 -17.255  23.262  1.00  0.00    -0.299 OA
BRANCH  13  15
ATOM     15  C   UNL     1      10.164 -17.567  20.978  1.00  0.00     0.106 CG0
ATOM     16  G   UNL     1      10.921 -18.804  20.540  1.00  0.00     0.000 G0
ENDBRANCH  13  15
ENDBRANCH  12  13
BRANCH  12  17
ATOM     17  C   UNL     1       7.768 -17.280  23.897  1.00  0.00    -0.006 C 
ATOM     18  C   UNL     1       7.462 -15.941  23.205  1.00  0.00     0.008 C 
ATOM     19  C   UNL     1       6.470 -17.857  24.493  1.00  0.00     0.008 C 
ENDBRANCH  12  17
ENDBRANCH  11  12
ENDBRANCH   1  11
TORSDOF 1
ENDMDL
MODEL 8
REMARK VINA RESULT:    -3.600      1.755      3.988
REMARK INTER + INTRA:          -5.717
REMARK INTER:                  -5.441
REMARK INTRA:                  -0.276
REMARK UNBOUND:                -0.223
REMARK SMILES CC1=CCC[C@H](C)C(=O)C[C@@H](C(C)C)C(=O)C1
REMARK SMILES IDX 8 1 9 2 6 3 7 4 5 5 4 6 3 7 2 8 1 9 10 11 11 12 15 13 16 14
REMARK SMILES IDX 17 15 12 17 13 18 14 19
REMARK H PARENT
REMARK Flexibility Score: 70.00
ROOT
ATOM      1  C   UNL     1       7.614 -16.685  21.947  1.00  0.00     0.136 C 
ATOM      2  O   UNL     1       7.750 -15.526  22.311  1.00  0.00    -0.299 OA
ENDROOT
BRANCH   1   3
ATOM      3  C   UNL     1       7.659 -16.980  20.454  1.00  0.00     0.053 C 
ATOM      4  C   UNL     1       6.767 -16.001  19.677  1.00  0.00     0.016 C 
BRANCH   3   5
ATOM      5  C   UNL     1       9.100 -16.984  19.884  1.00  0.00     0.015 C 
BRANCH   5   6
ATOM      6  C   UNL     1       9.864 -18.320  20.007  1.00  0.00     0.028 C 
BRANCH   6   7
ATOM      7  C   UNL     1       9.044 -19.586  19.904  1.00  0.00    -0.028 C 
ATOM      8  C   UNL     1       9.035 -20.612  20.788  1.00  0.00    -0.070 CG0
ATOM      9  C   UNL     1       8.269 -21.856  20.414  1.00  0.00     0.039 C 
ATOM     10  G   UNL     1       9.695 -20.557  22.151  1.00  0.00     0.000 G0
ENDBRANCH   6   7
ENDBRANCH   5   6
ENDBRANCH   3   5
ENDBRANCH   1   3
BRANCH   1  11
ATOM     11  C   UNL     1       7.442 -17.754  23.015  1.00  0.00     0.087 C 
BRANCH  11  12
ATOM     12  C   UNL     1       8.767 -18.442  23.445  1.00  0.00     0.066 C 
BRANCH  12  13
ATOM     13  C   UNL     1       8.738 -19.935  23.173  1.00  0.00     0.140 C 
ATOM     14  O   UNL     1       7.916 -20.641  23.738  1.00  0.00    -0.299 OA
BRANCH  13  15
ATOM     15  C   UNL     1       9.681 -20.565  22.171  1.00  0.00     0.106 CG0
ATOM     16  G   UNL     1       9.026 -20.624  20.806  1.00  0.00     0.000 G0
ENDBRANCH  13  15
ENDBRANCH  12  13
BRANCH  12  17
ATOM     17  C   UNL     1       9.203 -18.123  24.913  1.00  0.00    -0.006 C 
ATOM     18  C   UNL     1      10.390 -17.145  24.945  1.00  0.00     0.008 C 
ATOM     19  C   UNL     1       8.078 -17.592  25.822  1.00  0.00     0.008 C 
ENDBRANCH  12  17
ENDBRANCH  11  12
ENDBRANCH   1  11
TORSDOF 1
ENDMDL
MODEL 9
REMARK VINA RESULT:    -3.524      2.535      4.843
REMARK INTER + INTRA:          -5.601
REMARK INTER:                  -5.283
REMARK INTRA:                  -0.318
REMARK UNBOUND:                -0.223
REMARK SMILES CC1=CCC[C@H](C)C(=O)C[C@@H](C(C)C)C(=O)C1
REMARK SMILES IDX 8 1 9 2 6 3 7 4 5 5 4 6 3 7 2 8 1 9 10 11 11 12 15 13 16 14
REMARK SMILES IDX 17 15 12 17 13 18 14 19
REMARK H PARENT
REMARK Flexibility Score: 70.00
ROOT
ATOM      1  C   UNL     1      10.832 -20.529  22.886  1.00  0.00     0.136 C 
ATOM      2  O   UNL     1      11.265 -21.466  22.231  1.00  0.00    -0.299 OA
ENDROOT
BRANCH   1   3
ATOM      3  C   UNL     1      11.831 -19.549  23.487  1.00  0.00     0.053 C 
ATOM      4  C   UNL     1      13.071 -20.288  24.011  1.00  0.00     0.016 C 
BRANCH   3   5
ATOM      5  C   UNL     1      12.234 -18.422  22.505  1.00  0.00     0.015 C 
BRANCH   5   6
ATOM      6  C   UNL     1      11.577 -17.048  22.757  1.00  0.00     0.028 C 
BRANCH   6   7
ATOM      7  C   UNL     1      10.834 -16.877  24.063  1.00  0.00    -0.028 C 
ATOM      8  C   UNL     1       9.501 -16.685  24.212  1.00  0.00    -0.070 CG0
ATOM      9  C   UNL     1       8.986 -16.373  25.594  1.00  0.00     0.039 C 
ATOM     10  G   UNL     1       8.498 -16.829  23.085  1.00  0.00     0.000 G0
ENDBRANCH   6   7
ENDBRANCH   5   6
ENDBRANCH   3   5
ENDBRANCH   1   3
BRANCH   1  11
ATOM     11  C   UNL     1       9.324 -20.391  23.025  1.00  0.00     0.087 C 
BRANCH  11  12
ATOM     12  C   UNL     1       8.704 -19.271  22.145  1.00  0.00     0.066 C 
BRANCH  12  13
ATOM     13  C   UNL     1       7.978 -18.236  22.984  1.00  0.00     0.140 C 
ATOM     14  O   UNL     1       6.990 -18.557  23.627  1.00  0.00    -0.299 OA
BRANCH  13  15
ATOM     15  C   UNL     1       8.483 -16.813  23.081  1.00  0.00     0.106 CG0
ATOM     16  G   UNL     1       9.491 -16.694  24.206  1.00  0.00     0.000 G0
ENDBRANCH  13  15
ENDBRANCH  12  13
BRANCH  12  17
ATOM     17  C   UNL     1       7.816 -19.800  20.971  1.00  0.00    -0.006 C 
ATOM     18  C   UNL     1       8.503 -19.590  19.610  1.00  0.00     0.008 C 
ATOM     19  C   UNL     1       7.381 -21.272  21.102  1.00  0.00     0.008 C 
ENDBRANCH  12  17
ENDBRANCH  11  12
ENDBRANCH   1  11
TORSDOF 1
ENDMDL
