MODEL 1
REMARK VINA RESULT:    -3.490      0.000      0.000
REMARK INTER + INTRA:          -4.168
REMARK INTER:                  -4.102
REMARK INTRA:                  -0.066
REMARK UNBOUND:                -0.066
REMARK SMILES CCCCC(=O)[O-]
REMARK SMILES IDX 4 1 5 2 6 3 7 4 3 5 2 6 1 7
REMARK H PARENT
REMARK Flexibility Score: inf
ROOT
ATOM      1  C   UNL     1      -6.355  20.208  -9.257  1.00  0.00     0.053 C 
ENDROOT
BRANCH   1   2
ATOM      2  C   UNL     1      -6.762  20.183 -10.697  1.00  0.00     0.041 C 
ATOM      3  O   UNL     1      -7.895  20.610 -11.043  1.00  0.00    -0.550 OA
ATOM      4  O   UNL     1      -5.873  19.733 -11.664  1.00  0.00    -0.550 OA
ENDBRANCH   1   2
BRANCH   1   5
ATOM      5  C   UNL     1      -6.001  18.794  -8.778  1.00  0.00     0.006 C 
BRANCH   5   6
ATOM      6  C   UNL     1      -6.850  18.349  -7.577  1.00  0.00    -0.003 C 
ATOM      7  C   UNL     1      -7.887  19.395  -7.167  1.00  0.00     0.004 C 
ENDBRANCH   5   6
ENDBRANCH   1   5
TORSDOF 3
ENDMDL
MODEL 2
REMARK VINA RESULT:    -3.483      0.108      1.228
REMARK INTER + INTRA:          -4.160
REMARK INTER:                  -4.088
REMARK INTRA:                  -0.072
REMARK UNBOUND:                -0.066
REMARK SMILES CCCCC(=O)[O-]
REMARK SMILES IDX 4 1 5 2 6 3 7 4 3 5 2 6 1 7
REMARK H PARENT
REMARK Flexibility Score: inf
ROOT
ATOM      1  C   UNL     1      -6.248  20.172  -9.241  1.00  0.00     0.053 C 
ENDROOT
BRANCH   1   2
ATOM      2  C   UNL     1      -6.723  20.217 -10.659  1.00  0.00     0.041 C 
ATOM      3  O   UNL     1      -5.959  19.863 -11.595  1.00  0.00    -0.550 OA
ATOM      4  O   UNL     1      -8.026  20.604 -10.945  1.00  0.00    -0.550 OA
ENDBRANCH   1   2
BRANCH   1   5
ATOM      5  C   UNL     1      -6.015  18.721  -8.802  1.00  0.00     0.006 C 
BRANCH   5   6
ATOM      6  C   UNL     1      -6.866  18.330  -7.583  1.00  0.00    -0.003 C 
ATOM      7  C   UNL     1      -7.859  19.421  -7.182  1.00  0.00     0.004 C 
ENDBRANCH   5   6
ENDBRANCH   1   5
TORSDOF 3
ENDMDL
MODEL 3
REMARK VINA RESULT:    -3.070      1.216      1.629
REMARK INTER + INTRA:          -3.675
REMARK INTER:                  -3.635
REMARK INTRA:                  -0.040
REMARK UNBOUND:                -0.066
REMARK SMILES CCCCC(=O)[O-]
REMARK SMILES IDX 4 1 5 2 6 3 7 4 3 5 2 6 1 7
REMARK H PARENT
REMARK Flexibility Score: inf
ROOT
ATOM      1  C   UNL     1      -7.030  20.513 -10.456  1.00  0.00     0.053 C 
ENDROOT
BRANCH   1   2
ATOM      2  C   UNL     1      -5.875  20.451 -11.406  1.00  0.00     0.041 C 
ATOM      3  O   UNL     1      -5.711  19.441 -12.140  1.00  0.00    -0.550 OA
ATOM      4  O   UNL     1      -5.006  21.529 -11.516  1.00  0.00    -0.550 OA
ENDBRANCH   1   2
BRANCH   1   5
ATOM      5  C   UNL     1      -6.553  20.263  -9.020  1.00  0.00     0.006 C 
BRANCH   5   6
ATOM      6  C   UNL     1      -6.948  18.871  -8.501  1.00  0.00    -0.003 C 
ATOM      7  C   UNL     1      -7.767  18.931  -7.212  1.00  0.00     0.004 C 
ENDBRANCH   5   6
ENDBRANCH   1   5
TORSDOF 3
ENDMDL
MODEL 4
REMARK VINA RESULT:    -2.917      2.260      3.449
REMARK INTER + INTRA:          -3.495
REMARK INTER:                  -3.412
REMARK INTRA:                  -0.083
REMARK UNBOUND:                -0.066
REMARK SMILES CCCCC(=O)[O-]
REMARK SMILES IDX 4 1 5 2 6 3 7 4 3 5 2 6 1 7
REMARK H PARENT
REMARK Flexibility Score: inf
ROOT
ATOM      1  C   UNL     1      -6.561  20.279  -8.908  1.00  0.00     0.053 C 
ENDROOT
BRANCH   1   2
ATOM      2  C   UNL     1      -7.323  19.234  -8.154  1.00  0.00     0.041 C 
ATOM      3  O   UNL     1      -7.842  19.509  -7.040  1.00  0.00    -0.550 OA
ATOM      4  O   UNL     1      -7.502  17.971  -8.703  1.00  0.00    -0.550 OA
ENDBRANCH   1   2
BRANCH   1   5
ATOM      5  C   UNL     1      -6.163  19.753 -10.293  1.00  0.00     0.006 C 
BRANCH   5   6
ATOM      6  C   UNL     1      -6.682  20.644 -11.432  1.00  0.00    -0.003 C 
ATOM      7  C   UNL     1      -8.206  20.762 -11.443  1.00  0.00     0.004 C 
ENDBRANCH   5   6
ENDBRANCH   1   5
TORSDOF 3
ENDMDL
MODEL 5
REMARK VINA RESULT:    -2.646     12.294     13.037
REMARK INTER + INTRA:          -3.176
REMARK INTER:                  -3.156
REMARK INTRA:                  -0.020
REMARK UNBOUND:                -0.066
REMARK SMILES CCCCC(=O)[O-]
REMARK SMILES IDX 4 1 5 2 6 3 7 4 3 5 2 6 1 7
REMARK H PARENT
REMARK Flexibility Score: inf
ROOT
ATOM      1  C   UNL     1      -5.676  31.959  -6.669  1.00  0.00     0.053 C 
ENDROOT
BRANCH   1   2
ATOM      2  C   UNL     1      -4.902  32.785  -5.690  1.00  0.00     0.041 C 
ATOM      3  O   UNL     1      -4.691  32.355  -4.526  1.00  0.00    -0.550 OA
ATOM      4  O   UNL     1      -4.371  34.008  -6.078  1.00  0.00    -0.550 OA
ENDBRANCH   1   2
BRANCH   1   5
ATOM      5  C   UNL     1      -4.747  30.973  -7.388  1.00  0.00     0.006 C 
BRANCH   5   6
ATOM      6  C   UNL     1      -5.179  30.710  -8.840  1.00  0.00    -0.003 C 
ATOM      7  C   UNL     1      -6.591  30.133  -8.940  1.00  0.00     0.004 C 
ENDBRANCH   5   6
ENDBRANCH   1   5
TORSDOF 3
ENDMDL
MODEL 6
REMARK VINA RESULT:    -2.606     17.349     18.588
REMARK INTER + INTRA:          -3.129
REMARK INTER:                  -3.049
REMARK INTRA:                  -0.080
REMARK UNBOUND:                -0.066
REMARK SMILES CCCCC(=O)[O-]
REMARK SMILES IDX 4 1 5 2 6 3 7 4 3 5 2 6 1 7
REMARK H PARENT
REMARK Flexibility Score: inf
ROOT
ATOM      1  C   UNL     1     -16.416  33.959 -16.680  1.00  0.00     0.053 C 
ENDROOT
BRANCH   1   2
ATOM      2  C   UNL     1     -15.218  34.669 -17.228  1.00  0.00     0.041 C 
ATOM      3  O   UNL     1     -15.132  34.907 -18.462  1.00  0.00    -0.550 OA
ATOM      4  O   UNL     1     -14.219  35.112 -16.371  1.00  0.00    -0.550 OA
ENDBRANCH   1   2
BRANCH   1   5
ATOM      5  C   UNL     1     -17.206  33.293 -17.814  1.00  0.00     0.006 C 
BRANCH   5   6
ATOM      6  C   UNL     1     -16.958  31.779 -17.895  1.00  0.00    -0.003 C 
ATOM      7  C   UNL     1     -16.625  31.161 -16.537  1.00  0.00     0.004 C 
ENDBRANCH   5   6
ENDBRANCH   1   5
TORSDOF 3
ENDMDL
MODEL 7
REMARK VINA RESULT:    -2.580     11.197     12.049
REMARK INTER + INTRA:          -3.099
REMARK INTER:                  -3.079
REMARK INTRA:                  -0.020
REMARK UNBOUND:                -0.066
REMARK SMILES CCCCC(=O)[O-]
REMARK SMILES IDX 4 1 5 2 6 3 7 4 3 5 2 6 1 7
REMARK H PARENT
REMARK Flexibility Score: inf
ROOT
ATOM      1  C   UNL     1     -15.600  27.668 -11.199  1.00  0.00     0.053 C 
ENDROOT
BRANCH   1   2
ATOM      2  C   UNL     1     -16.234  28.450 -12.306  1.00  0.00     0.041 C 
ATOM      3  O   UNL     1     -17.320  28.065 -12.813  1.00  0.00    -0.550 OA
ATOM      4  O   UNL     1     -15.651  29.631 -12.746  1.00  0.00    -0.550 OA
ENDBRANCH   1   2
BRANCH   1   5
ATOM      5  C   UNL     1     -14.124  28.055 -11.050  1.00  0.00     0.006 C 
BRANCH   5   6
ATOM      6  C   UNL     1     -13.272  26.915 -10.468  1.00  0.00    -0.003 C 
ATOM      7  C   UNL     1     -12.536  27.321  -9.191  1.00  0.00     0.004 C 
ENDBRANCH   5   6
ENDBRANCH   1   5
TORSDOF 3
ENDMDL
MODEL 8
REMARK VINA RESULT:    -2.526      2.613      3.946
REMARK INTER + INTRA:          -3.035
REMARK INTER:                  -3.020
REMARK INTRA:                  -0.016
REMARK UNBOUND:                -0.066
REMARK SMILES CCCCC(=O)[O-]
REMARK SMILES IDX 4 1 5 2 6 3 7 4 3 5 2 6 1 7
REMARK H PARENT
REMARK Flexibility Score: inf
ROOT
ATOM      1  C   UNL     1      -7.370  20.167  -9.767  1.00  0.00     0.053 C 
ENDROOT
BRANCH   1   2
ATOM      2  C   UNL     1      -6.950  19.380  -8.565  1.00  0.00     0.041 C 
ATOM      3  O   UNL     1      -5.848  18.770  -8.560  1.00  0.00    -0.550 OA
ATOM      4  O   UNL     1      -7.752  19.360  -7.431  1.00  0.00    -0.550 OA
ENDBRANCH   1   2
BRANCH   1   5
ATOM      5  C   UNL     1      -6.368  21.294 -10.044  1.00  0.00     0.006 C 
BRANCH   5   6
ATOM      6  C   UNL     1      -6.962  22.408 -10.920  1.00  0.00    -0.003 C 
ATOM      7  C   UNL     1      -6.631  23.808 -10.401  1.00  0.00     0.004 C 
ENDBRANCH   5   6
ENDBRANCH   1   5
TORSDOF 3
ENDMDL
MODEL 9
REMARK VINA RESULT:    -2.502     10.810     11.739
REMARK INTER + INTRA:          -3.007
REMARK INTER:                  -2.976
REMARK INTRA:                  -0.031
REMARK UNBOUND:                -0.066
REMARK SMILES CCCCC(=O)[O-]
REMARK SMILES IDX 4 1 5 2 6 3 7 4 3 5 2 6 1 7
REMARK H PARENT
REMARK Flexibility Score: inf
ROOT
ATOM      1  C   UNL     1     -15.773  25.498 -12.144  1.00  0.00     0.053 C 
ENDROOT
BRANCH   1   2
ATOM      2  C   UNL     1     -16.956  24.614 -12.385  1.00  0.00     0.041 C 
ATOM      3  O   UNL     1     -17.476  23.978 -11.431  1.00  0.00    -0.550 OA
ATOM      4  O   UNL     1     -17.514  24.528 -13.654  1.00  0.00    -0.550 OA
ENDBRANCH   1   2
BRANCH   1   5
ATOM      5  C   UNL     1     -16.219  26.828 -11.522  1.00  0.00     0.006 C 
BRANCH   5   6
ATOM      6  C   UNL     1     -15.033  27.694 -11.070  1.00  0.00    -0.003 C 
ATOM      7  C   UNL     1     -13.740  26.892 -10.919  1.00  0.00     0.004 C 
ENDBRANCH   5   6
ENDBRANCH   1   5
TORSDOF 3
ENDMDL
