MODEL 1
REMARK VINA RESULT:     2.889      0.000      0.000
REMARK INTER + INTRA:           4.433
REMARK INTER:                   5.085
REMARK INTRA:                  -0.653
REMARK UNBOUND:                -0.653
REMARK SMILES CCCCCCCCCCCCCCC(=O)[O-]
REMARK SMILES IDX 9 1 10 2 11 3 12 4 13 5 14 6 15 7 16 8 17 9 8 10 7 11 6 12
REMARK SMILES IDX 5 13 4 14 3 15 2 16 1 17
REMARK H PARENT
REMARK Flexibility Score: inf
ROOT
ATOM      1  C   UNL     1      -1.185 -15.740 -25.268  1.00  0.00     0.000 C 
ENDROOT
BRANCH   1   2
ATOM      2  C   UNL     1      -1.832 -14.476 -25.862  1.00  0.00     0.000 C 
BRANCH   2   3
ATOM      3  C   UNL     1      -2.091 -14.591 -27.371  1.00  0.00     0.000 C 
BRANCH   3   4
ATOM      4  C   UNL     1      -1.839 -13.253 -28.076  1.00  0.00     0.000 C 
BRANCH   4   5
ATOM      5  C   UNL     1      -0.928 -12.351 -27.236  1.00  0.00     0.006 C 
BRANCH   5   6
ATOM      6  C   UNL     1       0.046 -11.573 -28.124  1.00  0.00     0.053 C 
BRANCH   6   7
ATOM      7  C   UNL     1       1.459 -11.836 -27.707  1.00  0.00     0.041 C 
ATOM      8  O   UNL     1       2.067 -11.012 -26.975  1.00  0.00    -0.550 OA
ATOM      9  O   UNL     1       2.088 -13.014 -28.089  1.00  0.00    -0.550 OA
ENDBRANCH   6   7
ENDBRANCH   5   6
ENDBRANCH   4   5
ENDBRANCH   3   4
ENDBRANCH   2   3
ENDBRANCH   1   2
BRANCH   1  10
ATOM     10  C   UNL     1      -2.079 -16.996 -25.280  1.00  0.00     0.000 C 
BRANCH  10  11
ATOM     11  C   UNL     1      -1.349 -18.318 -25.590  1.00  0.00    -0.000 C 
BRANCH  11  12
ATOM     12  C   UNL     1       0.183 -18.206 -25.687  1.00  0.00    -0.000 C 
BRANCH  12  13
ATOM     13  C   UNL     1       0.842 -19.489 -26.213  1.00  0.00    -0.000 C 
BRANCH  13  14
ATOM     14  C   UNL     1       1.543 -20.250 -25.081  1.00  0.00    -0.000 C 
BRANCH  14  15
ATOM     15  C   UNL     1       0.890 -21.616 -24.847  1.00  0.00    -0.000 C 
BRANCH  15  16
ATOM     16  C   UNL     1      -0.159 -21.917 -25.924  1.00  0.00    -0.003 C 
ATOM     17  C   UNL     1      -1.572 -21.671 -25.403  1.00  0.00     0.004 C 
ENDBRANCH  15  16
ENDBRANCH  14  15
ENDBRANCH  13  14
ENDBRANCH  12  13
ENDBRANCH  11  12
ENDBRANCH  10  11
ENDBRANCH   1  10
TORSDOF 13
ENDMDL
MODEL 2
REMARK VINA RESULT:     4.786      1.277      2.482
REMARK INTER + INTRA:           7.770
REMARK INTER:                   6.654
REMARK INTRA:                   1.117
REMARK UNBOUND:                -0.653
REMARK SMILES CCCCCCCCCCCCCCC(=O)[O-]
REMARK SMILES IDX 9 1 10 2 11 3 12 4 13 5 14 6 15 7 16 8 17 9 8 10 7 11 6 12
REMARK SMILES IDX 5 13 4 14 3 15 2 16 1 17
REMARK H PARENT
REMARK Flexibility Score: inf
ROOT
ATOM      1  C   UNL     1      -1.437 -17.888 -25.456  1.00  0.00     0.000 C 
ENDROOT
BRANCH   1   2
ATOM      2  C   UNL     1      -1.986 -16.528 -25.923  1.00  0.00     0.000 C 
BRANCH   2   3
ATOM      3  C   UNL     1      -1.521 -16.150 -27.336  1.00  0.00     0.000 C 
BRANCH   3   4
ATOM      4  C   UNL     1      -1.524 -14.628 -27.527  1.00  0.00     0.000 C 
BRANCH   4   5
ATOM      5  C   UNL     1      -1.382 -13.904 -26.184  1.00  0.00     0.006 C 
BRANCH   5   6
ATOM      6  C   UNL     1      -1.521 -12.389 -26.358  1.00  0.00     0.053 C 
BRANCH   6   7
ATOM      7  C   UNL     1      -0.653 -11.910 -27.479  1.00  0.00     0.041 C 
ATOM      8  O   UNL     1      -0.965 -10.875 -28.125  1.00  0.00    -0.550 OA
ATOM      9  O   UNL     1       0.527 -12.579 -27.779  1.00  0.00    -0.550 OA
ENDBRANCH   6   7
ENDBRANCH   5   6
ENDBRANCH   4   5
ENDBRANCH   3   4
ENDBRANCH   2   3
ENDBRANCH   1   2
BRANCH   1  10
ATOM     10  C   UNL     1      -0.232 -18.414 -26.261  1.00  0.00     0.000 C 
BRANCH  10  11
ATOM     11  C   UNL     1      -0.149 -19.948 -26.390  1.00  0.00    -0.000 C 
BRANCH  11  12
ATOM     12  C   UNL     1      -1.492 -20.685 -26.249  1.00  0.00    -0.000 C 
BRANCH  12  13
ATOM     13  C   UNL     1      -1.331 -22.211 -26.181  1.00  0.00    -0.000 C 
BRANCH  13  14
ATOM     14  C   UNL     1      -0.006 -22.594 -25.511  1.00  0.00    -0.000 C 
BRANCH  14  15
ATOM     15  C   UNL     1       0.040 -22.106 -24.059  1.00  0.00    -0.000 C 
BRANCH  15  16
ATOM     16  C   UNL     1       1.407 -21.497 -23.724  1.00  0.00    -0.003 C 
ATOM     17  C   UNL     1       1.793 -20.420 -24.734  1.00  0.00     0.004 C 
ENDBRANCH  15  16
ENDBRANCH  14  15
ENDBRANCH  13  14
ENDBRANCH  12  13
ENDBRANCH  11  12
ENDBRANCH  10  11
ENDBRANCH   1  10
TORSDOF 13
ENDMDL
MODEL 3
REMARK VINA RESULT:     5.643      2.379      3.248
REMARK INTER + INTRA:           9.279
REMARK INTER:                   9.652
REMARK INTRA:                  -0.373
REMARK UNBOUND:                -0.653
REMARK SMILES CCCCCCCCCCCCCCC(=O)[O-]
REMARK SMILES IDX 9 1 10 2 11 3 12 4 13 5 14 6 15 7 16 8 17 9 8 10 7 11 6 12
REMARK SMILES IDX 5 13 4 14 3 15 2 16 1 17
REMARK H PARENT
REMARK Flexibility Score: inf
ROOT
ATOM      1  C   UNL     1      -1.756 -18.269 -24.887  1.00  0.00     0.000 C 
ENDROOT
BRANCH   1   2
ATOM      2  C   UNL     1      -2.043 -16.883 -25.493  1.00  0.00     0.000 C 
BRANCH   2   3
ATOM      3  C   UNL     1      -1.177 -16.579 -26.724  1.00  0.00     0.000 C 
BRANCH   3   4
ATOM      4  C   UNL     1      -1.666 -15.314 -27.441  1.00  0.00     0.000 C 
BRANCH   4   5
ATOM      5  C   UNL     1      -0.654 -14.173 -27.296  1.00  0.00     0.006 C 
BRANCH   5   6
ATOM      6  C   UNL     1      -1.213 -12.867 -27.869  1.00  0.00     0.053 C 
BRANCH   6   7
ATOM      7  C   UNL     1      -0.352 -11.710 -27.471  1.00  0.00     0.041 C 
ATOM      8  O   UNL     1       0.690 -11.440 -28.125  1.00  0.00    -0.550 OA
ATOM      9  O   UNL     1      -0.725 -10.901 -26.405  1.00  0.00    -0.550 OA
ENDBRANCH   6   7
ENDBRANCH   5   6
ENDBRANCH   4   5
ENDBRANCH   3   4
ENDBRANCH   2   3
ENDBRANCH   1   2
BRANCH   1  10
ATOM     10  C   UNL     1      -0.562 -19.018 -25.513  1.00  0.00     0.000 C 
BRANCH  10  11
ATOM     11  C   UNL     1      -0.856 -20.465 -25.957  1.00  0.00    -0.000 C 
BRANCH  11  12
ATOM     12  C   UNL     1       0.355 -21.414 -25.918  1.00  0.00    -0.000 C 
BRANCH  12  13
ATOM     13  C   UNL     1      -0.004 -22.816 -25.405  1.00  0.00    -0.000 C 
BRANCH  13  14
ATOM     14  C   UNL     1       1.137 -23.806 -25.670  1.00  0.00    -0.000 C 
BRANCH  14  15
ATOM     15  C   UNL     1       1.003 -25.051 -24.786  1.00  0.00    -0.000 C 
BRANCH  15  16
ATOM     16  C   UNL     1       1.572 -26.290 -25.489  1.00  0.00    -0.003 C 
ATOM     17  C   UNL     1       2.481 -27.084 -24.556  1.00  0.00     0.004 C 
ENDBRANCH  15  16
ENDBRANCH  14  15
ENDBRANCH  13  14
ENDBRANCH  12  13
ENDBRANCH  11  12
ENDBRANCH  10  11
ENDBRANCH   1  10
TORSDOF 13
ENDMDL
