MODEL 1
REMARK VINA RESULT:    -3.013      0.000      0.000
REMARK INTER + INTRA:          -4.174
REMARK INTER:                  -4.070
REMARK INTRA:                  -0.104
REMARK UNBOUND:                -0.104
REMARK SMILES C[C@H](O)[C@@H](O)[C@H](O)[C@@H](O)C=O
REMARK SMILES IDX 4 1 2 2 1 3 3 4 6 6 8 7 10 8 11 9 9 10 7 12 5 14
REMARK H PARENT 3 5 9 11 7 13 5 15
REMARK Flexibility Score: inf
ROOT
ATOM      1  C   UNL     1      13.161  17.307  20.759  1.00  0.00     0.174 C 
ENDROOT
BRANCH   1   2
ATOM      2  C   UNL     1      14.097  18.026  19.749  1.00  0.00     0.142 C 
ATOM      3  C   UNL     1      13.528  18.125  18.324  1.00  0.00     0.041 C 
BRANCH   2   4
ATOM      4  O   UNL     1      15.384  17.456  19.754  1.00  0.00    -0.391 OA
ATOM      5  H   UNL     1      15.611  17.187  18.826  1.00  0.00     0.211 HD
ENDBRANCH   2   4
ENDBRANCH   1   2
BRANCH   1   6
ATOM      6  C   UNL     1      11.652  17.392  20.405  1.00  0.00     0.181 C 
BRANCH   6   7
ATOM      7  C   UNL     1      11.077  15.996  20.067  1.00  0.00     0.209 C 
BRANCH   7   8
ATOM      8  C   UNL     1      11.245  15.051  21.227  1.00  0.00     0.258 C 
ATOM      9  O   UNL     1      11.173  13.843  21.055  1.00  0.00    -0.300 OA
ENDBRANCH   7   8
BRANCH   7  10
ATOM     10  O   UNL     1      11.728  15.473  18.937  1.00  0.00    -0.383 OA
ATOM     11  H   UNL     1      11.023  15.106  18.342  1.00  0.00     0.211 HD
ENDBRANCH   7  10
ENDBRANCH   6   7
BRANCH   6  12
ATOM     12  O   UNL     1      10.941  17.949  21.484  1.00  0.00    -0.387 OA
ATOM     13  H   UNL     1      10.649  18.857  21.205  1.00  0.00     0.211 HD
ENDBRANCH   6  12
ENDBRANCH   1   6
BRANCH   1  14
ATOM     14  O   UNL     1      13.371  17.820  22.052  1.00  0.00    -0.388 OA
ATOM     15  H   UNL     1      13.042  18.757  22.050  1.00  0.00     0.211 HD
ENDBRANCH   1  14
TORSDOF 8
ENDMDL
MODEL 2
REMARK VINA RESULT:    -2.717      2.195      3.247
REMARK INTER + INTRA:          -3.774
REMARK INTER:                  -3.245
REMARK INTRA:                  -0.529
REMARK UNBOUND:                -0.104
REMARK SMILES C[C@H](O)[C@@H](O)[C@H](O)[C@@H](O)C=O
REMARK SMILES IDX 4 1 2 2 1 3 3 4 6 6 8 7 10 8 11 9 9 10 7 12 5 14
REMARK H PARENT 3 5 9 11 7 13 5 15
REMARK Flexibility Score: inf
ROOT
ATOM      1  C   UNL     1      11.623  17.200  20.581  1.00  0.00     0.174 C 
ENDROOT
BRANCH   1   2
ATOM      2  C   UNL     1      12.098  17.769  19.215  1.00  0.00     0.142 C 
ATOM      3  C   UNL     1      11.214  17.364  18.023  1.00  0.00     0.041 C 
BRANCH   2   4
ATOM      4  O   UNL     1      13.452  17.465  18.981  1.00  0.00    -0.391 OA
ATOM      5  H   UNL     1      13.899  17.335  19.857  1.00  0.00     0.211 HD
ENDBRANCH   2   4
ENDBRANCH   1   2
BRANCH   1   6
ATOM      6  C   UNL     1      12.135  17.990  21.815  1.00  0.00     0.181 C 
BRANCH   6   7
ATOM      7  C   UNL     1      11.360  17.592  23.094  1.00  0.00     0.209 C 
BRANCH   7   8
ATOM      8  C   UNL     1      12.046  18.124  24.325  1.00  0.00     0.258 C 
ATOM      9  O   UNL     1      13.120  17.665  24.681  1.00  0.00    -0.300 OA
ENDBRANCH   7   8
BRANCH   7  10
ATOM     10  O   UNL     1      11.264  16.193  23.179  1.00  0.00    -0.383 OA
ATOM     11  H   UNL     1      10.331  15.953  22.938  1.00  0.00     0.211 HD
ENDBRANCH   7  10
ENDBRANCH   6   7
BRANCH   6  12
ATOM     12  O   UNL     1      13.509  17.750  21.999  1.00  0.00    -0.387 OA
ATOM     13  H   UNL     1      13.640  16.766  21.979  1.00  0.00     0.211 HD
ENDBRANCH   6  12
ENDBRANCH   1   6
BRANCH   1  14
ATOM     14  O   UNL     1      12.006  15.851  20.695  1.00  0.00    -0.388 OA
ATOM     15  H   UNL     1      11.235  15.304  20.389  1.00  0.00     0.211 HD
ENDBRANCH   1  14
TORSDOF 8
ENDMDL
MODEL 3
REMARK VINA RESULT:    -2.353      2.495      3.844
REMARK INTER + INTRA:          -3.283
REMARK INTER:                  -2.613
REMARK INTRA:                  -0.670
REMARK UNBOUND:                -0.104
REMARK SMILES C[C@H](O)[C@@H](O)[C@H](O)[C@@H](O)C=O
REMARK SMILES IDX 4 1 2 2 1 3 3 4 6 6 8 7 10 8 11 9 9 10 7 12 5 14
REMARK H PARENT 3 5 9 11 7 13 5 15
REMARK Flexibility Score: inf
ROOT
ATOM      1  C   UNL     1      11.861  17.908  22.840  1.00  0.00     0.174 C 
ENDROOT
BRANCH   1   2
ATOM      2  C   UNL     1      11.385  17.638  24.295  1.00  0.00     0.142 C 
ATOM      3  C   UNL     1      12.364  18.123  25.377  1.00  0.00     0.041 C 
BRANCH   2   4
ATOM      4  O   UNL     1      11.043  16.285  24.475  1.00  0.00    -0.391 OA
ATOM      5  H   UNL     1      10.731  16.163  25.408  1.00  0.00     0.211 HD
ENDBRANCH   2   4
ENDBRANCH   1   2
BRANCH   1   6
ATOM      6  C   UNL     1      11.180  17.015  21.769  1.00  0.00     0.181 C 
BRANCH   6   7
ATOM      7  C   UNL     1      11.350  17.614  20.352  1.00  0.00     0.209 C 
BRANCH   7   8
ATOM      8  C   UNL     1      10.877  16.646  19.300  1.00  0.00     0.258 C 
ATOM      9  O   UNL     1      11.607  15.744  18.916  1.00  0.00    -0.300 OA
ENDBRANCH   7   8
BRANCH   7  10
ATOM     10  O   UNL     1      12.699  17.931  20.126  1.00  0.00    -0.383 OA
ATOM     11  H   UNL     1      13.234  17.153  20.434  1.00  0.00     0.211 HD
ENDBRANCH   7  10
ENDBRANCH   6   7
BRANCH   6  12
ATOM     12  O   UNL     1      11.730  15.721  21.806  1.00  0.00    -0.387 OA
ATOM     13  H   UNL     1      11.642  15.339  20.894  1.00  0.00     0.211 HD
ENDBRANCH   6  12
ENDBRANCH   1   6
BRANCH   1  14
ATOM     14  O   UNL     1      13.257  17.756  22.760  1.00  0.00    -0.388 OA
ATOM     15  H   UNL     1      13.503  17.827  21.800  1.00  0.00     0.211 HD
ENDBRANCH   1  14
TORSDOF 8
ENDMDL
MODEL 4
REMARK VINA RESULT:    -2.229      1.206      4.208
REMARK INTER + INTRA:          -3.115
REMARK INTER:                  -2.903
REMARK INTRA:                  -0.211
REMARK UNBOUND:                -0.104
REMARK SMILES C[C@H](O)[C@@H](O)[C@H](O)[C@@H](O)C=O
REMARK SMILES IDX 4 1 2 2 1 3 3 4 6 6 8 7 10 8 11 9 9 10 7 12 5 14
REMARK H PARENT 3 5 9 11 7 13 5 15
REMARK Flexibility Score: inf
ROOT
ATOM      1  C   UNL     1      11.974  15.747  20.519  1.00  0.00     0.174 C 
ENDROOT
BRANCH   1   2
ATOM      2  C   UNL     1      10.876  14.931  21.257  1.00  0.00     0.142 C 
ATOM      3  C   UNL     1      10.891  15.094  22.786  1.00  0.00     0.041 C 
BRANCH   2   4
ATOM      4  O   UNL     1      10.912  13.575  20.881  1.00  0.00    -0.391 OA
ATOM      5  H   UNL     1      10.235  13.084  21.415  1.00  0.00     0.211 HD
ENDBRANCH   2   4
ENDBRANCH   1   2
BRANCH   1   6
ATOM      6  C   UNL     1      11.636  17.250  20.332  1.00  0.00     0.181 C 
BRANCH   6   7
ATOM      7  C   UNL     1      12.909  18.125  20.423  1.00  0.00     0.209 C 
BRANCH   7   8
ATOM      8  C   UNL     1      13.924  17.705  19.393  1.00  0.00     0.258 C 
ATOM      9  O   UNL     1      13.730  17.926  18.207  1.00  0.00    -0.300 OA
ENDBRANCH   7   8
BRANCH   7  10
ATOM     10  O   UNL     1      13.471  18.019  21.706  1.00  0.00    -0.383 OA
ATOM     11  H   UNL     1      12.952  17.325  22.192  1.00  0.00     0.211 HD
ENDBRANCH   7  10
ENDBRANCH   6   7
BRANCH   6  12
ATOM     12  O   UNL     1      11.014  17.447  19.086  1.00  0.00    -0.387 OA
ATOM     13  H   UNL     1      10.602  18.350  19.103  1.00  0.00     0.211 HD
ENDBRANCH   6  12
ENDBRANCH   1   6
BRANCH   1  14
ATOM     14  O   UNL     1      12.240  15.165  19.267  1.00  0.00    -0.388 OA
ATOM     15  H   UNL     1      11.501  15.432  18.659  1.00  0.00     0.211 HD
ENDBRANCH   1  14
TORSDOF 8
ENDMDL
MODEL 5
REMARK VINA RESULT:    -1.645      2.128      4.117
REMARK INTER + INTRA:          -2.327
REMARK INTER:                  -2.147
REMARK INTRA:                  -0.179
REMARK UNBOUND:                -0.104
REMARK SMILES C[C@H](O)[C@@H](O)[C@H](O)[C@@H](O)C=O
REMARK SMILES IDX 4 1 2 2 1 3 3 4 6 6 8 7 10 8 11 9 9 10 7 12 5 14
REMARK H PARENT 3 5 9 11 7 13 5 15
REMARK Flexibility Score: inf
ROOT
ATOM      1  C   UNL     1      11.509  16.023  22.054  1.00  0.00     0.174 C 
ENDROOT
BRANCH   1   2
ATOM      2  C   UNL     1      11.103  16.731  23.378  1.00  0.00     0.142 C 
ATOM      3  C   UNL     1      12.039  17.880  23.789  1.00  0.00     0.041 C 
BRANCH   2   4
ATOM      4  O   UNL     1      10.936  15.801  24.421  1.00  0.00    -0.391 OA
ATOM      5  H   UNL     1      10.824  14.900  24.021  1.00  0.00     0.211 HD
ENDBRANCH   2   4
ENDBRANCH   1   2
BRANCH   1   6
ATOM      6  C   UNL     1      11.047  16.760  20.768  1.00  0.00     0.181 C 
BRANCH   6   7
ATOM      7  C   UNL     1      12.071  17.839  20.344  1.00  0.00     0.209 C 
BRANCH   7   8
ATOM      8  C   UNL     1      11.972  18.124  18.869  1.00  0.00     0.258 C 
ATOM      9  O   UNL     1      12.863  17.774  18.110  1.00  0.00    -0.300 OA
ENDBRANCH   7   8
BRANCH   7  10
ATOM     10  O   UNL     1      13.373  17.411  20.653  1.00  0.00    -0.383 OA
ATOM     11  H   UNL     1      13.327  16.430  20.797  1.00  0.00     0.211 HD
ENDBRANCH   7  10
ENDBRANCH   6   7
BRANCH   6  12
ATOM     12  O   UNL     1      10.875  15.833  19.724  1.00  0.00    -0.387 OA
ATOM     13  H   UNL     1      10.118  15.242  19.978  1.00  0.00     0.211 HD
ENDBRANCH   6  12
ENDBRANCH   1   6
BRANCH   1  14
ATOM     14  O   UNL     1      11.013  14.707  22.047  1.00  0.00    -0.388 OA
ATOM     15  H   UNL     1      11.797  14.101  21.985  1.00  0.00     0.211 HD
ENDBRANCH   1  14
TORSDOF 8
ENDMDL
MODEL 6
REMARK VINA RESULT:    -1.326      1.750      3.516
REMARK INTER + INTRA:          -1.896
REMARK INTER:                  -2.149
REMARK INTRA:                   0.253
REMARK UNBOUND:                -0.104
REMARK SMILES C[C@H](O)[C@@H](O)[C@H](O)[C@@H](O)C=O
REMARK SMILES IDX 4 1 2 2 1 3 3 4 6 6 8 7 10 8 11 9 9 10 7 12 5 14
REMARK H PARENT 3 5 9 11 7 13 5 15
REMARK Flexibility Score: inf
ROOT
ATOM      1  C   UNL     1      11.242  15.724  19.880  1.00  0.00     0.174 C 
ENDROOT
BRANCH   1   2
ATOM      2  C   UNL     1      12.326  16.444  19.030  1.00  0.00     0.142 C 
ATOM      3  C   UNL     1      13.365  17.218  19.859  1.00  0.00     0.041 C 
BRANCH   2   4
ATOM      4  O   UNL     1      11.739  17.261  18.045  1.00  0.00    -0.391 OA
ATOM      5  H   UNL     1      11.017  17.793  18.468  1.00  0.00     0.211 HD
ENDBRANCH   2   4
ENDBRANCH   1   2
BRANCH   1   6
ATOM      6  C   UNL     1      11.659  15.452  21.350  1.00  0.00     0.181 C 
BRANCH   6   7
ATOM      7  C   UNL     1      10.875  16.355  22.331  1.00  0.00     0.209 C 
BRANCH   7   8
ATOM      8  C   UNL     1      11.474  17.736  22.385  1.00  0.00     0.258 C 
ATOM      9  O   UNL     1      12.544  17.924  22.943  1.00  0.00    -0.300 OA
ENDBRANCH   7   8
BRANCH   7  10
ATOM     10  O   UNL     1      10.886  15.788  23.616  1.00  0.00    -0.383 OA
ATOM     11  H   UNL     1      10.273  15.007  23.592  1.00  0.00     0.211 HD
ENDBRANCH   7  10
ENDBRANCH   6   7
BRANCH   6  12
ATOM     12  O   UNL     1      11.433  14.100  21.666  1.00  0.00    -0.387 OA
ATOM     13  H   UNL     1      11.213  14.058  22.634  1.00  0.00     0.211 HD
ENDBRANCH   6  12
ENDBRANCH   1   6
BRANCH   1  14
ATOM     14  O   UNL     1      10.877  14.515  19.262  1.00  0.00    -0.388 OA
ATOM     15  H   UNL     1      10.784  14.701  18.291  1.00  0.00     0.211 HD
ENDBRANCH   1  14
TORSDOF 8
ENDMDL
