MODEL 1
REMARK VINA RESULT:    -5.026      0.000      0.000
REMARK INTER + INTRA:          -5.578
REMARK INTER:                  -5.320
REMARK INTRA:                  -0.258
REMARK UNBOUND:                -0.258
REMARK SMILES CC1=CC[C@@H]2[C@H]3[C@H](C(C)C)CC[C@]2(C)[C@@H]13
REMARK SMILES IDX 1 1 2 2 3 3 4 4 5 5 6 6 15 7 13 8 12 9 11 10 7 11 14 12 8 13
REMARK SMILES IDX 9 14 10 15
REMARK H PARENT
REMARK Flexibility Score: inf
ROOT
ATOM      1  C   UNL     1      58.484  47.125  40.795  1.00  0.00     0.039 C 
ATOM      2  C   UNL     1      58.676  45.651  40.987  1.00  0.00    -0.073 C 
ATOM      3  C   UNL     1      59.429  44.902  40.138  1.00  0.00    -0.027 C 
ATOM      4  C   UNL     1      59.566  43.399  40.404  1.00  0.00     0.031 C 
ATOM      5  C   UNL     1      58.723  42.987  41.653  1.00  0.00     0.003 C 
ATOM      6  C   UNL     1      57.330  43.644  41.511  1.00  0.00     0.004 C 
ATOM      7  C   UNL     1      57.973  44.914  42.128  1.00  0.00     0.024 C 
ATOM      8  C   UNL     1      58.955  43.953  42.840  1.00  0.00    -0.022 C 
ATOM      9  C   UNL     1      58.299  43.351  44.122  1.00  0.00     0.008 C 
ATOM     10  C   UNL     1      56.766  43.160  43.973  1.00  0.00     0.005 C 
ATOM     11  C   UNL     1      56.329  42.958  42.488  1.00  0.00    -0.005 C 
ATOM     12  C   UNL     1      60.394  44.438  43.131  1.00  0.00     0.012 C 
ENDROOT
BRANCH  11  13
ATOM     13  C   UNL     1      54.850  43.357  42.195  1.00  0.00    -0.014 C 
ATOM     14  C   UNL     1      53.873  42.249  42.614  1.00  0.00     0.007 C 
ATOM     15  C   UNL     1      54.426  44.704  42.805  1.00  0.00     0.007 C 
ENDBRANCH  11  13
TORSDOF 1
ENDMDL
MODEL 2
REMARK VINA RESULT:    -4.839      1.332      2.117
REMARK INTER + INTRA:          -5.379
REMARK INTER:                  -5.168
REMARK INTRA:                  -0.211
REMARK UNBOUND:                -0.258
REMARK SMILES CC1=CC[C@@H]2[C@H]3[C@H](C(C)C)CC[C@]2(C)[C@@H]13
REMARK SMILES IDX 1 1 2 2 3 3 4 4 5 5 6 6 15 7 13 8 12 9 11 10 7 11 14 12 8 13
REMARK SMILES IDX 9 14 10 15
REMARK H PARENT
REMARK Flexibility Score: inf
ROOT
ATOM      1  C   UNL     1      59.491  44.518  40.052  1.00  0.00     0.039 C 
ATOM      2  C   UNL     1      59.112  44.223  41.471  1.00  0.00    -0.073 C 
ATOM      3  C   UNL     1      59.775  43.304  42.222  1.00  0.00    -0.027 C 
ATOM      4  C   UNL     1      59.316  43.058  43.663  1.00  0.00     0.031 C 
ATOM      5  C   UNL     1      58.065  43.935  43.995  1.00  0.00     0.003 C 
ATOM      6  C   UNL     1      57.077  43.800  42.812  1.00  0.00     0.004 C 
ATOM      7  C   UNL     1      57.908  44.911  42.117  1.00  0.00     0.024 C 
ATOM      8  C   UNL     1      58.263  45.401  43.541  1.00  0.00    -0.022 C 
ATOM      9  C   UNL     1      57.108  46.275  44.124  1.00  0.00     0.008 C 
ATOM     10  C   UNL     1      55.710  45.821  43.627  1.00  0.00     0.005 C 
ATOM     11  C   UNL     1      55.670  44.306  43.250  1.00  0.00    -0.005 C 
ATOM     12  C   UNL     1      59.637  46.072  43.779  1.00  0.00     0.012 C 
ENDROOT
BRANCH  11  13
ATOM     13  C   UNL     1      54.560  43.930  42.222  1.00  0.00    -0.014 C 
ATOM     14  C   UNL     1      54.127  42.464  42.369  1.00  0.00     0.007 C 
ATOM     15  C   UNL     1      53.333  44.856  42.250  1.00  0.00     0.007 C 
ENDBRANCH  11  13
TORSDOF 1
ENDMDL
MODEL 3
REMARK VINA RESULT:    -4.277     17.624     19.661
REMARK INTER + INTRA:          -4.785
REMARK INTER:                  -4.400
REMARK INTRA:                  -0.384
REMARK UNBOUND:                -0.258
REMARK SMILES CC1=CC[C@@H]2[C@H]3[C@H](C(C)C)CC[C@]2(C)[C@@H]13
REMARK SMILES IDX 1 1 2 2 3 3 4 4 5 5 6 6 15 7 13 8 12 9 11 10 7 11 14 12 8 13
REMARK SMILES IDX 9 14 10 15
REMARK H PARENT
REMARK Flexibility Score: inf
ROOT
ATOM      1  C   UNL     1      49.710  34.067  26.572  1.00  0.00     0.039 C 
ATOM      2  C   UNL     1      49.967  33.697  28.001  1.00  0.00    -0.073 C 
ATOM      3  C   UNL     1      50.845  34.383  28.780  1.00  0.00    -0.027 C 
ATOM      4  C   UNL     1      51.054  33.932  30.230  1.00  0.00     0.031 C 
ATOM      5  C   UNL     1      50.196  32.663  30.535  1.00  0.00     0.003 C 
ATOM      6  C   UNL     1      50.392  31.676  29.361  1.00  0.00     0.004 C 
ATOM      7  C   UNL     1      49.286  32.479  28.627  1.00  0.00     0.024 C 
ATOM      8  C   UNL     1      48.741  32.826  30.034  1.00  0.00    -0.022 C 
ATOM      9  C   UNL     1      47.875  31.653  30.591  1.00  0.00     0.008 C 
ATOM     10  C   UNL     1      48.377  30.264  30.112  1.00  0.00     0.005 C 
ATOM     11  C   UNL     1      49.904  30.258  29.786  1.00  0.00    -0.005 C 
ATOM     12  C   UNL     1      48.031  34.184  30.245  1.00  0.00     0.012 C 
ENDROOT
BRANCH  11  13
ATOM     13  C   UNL     1      50.339  29.155  28.774  1.00  0.00    -0.014 C 
ATOM     14  C   UNL     1      49.128  28.399  28.207  1.00  0.00     0.007 C 
ATOM     15  C   UNL     1      51.236  29.664  27.632  1.00  0.00     0.007 C 
ENDBRANCH  11  13
TORSDOF 1
ENDMDL
MODEL 4
REMARK VINA RESULT:    -4.170      1.468      2.316
REMARK INTER + INTRA:          -4.671
REMARK INTER:                  -4.443
REMARK INTRA:                  -0.228
REMARK UNBOUND:                -0.258
REMARK SMILES CC1=CC[C@@H]2[C@H]3[C@H](C(C)C)CC[C@]2(C)[C@@H]13
REMARK SMILES IDX 1 1 2 2 3 3 4 4 5 5 6 6 15 7 13 8 12 9 11 10 7 11 14 12 8 13
REMARK SMILES IDX 9 14 10 15
REMARK H PARENT
REMARK Flexibility Score: inf
ROOT
ATOM      1  C   UNL     1      59.199  46.924  44.125  1.00  0.00     0.039 C 
ATOM      2  C   UNL     1      58.681  46.012  43.055  1.00  0.00    -0.073 C 
ATOM      3  C   UNL     1      59.177  46.026  41.789  1.00  0.00    -0.027 C 
ATOM      4  C   UNL     1      58.584  45.064  40.753  1.00  0.00     0.031 C 
ATOM      5  C   UNL     1      57.419  44.234  41.384  1.00  0.00     0.003 C 
ATOM      6  C   UNL     1      56.515  45.218  42.162  1.00  0.00     0.004 C 
ATOM      7  C   UNL     1      57.518  45.059  43.336  1.00  0.00     0.024 C 
ATOM      8  C   UNL     1      57.817  43.653  42.762  1.00  0.00    -0.022 C 
ATOM      9  C   UNL     1      56.728  42.632  43.218  1.00  0.00     0.008 C 
ATOM     10  C   UNL     1      55.329  43.286  43.376  1.00  0.00     0.005 C 
ATOM     11  C   UNL     1      55.146  44.539  42.464  1.00  0.00    -0.005 C 
ATOM     12  C   UNL     1      59.236  43.063  42.937  1.00  0.00     0.012 C 
ENDROOT
BRANCH  11  13
ATOM     13  C   UNL     1      54.082  45.556  42.977  1.00  0.00    -0.014 C 
ATOM     14  C   UNL     1      54.688  46.953  43.181  1.00  0.00     0.007 C 
ATOM     15  C   UNL     1      52.818  45.643  42.104  1.00  0.00     0.007 C 
ENDBRANCH  11  13
TORSDOF 1
ENDMDL
MODEL 5
REMARK VINA RESULT:    -3.995     17.841     20.048
REMARK INTER + INTRA:          -4.487
REMARK INTER:                  -4.071
REMARK INTRA:                  -0.416
REMARK UNBOUND:                -0.258
REMARK SMILES CC1=CC[C@@H]2[C@H]3[C@H](C(C)C)CC[C@]2(C)[C@@H]13
REMARK SMILES IDX 1 1 2 2 3 3 4 4 5 5 6 6 15 7 13 8 12 9 11 10 7 11 14 12 8 13
REMARK SMILES IDX 9 14 10 15
REMARK H PARENT
REMARK Flexibility Score: inf
ROOT
ATOM      1  C   UNL     1      51.206  32.095  31.683  1.00  0.00     0.039 C 
ATOM      2  C   UNL     1      50.081  31.957  30.703  1.00  0.00    -0.073 C 
ATOM      3  C   UNL     1      48.977  31.210  30.969  1.00  0.00    -0.027 C 
ATOM      4  C   UNL     1      47.875  31.116  29.907  1.00  0.00     0.031 C 
ATOM      5  C   UNL     1      48.284  31.912  28.625  1.00  0.00     0.003 C 
ATOM      6  C   UNL     1      49.746  31.533  28.290  1.00  0.00     0.004 C 
ATOM      7  C   UNL     1      50.162  32.612  29.323  1.00  0.00     0.024 C 
ATOM      8  C   UNL     1      48.828  33.317  28.979  1.00  0.00    -0.022 C 
ATOM      9  C   UNL     1      48.972  34.152  27.667  1.00  0.00     0.008 C 
ATOM     10  C   UNL     1      49.964  33.511  26.661  1.00  0.00     0.005 C 
ATOM     11  C   UNL     1      50.072  31.963  26.828  1.00  0.00    -0.005 C 
ATOM     12  C   UNL     1      48.110  34.136  30.078  1.00  0.00     0.012 C 
ENDROOT
BRANCH  11  13
ATOM     13  C   UNL     1      51.414  31.354  26.319  1.00  0.00    -0.014 C 
ATOM     14  C   UNL     1      52.574  32.350  26.457  1.00  0.00     0.007 C 
ATOM     15  C   UNL     1      51.783  30.008  26.965  1.00  0.00     0.007 C 
ENDBRANCH  11  13
TORSDOF 1
ENDMDL
MODEL 6
REMARK VINA RESULT:    -3.962     17.520     19.660
REMARK INTER + INTRA:          -4.451
REMARK INTER:                  -4.333
REMARK INTRA:                  -0.118
REMARK UNBOUND:                -0.258
REMARK SMILES CC1=CC[C@@H]2[C@H]3[C@H](C(C)C)CC[C@]2(C)[C@@H]13
REMARK SMILES IDX 1 1 2 2 3 3 4 4 5 5 6 6 15 7 13 8 12 9 11 10 7 11 14 12 8 13
REMARK SMILES IDX 9 14 10 15
REMARK H PARENT
REMARK Flexibility Score: inf
ROOT
ATOM      1  C   UNL     1      50.416  29.084  28.727  1.00  0.00     0.039 C 
ATOM      2  C   UNL     1      49.774  30.302  29.319  1.00  0.00    -0.073 C 
ATOM      3  C   UNL     1      48.620  30.236  30.036  1.00  0.00    -0.027 C 
ATOM      4  C   UNL     1      48.026  31.532  30.599  1.00  0.00     0.031 C 
ATOM      5  C   UNL     1      48.895  32.760  30.173  1.00  0.00     0.003 C 
ATOM      6  C   UNL     1      49.197  32.615  28.663  1.00  0.00     0.004 C 
ATOM      7  C   UNL     1      50.369  31.691  29.084  1.00  0.00     0.024 C 
ATOM      8  C   UNL     1      50.403  32.497  30.405  1.00  0.00    -0.022 C 
ATOM      9  C   UNL     1      51.188  33.832  30.212  1.00  0.00     0.008 C 
ATOM     10  C   UNL     1      51.033  34.412  28.781  1.00  0.00     0.005 C 
ATOM     11  C   UNL     1      49.697  33.979  28.099  1.00  0.00    -0.005 C 
ATOM     12  C   UNL     1      50.840  31.782  31.705  1.00  0.00     0.012 C 
ENDROOT
BRANCH  11  13
ATOM     13  C   UNL     1      49.736  33.996  26.541  1.00  0.00    -0.014 C 
ATOM     14  C   UNL     1      50.240  32.660  25.974  1.00  0.00     0.007 C 
ATOM     15  C   UNL     1      48.404  34.390  25.880  1.00  0.00     0.007 C 
ENDBRANCH  11  13
TORSDOF 1
ENDMDL
MODEL 7
REMARK VINA RESULT:    -3.907     21.144     22.748
REMARK INTER + INTRA:          -4.393
REMARK INTER:                  -3.996
REMARK INTRA:                  -0.397
REMARK UNBOUND:                -0.258
REMARK SMILES CC1=CC[C@@H]2[C@H]3[C@H](C(C)C)CC[C@]2(C)[C@@H]13
REMARK SMILES IDX 1 1 2 2 3 3 4 4 5 5 6 6 15 7 13 8 12 9 11 10 7 11 14 12 8 13
REMARK SMILES IDX 9 14 10 15
REMARK H PARENT
REMARK Flexibility Score: inf
ROOT
ATOM      1  C   UNL     1      53.174  31.950  25.187  1.00  0.00     0.039 C 
ATOM      2  C   UNL     1      52.846  30.669  25.891  1.00  0.00    -0.073 C 
ATOM      3  C   UNL     1      51.891  30.597  26.856  1.00  0.00    -0.027 C 
ATOM      4  C   UNL     1      51.624  29.247  27.531  1.00  0.00     0.031 C 
ATOM      5  C   UNL     1      52.596  28.157  26.974  1.00  0.00     0.003 C 
ATOM      6  C   UNL     1      54.017  28.768  26.955  1.00  0.00     0.004 C 
ATOM      7  C   UNL     1      53.627  29.389  25.587  1.00  0.00     0.024 C 
ATOM      8  C   UNL     1      52.661  28.190  25.428  1.00  0.00    -0.022 C 
ATOM      9  C   UNL     1      53.432  26.929  24.924  1.00  0.00     0.008 C 
ATOM     10  C   UNL     1      54.892  26.875  25.449  1.00  0.00     0.005 C 
ATOM     11  C   UNL     1      55.071  27.630  26.804  1.00  0.00    -0.005 C 
ATOM     12  C   UNL     1      51.349  28.388  24.635  1.00  0.00     0.012 C 
ENDROOT
BRANCH  11  13
ATOM     13  C   UNL     1      56.522  28.129  27.073  1.00  0.00    -0.014 C 
ATOM     14  C   UNL     1      57.422  27.943  25.842  1.00  0.00     0.007 C 
ATOM     15  C   UNL     1      56.608  29.578  27.584  1.00  0.00     0.007 C 
ENDBRANCH  11  13
TORSDOF 1
ENDMDL
MODEL 8
REMARK VINA RESULT:    -3.849     17.807     19.851
REMARK INTER + INTRA:          -4.332
REMARK INTER:                  -4.024
REMARK INTRA:                  -0.308
REMARK UNBOUND:                -0.258
REMARK SMILES CC1=CC[C@@H]2[C@H]3[C@H](C(C)C)CC[C@]2(C)[C@@H]13
REMARK SMILES IDX 1 1 2 2 3 3 4 4 5 5 6 6 15 7 13 8 12 9 11 10 7 11 14 12 8 13
REMARK SMILES IDX 9 14 10 15
REMARK H PARENT
REMARK Flexibility Score: inf
ROOT
ATOM      1  C   UNL     1      51.790  34.749  30.255  1.00  0.00     0.039 C 
ATOM      2  C   UNL     1      50.879  33.575  30.059  1.00  0.00    -0.073 C 
ATOM      3  C   UNL     1      50.703  32.628  31.017  1.00  0.00    -0.027 C 
ATOM      4  C   UNL     1      49.759  31.455  30.731  1.00  0.00     0.031 C 
ATOM      5  C   UNL     1      49.181  31.561  29.282  1.00  0.00     0.003 C 
ATOM      6  C   UNL     1      50.361  31.881  28.334  1.00  0.00     0.004 C 
ATOM      7  C   UNL     1      50.151  33.366  28.730  1.00  0.00     0.024 C 
ATOM      8  C   UNL     1      48.670  32.990  28.977  1.00  0.00    -0.022 C 
ATOM      9  C   UNL     1      47.878  32.970  27.632  1.00  0.00     0.008 C 
ATOM     10  C   UNL     1      48.755  32.526  26.431  1.00  0.00     0.005 C 
ATOM     11  C   UNL     1      49.936  31.599  26.861  1.00  0.00    -0.005 C 
ATOM     12  C   UNL     1      47.881  33.744  30.072  1.00  0.00     0.012 C 
ENDROOT
BRANCH  11  13
ATOM     13  C   UNL     1      51.150  31.611  25.883  1.00  0.00    -0.014 C 
ATOM     14  C   UNL     1      50.827  32.377  24.592  1.00  0.00     0.007 C 
ATOM     15  C   UNL     1      52.456  32.134  26.504  1.00  0.00     0.007 C 
ENDBRANCH  11  13
TORSDOF 1
ENDMDL
MODEL 9
REMARK VINA RESULT:    -3.777     18.185     20.284
REMARK INTER + INTRA:          -4.256
REMARK INTER:                  -3.861
REMARK INTRA:                  -0.395
REMARK UNBOUND:                -0.258
REMARK SMILES CC1=CC[C@@H]2[C@H]3[C@H](C(C)C)CC[C@]2(C)[C@@H]13
REMARK SMILES IDX 1 1 2 2 3 3 4 4 5 5 6 6 15 7 13 8 12 9 11 10 7 11 14 12 8 13
REMARK SMILES IDX 9 14 10 15
REMARK H PARENT
REMARK Flexibility Score: inf
ROOT
ATOM      1  C   UNL     1      47.932  34.332  28.662  1.00  0.00     0.039 C 
ATOM      2  C   UNL     1      48.849  33.335  29.305  1.00  0.00    -0.073 C 
ATOM      3  C   UNL     1      49.598  33.640  30.397  1.00  0.00    -0.027 C 
ATOM      4  C   UNL     1      50.516  32.564  30.987  1.00  0.00     0.031 C 
ATOM      5  C   UNL     1      50.439  31.255  30.135  1.00  0.00     0.003 C 
ATOM      6  C   UNL     1      50.548  31.664  28.647  1.00  0.00     0.004 C 
ATOM      7  C   UNL     1      49.022  31.937  28.710  1.00  0.00     0.024 C 
ATOM      8  C   UNL     1      48.975  30.864  29.824  1.00  0.00    -0.022 C 
ATOM      9  C   UNL     1      48.951  29.431  29.206  1.00  0.00     0.008 C 
ATOM     10  C   UNL     1      49.746  29.345  27.875  1.00  0.00     0.005 C 
ATOM     11  C   UNL     1      50.885  30.408  27.787  1.00  0.00    -0.005 C 
ATOM     12  C   UNL     1      47.917  30.998  30.946  1.00  0.00     0.012 C 
ENDROOT
BRANCH  11  13
ATOM     13  C   UNL     1      51.302  30.783  26.332  1.00  0.00    -0.014 C 
ATOM     14  C   UNL     1      50.097  30.778  25.380  1.00  0.00     0.007 C 
ATOM     15  C   UNL     1      52.069  32.112  26.217  1.00  0.00     0.007 C 
ENDBRANCH  11  13
TORSDOF 1
ENDMDL
