MODEL 1
REMARK VINA RESULT:    -3.236      0.000      0.000
REMARK INTER + INTRA:          -4.062
REMARK INTER:                  -4.560
REMARK INTRA:                   0.499
REMARK UNBOUND:                 0.499
REMARK SMILES CC1=CCC(=C(C)C)C(=O)CC(C)=CCC1
REMARK SMILES IDX 12 1 14 2 13 3 15 4 16 5 2 6 1 7 3 8 11 10 9 11 10 12 5 13
REMARK SMILES IDX 6 14 7 15 8 16 4 17
REMARK H PARENT
REMARK Flexibility Score: 60.00
ROOT
ATOM      1  C   UNL     1    -122.832 -99.482   4.610  1.00  0.00    -0.070 C 
ATOM      2  C   UNL     1    -124.178 -99.361   4.525  1.00  0.00    -0.027 C 
ATOM      3  C   UNL     1    -122.126 -98.671   5.669  1.00  0.00     0.039 C 
ENDROOT
BRANCH   2   4
ATOM      4  C   UNL     1    -125.091-100.151   3.619  1.00  0.00     0.032 C 
BRANCH   4   5
ATOM      5  C   UNL     1    -125.242 -99.508   2.226  1.00  0.00     0.034 C 
BRANCH   5   6
ATOM      6  C   UNL     1    -125.147-100.530   1.111  1.00  0.00    -0.077 C 
ATOM      7  C   UNL     1    -126.272-101.522   0.951  1.00  0.00     0.039 C 
ATOM      8  C   UNL     1    -124.098-100.621   0.263  1.00  0.00    -0.023 CG0
ATOM      9  G   UNL     1    -122.868 -99.747   0.285  1.00  0.00     0.000 G0
ENDBRANCH   5   6
ENDBRANCH   4   5
ENDBRANCH   2   4
BRANCH   1  10
ATOM     10  C   UNL     1    -122.013-100.429   3.749  1.00  0.00     0.111 C 
BRANCH  10  11
ATOM     11  C   UNL     1    -121.549 -99.762   2.477  1.00  0.00     0.163 C 
ATOM     12  O   UNL     1    -120.987 -98.638   2.567  1.00  0.00    -0.294 OA
BRANCH  11  13
ATOM     13  C   UNL     1    -121.788-100.373   1.132  1.00  0.00    -0.002 C 
ATOM     14  C   UNL     1    -121.108-101.486   0.718  1.00  0.00    -0.069 C 
ATOM     15  C   UNL     1    -121.327-102.075  -0.659  1.00  0.00     0.039 C 
ATOM     16  C   UNL     1    -120.132-102.202   1.624  1.00  0.00     0.039 C 
BRANCH  13  17
ATOM     17  C   UNL     1    -122.873 -99.751   0.273  1.00  0.00     0.066 CG0
ATOM     18  G   UNL     1    -124.101-100.628   0.283  1.00  0.00     0.000 G0
ENDBRANCH  13  17
ENDBRANCH  11  13
ENDBRANCH  10  11
ENDBRANCH   1  10
TORSDOF 0
ENDMDL
MODEL 2
REMARK VINA RESULT:    -3.005      3.592      5.660
REMARK INTER + INTRA:          -3.736
REMARK INTER:                  -4.154
REMARK INTRA:                   0.418
REMARK UNBOUND:                 0.499
REMARK SMILES CC1=CCC(=C(C)C)C(=O)CC(C)=CCC1
REMARK SMILES IDX 12 1 14 2 13 3 15 4 16 5 2 6 1 7 3 8 11 10 9 11 10 12 5 13
REMARK SMILES IDX 6 14 7 15 8 16 4 17
REMARK H PARENT
REMARK Flexibility Score: 60.00
ROOT
ATOM      1  C   UNL     1    -120.909-100.505   2.043  1.00  0.00    -0.070 C 
ATOM      2  C   UNL     1    -120.408-101.720   1.717  1.00  0.00    -0.027 C 
ATOM      3  C   UNL     1    -122.257-100.468   2.722  1.00  0.00     0.039 C 
ENDROOT
BRANCH   2   4
ATOM      4  C   UNL     1    -119.043-101.996   1.133  1.00  0.00     0.032 C 
BRANCH   4   5
ATOM      5  C   UNL     1    -118.976-101.704  -0.379  1.00  0.00     0.034 C 
BRANCH   5   6
ATOM      6  C   UNL     1    -117.754-100.888  -0.750  1.00  0.00    -0.077 C 
ATOM      7  C   UNL     1    -116.392-101.473  -0.474  1.00  0.00     0.039 C 
ATOM      8  C   UNL     1    -117.814 -99.652  -1.294  1.00  0.00    -0.023 CG0
ATOM      9  G   UNL     1    -119.077 -98.887  -1.610  1.00  0.00     0.000 G0
ENDBRANCH   5   6
ENDBRANCH   4   5
ENDBRANCH   2   4
BRANCH   1  10
ATOM     10  C   UNL     1    -120.166 -99.198   1.823  1.00  0.00     0.111 C 
BRANCH  10  11
ATOM     11  C   UNL     1    -120.527 -98.569   0.500  1.00  0.00     0.163 C 
ATOM     12  O   UNL     1    -121.740 -98.557   0.159  1.00  0.00    -0.294 OA
BRANCH  11  13
ATOM     13  C   UNL     1    -119.486 -98.019  -0.424  1.00  0.00    -0.002 C 
ATOM     14  C   UNL     1    -118.868 -96.824  -0.179  1.00  0.00    -0.069 C 
ATOM     15  C   UNL     1    -117.844 -96.255  -1.138  1.00  0.00     0.039 C 
ATOM     16  C   UNL     1    -119.149 -96.028   1.075  1.00  0.00     0.039 C 
BRANCH  13  17
ATOM     17  C   UNL     1    -119.088 -98.881  -1.608  1.00  0.00     0.066 CG0
ATOM     18  G   UNL     1    -117.824 -99.641  -1.287  1.00  0.00     0.000 G0
ENDBRANCH  13  17
ENDBRANCH  11  13
ENDBRANCH  10  11
ENDBRANCH   1  10
TORSDOF 0
ENDMDL
MODEL 3
REMARK VINA RESULT:    -2.896      4.488      6.277
REMARK INTER + INTRA:          -3.583
REMARK INTER:                  -4.162
REMARK INTRA:                   0.579
REMARK UNBOUND:                 0.499
REMARK SMILES CC1=CCC(=C(C)C)C(=O)CC(C)=CCC1
REMARK SMILES IDX 12 1 14 2 13 3 15 4 16 5 2 6 1 7 3 8 11 10 9 11 10 12 5 13
REMARK SMILES IDX 6 14 7 15 8 16 4 17
REMARK H PARENT
REMARK Flexibility Score: 60.00
ROOT
ATOM      1  C   UNL     1    -120.256-100.535   1.365  1.00  0.00    -0.070 C 
ATOM      2  C   UNL     1    -120.481 -99.250   1.730  1.00  0.00    -0.027 C 
ATOM      3  C   UNL     1    -120.846-101.618   2.235  1.00  0.00     0.039 C 
ENDROOT
BRANCH   2   4
ATOM      4  C   UNL     1    -120.079 -98.018   0.956  1.00  0.00     0.032 C 
BRANCH   4   5
ATOM      5  C   UNL     1    -118.863 -97.301   1.575  1.00  0.00     0.034 C 
BRANCH   5   6
ATOM      6  C   UNL     1    -117.736 -97.121   0.577  1.00  0.00    -0.077 C 
ATOM      7  C   UNL     1    -117.713 -95.864  -0.257  1.00  0.00     0.039 C 
ATOM      8  C   UNL     1    -116.762 -98.035   0.372  1.00  0.00    -0.023 CG0
ATOM      9  G   UNL     1    -116.635 -99.363   1.079  1.00  0.00     0.000 G0
ENDBRANCH   5   6
ENDBRANCH   4   5
ENDBRANCH   2   4
BRANCH   1  10
ATOM     10  C   UNL     1    -119.507-100.936   0.105  1.00  0.00     0.111 C 
BRANCH  10  11
ATOM     11  C   UNL     1    -118.093-101.363   0.412  1.00  0.00     0.163 C 
ATOM     12  O   UNL     1    -117.919-102.465   0.999  1.00  0.00    -0.294 OA
BRANCH  11  13
ATOM     13  C   UNL     1    -116.917-100.496   0.088  1.00  0.00    -0.002 C 
ATOM     14  C   UNL     1    -116.201-100.659  -1.066  1.00  0.00    -0.069 C 
ATOM     15  C   UNL     1    -114.990 -99.803  -1.369  1.00  0.00     0.039 C 
ATOM     16  C   UNL     1    -116.603-101.674  -2.112  1.00  0.00     0.039 C 
BRANCH  13  17
ATOM     17  C   UNL     1    -116.597 -99.376   1.060  1.00  0.00     0.066 CG0
ATOM     18  G   UNL     1    -116.773 -98.040   0.379  1.00  0.00     0.000 G0
ENDBRANCH  13  17
ENDBRANCH  11  13
ENDBRANCH  10  11
ENDBRANCH   1  10
TORSDOF 0
ENDMDL
MODEL 4
REMARK VINA RESULT:    -2.842      1.858      3.902
REMARK INTER + INTRA:          -3.507
REMARK INTER:                  -3.942
REMARK INTRA:                   0.435
REMARK UNBOUND:                 0.499
REMARK SMILES CC1=CCC(=C(C)C)C(=O)CC(C)=CCC1
REMARK SMILES IDX 12 1 14 2 13 3 15 4 16 5 2 6 1 7 3 8 11 10 9 11 10 12 5 13
REMARK SMILES IDX 6 14 7 15 8 16 4 17
REMARK H PARENT
REMARK Flexibility Score: 60.00
ROOT
ATOM      1  C   UNL     1    -124.723 -99.749   4.618  1.00  0.00    -0.070 C 
ATOM      2  C   UNL     1    -123.457 -99.968   5.047  1.00  0.00    -0.027 C 
ATOM      3  C   UNL     1    -125.847-100.082   5.569  1.00  0.00     0.039 C 
ENDROOT
BRANCH   2   4
ATOM      4  C   UNL     1    -122.190 -99.610   4.309  1.00  0.00     0.032 C 
BRANCH   4   5
ATOM      5  C   UNL     1    -121.809-100.659   3.245  1.00  0.00     0.034 C 
BRANCH   5   6
ATOM      6  C   UNL     1    -121.447-100.022   1.918  1.00  0.00    -0.077 C 
ATOM      7  C   UNL     1    -120.232 -99.131   1.859  1.00  0.00     0.039 C 
ATOM      8  C   UNL     1    -122.167-100.187   0.786  1.00  0.00    -0.023 CG0
ATOM      9  G   UNL     1    -123.427-101.007   0.653  1.00  0.00     0.000 G0
ENDBRANCH   5   6
ENDBRANCH   4   5
ENDBRANCH   2   4
BRANCH   1  10
ATOM     10  C   UNL     1    -125.064 -99.132   3.272  1.00  0.00     0.111 C 
BRANCH  10  11
ATOM     11  C   UNL     1    -125.299-100.187   2.220  1.00  0.00     0.163 C 
ATOM     12  O   UNL     1    -126.030-101.169   2.517  1.00  0.00    -0.294 OA
BRANCH  11  13
ATOM     13  C   UNL     1    -124.648-100.120   0.874  1.00  0.00    -0.002 C 
ATOM     14  C   UNL     1    -125.080 -99.252  -0.090  1.00  0.00    -0.069 C 
ATOM     15  C   UNL     1    -124.442 -99.217  -1.462  1.00  0.00     0.039 C 
ATOM     16  C   UNL     1    -126.191 -98.261   0.175  1.00  0.00     0.039 C 
BRANCH  13  17
ATOM     17  C   UNL     1    -123.436-101.005   0.648  1.00  0.00     0.066 CG0
ATOM     18  G   UNL     1    -122.173-100.190   0.783  1.00  0.00     0.000 G0
ENDBRANCH  13  17
ENDBRANCH  11  13
ENDBRANCH  10  11
ENDBRANCH   1  10
TORSDOF 0
ENDMDL
MODEL 5
REMARK VINA RESULT:    -2.704      4.582      6.660
REMARK INTER + INTRA:          -3.311
REMARK INTER:                  -4.040
REMARK INTRA:                   0.729
REMARK UNBOUND:                 0.499
REMARK SMILES CC1=CCC(=C(C)C)C(=O)CC(C)=CCC1
REMARK SMILES IDX 12 1 14 2 13 3 15 4 16 5 2 6 1 7 3 8 11 10 9 11 10 12 5 13
REMARK SMILES IDX 6 14 7 15 8 16 4 17
REMARK H PARENT
REMARK Flexibility Score: 60.00
ROOT
ATOM      1  C   UNL     1    -115.959 -98.717   0.483  1.00  0.00    -0.070 C 
ATOM      2  C   UNL     1    -115.782 -97.519   1.088  1.00  0.00    -0.027 C 
ATOM      3  C   UNL     1    -115.000 -99.086  -0.624  1.00  0.00     0.039 C 
ENDROOT
BRANCH   2   4
ATOM      4  C   UNL     1    -116.551 -96.997   2.278  1.00  0.00     0.032 C 
BRANCH   4   5
ATOM      5  C   UNL     1    -117.248 -95.653   1.989  1.00  0.00     0.034 C 
BRANCH   5   6
ATOM      6  C   UNL     1    -118.215 -95.749   0.826  1.00  0.00    -0.077 C 
ATOM      7  C   UNL     1    -118.042 -94.797  -0.330  1.00  0.00     0.039 C 
ATOM      8  C   UNL     1    -119.243 -96.625   0.776  1.00  0.00    -0.023 CG0
ATOM      9  G   UNL     1    -119.600 -97.629   1.845  1.00  0.00     0.000 G0
ENDBRANCH   5   6
ENDBRANCH   4   5
ENDBRANCH   2   4
BRANCH   1  10
ATOM     10  C   UNL     1    -117.017 -99.725   0.898  1.00  0.00     0.111 C 
BRANCH  10  11
ATOM     11  C   UNL     1    -118.381 -99.345   0.377  1.00  0.00     0.163 C 
ATOM     12  O   UNL     1    -118.531 -99.235  -0.870  1.00  0.00    -0.294 OA
BRANCH  11  13
ATOM     13  C   UNL     1    -119.524 -99.049   1.297  1.00  0.00    -0.002 C 
ATOM     14  C   UNL     1    -120.410-100.020   1.676  1.00  0.00    -0.069 C 
ATOM     15  C   UNL     1    -121.586 -99.704   2.576  1.00  0.00     0.039 C 
ATOM     16  C   UNL     1    -120.241-101.460   1.247  1.00  0.00     0.039 C 
BRANCH  13  17
ATOM     17  C   UNL     1    -119.616 -97.640   1.852  1.00  0.00     0.066 CG0
ATOM     18  G   UNL     1    -119.258 -96.641   0.779  1.00  0.00     0.000 G0
ENDBRANCH  13  17
ENDBRANCH  11  13
ENDBRANCH  10  11
ENDBRANCH   1  10
TORSDOF 0
ENDMDL
MODEL 6
REMARK VINA RESULT:    -2.674      6.685      8.832
REMARK INTER + INTRA:          -3.270
REMARK INTER:                  -3.616
REMARK INTRA:                   0.347
REMARK UNBOUND:                 0.499
REMARK SMILES CC1=CCC(=C(C)C)C(=O)CC(C)=CCC1
REMARK SMILES IDX 12 1 14 2 13 3 15 4 16 5 2 6 1 7 3 8 11 10 9 11 10 12 5 13
REMARK SMILES IDX 6 14 7 15 8 16 4 17
REMARK H PARENT
REMARK Flexibility Score: 60.00
ROOT
ATOM      1  C   UNL     1    -117.830 -98.407   0.848  1.00  0.00    -0.070 C 
ATOM      2  C   UNL     1    -116.628 -98.811   1.323  1.00  0.00    -0.027 C 
ATOM      3  C   UNL     1    -118.991 -99.362   0.991  1.00  0.00     0.039 C 
ENDROOT
BRANCH   2   4
ATOM      4  C   UNL     1    -115.366 -97.984   1.380  1.00  0.00     0.032 C 
BRANCH   4   5
ATOM      5  C   UNL     1    -115.356 -97.002   2.568  1.00  0.00     0.034 C 
BRANCH   5   6
ATOM      6  C   UNL     1    -114.902 -95.615   2.160  1.00  0.00    -0.077 C 
ATOM      7  C   UNL     1    -113.470 -95.431   1.723  1.00  0.00     0.039 C 
ATOM      8  C   UNL     1    -115.700 -94.525   2.188  1.00  0.00    -0.023 CG0
ATOM      9  G   UNL     1    -117.144 -94.501   2.627  1.00  0.00     0.000 G0
ENDBRANCH   5   6
ENDBRANCH   4   5
ENDBRANCH   2   4
BRANCH   1  10
ATOM     10  C   UNL     1    -118.083 -97.036   0.245  1.00  0.00     0.111 C 
BRANCH  10  11
ATOM     11  C   UNL     1    -118.641 -96.075   1.265  1.00  0.00     0.163 C 
ATOM     12  O   UNL     1    -119.641 -96.440   1.940  1.00  0.00    -0.294 OA
BRANCH  11  13
ATOM     13  C   UNL     1    -118.076 -94.701   1.450  1.00  0.00    -0.002 C 
ATOM     14  C   UNL     1    -118.431 -93.663   0.634  1.00  0.00    -0.069 C 
ATOM     15  C   UNL     1    -117.826 -92.286   0.804  1.00  0.00     0.039 C 
ATOM     16  C   UNL     1    -119.470 -93.827  -0.452  1.00  0.00     0.039 C 
BRANCH  13  17
ATOM     17  C   UNL     1    -117.146 -94.491   2.631  1.00  0.00     0.066 CG0
ATOM     18  G   UNL     1    -115.711 -94.511   2.164  1.00  0.00     0.000 G0
ENDBRANCH  13  17
ENDBRANCH  11  13
ENDBRANCH  10  11
ENDBRANCH   1  10
TORSDOF 0
ENDMDL
MODEL 7
REMARK VINA RESULT:    -2.572      1.491      2.316
REMARK INTER + INTRA:          -3.126
REMARK INTER:                  -3.856
REMARK INTRA:                   0.730
REMARK UNBOUND:                 0.499
REMARK SMILES CC1=CCC(=C(C)C)C(=O)CC(C)=CCC1
REMARK SMILES IDX 12 1 14 2 13 3 15 4 16 5 2 6 1 7 3 8 11 10 9 11 10 12 5 13
REMARK SMILES IDX 6 14 7 15 8 16 4 17
REMARK H PARENT
REMARK Flexibility Score: 60.00
ROOT
ATOM      1  C   UNL     1    -122.955 -99.528   4.647  1.00  0.00    -0.070 C 
ATOM      2  C   UNL     1    -124.223 -99.236   5.020  1.00  0.00    -0.027 C 
ATOM      3  C   UNL     1    -121.850 -98.657   5.195  1.00  0.00     0.039 C 
ENDROOT
BRANCH   2   4
ATOM      4  C   UNL     1    -125.460-100.033   4.680  1.00  0.00     0.032 C 
BRANCH   4   5
ATOM      5  C   UNL     1    -126.570 -99.163   4.056  1.00  0.00     0.034 C 
BRANCH   5   6
ATOM      6  C   UNL     1    -126.188 -98.646   2.683  1.00  0.00    -0.077 C 
ATOM      7  C   UNL     1    -126.499 -97.209   2.348  1.00  0.00     0.039 C 
ATOM      8  C   UNL     1    -125.605 -99.407   1.731  1.00  0.00    -0.023 CG0
ATOM      9  G   UNL     1    -125.250-100.868   1.863  1.00  0.00     0.000 G0
ENDBRANCH   5   6
ENDBRANCH   4   5
ENDBRANCH   2   4
BRANCH   1  10
ATOM     10  C   UNL     1    -122.583-100.711   3.769  1.00  0.00     0.111 C 
BRANCH  10  11
ATOM     11  C   UNL     1    -122.771-100.397   2.305  1.00  0.00     0.163 C 
ATOM     12  O   UNL     1    -122.065 -99.485   1.798  1.00  0.00    -0.294 OA
BRANCH  11  13
ATOM     13  C   UNL     1    -123.798-101.098   1.472  1.00  0.00    -0.002 C 
ATOM     14  C   UNL     1    -123.445-101.952   0.464  1.00  0.00    -0.069 C 
ATOM     15  C   UNL     1    -124.489-102.627  -0.399  1.00  0.00     0.039 C 
ATOM     16  C   UNL     1    -121.999-102.293   0.184  1.00  0.00     0.039 C 
BRANCH  13  17
ATOM     17  C   UNL     1    -125.254-100.879   1.842  1.00  0.00     0.066 CG0
ATOM     18  G   UNL     1    -125.594 -99.412   1.738  1.00  0.00     0.000 G0
ENDBRANCH  13  17
ENDBRANCH  11  13
ENDBRANCH  10  11
ENDBRANCH   1  10
TORSDOF 0
ENDMDL
MODEL 8
REMARK VINA RESULT:    -2.510      1.742      3.908
REMARK INTER + INTRA:          -3.039
REMARK INTER:                  -3.494
REMARK INTRA:                   0.455
REMARK UNBOUND:                 0.499
REMARK SMILES CC1=CCC(=C(C)C)C(=O)CC(C)=CCC1
REMARK SMILES IDX 12 1 14 2 13 3 15 4 16 5 2 6 1 7 3 8 11 10 9 11 10 12 5 13
REMARK SMILES IDX 6 14 7 15 8 16 4 17
REMARK H PARENT
REMARK Flexibility Score: 60.00
ROOT
ATOM      1  C   UNL     1    -122.353-100.296   3.874  1.00  0.00    -0.070 C 
ATOM      2  C   UNL     1    -121.254-101.001   3.515  1.00  0.00    -0.027 C 
ATOM      3  C   UNL     1    -122.717-100.273   5.339  1.00  0.00     0.039 C 
ENDROOT
BRANCH   2   4
ATOM      4  C   UNL     1    -120.650-101.072   2.133  1.00  0.00     0.032 C 
BRANCH   4   5
ATOM      5  C   UNL     1    -121.278-102.185   1.270  1.00  0.00     0.034 C 
BRANCH   5   6
ATOM      6  C   UNL     1    -121.859-101.647  -0.023  1.00  0.00    -0.077 C 
ATOM      7  C   UNL     1    -120.906-101.222  -1.112  1.00  0.00     0.039 C 
ATOM      8  C   UNL     1    -123.183-101.502  -0.247  1.00  0.00    -0.023 CG0
ATOM      9  G   UNL     1    -124.286-101.835   0.728  1.00  0.00     0.000 G0
ENDBRANCH   5   6
ENDBRANCH   4   5
ENDBRANCH   2   4
BRANCH   1  10
ATOM     10  C   UNL     1    -123.191 -99.484   2.901  1.00  0.00     0.111 C 
BRANCH  10  11
ATOM     11  C   UNL     1    -124.522-100.140   2.632  1.00  0.00     0.163 C 
ATOM     12  O   UNL     1    -125.286-100.357   3.611  1.00  0.00    -0.294 OA
BRANCH  11  13
ATOM     13  C   UNL     1    -124.925-100.579   1.259  1.00  0.00    -0.002 C 
ATOM     14  C   UNL     1    -125.772 -99.834   0.487  1.00  0.00    -0.069 C 
ATOM     15  C   UNL     1    -126.205-100.303  -0.886  1.00  0.00     0.039 C 
ATOM     16  C   UNL     1    -126.291 -98.491   0.947  1.00  0.00     0.039 C 
BRANCH  13  17
ATOM     17  C   UNL     1    -124.291-101.852   0.728  1.00  0.00     0.066 CG0
ATOM     18  G   UNL     1    -123.186-101.509  -0.241  1.00  0.00     0.000 G0
ENDBRANCH  13  17
ENDBRANCH  11  13
ENDBRANCH  10  11
ENDBRANCH   1  10
TORSDOF 0
ENDMDL
MODEL 9
REMARK VINA RESULT:    -2.496      7.536      8.922
REMARK INTER + INTRA:          -3.019
REMARK INTER:                  -3.536
REMARK INTRA:                   0.517
REMARK UNBOUND:                 0.499
REMARK SMILES CC1=CCC(=C(C)C)C(=O)CC(C)=CCC1
REMARK SMILES IDX 12 1 14 2 13 3 15 4 16 5 2 6 1 7 3 8 11 10 9 11 10 12 5 13
REMARK SMILES IDX 6 14 7 15 8 16 4 17
REMARK H PARENT
REMARK Flexibility Score: 60.00
ROOT
ATOM      1  C   UNL     1    -116.185 -95.965   2.453  1.00  0.00    -0.070 C 
ATOM      2  C   UNL     1    -117.389 -96.433   2.050  1.00  0.00    -0.027 C 
ATOM      3  C   UNL     1    -116.151 -94.607   3.113  1.00  0.00     0.039 C 
ENDROOT
BRANCH   2   4
ATOM      4  C   UNL     1    -117.669 -97.798   1.469  1.00  0.00     0.032 C 
BRANCH   4   5
ATOM      5  C   UNL     1    -117.138 -97.948   0.029  1.00  0.00     0.034 C 
BRANCH   5   6
ATOM      6  C   UNL     1    -116.155 -99.094  -0.101  1.00  0.00    -0.077 C 
ATOM      7  C   UNL     1    -116.614-100.478   0.286  1.00  0.00     0.039 C 
ATOM      8  C   UNL     1    -114.880 -98.945  -0.523  1.00  0.00    -0.023 CG0
ATOM      9  G   UNL     1    -114.228 -97.643  -0.920  1.00  0.00     0.000 G0
ENDBRANCH   5   6
ENDBRANCH   4   5
ENDBRANCH   2   4
BRANCH   1  10
ATOM     10  C   UNL     1    -114.890 -96.751   2.336  1.00  0.00     0.111 C 
BRANCH  10  11
ATOM     11  C   UNL     1    -114.022 -96.231   1.217  1.00  0.00     0.163 C 
ATOM     12  O   UNL     1    -113.892 -94.983   1.099  1.00  0.00    -0.294 OA
BRANCH  11  13
ATOM     13  C   UNL     1    -113.369 -97.147   0.231  1.00  0.00    -0.002 C 
ATOM     14  C   UNL     1    -112.080 -97.577   0.395  1.00  0.00    -0.069 C 
ATOM     15  C   UNL     1    -111.414 -98.473  -0.627  1.00  0.00     0.039 C 
ATOM     16  C   UNL     1    -111.270 -97.209   1.617  1.00  0.00     0.039 C 
BRANCH  13  17
ATOM     17  C   UNL     1    -114.222 -97.643  -0.921  1.00  0.00     0.066 CG0
ATOM     18  G   UNL     1    -114.884 -98.947  -0.546  1.00  0.00     0.000 G0
ENDBRANCH  13  17
ENDBRANCH  11  13
ENDBRANCH  10  11
ENDBRANCH   1  10
TORSDOF 0
ENDMDL
