MODEL 1
REMARK VINA RESULT:    -3.038      0.000      0.000
REMARK INTER + INTRA:          -3.665
REMARK INTER:                  -3.571
REMARK INTRA:                  -0.094
REMARK UNBOUND:                -0.094
REMARK SMILES O=C([O-])CCC(=O)[O-]
REMARK SMILES IDX 4 1 2 2 1 3 3 4 5 5 6 6 7 7 8 8
REMARK H PARENT
REMARK Flexibility Score: inf
ROOT
ATOM      1  C   UNL     1    -109.645  42.784  -0.693  1.00  0.00     0.059 C 
ENDROOT
BRANCH   1   2
ATOM      2  C   UNL     1    -108.227  42.928  -0.232  1.00  0.00     0.042 C 
ATOM      3  O   UNL     1    -107.359  42.081  -0.574  1.00  0.00    -0.550 OA
ATOM      4  O   UNL     1    -107.872  43.976   0.608  1.00  0.00    -0.550 OA
ENDBRANCH   1   2
BRANCH   1   5
ATOM      5  C   UNL     1    -110.358  44.138  -0.753  1.00  0.00     0.059 C 
BRANCH   5   6
ATOM      6  C   UNL     1    -110.476  44.639  -2.160  1.00  0.00     0.042 C 
ATOM      7  O   UNL     1    -109.458  45.055  -2.773  1.00  0.00    -0.550 OA
ATOM      8  O   UNL     1    -111.704  44.607  -2.809  1.00  0.00    -0.550 OA
ENDBRANCH   5   6
ENDBRANCH   1   5
TORSDOF 3
ENDMDL
MODEL 2
REMARK VINA RESULT:    -2.962      1.613      4.080
REMARK INTER + INTRA:          -3.576
REMARK INTER:                  -3.535
REMARK INTRA:                  -0.040
REMARK UNBOUND:                -0.094
REMARK SMILES O=C([O-])CCC(=O)[O-]
REMARK SMILES IDX 4 1 2 2 1 3 3 4 5 5 6 6 7 7 8 8
REMARK H PARENT
REMARK Flexibility Score: inf
ROOT
ATOM      1  C   UNL     1    -110.123  43.958  -1.164  1.00  0.00     0.059 C 
ENDROOT
BRANCH   1   2
ATOM      2  C   UNL     1    -111.579  44.062  -0.828  1.00  0.00     0.042 C 
ATOM      3  O   UNL     1    -112.014  45.055  -0.189  1.00  0.00    -0.550 OA
ATOM      4  O   UNL     1    -112.450  43.040  -1.188  1.00  0.00    -0.550 OA
ENDBRANCH   1   2
BRANCH   1   5
ATOM      5  C   UNL     1    -109.536  42.617  -0.713  1.00  0.00     0.059 C 
BRANCH   5   6
ATOM      6  C   UNL     1    -108.133  42.768  -0.209  1.00  0.00     0.042 C 
ATOM      7  O   UNL     1    -107.234  41.971  -0.584  1.00  0.00    -0.550 OA
ATOM      8  O   UNL     1    -107.810  43.817   0.644  1.00  0.00    -0.550 OA
ENDBRANCH   5   6
ENDBRANCH   1   5
TORSDOF 3
ENDMDL
MODEL 3
REMARK VINA RESULT:    -2.912      1.004      1.462
REMARK INTER + INTRA:          -3.517
REMARK INTER:                  -3.487
REMARK INTRA:                  -0.030
REMARK UNBOUND:                -0.094
REMARK SMILES O=C([O-])CCC(=O)[O-]
REMARK SMILES IDX 4 1 2 2 1 3 3 4 5 5 6 6 7 7 8 8
REMARK H PARENT
REMARK Flexibility Score: inf
ROOT
ATOM      1  C   UNL     1    -109.608  42.799  -0.641  1.00  0.00     0.059 C 
ENDROOT
BRANCH   1   2
ATOM      2  C   UNL     1    -108.183  42.917  -0.195  1.00  0.00     0.042 C 
ATOM      3  O   UNL     1    -107.326  42.077  -0.577  1.00  0.00    -0.550 OA
ATOM      4  O   UNL     1    -107.809  43.934   0.676  1.00  0.00    -0.550 OA
ENDBRANCH   1   2
BRANCH   1   5
ATOM      5  C   UNL     1    -110.160  44.143  -1.125  1.00  0.00     0.059 C 
BRANCH   5   6
ATOM      6  C   UNL     1    -111.571  44.018  -1.613  1.00  0.00     0.042 C 
ATOM      7  O   UNL     1    -112.427  43.401  -0.927  1.00  0.00    -0.550 OA
ATOM      8  O   UNL     1    -111.950  44.620  -2.807  1.00  0.00    -0.550 OA
ENDBRANCH   5   6
ENDBRANCH   1   5
TORSDOF 3
ENDMDL
MODEL 4
REMARK VINA RESULT:    -2.731     11.477     13.278
REMARK INTER + INTRA:          -3.304
REMARK INTER:                  -3.260
REMARK INTRA:                  -0.044
REMARK UNBOUND:                -0.094
REMARK SMILES O=C([O-])CCC(=O)[O-]
REMARK SMILES IDX 4 1 2 2 1 3 3 4 5 5 6 6 7 7 8 8
REMARK H PARENT
REMARK Flexibility Score: inf
ROOT
ATOM      1  C   UNL     1    -107.241  31.474   3.099  1.00  0.00     0.059 C 
ENDROOT
BRANCH   1   2
ATOM      2  C   UNL     1    -107.159  30.150   2.403  1.00  0.00     0.042 C 
ATOM      3  O   UNL     1    -106.158  29.405   2.572  1.00  0.00    -0.550 OA
ATOM      4  O   UNL     1    -108.171  29.756   1.537  1.00  0.00    -0.550 OA
ENDBRANCH   1   2
BRANCH   1   5
ATOM      5  C   UNL     1    -105.851  32.013   3.448  1.00  0.00     0.059 C 
BRANCH   5   6
ATOM      6  C   UNL     1    -105.693  33.445   3.036  1.00  0.00     0.042 C 
ATOM      7  O   UNL     1    -106.682  34.223   3.056  1.00  0.00    -0.550 OA
ATOM      8  O   UNL     1    -104.443  33.930   2.671  1.00  0.00    -0.550 OA
ENDBRANCH   5   6
ENDBRANCH   1   5
TORSDOF 3
ENDMDL
MODEL 5
REMARK VINA RESULT:    -2.711     11.773     13.634
REMARK INTER + INTRA:          -3.280
REMARK INTER:                  -3.190
REMARK INTRA:                  -0.090
REMARK UNBOUND:                -0.094
REMARK SMILES O=C([O-])CCC(=O)[O-]
REMARK SMILES IDX 4 1 2 2 1 3 3 4 5 5 6 6 7 7 8 8
REMARK H PARENT
REMARK Flexibility Score: inf
ROOT
ATOM      1  C   UNL     1    -106.997  32.182   3.374  1.00  0.00     0.059 C 
ENDROOT
BRANCH   1   2
ATOM      2  C   UNL     1    -105.914  33.147   3.000  1.00  0.00     0.042 C 
ATOM      3  O   UNL     1    -104.729  32.950   3.379  1.00  0.00    -0.550 OA
ATOM      4  O   UNL     1    -106.220  34.286   2.266  1.00  0.00    -0.550 OA
ENDBRANCH   1   2
BRANCH   1   5
ATOM      5  C   UNL     1    -106.422  30.836   3.825  1.00  0.00     0.059 C 
BRANCH   5   6
ATOM      6  C   UNL     1    -106.434  29.829   2.716  1.00  0.00     0.042 C 
ATOM      7  O   UNL     1    -105.484  29.012   2.590  1.00  0.00    -0.550 OA
ATOM      8  O   UNL     1    -107.515  29.765   1.846  1.00  0.00    -0.550 OA
ENDBRANCH   5   6
ENDBRANCH   1   5
TORSDOF 3
ENDMDL
MODEL 6
REMARK VINA RESULT:    -2.419     11.496     13.071
REMARK INTER + INTRA:          -2.937
REMARK INTER:                  -2.901
REMARK INTRA:                  -0.036
REMARK UNBOUND:                -0.094
REMARK SMILES O=C([O-])CCC(=O)[O-]
REMARK SMILES IDX 4 1 2 2 1 3 3 4 5 5 6 6 7 7 8 8
REMARK H PARENT
REMARK Flexibility Score: inf
ROOT
ATOM      1  C   UNL     1    -107.225  31.187   2.768  1.00  0.00     0.059 C 
ENDROOT
BRANCH   1   2
ATOM      2  C   UNL     1    -108.638  30.747   3.002  1.00  0.00     0.042 C 
ATOM      3  O   UNL     1    -109.176  29.906   2.235  1.00  0.00    -0.550 OA
ATOM      4  O   UNL     1    -109.373  31.297   4.045  1.00  0.00    -0.550 OA
ENDBRANCH   1   2
BRANCH   1   5
ATOM      5  C   UNL     1    -106.825  32.323   3.715  1.00  0.00     0.059 C 
BRANCH   5   6
ATOM      6  C   UNL     1    -105.795  33.220   3.099  1.00  0.00     0.042 C 
ATOM      7  O   UNL     1    -104.579  33.089   3.399  1.00  0.00    -0.550 OA
ATOM      8  O   UNL     1    -106.173  34.173   2.161  1.00  0.00    -0.550 OA
ENDBRANCH   5   6
ENDBRANCH   1   5
TORSDOF 3
ENDMDL
MODEL 7
REMARK VINA RESULT:    -2.411     12.458     13.559
REMARK INTER + INTRA:          -2.927
REMARK INTER:                  -2.755
REMARK INTRA:                  -0.172
REMARK UNBOUND:                -0.094
REMARK SMILES O=C([O-])CCC(=O)[O-]
REMARK SMILES IDX 4 1 2 2 1 3 3 4 5 5 6 6 7 7 8 8
REMARK H PARENT
REMARK Flexibility Score: inf
ROOT
ATOM      1  C   UNL     1    -115.601  35.177  -7.435  1.00  0.00     0.059 C 
ENDROOT
BRANCH   1   2
ATOM      2  C   UNL     1    -115.926  36.415  -8.214  1.00  0.00     0.042 C 
ATOM      3  O   UNL     1    -117.125  36.719  -8.451  1.00  0.00    -0.550 OA
ATOM      4  O   UNL     1    -114.903  37.212  -8.712  1.00  0.00    -0.550 OA
ENDBRANCH   1   2
BRANCH   1   5
ATOM      5  C   UNL     1    -114.903  34.130  -8.308  1.00  0.00     0.059 C 
BRANCH   5   6
ATOM      6  C   UNL     1    -115.733  33.761  -9.499  1.00  0.00     0.042 C 
ATOM      7  O   UNL     1    -115.288  33.943 -10.662  1.00  0.00    -0.550 OA
ATOM      8  O   UNL     1    -116.982  33.177  -9.324  1.00  0.00    -0.550 OA
ENDBRANCH   5   6
ENDBRANCH   1   5
TORSDOF 3
ENDMDL
MODEL 8
REMARK VINA RESULT:    -2.370     12.401     13.462
REMARK INTER + INTRA:          -2.880
REMARK INTER:                  -2.712
REMARK INTRA:                  -0.168
REMARK UNBOUND:                -0.094
REMARK SMILES O=C([O-])CCC(=O)[O-]
REMARK SMILES IDX 4 1 2 2 1 3 3 4 5 5 6 6 7 7 8 8
REMARK H PARENT
REMARK Flexibility Score: inf
ROOT
ATOM      1  C   UNL     1    -115.051  34.287  -8.163  1.00  0.00     0.059 C 
ENDROOT
BRANCH   1   2
ATOM      2  C   UNL     1    -115.769  33.762  -9.369  1.00  0.00     0.042 C 
ATOM      3  O   UNL     1    -116.872  33.169  -9.243  1.00  0.00    -0.550 OA
ATOM      4  O   UNL     1    -115.198  33.893 -10.629  1.00  0.00    -0.550 OA
ENDBRANCH   1   2
BRANCH   1   5
ATOM      5  C   UNL     1    -115.855  35.389  -7.466  1.00  0.00     0.059 C 
BRANCH   5   6
ATOM      6  C   UNL     1    -115.995  36.604  -8.331  1.00  0.00     0.042 C 
ATOM      7  O   UNL     1    -117.125  36.945  -8.768  1.00  0.00    -0.550 OA
ATOM      8  O   UNL     1    -114.882  37.384  -8.621  1.00  0.00    -0.550 OA
ENDBRANCH   5   6
ENDBRANCH   1   5
TORSDOF 3
ENDMDL
