MODEL 1
REMARK VINA RESULT:    21.076      0.000      0.000
REMARK INTER + INTRA:          35.529
REMARK INTER:                  28.468
REMARK INTRA:                   7.060
REMARK UNBOUND:                 7.060
REMARK SMILES O=c1c(-c2ccc(O)cc2)coc2c([C@H]3O[C@@H](CO)[C@H](O)[C@H](O)[C@H]3O)c(O)ccc12
REMARK SMILES IDX 3 1 11 2 12 3 13 4 30 5 2 6 1 7 29 8 28 9 26 10 14 11 4 12
REMARK SMILES IDX 5 13 6 14 7 15 10 16 9 17 8 18 15 20 24 21 16 22 22 23 17 24
REMARK SMILES IDX 20 25 25 26 23 28 18 30 19 31 21 33 27 35
REMARK H PARENT 8 19 25 27 23 29 19 32 21 34 27 36
REMARK Flexibility Score: inf
ROOT
ATOM      1  C   UNL     1       8.972  12.969  18.123  1.00  0.00     0.065 A 
ATOM      2  C   UNL     1       9.253  12.782  19.484  1.00  0.00     0.208 A 
ATOM      3  O   UNL     1      10.457  13.049  19.975  1.00  0.00    -0.463 OA
ATOM      4  C   UNL     1      11.463  13.501  19.229  1.00  0.00     0.147 A 
ATOM      5  C   UNL     1      11.267  13.717  17.846  1.00  0.00     0.066 A 
ATOM      6  C   UNL     1      10.005  13.437  17.292  1.00  0.00     0.200 A 
ATOM      7  O   UNL     1       9.805  13.589  16.055  1.00  0.00    -0.288 OA
ATOM      8  C   UNL     1      12.325  14.208  17.065  1.00  0.00     0.020 A 
ATOM      9  C   UNL     1      13.553  14.501  17.652  1.00  0.00     0.047 A 
ATOM     10  C   UNL     1      13.756  14.300  19.023  1.00  0.00     0.125 A 
ATOM     11  C   UNL     1      12.718  13.766  19.824  1.00  0.00     0.069 A 
ENDROOT
BRANCH   1  12
ATOM     12  C   UNL     1       7.614  12.677  17.601  1.00  0.00    -0.011 A 
ATOM     13  C   UNL     1       6.581  12.303  18.479  1.00  0.00     0.013 A 
ATOM     14  C   UNL     1       5.299  12.036  17.989  1.00  0.00     0.047 A 
ATOM     15  C   UNL     1       5.031  12.146  16.619  1.00  0.00     0.115 A 
ATOM     16  C   UNL     1       7.336  12.790  16.228  1.00  0.00     0.013 A 
ATOM     17  C   UNL     1       6.050  12.526  15.742  1.00  0.00     0.047 A 
BRANCH  15  18
ATOM     18  O   UNL     1       3.758  11.881  16.121  1.00  0.00    -0.508 OA
ATOM     19  H   UNL     1       2.952  11.819  16.731  1.00  0.00     0.293 HD
ENDBRANCH  15  18
ENDBRANCH   1  12
BRANCH  11  20
ATOM     20  C   UNL     1      12.908  13.557  21.323  1.00  0.00     0.188 C 
ATOM     21  C   UNL     1      11.791  12.664  21.931  1.00  0.00     0.179 C 
ATOM     22  O   UNL     1      12.965  14.801  21.998  1.00  0.00    -0.362 OA
ATOM     23  C   UNL     1      11.595  12.987  23.433  1.00  0.00     0.177 C 
ATOM     24  C   UNL     1      13.517  14.654  23.302  1.00  0.00     0.176 C 
ATOM     25  C   UNL     1      12.906  13.450  24.095  1.00  0.00     0.177 C 
BRANCH  21  26
ATOM     26  O   UNL     1      10.571  12.858  21.257  1.00  0.00    -0.387 OA
ATOM     27  H   UNL     1       9.849  12.660  21.908  1.00  0.00     0.211 HD
ENDBRANCH  21  26
BRANCH  23  28
ATOM     28  O   UNL     1      11.031  11.897  24.122  1.00  0.00    -0.387 OA
ATOM     29  H   UNL     1      10.607  12.245  24.948  1.00  0.00     0.211 HD
ENDBRANCH  23  28
BRANCH  24  30
ATOM     30  C   UNL     1      13.306  15.969  24.066  1.00  0.00     0.191 C 
BRANCH  30  31
ATOM     31  O   UNL     1      14.359  16.857  23.809  1.00  0.00    -0.394 OA
ATOM     32  H   UNL     1      14.142  17.706  24.276  1.00  0.00     0.210 HD
ENDBRANCH  30  31
ENDBRANCH  24  30
BRANCH  25  33
ATOM     33  O   UNL     1      13.823  12.386  24.125  1.00  0.00    -0.388 OA
ATOM     34  H   UNL     1      13.421  11.649  23.594  1.00  0.00     0.211 HD
ENDBRANCH  25  33
ENDBRANCH  11  20
BRANCH  10  35
ATOM     35  O   UNL     1      14.984  14.644  19.589  1.00  0.00    -0.507 OA
ATOM     36  H   UNL     1      15.791  14.034  19.523  1.00  0.00     0.293 HD
ENDBRANCH  10  35
TORSDOF 9
ENDMDL
MODEL 2
REMARK VINA RESULT:    22.765      1.978      3.768
REMARK INTER + INTRA:          37.810
REMARK INTER:                  35.867
REMARK INTRA:                   1.943
REMARK UNBOUND:                 7.060
REMARK SMILES O=c1c(-c2ccc(O)cc2)coc2c([C@H]3O[C@@H](CO)[C@H](O)[C@H](O)[C@H]3O)c(O)ccc12
REMARK SMILES IDX 3 1 11 2 12 3 13 4 30 5 2 6 1 7 29 8 28 9 26 10 14 11 4 12
REMARK SMILES IDX 5 13 6 14 7 15 10 16 9 17 8 18 15 20 24 21 16 22 22 23 17 24
REMARK SMILES IDX 20 25 25 26 23 28 18 30 19 31 21 33 27 35
REMARK H PARENT 8 19 25 27 23 29 19 32 21 34 27 36
REMARK Flexibility Score: inf
ROOT
ATOM      1  C   UNL     1       8.984  13.362  17.251  1.00  0.00     0.065 A 
ATOM      2  C   UNL     1      10.113  14.164  17.475  1.00  0.00     0.208 A 
ATOM      3  O   UNL     1      10.706  14.190  18.663  1.00  0.00    -0.463 OA
ATOM      4  C   UNL     1      10.282  13.474  19.703  1.00  0.00     0.147 A 
ATOM      5  C   UNL     1       9.151  12.639  19.565  1.00  0.00     0.066 A 
ATOM      6  C   UNL     1       8.494  12.594  18.322  1.00  0.00     0.200 A 
ATOM      7  O   UNL     1       7.461  11.883  18.173  1.00  0.00    -0.288 OA
ATOM      8  C   UNL     1       8.715  11.875  20.659  1.00  0.00     0.020 A 
ATOM      9  C   UNL     1       9.407  11.922  21.866  1.00  0.00     0.047 A 
ATOM     10  C   UNL     1      10.535  12.739  22.013  1.00  0.00     0.125 A 
ATOM     11  C   UNL     1      10.968  13.551  20.938  1.00  0.00     0.069 A 
ENDROOT
BRANCH   1  12
ATOM     12  C   UNL     1       8.347  13.339  15.911  1.00  0.00    -0.011 A 
ATOM     13  C   UNL     1       7.114  12.691  15.722  1.00  0.00     0.013 A 
ATOM     14  C   UNL     1       6.508  12.678  14.462  1.00  0.00     0.047 A 
ATOM     15  C   UNL     1       7.123  13.315  13.378  1.00  0.00     0.115 A 
ATOM     16  C   UNL     1       8.956  13.983  14.819  1.00  0.00     0.013 A 
ATOM     17  C   UNL     1       8.345  13.970  13.560  1.00  0.00     0.047 A 
BRANCH  15  18
ATOM     18  O   UNL     1       6.529  13.307  12.118  1.00  0.00    -0.508 OA
ATOM     19  H   UNL     1       5.862  12.593  11.851  1.00  0.00     0.293 HD
ENDBRANCH  15  18
ENDBRANCH   1  12
BRANCH  11  20
ATOM     20  C   UNL     1      12.206  14.434  21.066  1.00  0.00     0.188 C 
ATOM     21  C   UNL     1      12.997  14.521  19.731  1.00  0.00     0.179 C 
ATOM     22  O   UNL     1      13.047  13.968  22.106  1.00  0.00    -0.362 OA
ATOM     23  C   UNL     1      14.492  14.818  20.005  1.00  0.00     0.177 C 
ATOM     24  C   UNL     1      13.984  14.967  22.497  1.00  0.00     0.176 C 
ATOM     25  C   UNL     1      14.686  15.658  21.281  1.00  0.00     0.177 C 
BRANCH  21  26
ATOM     26  O   UNL     1      12.892  13.320  19.006  1.00  0.00    -0.387 OA
ATOM     27  H   UNL     1      12.403  13.532  18.169  1.00  0.00     0.211 HD
ENDBRANCH  21  26
BRANCH  23  28
ATOM     28  O   UNL     1      15.107  15.424  18.894  1.00  0.00    -0.387 OA
ATOM     29  H   UNL     1      15.712  16.134  19.229  1.00  0.00     0.211 HD
ENDBRANCH  23  28
BRANCH  24  30
ATOM     30  C   UNL     1      15.021  14.319  23.424  1.00  0.00     0.191 C 
BRANCH  30  31
ATOM     31  O   UNL     1      15.051  12.931  23.228  1.00  0.00    -0.394 OA
ATOM     32  H   UNL     1      14.322  12.713  22.591  1.00  0.00     0.210 HD
ENDBRANCH  30  31
ENDBRANCH  24  30
BRANCH  25  33
ATOM     33  O   UNL     1      14.147  16.942  21.087  1.00  0.00    -0.388 OA
ATOM     34  H   UNL     1      13.382  16.839  20.462  1.00  0.00     0.211 HD
ENDBRANCH  25  33
ENDBRANCH  11  20
BRANCH  10  35
ATOM     35  O   UNL     1      11.231  12.732  23.222  1.00  0.00    -0.507 OA
ATOM     36  H   UNL     1      11.372  11.878  23.751  1.00  0.00     0.293 HD
ENDBRANCH  10  35
TORSDOF 9
ENDMDL
MODEL 3
REMARK VINA RESULT:    22.890      1.960      3.882
REMARK INTER + INTRA:          37.979
REMARK INTER:                  37.613
REMARK INTRA:                   0.366
REMARK UNBOUND:                 7.060
REMARK SMILES O=c1c(-c2ccc(O)cc2)coc2c([C@H]3O[C@@H](CO)[C@H](O)[C@H](O)[C@H]3O)c(O)ccc12
REMARK SMILES IDX 3 1 11 2 12 3 13 4 30 5 2 6 1 7 29 8 28 9 26 10 14 11 4 12
REMARK SMILES IDX 5 13 6 14 7 15 10 16 9 17 8 18 15 20 24 21 16 22 22 23 17 24
REMARK SMILES IDX 20 25 25 26 23 28 18 30 19 31 21 33 27 35
REMARK H PARENT 8 19 25 27 23 29 19 32 21 34 27 36
REMARK Flexibility Score: inf
ROOT
ATOM      1  C   UNL     1       8.787  13.017  17.931  1.00  0.00     0.065 A 
ATOM      2  C   UNL     1      10.056  13.601  18.051  1.00  0.00     0.208 A 
ATOM      3  O   UNL     1      10.699  13.602  19.213  1.00  0.00    -0.463 OA
ATOM      4  C   UNL     1      10.198  13.064  20.323  1.00  0.00     0.147 A 
ATOM      5  C   UNL     1       8.923  12.454  20.291  1.00  0.00     0.066 A 
ATOM      6  C   UNL     1       8.211  12.442  19.078  1.00  0.00     0.200 A 
ATOM      7  O   UNL     1       7.056  11.935  19.022  1.00  0.00    -0.288 OA
ATOM      8  C   UNL     1       8.403  11.875  21.459  1.00  0.00     0.020 A 
ATOM      9  C   UNL     1       9.147  11.880  22.635  1.00  0.00     0.047 A 
ATOM     10  C   UNL     1      10.415  12.472  22.677  1.00  0.00     0.125 A 
ATOM     11  C   UNL     1      10.944  13.101  21.524  1.00  0.00     0.069 A 
ENDROOT
BRANCH   1  12
ATOM     12  C   UNL     1       8.094  13.016  16.618  1.00  0.00    -0.011 A 
ATOM     13  C   UNL     1       6.988  12.176  16.400  1.00  0.00     0.013 A 
ATOM     14  C   UNL     1       6.329  12.181  15.167  1.00  0.00     0.047 A 
ATOM     15  C   UNL     1       6.763  13.028  14.140  1.00  0.00     0.115 A 
ATOM     16  C   UNL     1       8.520  13.868  15.584  1.00  0.00     0.013 A 
ATOM     17  C   UNL     1       7.856  13.872  14.353  1.00  0.00     0.047 A 
BRANCH  15  18
ATOM     18  O   UNL     1       6.114  13.040  12.908  1.00  0.00    -0.508 OA
ATOM     19  H   UNL     1       5.559  12.253  12.593  1.00  0.00     0.293 HD
ENDBRANCH  15  18
ENDBRANCH   1  12
BRANCH  11  20
ATOM     20  C   UNL     1      12.331  13.735  21.537  1.00  0.00     0.188 C 
ATOM     21  C   UNL     1      12.261  15.280  21.682  1.00  0.00     0.179 C 
ATOM     22  O   UNL     1      13.053  13.383  20.371  1.00  0.00    -0.362 OA
ATOM     23  C   UNL     1      13.513  15.942  21.054  1.00  0.00     0.177 C 
ATOM     24  C   UNL     1      14.446  13.629  20.534  1.00  0.00     0.176 C 
ATOM     25  C   UNL     1      14.753  15.033  21.154  1.00  0.00     0.177 C 
BRANCH  21  26
ATOM     26  O   UNL     1      11.109  15.792  21.058  1.00  0.00    -0.387 OA
ATOM     27  H   UNL     1      10.347  15.605  21.664  1.00  0.00     0.211 HD
ENDBRANCH  21  26
BRANCH  23  28
ATOM     28  O   UNL     1      13.760  17.208  21.615  1.00  0.00    -0.387 OA
ATOM     29  H   UNL     1      14.506  17.624  21.113  1.00  0.00     0.211 HD
ENDBRANCH  23  28
BRANCH  24  30
ATOM     30  C   UNL     1      15.125  13.481  19.165  1.00  0.00     0.191 C 
BRANCH  30  31
ATOM     31  O   UNL     1      14.292  13.975  18.151  1.00  0.00    -0.394 OA
ATOM     32  H   UNL     1      14.873  14.173  17.371  1.00  0.00     0.210 HD
ENDBRANCH  30  31
ENDBRANCH  24  30
BRANCH  25  33
ATOM     33  O   UNL     1      15.124  14.887  22.502  1.00  0.00    -0.388 OA
ATOM     34  H   UNL     1      14.473  15.413  23.036  1.00  0.00     0.211 HD
ENDBRANCH  25  33
ENDBRANCH  11  20
BRANCH  10  35
ATOM     35  O   UNL     1      11.154  12.423  23.859  1.00  0.00    -0.507 OA
ATOM     36  H   UNL     1      10.761  12.718  24.746  1.00  0.00     0.293 HD
ENDBRANCH  10  35
TORSDOF 9
ENDMDL
