MODEL 1
REMARK VINA RESULT:    -8.592      0.000      0.000
REMARK INTER + INTRA:         -15.455
REMARK INTER:                 -13.113
REMARK INTRA:                  -2.342
REMARK UNBOUND:                -2.342
REMARK SMILES C[C@@H]1O[C@@H](Oc2cc(O)c3c(=O)c(O[C@@H]4O[C@@H](C)[C@@H](O)[C@H](O)[C@@H]4O)c(-c4ccc(O)cc4)oc3c2)[C@H](O)[C@@H](O)[C@H]1O
REMARK SMILES IDX 6 1 7 2 8 3 10 4 34 5 35 6 33 7 25 8 13 9 11 10 12 11 5 12
REMARK SMILES IDX 4 13 1 14 2 15 40 16 3 17 38 18 36 19 41 20 39 22 37 24 9 26
REMARK SMILES IDX 26 28 27 29 32 30 28 31 31 32 29 33 30 34 14 36 15 37 23 38
REMARK SMILES IDX 16 39 21 40 17 41 19 42 18 43 24 44 22 46 20 48
REMARK H PARENT 41 21 39 23 37 25 9 27 30 35 24 45 22 47 20 49
REMARK Flexibility Score: inf
ROOT
ATOM      1  C   UNL     1      -3.025 -14.616  28.133  1.00  0.00     0.130 A 
ATOM      2  C   UNL     1      -2.641 -14.167  26.857  1.00  0.00     0.093 A 
ATOM      3  C   UNL     1      -1.856 -14.973  26.020  1.00  0.00     0.134 A 
ATOM      4  C   UNL     1      -1.449 -16.257  26.456  1.00  0.00     0.111 A 
ATOM      5  C   UNL     1      -1.861 -16.709  27.728  1.00  0.00     0.146 A 
ATOM      6  C   UNL     1      -2.632 -15.887  28.555  1.00  0.00     0.094 A 
ATOM      7  O   UNL     1      -1.531 -17.919  28.155  1.00  0.00    -0.452 OA
ATOM      8  C   UNL     1      -0.807 -18.772  27.439  1.00  0.00     0.180 A 
ATOM      9  C   UNL     1      -0.299 -18.395  26.179  1.00  0.00     0.214 A 
ATOM     10  C   UNL     1      -0.646 -17.119  25.678  1.00  0.00     0.239 A 
ATOM     11  O   UNL     1      -0.246 -16.749  24.543  1.00  0.00    -0.285 OA
ENDROOT
BRANCH   1  12
ATOM     12  O   UNL     1      -3.790 -13.834  29.012  1.00  0.00    -0.462 OA
BRANCH  12  13
ATOM     13  C   UNL     1      -5.055 -13.242  28.704  1.00  0.00     0.339 C 
ATOM     14  C   UNL     1      -5.535 -11.169  31.703  1.00  0.00     0.042 C 
ATOM     15  C   UNL     1      -5.369 -12.457  30.896  1.00  0.00     0.151 C 
ATOM     16  C   UNL     1      -6.537 -13.429  31.173  1.00  0.00     0.174 C 
ATOM     17  O   UNL     1      -5.319 -12.111  29.522  1.00  0.00    -0.335 OA
ATOM     18  C   UNL     1      -6.398 -14.686  30.297  1.00  0.00     0.180 C 
ATOM     19  C   UNL     1      -6.181 -14.286  28.821  1.00  0.00     0.214 C 
BRANCH  16  20
ATOM     20  O   UNL     1      -6.546 -13.789  32.531  1.00  0.00    -0.388 OA
ATOM     21  H   UNL     1      -7.414 -14.241  32.702  1.00  0.00     0.211 HD
ENDBRANCH  16  20
BRANCH  18  22
ATOM     22  O   UNL     1      -5.323 -15.468  30.753  1.00  0.00    -0.387 OA
ATOM     23  H   UNL     1      -5.649 -16.405  30.800  1.00  0.00     0.211 HD
ENDBRANCH  18  22
BRANCH  19  24
ATOM     24  O   UNL     1      -7.364 -13.745  28.289  1.00  0.00    -0.384 OA
ATOM     25  H   UNL     1      -7.103 -13.214  27.492  1.00  0.00     0.211 HD
ENDBRANCH  19  24
ENDBRANCH  12  13
ENDBRANCH   1  12
BRANCH   3  26
ATOM     26  O   UNL     1      -1.491 -14.492  24.760  1.00  0.00    -0.507 OA
ATOM     27  H   UNL     1      -0.598 -14.722  24.340  1.00  0.00     0.293 HD
ENDBRANCH   3  26
BRANCH   8  28
ATOM     28  C   UNL     1      -0.545 -20.107  28.008  1.00  0.00     0.021 A 
ATOM     29  C   UNL     1       0.640 -20.343  28.720  1.00  0.00     0.016 A 
ATOM     30  C   UNL     1      -1.500 -21.130  27.902  1.00  0.00     0.016 A 
ATOM     31  C   UNL     1       0.884 -21.599  29.285  1.00  0.00     0.047 A 
ATOM     32  C   UNL     1      -1.254 -22.385  28.465  1.00  0.00     0.047 A 
ATOM     33  C   UNL     1      -0.062 -22.624  29.156  1.00  0.00     0.115 A 
BRANCH  33  34
ATOM     34  O   UNL     1       0.169 -23.880  29.714  1.00  0.00    -0.508 OA
ATOM     35  H   UNL     1       0.947 -24.456  29.416  1.00  0.00     0.293 HD
ENDBRANCH  33  34
ENDBRANCH   8  28
BRANCH   9  36
ATOM     36  O   UNL     1       0.547 -19.301  25.505  1.00  0.00    -0.454 OA
BRANCH  36  37
ATOM     37  C   UNL     1       0.175 -20.192  24.446  1.00  0.00     0.339 C 
ATOM     38  C   UNL     1       1.030 -19.949  23.179  1.00  0.00     0.214 C 
ATOM     39  O   UNL     1       0.231 -21.549  24.858  1.00  0.00    -0.335 OA
ATOM     40  C   UNL     1       2.463 -20.513  23.306  1.00  0.00     0.180 C 
ATOM     41  C   UNL     1       1.552 -21.931  25.203  1.00  0.00     0.151 C 
ATOM     42  C   UNL     1       2.465 -21.914  23.954  1.00  0.00     0.174 C 
ATOM     43  C   UNL     1       1.505 -23.321  25.841  1.00  0.00     0.042 C 
BRANCH  38  44
ATOM     44  O   UNL     1       1.083 -18.578  22.875  1.00  0.00    -0.384 OA
ATOM     45  H   UNL     1       1.948 -18.418  22.414  1.00  0.00     0.211 HD
ENDBRANCH  38  44
BRANCH  40  46
ATOM     46  O   UNL     1       3.322 -19.627  23.982  1.00  0.00    -0.387 OA
ATOM     47  H   UNL     1       2.778 -18.882  24.335  1.00  0.00     0.211 HD
ENDBRANCH  40  46
BRANCH  42  48
ATOM     48  O   UNL     1       2.007 -22.848  23.007  1.00  0.00    -0.388 OA
ATOM     49  H   UNL     1       1.307 -22.400  22.465  1.00  0.00     0.211 HD
ENDBRANCH  42  48
ENDBRANCH  36  37
ENDBRANCH   9  36
TORSDOF 13
ENDMDL
MODEL 2
REMARK VINA RESULT:    -8.493      4.369      8.649
REMARK INTER + INTRA:         -15.305
REMARK INTER:                 -13.031
REMARK INTRA:                  -2.274
REMARK UNBOUND:                -2.342
REMARK SMILES C[C@@H]1O[C@@H](Oc2cc(O)c3c(=O)c(O[C@@H]4O[C@@H](C)[C@@H](O)[C@H](O)[C@@H]4O)c(-c4ccc(O)cc4)oc3c2)[C@H](O)[C@@H](O)[C@H]1O
REMARK SMILES IDX 6 1 7 2 8 3 10 4 34 5 35 6 33 7 25 8 13 9 11 10 12 11 5 12
REMARK SMILES IDX 4 13 1 14 2 15 40 16 3 17 38 18 36 19 41 20 39 22 37 24 9 26
REMARK SMILES IDX 26 28 27 29 32 30 28 31 31 32 29 33 30 34 14 36 15 37 23 38
REMARK SMILES IDX 16 39 21 40 17 41 19 42 18 43 24 44 22 46 20 48
REMARK H PARENT 41 21 39 23 37 25 9 27 30 35 24 45 22 47 20 49
REMARK Flexibility Score: inf
ROOT
ATOM      1  C   UNL     1      -8.213 -14.977  31.453  1.00  0.00     0.130 A 
ATOM      2  C   UNL     1      -8.147 -13.745  32.126  1.00  0.00     0.093 A 
ATOM      3  C   UNL     1      -7.056 -12.883  31.939  1.00  0.00     0.134 A 
ATOM      4  C   UNL     1      -6.010 -13.251  31.058  1.00  0.00     0.111 A 
ATOM      5  C   UNL     1      -6.099 -14.479  30.368  1.00  0.00     0.146 A 
ATOM      6  C   UNL     1      -7.186 -15.331  30.577  1.00  0.00     0.094 A 
ATOM      7  O   UNL     1      -5.158 -14.839  29.507  1.00  0.00    -0.452 OA
ATOM      8  C   UNL     1      -4.092 -14.095  29.239  1.00  0.00     0.180 A 
ATOM      9  C   UNL     1      -3.882 -12.877  29.917  1.00  0.00     0.214 A 
ATOM     10  C   UNL     1      -4.873 -12.446  30.829  1.00  0.00     0.239 A 
ATOM     11  O   UNL     1      -4.749 -11.349  31.435  1.00  0.00    -0.285 OA
ENDROOT
BRANCH   1  12
ATOM     12  O   UNL     1      -9.274 -15.879  31.629  1.00  0.00    -0.462 OA
BRANCH  12  13
ATOM     13  C   UNL     1      -9.464 -17.086  30.884  1.00  0.00     0.339 C 
ATOM     14  C   UNL     1     -12.463 -16.176  28.958  1.00  0.00     0.042 C 
ATOM     15  C   UNL     1     -11.630 -16.478  30.205  1.00  0.00     0.151 C 
ATOM     16  C   UNL     1     -12.303 -17.576  31.057  1.00  0.00     0.174 C 
ATOM     17  O   UNL     1     -10.340 -16.889  29.783  1.00  0.00    -0.335 OA
ATOM     18  C   UNL     1     -11.416 -17.925  32.266  1.00  0.00     0.180 C 
ATOM     19  C   UNL     1      -9.972 -18.212  31.803  1.00  0.00     0.214 C 
BRANCH  16  20
ATOM     20  O   UNL     1     -13.562 -17.135  31.497  1.00  0.00    -0.388 OA
ATOM     21  H   UNL     1     -13.957 -17.877  32.025  1.00  0.00     0.211 HD
ENDBRANCH  16  20
BRANCH  18  22
ATOM     22  O   UNL     1     -11.431 -16.864  33.189  1.00  0.00    -0.387 OA
ATOM     23  H   UNL     1     -11.471 -17.271  34.093  1.00  0.00     0.211 HD
ENDBRANCH  18  22
BRANCH  19  24
ATOM     24  O   UNL     1      -9.923 -19.430  31.103  1.00  0.00    -0.384 OA
ATOM     25  H   UNL     1     -10.615 -20.019  31.503  1.00  0.00     0.211 HD
ENDBRANCH  19  24
ENDBRANCH  12  13
ENDBRANCH   1  12
BRANCH   3  26
ATOM     26  O   UNL     1      -7.023 -11.668  32.627  1.00  0.00    -0.507 OA
ATOM     27  H   UNL     1      -7.742 -10.965  32.504  1.00  0.00     0.293 HD
ENDBRANCH   3  26
BRANCH   8  28
ATOM     28  C   UNL     1      -3.139 -14.587  28.227  1.00  0.00     0.021 A 
ATOM     29  C   UNL     1      -2.046 -15.375  28.621  1.00  0.00     0.016 A 
ATOM     30  C   UNL     1      -3.349 -14.334  26.863  1.00  0.00     0.016 A 
ATOM     31  C   UNL     1      -1.152 -15.867  27.664  1.00  0.00     0.047 A 
ATOM     32  C   UNL     1      -2.453 -14.825  25.908  1.00  0.00     0.047 A 
ATOM     33  C   UNL     1      -1.353 -15.590  26.305  1.00  0.00     0.115 A 
BRANCH  33  34
ATOM     34  O   UNL     1      -0.470 -16.075  25.343  1.00  0.00    -0.508 OA
ATOM     35  H   UNL     1       0.341 -16.626  25.598  1.00  0.00     0.293 HD
ENDBRANCH  33  34
ENDBRANCH   8  28
BRANCH   9  36
ATOM     36  O   UNL     1      -2.683 -12.175  29.669  1.00  0.00    -0.454 OA
BRANCH  36  37
ATOM     37  C   UNL     1      -2.540 -10.975  28.898  1.00  0.00     0.339 C 
ATOM     38  C   UNL     1      -1.803  -9.876  29.700  1.00  0.00     0.214 C 
ATOM     39  O   UNL     1      -1.906 -11.224  27.653  1.00  0.00    -0.335 OA
ATOM     40  C   UNL     1      -0.282 -10.128  29.803  1.00  0.00     0.180 C 
ATOM     41  C   UNL     1      -0.583 -11.697  27.832  1.00  0.00     0.151 C 
ATOM     42  C   UNL     1       0.307 -10.596  28.456  1.00  0.00     0.174 C 
ATOM     43  C   UNL     1      -0.041 -12.150  26.475  1.00  0.00     0.042 C 
BRANCH  38  44
ATOM     44  O   UNL     1      -2.353  -9.750  30.987  1.00  0.00    -0.384 OA
ATOM     45  H   UNL     1      -2.289 -10.642  31.417  1.00  0.00     0.211 HD
ENDBRANCH  38  44
BRANCH  40  46
ATOM     46  O   UNL     1       0.036 -11.017  30.846  1.00  0.00    -0.387 OA
ATOM     47  H   UNL     1      -0.804 -11.280  31.293  1.00  0.00     0.211 HD
ENDBRANCH  40  46
BRANCH  42  48
ATOM     48  O   UNL     1       0.386  -9.489  27.591  1.00  0.00    -0.388 OA
ATOM     49  H   UNL     1      -0.291  -9.623  26.878  1.00  0.00     0.211 HD
ENDBRANCH  42  48
ENDBRANCH  36  37
ENDBRANCH   9  36
TORSDOF 13
ENDMDL
MODEL 3
REMARK VINA RESULT:    -8.174      4.276      8.808
REMARK INTER + INTRA:         -14.817
REMARK INTER:                 -13.072
REMARK INTRA:                  -1.746
REMARK UNBOUND:                -2.342
REMARK SMILES C[C@@H]1O[C@@H](Oc2cc(O)c3c(=O)c(O[C@@H]4O[C@@H](C)[C@@H](O)[C@H](O)[C@@H]4O)c(-c4ccc(O)cc4)oc3c2)[C@H](O)[C@@H](O)[C@H]1O
REMARK SMILES IDX 6 1 7 2 8 3 10 4 34 5 35 6 33 7 25 8 13 9 11 10 12 11 5 12
REMARK SMILES IDX 4 13 1 14 2 15 40 16 3 17 38 18 36 19 41 20 39 22 37 24 9 26
REMARK SMILES IDX 26 28 27 29 32 30 28 31 31 32 29 33 30 34 14 36 15 37 23 38
REMARK SMILES IDX 16 39 21 40 17 41 19 42 18 43 24 44 22 46 20 48
REMARK H PARENT 41 21 39 23 37 25 9 27 30 35 24 45 22 47 20 49
REMARK Flexibility Score: inf
ROOT
ATOM      1  C   UNL     1      -8.295 -15.013  31.445  1.00  0.00     0.130 A 
ATOM      2  C   UNL     1      -8.208 -13.782  32.118  1.00  0.00     0.093 A 
ATOM      3  C   UNL     1      -7.108 -12.934  31.923  1.00  0.00     0.134 A 
ATOM      4  C   UNL     1      -6.073 -13.315  31.033  1.00  0.00     0.111 A 
ATOM      5  C   UNL     1      -6.182 -14.541  30.343  1.00  0.00     0.146 A 
ATOM      6  C   UNL     1      -7.279 -15.379  30.560  1.00  0.00     0.094 A 
ATOM      7  O   UNL     1      -5.253 -14.912  29.475  1.00  0.00    -0.452 OA
ATOM      8  C   UNL     1      -4.179 -14.181  29.199  1.00  0.00     0.180 A 
ATOM      9  C   UNL     1      -3.949 -12.967  29.877  1.00  0.00     0.214 A 
ATOM     10  C   UNL     1      -4.928 -12.523  30.796  1.00  0.00     0.239 A 
ATOM     11  O   UNL     1      -4.786 -11.429  31.402  1.00  0.00    -0.285 OA
ENDROOT
BRANCH   1  12
ATOM     12  O   UNL     1      -9.365 -15.902  31.628  1.00  0.00    -0.462 OA
BRANCH  12  13
ATOM     13  C   UNL     1      -9.567 -17.114  30.895  1.00  0.00     0.339 C 
ATOM     14  C   UNL     1     -12.600 -16.220  29.015  1.00  0.00     0.042 C 
ATOM     15  C   UNL     1     -11.745 -16.513  30.249  1.00  0.00     0.151 C 
ATOM     16  C   UNL     1     -12.402 -17.605  31.121  1.00  0.00     0.174 C 
ATOM     17  O   UNL     1     -10.462 -16.925  29.808  1.00  0.00    -0.335 OA
ATOM     18  C   UNL     1     -11.494 -17.945  32.317  1.00  0.00     0.180 C 
ATOM     19  C   UNL     1     -10.058 -18.234  31.830  1.00  0.00     0.214 C 
BRANCH  16  20
ATOM     20  O   UNL     1     -13.653 -17.162  31.580  1.00  0.00    -0.388 OA
ATOM     21  H   UNL     1     -13.640 -16.169  31.533  1.00  0.00     0.211 HD
ENDBRANCH  16  20
BRANCH  18  22
ATOM     22  O   UNL     1     -11.493 -16.878  33.232  1.00  0.00    -0.387 OA
ATOM     23  H   UNL     1     -10.957 -17.171  34.014  1.00  0.00     0.211 HD
ENDBRANCH  18  22
BRANCH  19  24
ATOM     24  O   UNL     1     -10.019 -19.457  31.139  1.00  0.00    -0.384 OA
ATOM     25  H   UNL     1     -10.929 -19.850  31.201  1.00  0.00     0.211 HD
ENDBRANCH  19  24
ENDBRANCH  12  13
ENDBRANCH   1  12
BRANCH   3  26
ATOM     26  O   UNL     1      -7.054 -11.720  32.611  1.00  0.00    -0.507 OA
ATOM     27  H   UNL     1      -6.342 -11.026  32.415  1.00  0.00     0.293 HD
ENDBRANCH   3  26
BRANCH   8  28
ATOM     28  C   UNL     1      -3.240 -14.685  28.180  1.00  0.00     0.021 A 
ATOM     29  C   UNL     1      -2.311 -15.681  28.517  1.00  0.00     0.016 A 
ATOM     30  C   UNL     1      -3.308 -14.226  26.855  1.00  0.00     0.016 A 
ATOM     31  C   UNL     1      -1.435 -16.182  27.549  1.00  0.00     0.047 A 
ATOM     32  C   UNL     1      -2.429 -14.726  25.890  1.00  0.00     0.047 A 
ATOM     33  C   UNL     1      -1.490 -15.703  26.234  1.00  0.00     0.115 A 
BRANCH  33  34
ATOM     34  O   UNL     1      -0.622 -16.194  25.261  1.00  0.00    -0.508 OA
ATOM     35  H   UNL     1      -0.454 -17.187  25.154  1.00  0.00     0.293 HD
ENDBRANCH  33  34
ENDBRANCH   8  28
BRANCH   9  36
ATOM     36  O   UNL     1      -2.744 -12.279  29.620  1.00  0.00    -0.454 OA
BRANCH  36  37
ATOM     37  C   UNL     1      -1.479 -12.505  30.255  1.00  0.00     0.339 C 
ATOM     38  C   UNL     1      -0.307 -12.041  29.357  1.00  0.00     0.214 C 
ATOM     39  O   UNL     1      -1.421 -11.902  31.538  1.00  0.00    -0.335 OA
ATOM     40  C   UNL     1      -0.147 -10.505  29.328  1.00  0.00     0.180 C 
ATOM     41  C   UNL     1      -1.534 -10.492  31.453  1.00  0.00     0.151 C 
ATOM     42  C   UNL     1      -0.302  -9.892  30.735  1.00  0.00     0.174 C 
ATOM     43  C   UNL     1      -1.686  -9.929  32.867  1.00  0.00     0.042 C 
BRANCH  38  44
ATOM     44  O   UNL     1      -0.463 -12.529  28.049  1.00  0.00    -0.384 OA
ATOM     45  H   UNL     1      -0.656 -13.500  28.124  1.00  0.00     0.211 HD
ENDBRANCH  38  44
BRANCH  40  46
ATOM     46  O   UNL     1      -1.016  -9.901  28.401  1.00  0.00    -0.387 OA
ATOM     47  H   UNL     1      -0.499  -9.243  27.877  1.00  0.00     0.211 HD
ENDBRANCH  40  46
BRANCH  42  48
ATOM     48  O   UNL     1       0.866 -10.160  31.474  1.00  0.00    -0.388 OA
ATOM     49  H   UNL     1       1.114  -9.324  31.947  1.00  0.00     0.211 HD
ENDBRANCH  42  48
ENDBRANCH  36  37
ENDBRANCH   9  36
TORSDOF 13
ENDMDL
MODEL 4
REMARK VINA RESULT:    -7.558      1.348      2.301
REMARK INTER + INTRA:         -13.876
REMARK INTER:                 -12.038
REMARK INTRA:                  -1.838
REMARK UNBOUND:                -2.342
REMARK SMILES C[C@@H]1O[C@@H](Oc2cc(O)c3c(=O)c(O[C@@H]4O[C@@H](C)[C@@H](O)[C@H](O)[C@@H]4O)c(-c4ccc(O)cc4)oc3c2)[C@H](O)[C@@H](O)[C@H]1O
REMARK SMILES IDX 6 1 7 2 8 3 10 4 34 5 35 6 33 7 25 8 13 9 11 10 12 11 5 12
REMARK SMILES IDX 4 13 1 14 2 15 40 16 3 17 38 18 36 19 41 20 39 22 37 24 9 26
REMARK SMILES IDX 26 28 27 29 32 30 28 31 31 32 29 33 30 34 14 36 15 37 23 38
REMARK SMILES IDX 16 39 21 40 17 41 19 42 18 43 24 44 22 46 20 48
REMARK H PARENT 41 21 39 23 37 25 9 27 30 35 24 45 22 47 20 49
REMARK Flexibility Score: inf
ROOT
ATOM      1  C   UNL     1      -2.366 -15.477  28.175  1.00  0.00     0.130 A 
ATOM      2  C   UNL     1      -1.893 -15.324  26.860  1.00  0.00     0.093 A 
ATOM      3  C   UNL     1      -1.263 -16.386  26.196  1.00  0.00     0.134 A 
ATOM      4  C   UNL     1      -1.105 -17.632  26.851  1.00  0.00     0.111 A 
ATOM      5  C   UNL     1      -1.606 -17.784  28.162  1.00  0.00     0.146 A 
ATOM      6  C   UNL     1      -2.219 -16.710  28.813  1.00  0.00     0.094 A 
ATOM      7  O   UNL     1      -1.510 -18.946  28.791  1.00  0.00    -0.452 OA
ATOM      8  C   UNL     1      -0.950 -20.023  28.253  1.00  0.00     0.180 A 
ATOM      9  C   UNL     1      -0.369 -19.959  26.970  1.00  0.00     0.214 A 
ATOM     10  C   UNL     1      -0.469 -18.743  26.255  1.00  0.00     0.239 A 
ATOM     11  O   UNL     1       0.003 -18.646  25.092  1.00  0.00    -0.285 OA
ENDROOT
BRANCH   1  12
ATOM     12  O   UNL     1      -2.981 -14.434  28.885  1.00  0.00    -0.462 OA
BRANCH  12  13
ATOM     13  C   UNL     1      -3.955 -13.533  28.350  1.00  0.00     0.339 C 
ATOM     14  C   UNL     1      -4.147 -11.100  31.102  1.00  0.00     0.042 C 
ATOM     15  C   UNL     1      -4.284 -12.458  30.415  1.00  0.00     0.151 C 
ATOM     16  C   UNL     1      -5.719 -13.008  30.574  1.00  0.00     0.174 C 
ATOM     17  O   UNL     1      -3.958 -12.293  29.044  1.00  0.00    -0.335 OA
ATOM     18  C   UNL     1      -5.864 -14.337  29.811  1.00  0.00     0.180 C 
ATOM     19  C   UNL     1      -5.352 -14.180  28.363  1.00  0.00     0.214 C 
BRANCH  16  20
ATOM     20  O   UNL     1      -6.007 -13.201  31.935  1.00  0.00    -0.388 OA
ATOM     21  H   UNL     1      -6.417 -12.358  32.263  1.00  0.00     0.211 HD
ENDBRANCH  16  20
BRANCH  18  22
ATOM     22  O   UNL     1      -5.146 -15.347  30.475  1.00  0.00    -0.387 OA
ATOM     23  H   UNL     1      -5.738 -15.696  31.192  1.00  0.00     0.211 HD
ENDBRANCH  18  22
BRANCH  19  24
ATOM     24  O   UNL     1      -6.235 -13.376  27.624  1.00  0.00    -0.384 OA
ATOM     25  H   UNL     1      -7.077 -13.892  27.523  1.00  0.00     0.211 HD
ENDBRANCH  19  24
ENDBRANCH  12  13
ENDBRANCH   1  12
BRANCH   3  26
ATOM     26  O   UNL     1      -0.804 -16.196  24.891  1.00  0.00    -0.507 OA
ATOM     27  H   UNL     1       0.118 -15.822  24.699  1.00  0.00     0.293 HD
ENDBRANCH   3  26
BRANCH   8  28
ATOM     28  C   UNL     1      -0.945 -21.269  29.040  1.00  0.00     0.021 A 
ATOM     29  C   UNL     1       0.005 -21.450  30.058  1.00  0.00     0.016 A 
ATOM     30  C   UNL     1      -1.923 -22.253  28.829  1.00  0.00     0.016 A 
ATOM     31  C   UNL     1      -0.000 -22.618  30.826  1.00  0.00     0.047 A 
ATOM     32  C   UNL     1      -1.926 -23.421  29.597  1.00  0.00     0.047 A 
ATOM     33  C   UNL     1      -0.964 -23.608  30.595  1.00  0.00     0.115 A 
BRANCH  33  34
ATOM     34  O   UNL     1      -0.980 -24.777  31.353  1.00  0.00    -0.508 OA
ATOM     35  H   UNL     1      -1.258 -24.772  32.327  1.00  0.00     0.293 HD
ENDBRANCH  33  34
ENDBRANCH   8  28
BRANCH   9  36
ATOM     36  O   UNL     1       0.301 -21.103  26.486  1.00  0.00    -0.454 OA
BRANCH  36  37
ATOM     37  C   UNL     1       1.680 -21.436  26.693  1.00  0.00     0.339 C 
ATOM     38  C   UNL     1       1.904 -22.966  26.631  1.00  0.00     0.214 C 
ATOM     39  O   UNL     1       2.528 -20.749  25.786  1.00  0.00    -0.335 OA
ATOM     40  C   UNL     1       1.868 -23.519  25.189  1.00  0.00     0.180 C 
ATOM     41  C   UNL     1       2.264 -21.125  24.445  1.00  0.00     0.151 C 
ATOM     42  C   UNL     1       2.642 -22.607  24.213  1.00  0.00     0.174 C 
ATOM     43  C   UNL     1       3.048 -20.197  23.516  1.00  0.00     0.042 C 
BRANCH  38  44
ATOM     44  O   UNL     1       0.957 -23.637  27.422  1.00  0.00    -0.384 OA
ATOM     45  H   UNL     1       0.061 -23.369  27.090  1.00  0.00     0.211 HD
ENDBRANCH  38  44
BRANCH  40  46
ATOM     46  O   UNL     1       0.554 -23.755  24.747  1.00  0.00    -0.387 OA
ATOM     47  H   UNL     1      -0.051 -23.675  25.524  1.00  0.00     0.211 HD
ENDBRANCH  40  46
BRANCH  42  48
ATOM     48  O   UNL     1       4.021 -22.793  24.421  1.00  0.00    -0.388 OA
ATOM     49  H   UNL     1       4.152 -22.969  25.389  1.00  0.00     0.211 HD
ENDBRANCH  42  48
ENDBRANCH  36  37
ENDBRANCH   9  36
TORSDOF 13
ENDMDL
MODEL 5
REMARK VINA RESULT:    -7.356      1.586      2.125
REMARK INTER + INTRA:         -13.569
REMARK INTER:                 -11.528
REMARK INTRA:                  -2.041
REMARK UNBOUND:                -2.342
REMARK SMILES C[C@@H]1O[C@@H](Oc2cc(O)c3c(=O)c(O[C@@H]4O[C@@H](C)[C@@H](O)[C@H](O)[C@@H]4O)c(-c4ccc(O)cc4)oc3c2)[C@H](O)[C@@H](O)[C@H]1O
REMARK SMILES IDX 6 1 7 2 8 3 10 4 34 5 35 6 33 7 25 8 13 9 11 10 12 11 5 12
REMARK SMILES IDX 4 13 1 14 2 15 40 16 3 17 38 18 36 19 41 20 39 22 37 24 9 26
REMARK SMILES IDX 26 28 27 29 32 30 28 31 31 32 29 33 30 34 14 36 15 37 23 38
REMARK SMILES IDX 16 39 21 40 17 41 19 42 18 43 24 44 22 46 20 48
REMARK H PARENT 41 21 39 23 37 25 9 27 30 35 24 45 22 47 20 49
REMARK Flexibility Score: inf
ROOT
ATOM      1  C   UNL     1      -2.444 -14.340  28.487  1.00  0.00     0.130 A 
ATOM      2  C   UNL     1      -2.157 -13.926  27.175  1.00  0.00     0.093 A 
ATOM      3  C   UNL     1      -1.532 -14.797  26.270  1.00  0.00     0.134 A 
ATOM      4  C   UNL     1      -1.191 -16.110  26.675  1.00  0.00     0.111 A 
ATOM      5  C   UNL     1      -1.506 -16.524  27.987  1.00  0.00     0.146 A 
ATOM      6  C   UNL     1      -2.117 -15.639  28.880  1.00  0.00     0.094 A 
ATOM      7  O   UNL     1      -1.237 -17.757  28.389  1.00  0.00    -0.452 OA
ATOM      8  C   UNL     1      -0.664 -18.669  27.612  1.00  0.00     0.180 A 
ATOM      9  C   UNL     1      -0.259 -18.338  26.303  1.00  0.00     0.214 A 
ATOM     10  C   UNL     1      -0.548 -17.038  25.827  1.00  0.00     0.239 A 
ATOM     11  O   UNL     1      -0.237 -16.704  24.654  1.00  0.00    -0.285 OA
ENDROOT
BRANCH   1  12
ATOM     12  O   UNL     1      -3.046 -13.495  29.433  1.00  0.00    -0.462 OA
BRANCH  12  13
ATOM     13  C   UNL     1      -3.891 -12.381  29.126  1.00  0.00     0.339 C 
ATOM     14  C   UNL     1      -1.347  -9.768  28.648  1.00  0.00     0.042 C 
ATOM     15  C   UNL     1      -2.155 -10.822  29.406  1.00  0.00     0.151 C 
ATOM     16  C   UNL     1      -2.785 -10.215  30.679  1.00  0.00     0.174 C 
ATOM     17  O   UNL     1      -3.159 -11.316  28.535  1.00  0.00    -0.335 OA
ATOM     18  C   UNL     1      -3.659 -11.264  31.390  1.00  0.00     0.180 C 
ATOM     19  C   UNL     1      -4.639 -11.909  30.386  1.00  0.00     0.214 C 
BRANCH  16  20
ATOM     20  O   UNL     1      -1.773  -9.767  31.545  1.00  0.00    -0.388 OA
ATOM     21  H   UNL     1      -0.908 -10.019  31.128  1.00  0.00     0.211 HD
ENDBRANCH  16  20
BRANCH  18  22
ATOM     22  O   UNL     1      -2.841 -12.247  31.973  1.00  0.00    -0.387 OA
ATOM     23  H   UNL     1      -2.327 -12.668  31.236  1.00  0.00     0.211 HD
ENDBRANCH  18  22
BRANCH  19  24
ATOM     24  O   UNL     1      -5.626 -10.982  30.012  1.00  0.00    -0.384 OA
ATOM     25  H   UNL     1      -5.791 -11.115  29.042  1.00  0.00     0.211 HD
ENDBRANCH  19  24
ENDBRANCH  12  13
ENDBRANCH   1  12
BRANCH   3  26
ATOM     26  O   UNL     1      -1.260 -14.350  24.974  1.00  0.00    -0.507 OA
ATOM     27  H   UNL     1      -1.299 -14.973  24.176  1.00  0.00     0.293 HD
ENDBRANCH   3  26
BRANCH   8  28
ATOM     28  C   UNL     1      -0.457 -20.020  28.164  1.00  0.00     0.021 A 
ATOM     29  C   UNL     1       0.757 -20.341  28.792  1.00  0.00     0.016 A 
ATOM     30  C   UNL     1      -1.487 -20.973  28.130  1.00  0.00     0.016 A 
ATOM     31  C   UNL     1       0.950 -21.612  29.341  1.00  0.00     0.047 A 
ATOM     32  C   UNL     1      -1.291 -22.244  28.677  1.00  0.00     0.047 A 
ATOM     33  C   UNL     1      -0.072 -22.568  29.282  1.00  0.00     0.115 A 
BRANCH  33  34
ATOM     34  O   UNL     1       0.109 -23.838  29.825  1.00  0.00    -0.508 OA
ATOM     35  H   UNL     1       0.845 -24.452  29.501  1.00  0.00     0.293 HD
ENDBRANCH  33  34
ENDBRANCH   8  28
BRANCH   9  36
ATOM     36  O   UNL     1       0.436 -19.313  25.555  1.00  0.00    -0.454 OA
BRANCH  36  37
ATOM     37  C   UNL     1      -0.118 -20.174  24.552  1.00  0.00     0.339 C 
ATOM     38  C   UNL     1       0.595 -19.983  23.191  1.00  0.00     0.214 C 
ATOM     39  O   UNL     1      -0.102 -21.533  24.961  1.00  0.00    -0.335 OA
ATOM     40  C   UNL     1       1.992 -20.640  23.148  1.00  0.00     0.180 C 
ATOM     41  C   UNL     1       1.222 -22.002  25.147  1.00  0.00     0.151 C 
ATOM     42  C   UNL     1       1.979 -22.040  23.798  1.00  0.00     0.174 C 
ATOM     43  C   UNL     1       1.161 -23.387  25.792  1.00  0.00     0.042 C 
BRANCH  38  44
ATOM     44  O   UNL     1       0.701 -18.618  22.877  1.00  0.00    -0.384 OA
ATOM     45  H   UNL     1       0.473 -18.113  23.700  1.00  0.00     0.211 HD
ENDBRANCH  38  44
BRANCH  40  46
ATOM     46  O   UNL     1       2.981 -19.815  23.713  1.00  0.00    -0.387 OA
ATOM     47  H   UNL     1       3.640 -19.599  23.010  1.00  0.00     0.211 HD
ENDBRANCH  40  46
BRANCH  42  48
ATOM     48  O   UNL     1       1.352 -22.939  22.917  1.00  0.00    -0.388 OA
ATOM     49  H   UNL     1       1.815 -22.867  22.042  1.00  0.00     0.211 HD
ENDBRANCH  42  48
ENDBRANCH  36  37
ENDBRANCH   9  36
TORSDOF 13
ENDMDL
MODEL 6
REMARK VINA RESULT:    -7.324      2.026      2.812
REMARK INTER + INTRA:         -13.520
REMARK INTER:                 -11.312
REMARK INTRA:                  -2.208
REMARK UNBOUND:                -2.342
REMARK SMILES C[C@@H]1O[C@@H](Oc2cc(O)c3c(=O)c(O[C@@H]4O[C@@H](C)[C@@H](O)[C@H](O)[C@@H]4O)c(-c4ccc(O)cc4)oc3c2)[C@H](O)[C@@H](O)[C@H]1O
REMARK SMILES IDX 6 1 7 2 8 3 10 4 34 5 35 6 33 7 25 8 13 9 11 10 12 11 5 12
REMARK SMILES IDX 4 13 1 14 2 15 40 16 3 17 38 18 36 19 41 20 39 22 37 24 9 26
REMARK SMILES IDX 26 28 27 29 32 30 28 31 31 32 29 33 30 34 14 36 15 37 23 38
REMARK SMILES IDX 16 39 21 40 17 41 19 42 18 43 24 44 22 46 20 48
REMARK H PARENT 41 21 39 23 37 25 9 27 30 35 24 45 22 47 20 49
REMARK Flexibility Score: inf
ROOT
ATOM      1  C   UNL     1      -2.254 -15.955  28.747  1.00  0.00     0.130 A 
ATOM      2  C   UNL     1      -1.347 -15.741  27.695  1.00  0.00     0.093 A 
ATOM      3  C   UNL     1      -0.496 -16.768  27.261  1.00  0.00     0.134 A 
ATOM      4  C   UNL     1      -0.552 -18.039  27.882  1.00  0.00     0.111 A 
ATOM      5  C   UNL     1      -1.484 -18.252  28.921  1.00  0.00     0.146 A 
ATOM      6  C   UNL     1      -2.315 -17.213  29.349  1.00  0.00     0.094 A 
ATOM      7  O   UNL     1      -1.592 -19.439  29.499  1.00  0.00    -0.452 OA
ATOM      8  C   UNL     1      -0.850 -20.487  29.156  1.00  0.00     0.180 A 
ATOM      9  C   UNL     1       0.149 -20.362  28.170  1.00  0.00     0.214 A 
ATOM     10  C   UNL     1       0.281 -19.117  27.512  1.00  0.00     0.239 A 
ATOM     11  O   UNL     1       1.135 -18.965  26.600  1.00  0.00    -0.285 OA
ENDROOT
BRANCH   1  12
ATOM     12  O   UNL     1      -3.107 -14.950  29.228  1.00  0.00    -0.462 OA
BRANCH  12  13
ATOM     13  C   UNL     1      -3.862 -14.048  28.414  1.00  0.00     0.339 C 
ATOM     14  C   UNL     1      -4.000 -11.134  30.654  1.00  0.00     0.042 C 
ATOM     15  C   UNL     1      -4.263 -12.569  30.196  1.00  0.00     0.151 C 
ATOM     16  C   UNL     1      -5.773 -12.888  30.240  1.00  0.00     0.174 C 
ATOM     17  O   UNL     1      -3.757 -12.709  28.878  1.00  0.00    -0.335 OA
ATOM     18  C   UNL     1      -6.030 -14.308  29.703  1.00  0.00     0.180 C 
ATOM     19  C   UNL     1      -5.334 -14.495  28.338  1.00  0.00     0.214 C 
BRANCH  16  20
ATOM     20  O   UNL     1      -6.245 -12.782  31.559  1.00  0.00    -0.388 OA
ATOM     21  H   UNL     1      -7.118 -12.310  31.513  1.00  0.00     0.211 HD
ENDBRANCH  16  20
BRANCH  18  22
ATOM     22  O   UNL     1      -5.558 -15.258  30.625  1.00  0.00    -0.387 OA
ATOM     23  H   UNL     1      -5.592 -14.831  31.520  1.00  0.00     0.211 HD
ENDBRANCH  18  22
BRANCH  19  24
ATOM     24  O   UNL     1      -5.991 -13.738  27.353  1.00  0.00    -0.384 OA
ATOM     25  H   UNL     1      -5.620 -14.021  26.477  1.00  0.00     0.211 HD
ENDBRANCH  19  24
ENDBRANCH  12  13
ENDBRANCH   1  12
BRANCH   3  26
ATOM     26  O   UNL     1       0.394 -16.517  26.215  1.00  0.00    -0.507 OA
ATOM     27  H   UNL     1       0.583 -15.577  25.888  1.00  0.00     0.293 HD
ENDBRANCH   3  26
BRANCH   8  28
ATOM     28  C   UNL     1      -1.096 -21.766  29.847  1.00  0.00     0.021 A 
ATOM     29  C   UNL     1      -0.474 -22.028  31.077  1.00  0.00     0.016 A 
ATOM     30  C   UNL     1      -2.001 -22.701  29.320  1.00  0.00     0.016 A 
ATOM     31  C   UNL     1      -0.723 -23.229  31.750  1.00  0.00     0.047 A 
ATOM     32  C   UNL     1      -2.248 -23.901  29.993  1.00  0.00     0.047 A 
ATOM     33  C   UNL     1      -1.609 -24.169  31.208  1.00  0.00     0.115 A 
BRANCH  33  34
ATOM     34  O   UNL     1      -1.865 -25.369  31.868  1.00  0.00    -0.508 OA
ATOM     35  H   UNL     1      -2.628 -25.974  31.590  1.00  0.00     0.293 HD
ENDBRANCH  33  34
ENDBRANCH   8  28
BRANCH   9  36
ATOM     36  O   UNL     1       0.975 -21.478  27.916  1.00  0.00    -0.454 OA
BRANCH  36  37
ATOM     37  C   UNL     1       0.834 -22.419  26.844  1.00  0.00     0.339 C 
ATOM     38  C   UNL     1       2.123 -22.498  25.991  1.00  0.00     0.214 C 
ATOM     39  O   UNL     1       0.445 -23.699  27.319  1.00  0.00    -0.335 OA
ATOM     40  C   UNL     1       3.255 -23.286  26.687  1.00  0.00     0.180 C 
ATOM     41  C   UNL     1       1.435 -24.260  28.163  1.00  0.00     0.151 C 
ATOM     42  C   UNL     1       2.722 -24.568  27.361  1.00  0.00     0.174 C 
ATOM     43  C   UNL     1       0.864 -25.525  28.808  1.00  0.00     0.042 C 
BRANCH  38  44
ATOM     44  O   UNL     1       2.574 -21.210  25.657  1.00  0.00    -0.384 OA
ATOM     45  H   UNL     1       3.544 -21.285  25.461  1.00  0.00     0.211 HD
ENDBRANCH  38  44
BRANCH  40  46
ATOM     46  O   UNL     1       3.976 -22.485  27.592  1.00  0.00    -0.387 OA
ATOM     47  H   UNL     1       3.660 -22.692  28.505  1.00  0.00     0.211 HD
ENDBRANCH  40  46
BRANCH  42  48
ATOM     48  O   UNL     1       2.453 -25.522  26.362  1.00  0.00    -0.388 OA
ATOM     49  H   UNL     1       2.178 -26.358  26.820  1.00  0.00     0.211 HD
ENDBRANCH  42  48
ENDBRANCH  36  37
ENDBRANCH   9  36
TORSDOF 13
ENDMDL
MODEL 7
REMARK VINA RESULT:    -7.217      2.682      5.426
REMARK INTER + INTRA:         -13.356
REMARK INTER:                 -11.230
REMARK INTRA:                  -2.126
REMARK UNBOUND:                -2.342
REMARK SMILES C[C@@H]1O[C@@H](Oc2cc(O)c3c(=O)c(O[C@@H]4O[C@@H](C)[C@@H](O)[C@H](O)[C@@H]4O)c(-c4ccc(O)cc4)oc3c2)[C@H](O)[C@@H](O)[C@H]1O
REMARK SMILES IDX 6 1 7 2 8 3 10 4 34 5 35 6 33 7 25 8 13 9 11 10 12 11 5 12
REMARK SMILES IDX 4 13 1 14 2 15 40 16 3 17 38 18 36 19 41 20 39 22 37 24 9 26
REMARK SMILES IDX 26 28 27 29 32 30 28 31 31 32 29 33 30 34 14 36 15 37 23 38
REMARK SMILES IDX 16 39 21 40 17 41 19 42 18 43 24 44 22 46 20 48
REMARK H PARENT 41 21 39 23 37 25 9 27 30 35 24 45 22 47 20 49
REMARK Flexibility Score: inf
ROOT
ATOM      1  C   UNL     1      -0.965 -17.990  26.305  1.00  0.00     0.130 A 
ATOM      2  C   UNL     1       0.079 -18.338  25.431  1.00  0.00     0.093 A 
ATOM      3  C   UNL     1       0.814 -19.516  25.626  1.00  0.00     0.134 A 
ATOM      4  C   UNL     1       0.501 -20.371  26.710  1.00  0.00     0.111 A 
ATOM      5  C   UNL     1      -0.565 -20.025  27.568  1.00  0.00     0.146 A 
ATOM      6  C   UNL     1      -1.278 -18.840  27.367  1.00  0.00     0.094 A 
ATOM      7  O   UNL     1      -0.911 -20.820  28.570  1.00  0.00    -0.452 OA
ATOM      8  C   UNL     1      -0.297 -21.967  28.836  1.00  0.00     0.180 A 
ATOM      9  C   UNL     1       0.816 -22.374  28.074  1.00  0.00     0.214 A 
ATOM     10  C   UNL     1       1.205 -21.565  26.981  1.00  0.00     0.239 A 
ATOM     11  O   UNL     1       2.171 -21.904  26.248  1.00  0.00    -0.285 OA
ENDROOT
BRANCH   1  12
ATOM     12  O   UNL     1      -1.710 -16.809  26.162  1.00  0.00    -0.462 OA
BRANCH  12  13
ATOM     13  C   UNL     1      -1.164 -15.487  26.123  1.00  0.00     0.339 C 
ATOM     14  C   UNL     1       0.099 -15.220  29.566  1.00  0.00     0.042 C 
ATOM     15  C   UNL     1      -0.945 -15.368  28.460  1.00  0.00     0.151 C 
ATOM     16  C   UNL     1      -2.044 -14.292  28.598  1.00  0.00     0.174 C 
ATOM     17  O   UNL     1      -0.282 -15.252  27.211  1.00  0.00    -0.335 OA
ATOM     18  C   UNL     1      -3.045 -14.404  27.434  1.00  0.00     0.180 C 
ATOM     19  C   UNL     1      -2.292 -14.439  26.086  1.00  0.00     0.214 C 
BRANCH  16  20
ATOM     20  O   UNL     1      -2.714 -14.449  29.823  1.00  0.00    -0.388 OA
ATOM     21  H   UNL     1      -2.014 -14.553  30.521  1.00  0.00     0.211 HD
ENDBRANCH  16  20
BRANCH  18  22
ATOM     22  O   UNL     1      -3.825 -15.563  27.587  1.00  0.00    -0.387 OA
ATOM     23  H   UNL     1      -4.126 -15.584  28.532  1.00  0.00     0.211 HD
ENDBRANCH  18  22
BRANCH  19  24
ATOM     24  O   UNL     1      -1.736 -13.178  25.811  1.00  0.00    -0.384 OA
ATOM     25  H   UNL     1      -2.423 -12.665  25.311  1.00  0.00     0.211 HD
ENDBRANCH  19  24
ENDBRANCH  12  13
ENDBRANCH   1  12
BRANCH   3  26
ATOM     26  O   UNL     1       1.847 -19.829  24.738  1.00  0.00    -0.507 OA
ATOM     27  H   UNL     1       2.268 -19.127  24.141  1.00  0.00     0.293 HD
ENDBRANCH   3  26
BRANCH   8  28
ATOM     28  C   UNL     1      -0.806 -22.782  29.954  1.00  0.00     0.021 A 
ATOM     29  C   UNL     1      -1.809 -23.737  29.724  1.00  0.00     0.016 A 
ATOM     30  C   UNL     1      -0.252 -22.662  31.238  1.00  0.00     0.016 A 
ATOM     31  C   UNL     1      -2.278 -24.532  30.774  1.00  0.00     0.047 A 
ATOM     32  C   UNL     1      -0.724 -23.456  32.287  1.00  0.00     0.047 A 
ATOM     33  C   UNL     1      -1.739 -24.391  32.059  1.00  0.00     0.115 A 
BRANCH  33  34
ATOM     34  O   UNL     1      -2.198 -25.177  33.114  1.00  0.00    -0.508 OA
ATOM     35  H   UNL     1      -1.957 -26.157  33.188  1.00  0.00     0.293 HD
ENDBRANCH  33  34
ENDBRANCH   8  28
BRANCH   9  36
ATOM     36  O   UNL     1       1.494 -23.550  28.462  1.00  0.00    -0.454 OA
BRANCH  36  37
ATOM     37  C   UNL     1       1.540 -24.787  27.740  1.00  0.00     0.339 C 
ATOM     38  C   UNL     1       2.995 -25.288  27.575  1.00  0.00     0.214 C 
ATOM     39  O   UNL     1       0.715 -25.775  28.338  1.00  0.00    -0.335 OA
ATOM     40  C   UNL     1       3.571 -25.893  28.875  1.00  0.00     0.180 C 
ATOM     41  C   UNL     1       1.161 -26.102  29.642  1.00  0.00     0.151 C 
ATOM     42  C   UNL     1       2.542 -26.798  29.584  1.00  0.00     0.174 C 
ATOM     43  C   UNL     1       0.113 -26.997  30.305  1.00  0.00     0.042 C 
BRANCH  38  44
ATOM     44  O   UNL     1       3.827 -24.251  27.123  1.00  0.00    -0.384 OA
ATOM     45  H   UNL     1       4.367 -23.953  27.901  1.00  0.00     0.211 HD
ENDBRANCH  38  44
BRANCH  40  46
ATOM     46  O   UNL     1       4.074 -24.903  29.740  1.00  0.00    -0.387 OA
ATOM     47  H   UNL     1       4.665 -24.309  29.217  1.00  0.00     0.211 HD
ENDBRANCH  40  46
BRANCH  42  48
ATOM     48  O   UNL     1       2.444 -28.009  28.874  1.00  0.00    -0.388 OA
ATOM     49  H   UNL     1       1.936 -28.644  29.443  1.00  0.00     0.211 HD
ENDBRANCH  42  48
ENDBRANCH  36  37
ENDBRANCH   9  36
TORSDOF 13
ENDMDL
MODEL 8
REMARK VINA RESULT:    -7.073      1.394      2.245
REMARK INTER + INTRA:         -13.137
REMARK INTER:                 -10.849
REMARK INTRA:                  -2.289
REMARK UNBOUND:                -2.342
REMARK SMILES C[C@@H]1O[C@@H](Oc2cc(O)c3c(=O)c(O[C@@H]4O[C@@H](C)[C@@H](O)[C@H](O)[C@@H]4O)c(-c4ccc(O)cc4)oc3c2)[C@H](O)[C@@H](O)[C@H]1O
REMARK SMILES IDX 6 1 7 2 8 3 10 4 34 5 35 6 33 7 25 8 13 9 11 10 12 11 5 12
REMARK SMILES IDX 4 13 1 14 2 15 40 16 3 17 38 18 36 19 41 20 39 22 37 24 9 26
REMARK SMILES IDX 26 28 27 29 32 30 28 31 31 32 29 33 30 34 14 36 15 37 23 38
REMARK SMILES IDX 16 39 21 40 17 41 19 42 18 43 24 44 22 46 20 48
REMARK H PARENT 41 21 39 23 37 25 9 27 30 35 24 45 22 47 20 49
REMARK Flexibility Score: inf
ROOT
ATOM      1  C   UNL     1      -2.014 -14.885  27.462  1.00  0.00     0.130 A 
ATOM      2  C   UNL     1      -1.692 -14.745  26.101  1.00  0.00     0.093 A 
ATOM      3  C   UNL     1      -1.086 -15.795  25.396  1.00  0.00     0.134 A 
ATOM      4  C   UNL     1      -0.799 -17.015  26.057  1.00  0.00     0.111 A 
ATOM      5  C   UNL     1      -1.149 -17.154  27.417  1.00  0.00     0.146 A 
ATOM      6  C   UNL     1      -1.740 -16.093  28.107  1.00  0.00     0.094 A 
ATOM      7  O   UNL     1      -0.930 -18.293  28.058  1.00  0.00    -0.452 OA
ATOM      8  C   UNL     1      -0.379 -19.357  27.485  1.00  0.00     0.180 A 
ATOM      9  C   UNL     1       0.058 -19.302  26.146  1.00  0.00     0.214 A 
ATOM     10  C   UNL     1      -0.176 -18.111  25.420  1.00  0.00     0.239 A 
ATOM     11  O   UNL     1       0.164 -18.023  24.211  1.00  0.00    -0.285 OA
ENDROOT
BRANCH   1  12
ATOM     12  O   UNL     1      -2.599 -13.853  28.212  1.00  0.00    -0.462 OA
BRANCH  12  13
ATOM     13  C   UNL     1      -2.704 -13.825  29.638  1.00  0.00     0.339 C 
ATOM     14  C   UNL     1      -6.361 -13.955  30.009  1.00  0.00     0.042 C 
ATOM     15  C   UNL     1      -5.010 -13.374  29.590  1.00  0.00     0.151 C 
ATOM     16  C   UNL     1      -4.834 -11.945  30.148  1.00  0.00     0.174 C 
ATOM     17  O   UNL     1      -3.992 -14.233  30.077  1.00  0.00    -0.335 OA
ATOM     18  C   UNL     1      -3.439 -11.403  29.785  1.00  0.00     0.180 C 
ATOM     19  C   UNL     1      -2.352 -12.426  30.177  1.00  0.00     0.214 C 
BRANCH  16  20
ATOM     20  O   UNL     1      -5.828 -11.102  29.623  1.00  0.00    -0.388 OA
ATOM     21  H   UNL     1      -5.447 -10.685  28.806  1.00  0.00     0.211 HD
ENDBRANCH  16  20
BRANCH  18  22
ATOM     22  O   UNL     1      -3.379 -11.131  28.407  1.00  0.00    -0.387 OA
ATOM     23  H   UNL     1      -3.314 -10.146  28.312  1.00  0.00     0.211 HD
ENDBRANCH  18  22
BRANCH  19  24
ATOM     24  O   UNL     1      -2.232 -12.492  31.576  1.00  0.00    -0.384 OA
ATOM     25  H   UNL     1      -1.264 -12.575  31.778  1.00  0.00     0.211 HD
ENDBRANCH  19  24
ENDBRANCH  12  13
ENDBRANCH   1  12
BRANCH   3  26
ATOM     26  O   UNL     1      -0.778 -15.619  24.045  1.00  0.00    -0.507 OA
ATOM     27  H   UNL     1      -1.077 -14.799  23.532  1.00  0.00     0.293 HD
ENDBRANCH   3  26
BRANCH   8  28
ATOM     28  C   UNL     1      -0.229 -20.580  28.294  1.00  0.00     0.021 A 
ATOM     29  C   UNL     1       0.976 -20.830  28.969  1.00  0.00     0.016 A 
ATOM     30  C   UNL     1      -1.304 -21.469  28.453  1.00  0.00     0.016 A 
ATOM     31  C   UNL     1       1.116 -21.975  29.759  1.00  0.00     0.047 A 
ATOM     32  C   UNL     1      -1.162 -22.615  29.242  1.00  0.00     0.047 A 
ATOM     33  C   UNL     1       0.048 -22.872  29.895  1.00  0.00     0.115 A 
BRANCH  33  34
ATOM     34  O   UNL     1       0.175 -24.016  30.679  1.00  0.00    -0.508 OA
ATOM     35  H   UNL     1       0.368 -24.921  30.267  1.00  0.00     0.293 HD
ENDBRANCH  33  34
ENDBRANCH   8  28
BRANCH   9  36
ATOM     36  O   UNL     1       0.728 -20.426  25.618  1.00  0.00    -0.454 OA
BRANCH  36  37
ATOM     37  C   UNL     1       0.160 -21.447  24.787  1.00  0.00     0.339 C 
ATOM     38  C   UNL     1       0.950 -21.602  23.466  1.00  0.00     0.214 C 
ATOM     39  O   UNL     1       0.051 -22.682  25.476  1.00  0.00    -0.335 OA
ATOM     40  C   UNL     1       2.293 -22.342  23.654  1.00  0.00     0.180 C 
ATOM     41  C   UNL     1       1.324 -23.184  25.843  1.00  0.00     0.151 C 
ATOM     42  C   UNL     1       2.141 -23.563  24.585  1.00  0.00     0.174 C 
ATOM     43  C   UNL     1       1.125 -24.390  26.763  1.00  0.00     0.042 C 
BRANCH  38  44
ATOM     44  O   UNL     1       1.176 -20.347  22.875  1.00  0.00    -0.384 OA
ATOM     45  H   UNL     1       0.288 -19.980  22.628  1.00  0.00     0.211 HD
ENDBRANCH  38  44
BRANCH  40  46
ATOM     46  O   UNL     1       3.314 -21.479  24.093  1.00  0.00    -0.387 OA
ATOM     47  H   UNL     1       4.183 -21.910  23.906  1.00  0.00     0.211 HD
ENDBRANCH  40  46
BRANCH  42  48
ATOM     48  O   UNL     1       1.490 -24.590  23.877  1.00  0.00    -0.388 OA
ATOM     49  H   UNL     1       0.674 -24.197  23.470  1.00  0.00     0.211 HD
ENDBRANCH  42  48
ENDBRANCH  36  37
ENDBRANCH   9  36
TORSDOF 13
ENDMDL
MODEL 9
REMARK VINA RESULT:    -7.003      2.903     10.374
REMARK INTER + INTRA:         -13.031
REMARK INTER:                 -10.872
REMARK INTRA:                  -2.158
REMARK UNBOUND:                -2.342
REMARK SMILES C[C@@H]1O[C@@H](Oc2cc(O)c3c(=O)c(O[C@@H]4O[C@@H](C)[C@@H](O)[C@H](O)[C@@H]4O)c(-c4ccc(O)cc4)oc3c2)[C@H](O)[C@@H](O)[C@H]1O
REMARK SMILES IDX 6 1 7 2 8 3 10 4 34 5 35 6 33 7 25 8 13 9 11 10 12 11 5 12
REMARK SMILES IDX 4 13 1 14 2 15 40 16 3 17 38 18 36 19 41 20 39 22 37 24 9 26
REMARK SMILES IDX 26 28 27 29 32 30 28 31 31 32 29 33 30 34 14 36 15 37 23 38
REMARK SMILES IDX 16 39 21 40 17 41 19 42 18 43 24 44 22 46 20 48
REMARK H PARENT 41 21 39 23 37 25 9 27 30 35 24 45 22 47 20 49
REMARK Flexibility Score: inf
ROOT
ATOM      1  C   UNL     1       0.126 -19.138  25.250  1.00  0.00     0.130 A 
ATOM      2  C   UNL     1      -0.988 -19.390  26.069  1.00  0.00     0.093 A 
ATOM      3  C   UNL     1      -1.536 -18.375  26.866  1.00  0.00     0.134 A 
ATOM      4  C   UNL     1      -0.969 -17.078  26.844  1.00  0.00     0.111 A 
ATOM      5  C   UNL     1       0.134 -16.828  26.000  1.00  0.00     0.146 A 
ATOM      6  C   UNL     1       0.676 -17.855  25.222  1.00  0.00     0.094 A 
ATOM      7  O   UNL     1       0.666 -15.617  25.924  1.00  0.00    -0.452 OA
ATOM      8  C   UNL     1       0.217 -14.579  26.620  1.00  0.00     0.180 A 
ATOM      9  C   UNL     1      -0.844 -14.737  27.534  1.00  0.00     0.214 A 
ATOM     10  C   UNL     1      -1.455 -16.009  27.629  1.00  0.00     0.239 A 
ATOM     11  O   UNL     1      -2.428 -16.193  28.405  1.00  0.00    -0.285 OA
ENDROOT
BRANCH   1  12
ATOM     12  O   UNL     1       0.722 -20.130  24.455  1.00  0.00    -0.462 OA
BRANCH  12  13
ATOM     13  C   UNL     1       0.256 -21.477  24.328  1.00  0.00     0.339 C 
ATOM     14  C   UNL     1       1.997 -23.021  27.176  1.00  0.00     0.042 C 
ATOM     15  C   UNL     1       1.860 -22.310  25.830  1.00  0.00     0.151 C 
ATOM     16  C   UNL     1       2.624 -23.077  24.728  1.00  0.00     0.174 C 
ATOM     17  O   UNL     1       0.480 -22.223  25.517  1.00  0.00    -0.335 OA
ATOM     18  C   UNL     1       2.414 -22.395  23.365  1.00  0.00     0.180 C 
ATOM     19  C   UNL     1       0.909 -22.160  23.112  1.00  0.00     0.214 C 
BRANCH  16  20
ATOM     20  O   UNL     1       3.994 -23.119  25.038  1.00  0.00    -0.388 OA
ATOM     21  H   UNL     1       4.294 -22.177  25.134  1.00  0.00     0.211 HD
ENDBRANCH  16  20
BRANCH  18  22
ATOM     22  O   UNL     1       3.110 -21.174  23.332  1.00  0.00    -0.387 OA
ATOM     23  H   UNL     1       3.498 -21.040  24.235  1.00  0.00     0.211 HD
ENDBRANCH  18  22
BRANCH  19  24
ATOM     24  O   UNL     1       0.263 -23.385  22.875  1.00  0.00    -0.384 OA
ATOM     25  H   UNL     1       0.782 -24.081  23.355  1.00  0.00     0.211 HD
ENDBRANCH  19  24
ENDBRANCH  12  13
ENDBRANCH   1  12
BRANCH   3  26
ATOM     26  O   UNL     1      -2.642 -18.664  27.670  1.00  0.00    -0.507 OA
ATOM     27  H   UNL     1      -2.785 -18.208  28.563  1.00  0.00     0.293 HD
ENDBRANCH   3  26
BRANCH   8  28
ATOM     28  C   UNL     1       0.869 -13.272  26.414  1.00  0.00     0.021 A 
ATOM     29  C   UNL     1       1.916 -12.872  27.258  1.00  0.00     0.016 A 
ATOM     30  C   UNL     1       0.498 -12.449  25.340  1.00  0.00     0.016 A 
ATOM     31  C   UNL     1       2.556 -11.646  27.053  1.00  0.00     0.047 A 
ATOM     32  C   UNL     1       1.137 -11.222  25.137  1.00  0.00     0.047 A 
ATOM     33  C   UNL     1       2.166 -10.817  25.993  1.00  0.00     0.115 A 
BRANCH  33  34
ATOM     34  O   UNL     1       2.796  -9.593  25.779  1.00  0.00    -0.508 OA
ATOM     35  H   UNL     1       3.804  -9.506  25.796  1.00  0.00     0.293 HD
ENDBRANCH  33  34
ENDBRANCH   8  28
BRANCH   9  36
ATOM     36  O   UNL     1      -1.216 -13.626  28.321  1.00  0.00    -0.454 OA
BRANCH  36  37
ATOM     37  C   UNL     1      -2.286 -12.710  28.055  1.00  0.00     0.339 C 
ATOM     38  C   UNL     1      -3.290 -12.660  29.231  1.00  0.00     0.214 C 
ATOM     39  O   UNL     1      -1.800 -11.416  27.730  1.00  0.00    -0.335 OA
ATOM     40  C   UNL     1      -2.755 -11.862  30.442  1.00  0.00     0.180 C 
ATOM     41  C   UNL     1      -1.095 -10.841  28.816  1.00  0.00     0.151 C 
ATOM     42  C   UNL     1      -2.054 -10.561  29.998  1.00  0.00     0.174 C 
ATOM     43  C   UNL     1      -0.418  -9.557  28.331  1.00  0.00     0.042 C 
BRANCH  38  44
ATOM     44  O   UNL     1      -3.643 -13.958  29.635  1.00  0.00    -0.384 OA
ATOM     45  H   UNL     1      -3.374 -14.048  30.586  1.00  0.00     0.211 HD
ENDBRANCH  38  44
BRANCH  40  46
ATOM     46  O   UNL     1      -1.923 -12.645  31.264  1.00  0.00    -0.387 OA
ATOM     47  H   UNL     1      -2.485 -13.320  31.715  1.00  0.00     0.211 HD
ENDBRANCH  40  46
BRANCH  42  48
ATOM     48  O   UNL     1      -3.037  -9.630  29.613  1.00  0.00    -0.388 OA
ATOM     49  H   UNL     1      -3.591 -10.059  28.910  1.00  0.00     0.211 HD
ENDBRANCH  42  48
ENDBRANCH  36  37
ENDBRANCH   9  36
TORSDOF 13
ENDMDL
