MODEL 1
REMARK VINA RESULT:    -2.680      0.000      0.000
REMARK INTER + INTRA:          -3.020
REMARK INTER:                  -2.994
REMARK INTRA:                  -0.027
REMARK UNBOUND:                -0.027
REMARK SMILES CCCC(=O)[O-]
REMARK SMILES IDX 3 1 4 2 5 3 6 4 2 5 1 6
REMARK H PARENT
REMARK Flexibility Score: inf
ROOT
ATOM      1  C   UNL     1      32.177   2.304   2.066  1.00  0.00     0.052 C 
ENDROOT
BRANCH   1   2
ATOM      2  C   UNL     1      32.344   3.193   0.872  1.00  0.00     0.041 C 
ATOM      3  O   UNL     1      33.345   3.062   0.120  1.00  0.00    -0.550 OA
ATOM      4  O   UNL     1      31.377   4.143   0.571  1.00  0.00    -0.550 OA
ENDBRANCH   1   2
BRANCH   1   5
ATOM      5  C   UNL     1      31.644   0.919   1.675  1.00  0.00     0.003 C 
ATOM      6  C   UNL     1      32.563  -0.209   2.140  1.00  0.00     0.004 C 
ENDBRANCH   1   5
TORSDOF 2
ENDMDL
MODEL 2
REMARK VINA RESULT:    -2.540      7.521      8.263
REMARK INTER + INTRA:          -2.863
REMARK INTER:                  -2.846
REMARK INTRA:                  -0.017
REMARK UNBOUND:                -0.027
REMARK SMILES CCCC(=O)[O-]
REMARK SMILES IDX 3 1 4 2 5 3 6 4 2 5 1 6
REMARK H PARENT
REMARK Flexibility Score: inf
ROOT
ATOM      1  C   UNL     1      34.727   8.585  -3.704  1.00  0.00     0.052 C 
ENDROOT
BRANCH   1   2
ATOM      2  C   UNL     1      34.871   8.442  -2.220  1.00  0.00     0.041 C 
ATOM      3  O   UNL     1      35.938   8.793  -1.651  1.00  0.00    -0.550 OA
ATOM      4  O   UNL     1      33.816   7.952  -1.462  1.00  0.00    -0.550 OA
ENDBRANCH   1   2
BRANCH   1   5
ATOM      5  C   UNL     1      35.058   7.278  -4.437  1.00  0.00     0.003 C 
ATOM      6  C   UNL     1      36.132   7.468  -5.506  1.00  0.00     0.004 C 
ENDBRANCH   1   5
TORSDOF 2
ENDMDL
MODEL 3
REMARK VINA RESULT:    -2.495      1.734      2.329
REMARK INTER + INTRA:          -2.813
REMARK INTER:                  -2.749
REMARK INTRA:                  -0.064
REMARK UNBOUND:                -0.027
REMARK SMILES CCCC(=O)[O-]
REMARK SMILES IDX 3 1 4 2 5 3 6 4 2 5 1 6
REMARK H PARENT
REMARK Flexibility Score: inf
ROOT
ATOM      1  C   UNL     1      33.399   2.461   1.448  1.00  0.00     0.052 C 
ENDROOT
BRANCH   1   2
ATOM      2  C   UNL     1      31.965   2.674   1.073  1.00  0.00     0.041 C 
ATOM      3  O   UNL     1      31.153   1.713   1.102  1.00  0.00    -0.550 OA
ATOM      4  O   UNL     1      31.518   3.942   0.723  1.00  0.00    -0.550 OA
ENDBRANCH   1   2
BRANCH   1   5
ATOM      5  C   UNL     1      33.765   3.203   2.740  1.00  0.00     0.003 C 
ATOM      6  C   UNL     1      33.036   2.641   3.960  1.00  0.00     0.004 C 
ENDBRANCH   1   5
TORSDOF 2
ENDMDL
MODEL 4
REMARK VINA RESULT:    -2.476      1.883      2.179
REMARK INTER + INTRA:          -2.792
REMARK INTER:                  -2.783
REMARK INTRA:                  -0.009
REMARK UNBOUND:                -0.027
REMARK SMILES CCCC(=O)[O-]
REMARK SMILES IDX 3 1 4 2 5 3 6 4 2 5 1 6
REMARK H PARENT
REMARK Flexibility Score: inf
ROOT
ATOM      1  C   UNL     1      33.456   2.735   1.270  1.00  0.00     0.052 C 
ENDROOT
BRANCH   1   2
ATOM      2  C   UNL     1      31.982   2.837   1.022  1.00  0.00     0.041 C 
ATOM      3  O   UNL     1      31.469   3.941   0.702  1.00  0.00    -0.550 OA
ATOM      4  O   UNL     1      31.181   1.706   1.112  1.00  0.00    -0.550 OA
ENDBRANCH   1   2
BRANCH   1   5
ATOM      5  C   UNL     1      33.812   1.472   2.066  1.00  0.00     0.003 C 
ATOM      6  C   UNL     1      35.320   1.232   2.130  1.00  0.00     0.004 C 
ENDBRANCH   1   5
TORSDOF 2
ENDMDL
MODEL 5
REMARK VINA RESULT:    -2.450      7.286      8.460
REMARK INTER + INTRA:          -2.763
REMARK INTER:                  -2.747
REMARK INTRA:                  -0.017
REMARK UNBOUND:                -0.027
REMARK SMILES CCCC(=O)[O-]
REMARK SMILES IDX 3 1 4 2 5 3 6 4 2 5 1 6
REMARK H PARENT
REMARK Flexibility Score: inf
ROOT
ATOM      1  C   UNL     1      34.053   4.862  -6.485  1.00  0.00     0.052 C 
ENDROOT
BRANCH   1   2
ATOM      2  C   UNL     1      34.589   5.131  -5.113  1.00  0.00     0.041 C 
ATOM      3  O   UNL     1      34.191   4.449  -4.132  1.00  0.00    -0.550 OA
ATOM      4  O   UNL     1      35.553   6.112  -4.922  1.00  0.00    -0.550 OA
ENDBRANCH   1   2
BRANCH   1   5
ATOM      5  C   UNL     1      33.288   6.069  -7.044  1.00  0.00     0.003 C 
ATOM      6  C   UNL     1      31.799   5.780  -7.225  1.00  0.00     0.004 C 
ENDBRANCH   1   5
TORSDOF 2
ENDMDL
MODEL 6
REMARK VINA RESULT:    -2.438      9.606     10.597
REMARK INTER + INTRA:          -2.750
REMARK INTER:                  -2.705
REMARK INTRA:                  -0.045
REMARK UNBOUND:                -0.027
REMARK SMILES CCCC(=O)[O-]
REMARK SMILES IDX 3 1 4 2 5 3 6 4 2 5 1 6
REMARK H PARENT
REMARK Flexibility Score: inf
ROOT
ATOM      1  C   UNL     1      29.689   6.821  -6.907  1.00  0.00     0.052 C 
ENDROOT
BRANCH   1   2
ATOM      2  C   UNL     1      31.152   6.677  -7.194  1.00  0.00     0.041 C 
ATOM      3  O   UNL     1      31.840   7.686  -7.503  1.00  0.00    -0.550 OA
ATOM      4  O   UNL     1      31.763   5.435  -7.088  1.00  0.00    -0.550 OA
ENDBRANCH   1   2
BRANCH   1   5
ATOM      5  C   UNL     1      29.044   7.911  -7.773  1.00  0.00     0.003 C 
ATOM      6  C   UNL     1      28.691   7.407  -9.172  1.00  0.00     0.004 C 
ENDBRANCH   1   5
TORSDOF 2
ENDMDL
MODEL 7
REMARK VINA RESULT:    -2.378     10.863     11.489
REMARK INTER + INTRA:          -2.683
REMARK INTER:                  -2.666
REMARK INTRA:                  -0.017
REMARK UNBOUND:                -0.027
REMARK SMILES CCCC(=O)[O-]
REMARK SMILES IDX 3 1 4 2 5 3 6 4 2 5 1 6
REMARK H PARENT
REMARK Flexibility Score: inf
ROOT
ATOM      1  C   UNL     1      40.372   2.578  -7.084  1.00  0.00     0.052 C 
ENDROOT
BRANCH   1   2
ATOM      2  C   UNL     1      40.741   1.717  -5.915  1.00  0.00     0.041 C 
ATOM      3  O   UNL     1      39.892   0.936  -5.410  1.00  0.00    -0.550 OA
ATOM      4  O   UNL     1      42.032   1.752  -5.404  1.00  0.00    -0.550 OA
ENDBRANCH   1   2
BRANCH   1   5
ATOM      5  C   UNL     1      39.820   3.938  -6.637  1.00  0.00     0.003 C 
ATOM      6  C   UNL     1      38.487   4.271  -7.305  1.00  0.00     0.004 C 
ENDBRANCH   1   5
TORSDOF 2
ENDMDL
MODEL 8
REMARK VINA RESULT:    -2.328      2.120      3.413
REMARK INTER + INTRA:          -2.627
REMARK INTER:                  -2.589
REMARK INTRA:                  -0.038
REMARK UNBOUND:                -0.027
REMARK SMILES CCCC(=O)[O-]
REMARK SMILES IDX 3 1 4 2 5 3 6 4 2 5 1 6
REMARK H PARENT
REMARK Flexibility Score: inf
ROOT
ATOM      1  C   UNL     1      32.408   2.392   1.976  1.00  0.00     0.052 C 
ENDROOT
BRANCH   1   2
ATOM      2  C   UNL     1      31.750   1.082   1.670  1.00  0.00     0.041 C 
ATOM      3  O   UNL     1      30.635   1.054   1.086  1.00  0.00    -0.550 OA
ATOM      4  O   UNL     1      32.384  -0.109   1.999  1.00  0.00    -0.550 OA
ENDBRANCH   1   2
BRANCH   1   5
ATOM      5  C   UNL     1      32.966   3.058   0.712  1.00  0.00     0.003 C 
ATOM      6  C   UNL     1      32.145   4.272   0.283  1.00  0.00     0.004 C 
ENDBRANCH   1   5
TORSDOF 2
ENDMDL
MODEL 9
REMARK VINA RESULT:    -2.294      7.437      8.533
REMARK INTER + INTRA:          -2.589
REMARK INTER:                  -2.533
REMARK INTRA:                  -0.056
REMARK UNBOUND:                -0.027
REMARK SMILES CCCC(=O)[O-]
REMARK SMILES IDX 3 1 4 2 5 3 6 4 2 5 1 6
REMARK H PARENT
REMARK Flexibility Score: inf
ROOT
ATOM      1  C   UNL     1      34.308   5.282  -6.525  1.00  0.00     0.052 C 
ENDROOT
BRANCH   1   2
ATOM      2  C   UNL     1      34.638   5.372  -5.067  1.00  0.00     0.041 C 
ATOM      3  O   UNL     1      34.268   4.465  -4.276  1.00  0.00    -0.550 OA
ATOM      4  O   UNL     1      35.385   6.440  -4.587  1.00  0.00    -0.550 OA
ENDBRANCH   1   2
BRANCH   1   5
ATOM      5  C   UNL     1      35.175   4.238  -7.241  1.00  0.00     0.003 C 
ATOM      6  C   UNL     1      36.626   4.691  -7.390  1.00  0.00     0.004 C 
ENDBRANCH   1   5
TORSDOF 2
ENDMDL
