MODEL 1
REMARK VINA RESULT:    -3.091      0.000      0.000
REMARK INTER + INTRA:          -3.491
REMARK INTER:                  -3.453
REMARK INTRA:                  -0.038
REMARK UNBOUND:                -0.038
REMARK SMILES CCCC(=O)[O-]
REMARK SMILES IDX 3 1 4 2 5 3 6 4 2 5 1 6
REMARK H PARENT
REMARK Flexibility Score: inf
ROOT
ATOM      1  C   UNL     1      26.620  21.417  63.157  1.00  0.00     0.052 C 
ENDROOT
BRANCH   1   2
ATOM      2  C   UNL     1      26.564  21.546  61.666  1.00  0.00     0.041 C 
ATOM      3  O   UNL     1      27.496  22.124  61.045  1.00  0.00    -0.550 OA
ATOM      4  O   UNL     1      25.468  21.061  60.964  1.00  0.00    -0.550 OA
ENDBRANCH   1   2
BRANCH   1   5
ATOM      5  C   UNL     1      25.497  20.518  63.693  1.00  0.00     0.003 C 
ATOM      6  C   UNL     1      25.992  19.117  64.046  1.00  0.00     0.004 C 
ENDBRANCH   1   5
TORSDOF 2
ENDMDL
MODEL 2
REMARK VINA RESULT:    -3.086      0.112      1.325
REMARK INTER + INTRA:          -3.485
REMARK INTER:                  -3.447
REMARK INTRA:                  -0.039
REMARK UNBOUND:                -0.038
REMARK SMILES CCCC(=O)[O-]
REMARK SMILES IDX 3 1 4 2 5 3 6 4 2 5 1 6
REMARK H PARENT
REMARK Flexibility Score: inf
ROOT
ATOM      1  C   UNL     1      26.615  21.459  63.125  1.00  0.00     0.052 C 
ENDROOT
BRANCH   1   2
ATOM      2  C   UNL     1      26.535  21.534  61.632  1.00  0.00     0.041 C 
ATOM      3  O   UNL     1      25.551  21.034  61.024  1.00  0.00    -0.550 OA
ATOM      4  O   UNL     1      27.563  22.125  60.907  1.00  0.00    -0.550 OA
ENDBRANCH   1   2
BRANCH   1   5
ATOM      5  C   UNL     1      25.568  20.498  63.704  1.00  0.00     0.003 C 
ATOM      6  C   UNL     1      26.163  19.139  64.068  1.00  0.00     0.004 C 
ENDBRANCH   1   5
TORSDOF 2
ENDMDL
MODEL 3
REMARK VINA RESULT:    -3.018      1.671      2.429
REMARK INTER + INTRA:          -3.409
REMARK INTER:                  -3.372
REMARK INTRA:                  -0.038
REMARK UNBOUND:                -0.038
REMARK SMILES CCCC(=O)[O-]
REMARK SMILES IDX 3 1 4 2 5 3 6 4 2 5 1 6
REMARK H PARENT
REMARK Flexibility Score: inf
ROOT
ATOM      1  C   UNL     1      24.970  21.374  63.719  1.00  0.00     0.052 C 
ENDROOT
BRANCH   1   2
ATOM      2  C   UNL     1      24.086  21.385  62.510  1.00  0.00     0.041 C 
ATOM      3  O   UNL     1      22.875  21.717  62.614  1.00  0.00    -0.550 OA
ATOM      4  O   UNL     1      24.589  20.995  61.275  1.00  0.00    -0.550 OA
ENDBRANCH   1   2
BRANCH   1   5
ATOM      5  C   UNL     1      26.237  20.539  63.490  1.00  0.00     0.003 C 
ATOM      6  C   UNL     1      26.143  19.152  64.123  1.00  0.00     0.004 C 
ENDBRANCH   1   5
TORSDOF 2
ENDMDL
MODEL 4
REMARK VINA RESULT:    -2.896      2.307      3.106
REMARK INTER + INTRA:          -3.273
REMARK INTER:                  -3.223
REMARK INTRA:                  -0.049
REMARK UNBOUND:                -0.038
REMARK SMILES CCCC(=O)[O-]
REMARK SMILES IDX 3 1 4 2 5 3 6 4 2 5 1 6
REMARK H PARENT
REMARK Flexibility Score: inf
ROOT
ATOM      1  C   UNL     1      26.732  21.195  63.479  1.00  0.00     0.052 C 
ENDROOT
BRANCH   1   2
ATOM      2  C   UNL     1      25.484  20.396  63.696  1.00  0.00     0.041 C 
ATOM      3  O   UNL     1      25.534  19.138  63.726  1.00  0.00    -0.550 OA
ATOM      4  O   UNL     1      24.259  21.039  63.831  1.00  0.00    -0.550 OA
ENDBRANCH   1   2
BRANCH   1   5
ATOM      5  C   UNL     1      26.624  22.092  62.238  1.00  0.00     0.003 C 
ATOM      6  C   UNL     1      27.000  21.356  60.953  1.00  0.00     0.004 C 
ENDBRANCH   1   5
TORSDOF 2
ENDMDL
MODEL 5
REMARK VINA RESULT:    -2.621      2.263      3.231
REMARK INTER + INTRA:          -2.966
REMARK INTER:                  -2.920
REMARK INTRA:                  -0.046
REMARK UNBOUND:                -0.038
REMARK SMILES CCCC(=O)[O-]
REMARK SMILES IDX 3 1 4 2 5 3 6 4 2 5 1 6
REMARK H PARENT
REMARK Flexibility Score: inf
ROOT
ATOM      1  C   UNL     1      24.400  21.233  63.733  1.00  0.00     0.052 C 
ENDROOT
BRANCH   1   2
ATOM      2  C   UNL     1      25.640  20.397  63.648  1.00  0.00     0.041 C 
ATOM      3  O   UNL     1      25.555  19.142  63.592  1.00  0.00    -0.550 OA
ATOM      4  O   UNL     1      26.892  21.002  63.668  1.00  0.00    -0.550 OA
ENDBRANCH   1   2
BRANCH   1   5
ATOM      5  C   UNL     1      23.671  21.308  62.384  1.00  0.00     0.003 C 
ATOM      6  C   UNL     1      24.572  21.825  61.264  1.00  0.00     0.004 C 
ENDBRANCH   1   5
TORSDOF 2
ENDMDL
MODEL 6
REMARK VINA RESULT:    -2.522      3.678      4.687
REMARK INTER + INTRA:          -2.855
REMARK INTER:                  -2.844
REMARK INTRA:                  -0.012
REMARK UNBOUND:                -0.038
REMARK SMILES CCCC(=O)[O-]
REMARK SMILES IDX 3 1 4 2 5 3 6 4 2 5 1 6
REMARK H PARENT
REMARK Flexibility Score: inf
ROOT
ATOM      1  C   UNL     1      26.703  21.070  58.379  1.00  0.00     0.052 C 
ENDROOT
BRANCH   1   2
ATOM      2  C   UNL     1      26.697  19.915  57.426  1.00  0.00     0.041 C 
ATOM      3  O   UNL     1      26.272  18.789  57.798  1.00  0.00    -0.550 OA
ATOM      4  O   UNL     1      27.194  20.071  56.138  1.00  0.00    -0.550 OA
ENDBRANCH   1   2
BRANCH   1   5
ATOM      5  C   UNL     1      27.478  20.746  59.663  1.00  0.00     0.003 C 
ATOM      6  C   UNL     1      27.034  21.606  60.844  1.00  0.00     0.004 C 
ENDBRANCH   1   5
TORSDOF 2
ENDMDL
MODEL 7
REMARK VINA RESULT:    -2.494      5.810      6.712
REMARK INTER + INTRA:          -2.824
REMARK INTER:                  -2.786
REMARK INTRA:                  -0.038
REMARK UNBOUND:                -0.038
REMARK SMILES CCCC(=O)[O-]
REMARK SMILES IDX 3 1 4 2 5 3 6 4 2 5 1 6
REMARK H PARENT
REMARK Flexibility Score: inf
ROOT
ATOM      1  C   UNL     1      24.732  19.586  56.916  1.00  0.00     0.052 C 
ENDROOT
BRANCH   1   2
ATOM      2  C   UNL     1      26.203  19.529  57.196  1.00  0.00     0.041 C 
ATOM      3  O   UNL     1      26.619  19.147  58.322  1.00  0.00    -0.550 OA
ATOM      4  O   UNL     1      27.113  19.932  56.227  1.00  0.00    -0.550 OA
ENDBRANCH   1   2
BRANCH   1   5
ATOM      5  C   UNL     1      24.265  18.384  56.084  1.00  0.00     0.003 C 
ATOM      6  C   UNL     1      24.199  18.700  54.591  1.00  0.00     0.004 C 
ENDBRANCH   1   5
TORSDOF 2
ENDMDL
MODEL 8
REMARK VINA RESULT:    -2.353      5.021      6.374
REMARK INTER + INTRA:          -2.667
REMARK INTER:                  -2.631
REMARK INTRA:                  -0.036
REMARK UNBOUND:                -0.038
REMARK SMILES CCCC(=O)[O-]
REMARK SMILES IDX 3 1 4 2 5 3 6 4 2 5 1 6
REMARK H PARENT
REMARK Flexibility Score: inf
ROOT
ATOM      1  C   UNL     1      26.872  20.889  56.810  1.00  0.00     0.052 C 
ENDROOT
BRANCH   1   2
ATOM      2  C   UNL     1      26.629  19.902  57.909  1.00  0.00     0.041 C 
ATOM      3  O   UNL     1      26.075  18.798  57.659  1.00  0.00    -0.550 OA
ATOM      4  O   UNL     1      26.980  20.214  59.217  1.00  0.00    -0.550 OA
ENDBRANCH   1   2
BRANCH   1   5
ATOM      5  C   UNL     1      26.469  20.327  55.440  1.00  0.00     0.003 C 
ATOM      6  C   UNL     1      25.136  20.888  54.950  1.00  0.00     0.004 C 
ENDBRANCH   1   5
TORSDOF 2
ENDMDL
MODEL 9
REMARK VINA RESULT:    -2.299      5.908      6.813
REMARK INTER + INTRA:          -2.606
REMARK INTER:                  -2.569
REMARK INTRA:                  -0.037
REMARK UNBOUND:                -0.038
REMARK SMILES CCCC(=O)[O-]
REMARK SMILES IDX 3 1 4 2 5 3 6 4 2 5 1 6
REMARK H PARENT
REMARK Flexibility Score: inf
ROOT
ATOM      1  C   UNL     1      25.545  20.359  55.937  1.00  0.00     0.052 C 
ENDROOT
BRANCH   1   2
ATOM      2  C   UNL     1      25.379  19.250  56.929  1.00  0.00     0.041 C 
ATOM      3  O   UNL     1      26.283  19.015  57.775  1.00  0.00    -0.550 OA
ATOM      4  O   UNL     1      24.242  18.451  56.898  1.00  0.00    -0.550 OA
ENDBRANCH   1   2
BRANCH   1   5
ATOM      5  C   UNL     1      27.002  20.495  55.474  1.00  0.00     0.003 C 
ATOM      6  C   UNL     1      27.582  21.875  55.778  1.00  0.00     0.004 C 
ENDBRANCH   1   5
TORSDOF 2
ENDMDL
