MODEL 1
REMARK VINA RESULT:    -3.593      0.000      0.000
REMARK INTER + INTRA:          -7.127
REMARK INTER:                  -5.483
REMARK INTRA:                  -1.644
REMARK UNBOUND:                -1.644
REMARK SMILES OC[C@H]1O[C@@H](O[C@@]2(CO)O[C@H](CO)[C@H](O)[C@H]2O)[C@H](O)[C@@H](O)[C@H]1O
REMARK SMILES IDX 6 1 5 2 3 3 22 4 4 5 20 6 18 7 2 8 1 9 23 11 21 13 19 15
REMARK SMILES IDX 7 17 16 18 10 19 14 20 11 21 8 22 9 23 17 25 15 27 12 29
REMARK SMILES IDX 13 30
REMARK H PARENT 1 10 23 12 21 14 19 16 9 24 17 26 15 28 13 31
REMARK Flexibility Score: inf
ROOT
ATOM      1  O   UNL     1      13.184  -0.597   1.828  1.00  0.00    -0.313 OA
ENDROOT
BRANCH   1   2
ATOM      2  C   UNL     1      14.434  -1.065   1.309  1.00  0.00     0.285 C 
ATOM      3  C   UNL     1      15.314  -2.835   0.045  1.00  0.00     0.178 C 
ATOM      4  C   UNL     1      16.730  -2.200   0.273  1.00  0.00     0.177 C 
ATOM      5  O   UNL     1      14.370  -2.453   1.041  1.00  0.00    -0.341 OA
ATOM      6  C   UNL     1      16.887  -1.687   1.713  1.00  0.00     0.179 C 
ATOM      7  C   UNL     1      15.736  -0.716   2.088  1.00  0.00     0.202 C 
BRANCH   3   8
ATOM      8  C   UNL     1      15.325  -4.373  -0.041  1.00  0.00     0.191 C 
BRANCH   8   9
ATOM      9  O   UNL     1      15.671  -4.811  -1.326  1.00  0.00    -0.394 OA
ATOM     10  H   UNL     1      14.834  -4.826  -1.859  1.00  0.00     0.210 HD
ENDBRANCH   8   9
ENDBRANCH   3   8
BRANCH   4  11
ATOM     11  O   UNL     1      17.773  -3.091  -0.030  1.00  0.00    -0.387 OA
ATOM     12  H   UNL     1      17.992  -2.961  -0.989  1.00  0.00     0.211 HD
ENDBRANCH   4  11
BRANCH   6  13
ATOM     13  O   UNL     1      16.902  -2.780   2.597  1.00  0.00    -0.387 OA
ATOM     14  H   UNL     1      16.212  -2.600   3.289  1.00  0.00     0.211 HD
ENDBRANCH   6  13
BRANCH   7  15
ATOM     15  O   UNL     1      16.108   0.606   1.789  1.00  0.00    -0.385 OA
ATOM     16  H   UNL     1      16.973   0.562   1.304  1.00  0.00     0.211 HD
ENDBRANCH   7  15
ENDBRANCH   1   2
BRANCH   1  17
ATOM     17  C   UNL     1      12.612   0.639   1.384  1.00  0.00     0.224 C 
ATOM     18  C   UNL     1      11.178   0.521   0.785  1.00  0.00     0.208 C 
ATOM     19  O   UNL     1      13.425   1.074   0.306  1.00  0.00    -0.337 OA
ATOM     20  C   UNL     1      11.146   1.639  -0.234  1.00  0.00     0.180 C 
ATOM     21  C   UNL     1      12.615   1.716  -0.663  1.00  0.00     0.179 C 
BRANCH  17  22
ATOM     22  C   UNL     1      12.786   1.731   2.498  1.00  0.00     0.225 C 
BRANCH  22  23
ATOM     23  O   UNL     1      14.020   2.394   2.430  1.00  0.00    -0.391 OA
ATOM     24  H   UNL     1      13.936   3.068   1.706  1.00  0.00     0.210 HD
ENDBRANCH  22  23
ENDBRANCH  17  22
BRANCH  18  25
ATOM     25  O   UNL     1      10.959  -0.702   0.122  1.00  0.00    -0.385 OA
ATOM     26  H   UNL     1      10.751  -0.515  -0.832  1.00  0.00     0.211 HD
ENDBRANCH  18  25
BRANCH  20  27
ATOM     27  O   UNL     1      10.708   2.839   0.355  1.00  0.00    -0.387 OA
ATOM     28  H   UNL     1      10.264   2.590   1.206  1.00  0.00     0.211 HD
ENDBRANCH  20  27
BRANCH  21  29
ATOM     29  C   UNL     1      13.118   3.145  -0.924  1.00  0.00     0.191 C 
BRANCH  29  30
ATOM     30  O   UNL     1      12.404   3.729  -1.981  1.00  0.00    -0.394 OA
ATOM     31  H   UNL     1      11.538   3.248  -2.039  1.00  0.00     0.210 HD
ENDBRANCH  29  30
ENDBRANCH  21  29
ENDBRANCH   1  17
TORSDOF 13
ENDMDL
MODEL 2
REMARK VINA RESULT:    -3.527      9.190     11.654
REMARK INTER + INTRA:          -7.026
REMARK INTER:                  -5.304
REMARK INTRA:                  -1.722
REMARK UNBOUND:                -1.644
REMARK SMILES OC[C@H]1O[C@@H](O[C@@]2(CO)O[C@H](CO)[C@H](O)[C@H]2O)[C@H](O)[C@@H](O)[C@H]1O
REMARK SMILES IDX 6 1 5 2 3 3 22 4 4 5 20 6 18 7 2 8 1 9 23 11 21 13 19 15
REMARK SMILES IDX 7 17 16 18 10 19 14 20 11 21 8 22 9 23 17 25 15 27 12 29
REMARK SMILES IDX 13 30
REMARK H PARENT 1 10 23 12 21 14 19 16 9 24 17 26 15 28 13 31
REMARK Flexibility Score: inf
ROOT
ATOM      1  O   UNL     1       7.516  -0.472  -7.576  1.00  0.00    -0.313 OA
ENDROOT
BRANCH   1   2
ATOM      2  C   UNL     1       8.533   0.489  -7.884  1.00  0.00     0.285 C 
ATOM      3  C   UNL     1      10.513   0.686  -9.127  1.00  0.00     0.178 C 
ATOM      4  C   UNL     1      10.640   2.143  -8.559  1.00  0.00     0.177 C 
ATOM      5  O   UNL     1       9.718  -0.160  -8.303  1.00  0.00    -0.341 OA
ATOM      6  C   UNL     1      10.261   2.197  -7.070  1.00  0.00     0.179 C 
ATOM      7  C   UNL     1       8.852   1.590  -6.831  1.00  0.00     0.202 C 
BRANCH   3   8
ATOM      8  C   UNL     1      11.865  -0.010  -9.368  1.00  0.00     0.191 C 
BRANCH   8   9
ATOM      9  O   UNL     1      12.598  -0.131  -8.180  1.00  0.00    -0.394 OA
ATOM     10  H   UNL     1      11.989   0.127  -7.440  1.00  0.00     0.210 HD
ENDBRANCH   8   9
ENDBRANCH   3   8
BRANCH   4  11
ATOM     11  O   UNL     1      11.926   2.680  -8.740  1.00  0.00    -0.387 OA
ATOM     12  H   UNL     1      11.836   3.425  -9.389  1.00  0.00     0.211 HD
ENDBRANCH   4  11
BRANCH   6  13
ATOM     13  O   UNL     1      11.220   1.496  -6.319  1.00  0.00    -0.387 OA
ATOM     14  H   UNL     1      11.146   1.819  -5.383  1.00  0.00     0.211 HD
ENDBRANCH   6  13
BRANCH   7  15
ATOM     15  O   UNL     1       7.876   2.598  -6.911  1.00  0.00    -0.385 OA
ATOM     16  H   UNL     1       7.797   2.999  -6.007  1.00  0.00     0.211 HD
ENDBRANCH   7  15
ENDBRANCH   1   2
BRANCH   1  17
ATOM     17  C   UNL     1       6.220  -0.400  -8.181  1.00  0.00     0.224 C 
ATOM     18  C   UNL     1       5.245   0.625  -7.526  1.00  0.00     0.208 C 
ATOM     19  O   UNL     1       5.621  -1.666  -7.962  1.00  0.00    -0.337 OA
ATOM     20  C   UNL     1       3.889  -0.005  -7.757  1.00  0.00     0.180 C 
ATOM     21  C   UNL     1       4.230  -1.498  -7.750  1.00  0.00     0.179 C 
BRANCH  17  22
ATOM     22  C   UNL     1       6.371  -0.279  -9.739  1.00  0.00     0.225 C 
BRANCH  22  23
ATOM     23  O   UNL     1       6.012   0.985 -10.229  1.00  0.00    -0.391 OA
ATOM     24  H   UNL     1       6.826   1.550 -10.169  1.00  0.00     0.210 HD
ENDBRANCH  22  23
ENDBRANCH  17  22
BRANCH  18  25
ATOM     25  O   UNL     1       5.448   0.766  -6.139  1.00  0.00    -0.385 OA
ATOM     26  H   UNL     1       5.937   1.614  -5.972  1.00  0.00     0.211 HD
ENDBRANCH  18  25
BRANCH  20  27
ATOM     27  O   UNL     1       3.353   0.405  -8.991  1.00  0.00    -0.387 OA
ATOM     28  H   UNL     1       3.008  -0.412  -9.435  1.00  0.00     0.211 HD
ENDBRANCH  20  27
BRANCH  21  29
ATOM     29  C   UNL     1       3.428  -2.330  -8.764  1.00  0.00     0.191 C 
BRANCH  29  30
ATOM     30  O   UNL     1       2.051  -2.187  -8.532  1.00  0.00    -0.394 OA
ATOM     31  H   UNL     1       1.854  -1.215  -8.579  1.00  0.00     0.210 HD
ENDBRANCH  29  30
ENDBRANCH  21  29
ENDBRANCH   1  17
TORSDOF 13
ENDMDL
MODEL 3
REMARK VINA RESULT:    -3.420      4.319      8.958
REMARK INTER + INTRA:          -6.863
REMARK INTER:                  -5.533
REMARK INTRA:                  -1.329
REMARK UNBOUND:                -1.644
REMARK SMILES OC[C@H]1O[C@@H](O[C@@]2(CO)O[C@H](CO)[C@H](O)[C@H]2O)[C@H](O)[C@@H](O)[C@H]1O
REMARK SMILES IDX 6 1 5 2 3 3 22 4 4 5 20 6 18 7 2 8 1 9 23 11 21 13 19 15
REMARK SMILES IDX 7 17 16 18 10 19 14 20 11 21 8 22 9 23 17 25 15 27 12 29
REMARK SMILES IDX 13 30
REMARK H PARENT 1 10 23 12 21 14 19 16 9 24 17 26 15 28 13 31
REMARK Flexibility Score: inf
ROOT
ATOM      1  O   UNL     1       9.527   3.788   1.149  1.00  0.00    -0.313 OA
ENDROOT
BRANCH   1   2
ATOM      2  C   UNL     1       8.273   4.142   1.744  1.00  0.00     0.285 C 
ATOM      3  C   UNL     1       5.974   3.760   1.474  1.00  0.00     0.178 C 
ATOM      4  C   UNL     1       5.742   4.744   2.673  1.00  0.00     0.177 C 
ATOM      5  O   UNL     1       7.218   3.975   0.815  1.00  0.00    -0.341 OA
ATOM      6  C   UNL     1       6.676   5.961   2.585  1.00  0.00     0.179 C 
ATOM      7  C   UNL     1       8.159   5.518   2.462  1.00  0.00     0.202 C 
BRANCH   3   8
ATOM      8  C   UNL     1       4.858   3.793   0.413  1.00  0.00     0.191 C 
BRANCH   8   9
ATOM      9  O   UNL     1       4.908   4.971  -0.345  1.00  0.00    -0.394 OA
ATOM     10  H   UNL     1       4.439   5.670   0.181  1.00  0.00     0.210 HD
ENDBRANCH   8   9
ENDBRANCH   3   8
BRANCH   4  11
ATOM     11  O   UNL     1       4.408   5.176   2.762  1.00  0.00    -0.387 OA
ATOM     12  H   UNL     1       3.986   4.986   1.884  1.00  0.00     0.211 HD
ENDBRANCH   4  11
BRANCH   6  13
ATOM     13  O   UNL     1       6.315   6.747   1.478  1.00  0.00    -0.387 OA
ATOM     14  H   UNL     1       5.857   6.145   0.834  1.00  0.00     0.211 HD
ENDBRANCH   6  13
BRANCH   7  15
ATOM     15  O   UNL     1       8.736   5.418   3.740  1.00  0.00    -0.385 OA
ATOM     16  H   UNL     1       7.991   5.407   4.396  1.00  0.00     0.211 HD
ENDBRANCH   7  15
ENDBRANCH   1   2
BRANCH   1  17
ATOM     17  C   UNL     1      10.129   2.512   1.392  1.00  0.00     0.224 C 
ATOM     18  C   UNL     1      11.535   2.315   0.748  1.00  0.00     0.208 C 
ATOM     19  O   UNL     1       9.295   1.563   0.748  1.00  0.00    -0.337 OA
ATOM     20  C   UNL     1      11.573   0.828   0.469  1.00  0.00     0.180 C 
ATOM     21  C   UNL     1      10.093   0.517   0.221  1.00  0.00     0.179 C 
BRANCH  17  22
ATOM     22  C   UNL     1      10.039   2.169   2.921  1.00  0.00     0.225 C 
BRANCH  22  23
ATOM     23  O   UNL     1      11.269   2.294   3.585  1.00  0.00    -0.391 OA
ATOM     24  H   UNL     1      11.967   2.314   2.879  1.00  0.00     0.210 HD
ENDBRANCH  22  23
ENDBRANCH  17  22
BRANCH  18  25
ATOM     25  O   UNL     1      11.682   3.007  -0.470  1.00  0.00    -0.385 OA
ATOM     26  H   UNL     1      11.585   2.361  -1.218  1.00  0.00     0.211 HD
ENDBRANCH  18  25
BRANCH  20  27
ATOM     27  O   UNL     1      12.077   0.126   1.578  1.00  0.00    -0.387 OA
ATOM     28  H   UNL     1      12.554  -0.666   1.218  1.00  0.00     0.211 HD
ENDBRANCH  20  27
BRANCH  21  29
ATOM     29  C   UNL     1       9.636  -0.841   0.778  1.00  0.00     0.191 C 
BRANCH  29  30
ATOM     30  O   UNL     1       8.497  -1.291   0.092  1.00  0.00    -0.394 OA
ATOM     31  H   UNL     1       8.246  -2.161   0.499  1.00  0.00     0.210 HD
ENDBRANCH  29  30
ENDBRANCH  21  29
ENDBRANCH   1  17
TORSDOF 13
ENDMDL
MODEL 4
REMARK VINA RESULT:    -3.409      9.261     12.031
REMARK INTER + INTRA:          -6.847
REMARK INTER:                  -5.268
REMARK INTRA:                  -1.578
REMARK UNBOUND:                -1.644
REMARK SMILES OC[C@H]1O[C@@H](O[C@@]2(CO)O[C@H](CO)[C@H](O)[C@H]2O)[C@H](O)[C@@H](O)[C@H]1O
REMARK SMILES IDX 6 1 5 2 3 3 22 4 4 5 20 6 18 7 2 8 1 9 23 11 21 13 19 15
REMARK SMILES IDX 7 17 16 18 10 19 14 20 11 21 8 22 9 23 17 25 15 27 12 29
REMARK SMILES IDX 13 30
REMARK H PARENT 1 10 23 12 21 14 19 16 9 24 17 26 15 28 13 31
REMARK Flexibility Score: inf
ROOT
ATOM      1  O   UNL     1       8.976  -9.132   0.088  1.00  0.00    -0.313 OA
ENDROOT
BRANCH   1   2
ATOM      2  C   UNL     1       8.931  -9.036   1.517  1.00  0.00     0.285 C 
ATOM      3  C   UNL     1       7.528  -9.575   3.318  1.00  0.00     0.178 C 
ATOM      4  C   UNL     1       8.588  -8.896   4.254  1.00  0.00     0.177 C 
ATOM      5  O   UNL     1       7.594  -9.104   1.976  1.00  0.00    -0.341 OA
ATOM      6  C   UNL     1       9.136  -7.602   3.630  1.00  0.00     0.179 C 
ATOM      7  C   UNL     1       9.688  -7.862   2.203  1.00  0.00     0.202 C 
BRANCH   3   8
ATOM      8  C   UNL     1       6.075  -9.427   3.808  1.00  0.00     0.191 C 
BRANCH   8   9
ATOM      9  O   UNL     1       5.724  -8.079   3.964  1.00  0.00    -0.394 OA
ATOM     10  H   UNL     1       6.238  -7.737   4.741  1.00  0.00     0.210 HD
ENDBRANCH   8   9
ENDBRANCH   3   8
BRANCH   4  11
ATOM     11  O   UNL     1       8.077  -8.625   5.535  1.00  0.00    -0.387 OA
ATOM     12  H   UNL     1       7.096  -8.767   5.488  1.00  0.00     0.211 HD
ENDBRANCH   4  11
BRANCH   6  13
ATOM     13  O   UNL     1       8.114  -6.639   3.584  1.00  0.00    -0.387 OA
ATOM     14  H   UNL     1       8.454  -5.835   4.057  1.00  0.00     0.211 HD
ENDBRANCH   6  13
BRANCH   7  15
ATOM     15  O   UNL     1      11.057  -8.175   2.269  1.00  0.00    -0.385 OA
ATOM     16  H   UNL     1      11.132  -9.163   2.219  1.00  0.00     0.211 HD
ENDBRANCH   7  15
ENDBRANCH   1   2
BRANCH   1  17
ATOM     17  C   UNL     1       9.416 -10.330  -0.562  1.00  0.00     0.224 C 
ATOM     18  C   UNL     1      10.895 -10.729  -0.274  1.00  0.00     0.208 C 
ATOM     19  O   UNL     1       9.375 -10.052  -1.952  1.00  0.00    -0.337 OA
ATOM     20  C   UNL     1      11.308 -11.432  -1.548  1.00  0.00     0.180 C 
ATOM     21  C   UNL     1      10.447 -10.718  -2.595  1.00  0.00     0.179 C 
BRANCH  17  22
ATOM     22  C   UNL     1       8.359 -11.469  -0.338  1.00  0.00     0.225 C 
BRANCH  22  23
ATOM     23  O   UNL     1       7.308 -11.433  -1.266  1.00  0.00    -0.391 OA
ATOM     24  H   UNL     1       7.325 -10.528  -1.674  1.00  0.00     0.210 HD
ENDBRANCH  22  23
ENDBRANCH  17  22
BRANCH  18  25
ATOM     25  O   UNL     1      11.736  -9.616  -0.080  1.00  0.00    -0.385 OA
ATOM     26  H   UNL     1      11.972  -9.235  -0.966  1.00  0.00     0.211 HD
ENDBRANCH  18  25
BRANCH  20  27
ATOM     27  O   UNL     1      11.014 -12.806  -1.477  1.00  0.00    -0.387 OA
ATOM     28  H   UNL     1      11.063 -13.057  -0.519  1.00  0.00     0.211 HD
ENDBRANCH  20  27
BRANCH  21  29
ATOM     29  C   UNL     1       9.919 -11.638  -3.707  1.00  0.00     0.191 C 
BRANCH  29  30
ATOM     30  O   UNL     1       8.576 -11.344  -3.987  1.00  0.00    -0.394 OA
ATOM     31  H   UNL     1       8.108 -11.293  -3.113  1.00  0.00     0.210 HD
ENDBRANCH  29  30
ENDBRANCH  21  29
ENDBRANCH   1  17
TORSDOF 13
ENDMDL
MODEL 5
REMARK VINA RESULT:    -3.384      1.521      1.764
REMARK INTER + INTRA:          -6.808
REMARK INTER:                  -5.296
REMARK INTRA:                  -1.511
REMARK UNBOUND:                -1.644
REMARK SMILES OC[C@H]1O[C@@H](O[C@@]2(CO)O[C@H](CO)[C@H](O)[C@H]2O)[C@H](O)[C@@H](O)[C@H]1O
REMARK SMILES IDX 6 1 5 2 3 3 22 4 4 5 20 6 18 7 2 8 1 9 23 11 21 13 19 15
REMARK SMILES IDX 7 17 16 18 10 19 14 20 11 21 8 22 9 23 17 25 15 27 12 29
REMARK SMILES IDX 13 30
REMARK H PARENT 1 10 23 12 21 14 19 16 9 24 17 26 15 28 13 31
REMARK Flexibility Score: inf
ROOT
ATOM      1  O   UNL     1      12.443  -1.476   1.374  1.00  0.00    -0.313 OA
ENDROOT
BRANCH   1   2
ATOM      2  C   UNL     1      13.742  -1.959   1.738  1.00  0.00     0.285 C 
ATOM      3  C   UNL     1      15.769  -2.605   0.749  1.00  0.00     0.178 C 
ATOM      4  C   UNL     1      16.275  -2.962   2.191  1.00  0.00     0.177 C 
ATOM      5  O   UNL     1      14.349  -2.620   0.644  1.00  0.00    -0.341 OA
ATOM      6  C   UNL     1      15.177  -3.655   3.013  1.00  0.00     0.179 C 
ATOM      7  C   UNL     1      13.878  -2.806   3.036  1.00  0.00     0.202 C 
BRANCH   3   8
ATOM      8  C   UNL     1      16.342  -3.512  -0.356  1.00  0.00     0.191 C 
BRANCH   8   9
ATOM      9  O   UNL     1      15.889  -4.831  -0.222  1.00  0.00    -0.394 OA
ATOM     10  H   UNL     1      15.345  -4.864   0.608  1.00  0.00     0.210 HD
ENDBRANCH   8   9
ENDBRANCH   3   8
BRANCH   4  11
ATOM     11  O   UNL     1      17.430  -3.763   2.171  1.00  0.00    -0.387 OA
ATOM     12  H   UNL     1      17.969  -3.469   1.391  1.00  0.00     0.211 HD
ENDBRANCH   4  11
BRANCH   6  13
ATOM     13  O   UNL     1      14.915  -4.922   2.465  1.00  0.00    -0.387 OA
ATOM     14  H   UNL     1      13.931  -5.055   2.502  1.00  0.00     0.211 HD
ENDBRANCH   6  13
BRANCH   7  15
ATOM     15  O   UNL     1      13.888  -1.945   4.147  1.00  0.00    -0.385 OA
ATOM     16  H   UNL     1      14.615  -1.286   3.997  1.00  0.00     0.211 HD
ENDBRANCH   7  15
ENDBRANCH   1   2
BRANCH   1  17
ATOM     17  C   UNL     1      12.195  -0.076   1.196  1.00  0.00     0.224 C 
ATOM     18  C   UNL     1      10.694   0.308   1.018  1.00  0.00     0.208 C 
ATOM     19  O   UNL     1      12.811   0.272  -0.032  1.00  0.00    -0.337 OA
ATOM     20  C   UNL     1      10.764   1.531   0.131  1.00  0.00     0.180 C 
ATOM     21  C   UNL     1      12.029   1.256  -0.687  1.00  0.00     0.179 C 
BRANCH  17  22
ATOM     22  C   UNL     1      12.970   0.739   2.292  1.00  0.00     0.225 C 
BRANCH  22  23
ATOM     23  O   UNL     1      12.133   1.230   3.305  1.00  0.00    -0.391 OA
ATOM     24  H   UNL     1      12.723   1.701   3.951  1.00  0.00     0.210 HD
ENDBRANCH  22  23
ENDBRANCH  17  22
BRANCH  18  25
ATOM     25  O   UNL     1       9.949  -0.688   0.358  1.00  0.00    -0.385 OA
ATOM     26  H   UNL     1       9.012  -0.373   0.260  1.00  0.00     0.211 HD
ENDBRANCH  18  25
BRANCH  20  27
ATOM     27  O   UNL     1      10.882   2.701   0.903  1.00  0.00    -0.387 OA
ATOM     28  H   UNL     1      11.066   2.409   1.833  1.00  0.00     0.211 HD
ENDBRANCH  20  27
BRANCH  21  29
ATOM     29  C   UNL     1      12.873   2.508  -0.976  1.00  0.00     0.191 C 
BRANCH  29  30
ATOM     30  O   UNL     1      12.198   3.357  -1.866  1.00  0.00    -0.394 OA
ATOM     31  H   UNL     1      11.998   2.819  -2.677  1.00  0.00     0.210 HD
ENDBRANCH  29  30
ENDBRANCH  21  29
ENDBRANCH   1  17
TORSDOF 13
ENDMDL
MODEL 6
REMARK VINA RESULT:    -3.381      1.863      3.255
REMARK INTER + INTRA:          -6.804
REMARK INTER:                  -4.789
REMARK INTRA:                  -2.015
REMARK UNBOUND:                -1.644
REMARK SMILES OC[C@H]1O[C@@H](O[C@@]2(CO)O[C@H](CO)[C@H](O)[C@H]2O)[C@H](O)[C@@H](O)[C@H]1O
REMARK SMILES IDX 6 1 5 2 3 3 22 4 4 5 20 6 18 7 2 8 1 9 23 11 21 13 19 15
REMARK SMILES IDX 7 17 16 18 10 19 14 20 11 21 8 22 9 23 17 25 15 27 12 29
REMARK SMILES IDX 13 30
REMARK H PARENT 1 10 23 12 21 14 19 16 9 24 17 26 15 28 13 31
REMARK Flexibility Score: inf
ROOT
ATOM      1  O   UNL     1      12.567  -0.652   0.222  1.00  0.00    -0.313 OA
ENDROOT
BRANCH   1   2
ATOM      2  C   UNL     1      13.640  -0.912   1.135  1.00  0.00     0.285 C 
ATOM      3  C   UNL     1      15.952  -0.578   1.343  1.00  0.00     0.178 C 
ATOM      4  C   UNL     1      15.871  -1.365   2.698  1.00  0.00     0.177 C 
ATOM      5  O   UNL     1      14.882  -0.891   0.458  1.00  0.00    -0.341 OA
ATOM      6  C   UNL     1      14.937  -2.580   2.582  1.00  0.00     0.179 C 
ATOM      7  C   UNL     1      13.538  -2.160   2.058  1.00  0.00     0.202 C 
BRANCH   3   8
ATOM      8  C   UNL     1      17.277  -0.776   0.583  1.00  0.00     0.191 C 
BRANCH   8   9
ATOM      9  O   UNL     1      17.412  -2.094   0.126  1.00  0.00    -0.394 OA
ATOM     10  H   UNL     1      18.154  -2.503   0.642  1.00  0.00     0.210 HD
ENDBRANCH   8   9
ENDBRANCH   3   8
BRANCH   4  11
ATOM     11  O   UNL     1      17.135  -1.780   3.154  1.00  0.00    -0.387 OA
ATOM     12  H   UNL     1      17.808  -1.257   2.645  1.00  0.00     0.211 HD
ENDBRANCH   4  11
BRANCH   6  13
ATOM     13  O   UNL     1      15.510  -3.528   1.718  1.00  0.00    -0.387 OA
ATOM     14  H   UNL     1      16.316  -3.105   1.319  1.00  0.00     0.211 HD
ENDBRANCH   6  13
BRANCH   7  15
ATOM     15  O   UNL     1      12.691  -1.862   3.140  1.00  0.00    -0.385 OA
ATOM     16  H   UNL     1      12.735  -0.881   3.283  1.00  0.00     0.211 HD
ENDBRANCH   7  15
ENDBRANCH   1   2
BRANCH   1  17
ATOM     17  C   UNL     1      11.497   0.236   0.567  1.00  0.00     0.224 C 
ATOM     18  C   UNL     1      11.366   1.493  -0.347  1.00  0.00     0.208 C 
ATOM     19  O   UNL     1      11.819   0.747   1.849  1.00  0.00    -0.337 OA
ATOM     20  C   UNL     1      10.803   2.535   0.594  1.00  0.00     0.180 C 
ATOM     21  C   UNL     1      11.389   2.094   1.939  1.00  0.00     0.179 C 
BRANCH  17  22
ATOM     22  C   UNL     1      10.175  -0.586   0.770  1.00  0.00     0.225 C 
BRANCH  22  23
ATOM     23  O   UNL     1      10.035  -1.087   2.073  1.00  0.00    -0.391 OA
ATOM     24  H   UNL     1       9.938  -2.072   1.985  1.00  0.00     0.210 HD
ENDBRANCH  22  23
ENDBRANCH  17  22
BRANCH  18  25
ATOM     25  O   UNL     1      12.606   1.947  -0.836  1.00  0.00    -0.385 OA
ATOM     26  H   UNL     1      12.446   2.504  -1.642  1.00  0.00     0.211 HD
ENDBRANCH  18  25
BRANCH  20  27
ATOM     27  O   UNL     1       9.397   2.497   0.597  1.00  0.00    -0.387 OA
ATOM     28  H   UNL     1       9.109   2.589  -0.348  1.00  0.00     0.211 HD
ENDBRANCH  20  27
BRANCH  21  29
ATOM     29  C   UNL     1      10.433   2.275   3.129  1.00  0.00     0.191 C 
BRANCH  29  30
ATOM     30  O   UNL     1      10.502   1.164   3.984  1.00  0.00    -0.394 OA
ATOM     31  H   UNL     1      10.237   0.374   3.445  1.00  0.00     0.210 HD
ENDBRANCH  29  30
ENDBRANCH  21  29
ENDBRANCH   1  17
TORSDOF 13
ENDMDL
MODEL 7
REMARK VINA RESULT:    -3.376      6.640     10.167
REMARK INTER + INTRA:          -6.796
REMARK INTER:                  -5.449
REMARK INTRA:                  -1.348
REMARK UNBOUND:                -1.644
REMARK SMILES OC[C@H]1O[C@@H](O[C@@]2(CO)O[C@H](CO)[C@H](O)[C@H]2O)[C@H](O)[C@@H](O)[C@H]1O
REMARK SMILES IDX 6 1 5 2 3 3 22 4 4 5 20 6 18 7 2 8 1 9 23 11 21 13 19 15
REMARK SMILES IDX 7 17 16 18 10 19 14 20 11 21 8 22 9 23 17 25 15 27 12 29
REMARK SMILES IDX 13 30
REMARK H PARENT 1 10 23 12 21 14 19 16 9 24 17 26 15 28 13 31
REMARK Flexibility Score: inf
ROOT
ATOM      1  O   UNL     1      12.542  -9.709   1.896  1.00  0.00    -0.313 OA
ENDROOT
BRANCH   1   2
ATOM      2  C   UNL     1      11.239  -9.247   1.520  1.00  0.00     0.285 C 
ATOM      3  C   UNL     1       9.498  -7.902   2.333  1.00  0.00     0.178 C 
ATOM      4  C   UNL     1       8.691  -8.292   1.045  1.00  0.00     0.177 C 
ATOM      5  O   UNL     1      10.504  -8.853   2.663  1.00  0.00    -0.341 OA
ATOM      6  C   UNL     1       8.870  -9.780   0.704  1.00  0.00     0.179 C 
ATOM      7  C   UNL     1      10.373 -10.151   0.595  1.00  0.00     0.202 C 
BRANCH   3   8
ATOM      8  C   UNL     1       8.618  -7.681   3.578  1.00  0.00     0.191 C 
BRANCH   8   9
ATOM      9  O   UNL     1       8.239  -6.338   3.704  1.00  0.00    -0.394 OA
ATOM     10  H   UNL     1       7.247  -6.318   3.694  1.00  0.00     0.210 HD
ENDBRANCH   8   9
ENDBRANCH   3   8
BRANCH   4  11
ATOM     11  O   UNL     1       7.323  -7.992   1.157  1.00  0.00    -0.387 OA
ATOM     12  H   UNL     1       6.837  -8.661   0.607  1.00  0.00     0.211 HD
ENDBRANCH   4  11
BRANCH   6  13
ATOM     13  O   UNL     1       8.252 -10.562   1.695  1.00  0.00    -0.387 OA
ATOM     14  H   UNL     1       7.348 -10.178   1.844  1.00  0.00     0.211 HD
ENDBRANCH   6  13
BRANCH   7  15
ATOM     15  O   UNL     1      10.809  -9.999  -0.733  1.00  0.00    -0.385 OA
ATOM     16  H   UNL     1      11.157  -9.074  -0.821  1.00  0.00     0.211 HD
ENDBRANCH   7  15
ENDBRANCH   1   2
BRANCH   1  17
ATOM     17  C   UNL     1      13.716  -8.949   1.590  1.00  0.00     0.224 C 
ATOM     18  C   UNL     1      14.844  -9.018   2.664  1.00  0.00     0.208 C 
ATOM     19  O   UNL     1      13.304  -7.592   1.578  1.00  0.00    -0.337 OA
ATOM     20  C   UNL     1      15.513  -7.667   2.537  1.00  0.00     0.180 C 
ATOM     21  C   UNL     1      14.348  -6.780   2.086  1.00  0.00     0.179 C 
BRANCH  17  22
ATOM     22  C   UNL     1      14.173  -9.254   0.119  1.00  0.00     0.225 C 
BRANCH  22  23
ATOM     23  O   UNL     1      13.386  -8.608  -0.846  1.00  0.00    -0.391 OA
ATOM     24  H   UNL     1      12.510  -8.425  -0.416  1.00  0.00     0.210 HD
ENDBRANCH  22  23
ENDBRANCH  17  22
BRANCH  18  25
ATOM     25  O   UNL     1      14.344  -9.154   3.974  1.00  0.00    -0.385 OA
ATOM     26  H   UNL     1      14.775  -9.942   4.399  1.00  0.00     0.211 HD
ENDBRANCH  18  25
BRANCH  20  27
ATOM     27  O   UNL     1      16.542  -7.708   1.580  1.00  0.00    -0.387 OA
ATOM     28  H   UNL     1      17.283  -7.155   1.938  1.00  0.00     0.211 HD
ENDBRANCH  20  27
BRANCH  21  29
ATOM     29  C   UNL     1      14.740  -5.703   1.062  1.00  0.00     0.191 C 
BRANCH  29  30
ATOM     30  O   UNL     1      14.656  -6.216  -0.242  1.00  0.00    -0.394 OA
ATOM     31  H   UNL     1      15.552  -6.096  -0.653  1.00  0.00     0.210 HD
ENDBRANCH  29  30
ENDBRANCH  21  29
ENDBRANCH   1  17
TORSDOF 13
ENDMDL
MODEL 8
REMARK VINA RESULT:    -3.375      1.564      6.191
REMARK INTER + INTRA:          -6.794
REMARK INTER:                  -5.093
REMARK INTRA:                  -1.702
REMARK UNBOUND:                -1.644
REMARK SMILES OC[C@H]1O[C@@H](O[C@@]2(CO)O[C@H](CO)[C@H](O)[C@H]2O)[C@H](O)[C@@H](O)[C@H]1O
REMARK SMILES IDX 6 1 5 2 3 3 22 4 4 5 20 6 18 7 2 8 1 9 23 11 21 13 19 15
REMARK SMILES IDX 7 17 16 18 10 19 14 20 11 21 8 22 9 23 17 25 15 27 12 29
REMARK SMILES IDX 13 30
REMARK H PARENT 1 10 23 12 21 14 19 16 9 24 17 26 15 28 13 31
REMARK Flexibility Score: inf
ROOT
ATOM      1  O   UNL     1      14.235  -1.105   2.770  1.00  0.00    -0.313 OA
ENDROOT
BRANCH   1   2
ATOM      2  C   UNL     1      12.898  -1.004   2.266  1.00  0.00     0.285 C 
ATOM      3  C   UNL     1      11.745  -0.370   0.324  1.00  0.00     0.178 C 
ATOM      4  C   UNL     1      10.415  -0.657   1.105  1.00  0.00     0.177 C 
ATOM      5  O   UNL     1      12.843  -0.091   1.186  1.00  0.00    -0.341 OA
ATOM      6  C   UNL     1      10.499  -0.151   2.554  1.00  0.00     0.179 C 
ATOM      7  C   UNL     1      11.746  -0.729   3.276  1.00  0.00     0.202 C 
BRANCH   3   8
ATOM      8  C   UNL     1      11.634   0.777  -0.699  1.00  0.00     0.191 C 
BRANCH   8   9
ATOM      9  O   UNL     1      11.032   1.909  -0.133  1.00  0.00    -0.394 OA
ATOM     10  H   UNL     1      11.387   1.993   0.790  1.00  0.00     0.210 HD
ENDBRANCH   8   9
ENDBRANCH   3   8
BRANCH   4  11
ATOM     11  O   UNL     1       9.290  -0.101   0.473  1.00  0.00    -0.387 OA
ATOM     12  H   UNL     1       8.497  -0.587   0.821  1.00  0.00     0.211 HD
ENDBRANCH   4  11
BRANCH   6  13
ATOM     13  O   UNL     1      10.551   1.253   2.555  1.00  0.00    -0.387 OA
ATOM     14  H   UNL     1       9.618   1.577   2.445  1.00  0.00     0.211 HD
ENDBRANCH   6  13
BRANCH   7  15
ATOM     15  O   UNL     1      11.409  -1.930   3.925  1.00  0.00    -0.385 OA
ATOM     16  H   UNL     1      11.564  -1.789   4.895  1.00  0.00     0.211 HD
ENDBRANCH   7  15
ENDBRANCH   1   2
BRANCH   1  17
ATOM     17  C   UNL     1      15.190  -1.987   2.170  1.00  0.00     0.224 C 
ATOM     18  C   UNL     1      16.272  -1.286   1.293  1.00  0.00     0.208 C 
ATOM     19  O   UNL     1      14.454  -2.796   1.268  1.00  0.00    -0.337 OA
ATOM     20  C   UNL     1      16.587  -2.333   0.248  1.00  0.00     0.180 C 
ATOM     21  C   UNL     1      15.250  -3.072   0.128  1.00  0.00     0.179 C 
BRANCH  17  22
ATOM     22  C   UNL     1      15.745  -2.978   3.254  1.00  0.00     0.225 C 
BRANCH  22  23
ATOM     23  O   UNL     1      17.073  -2.709   3.615  1.00  0.00    -0.391 OA
ATOM     24  H   UNL     1      17.632  -3.384   3.149  1.00  0.00     0.210 HD
ENDBRANCH  22  23
ENDBRANCH  17  22
BRANCH  18  25
ATOM     25  O   UNL     1      15.790  -0.132   0.646  1.00  0.00    -0.385 OA
ATOM     26  H   UNL     1      16.547   0.316   0.186  1.00  0.00     0.211 HD
ENDBRANCH  18  25
BRANCH  20  27
ATOM     27  O   UNL     1      17.617  -3.183   0.687  1.00  0.00    -0.387 OA
ATOM     28  H   UNL     1      18.117  -2.685   1.385  1.00  0.00     0.211 HD
ENDBRANCH  20  27
BRANCH  21  29
ATOM     29  C   UNL     1      15.387  -4.589  -0.077  1.00  0.00     0.191 C 
BRANCH  29  30
ATOM     30  O   UNL     1      15.953  -4.862  -1.332  1.00  0.00    -0.394 OA
ATOM     31  H   UNL     1      16.101  -5.843  -1.370  1.00  0.00     0.210 HD
ENDBRANCH  29  30
ENDBRANCH  21  29
ENDBRANCH   1  17
TORSDOF 13
ENDMDL
MODEL 9
REMARK VINA RESULT:    -3.373      9.408     12.287
REMARK INTER + INTRA:          -6.791
REMARK INTER:                  -5.418
REMARK INTRA:                  -1.373
REMARK UNBOUND:                -1.644
REMARK SMILES OC[C@H]1O[C@@H](O[C@@]2(CO)O[C@H](CO)[C@H](O)[C@H]2O)[C@H](O)[C@@H](O)[C@H]1O
REMARK SMILES IDX 6 1 5 2 3 3 22 4 4 5 20 6 18 7 2 8 1 9 23 11 21 13 19 15
REMARK SMILES IDX 7 17 16 18 10 19 14 20 11 21 8 22 9 23 17 25 15 27 12 29
REMARK SMILES IDX 13 30
REMARK H PARENT 1 10 23 12 21 14 19 16 9 24 17 26 15 28 13 31
REMARK Flexibility Score: inf
ROOT
ATOM      1  O   UNL     1       6.863  -1.240  -7.198  1.00  0.00    -0.313 OA
ENDROOT
BRANCH   1   2
ATOM      2  C   UNL     1       7.463  -0.112  -7.846  1.00  0.00     0.285 C 
ATOM      3  C   UNL     1       9.577   0.712  -8.443  1.00  0.00     0.178 C 
ATOM      4  C   UNL     1       8.846   1.989  -8.988  1.00  0.00     0.177 C 
ATOM      5  O   UNL     1       8.818   0.019  -7.458  1.00  0.00    -0.341 OA
ATOM      6  C   UNL     1       7.715   2.430  -8.044  1.00  0.00     0.179 C 
ATOM      7  C   UNL     1       6.733   1.260  -7.766  1.00  0.00     0.202 C 
BRANCH   3   8
ATOM      8  C   UNL     1      10.975   0.992  -7.862  1.00  0.00     0.191 C 
BRANCH   8   9
ATOM      9  O   UNL     1      10.914   1.257  -6.488  1.00  0.00    -0.394 OA
ATOM     10  H   UNL     1      10.829   0.381  -6.030  1.00  0.00     0.210 HD
ENDBRANCH   8   9
ENDBRANCH   3   8
BRANCH   4  11
ATOM     11  O   UNL     1       9.728   3.061  -9.204  1.00  0.00    -0.387 OA
ATOM     12  H   UNL     1       9.231   3.890  -8.978  1.00  0.00     0.211 HD
ENDBRANCH   4  11
BRANCH   6  13
ATOM     13  O   UNL     1       8.268   2.891  -6.838  1.00  0.00    -0.387 OA
ATOM     14  H   UNL     1       7.610   2.688  -6.122  1.00  0.00     0.211 HD
ENDBRANCH   6  13
BRANCH   7  15
ATOM     15  O   UNL     1       5.688   1.279  -8.705  1.00  0.00    -0.385 OA
ATOM     16  H   UNL     1       6.026   0.836  -9.526  1.00  0.00     0.211 HD
ENDBRANCH   7  15
ENDBRANCH   1   2
BRANCH   1  17
ATOM     17  C   UNL     1       6.357  -2.347  -7.953  1.00  0.00     0.224 C 
ATOM     18  C   UNL     1       4.806  -2.386  -8.105  1.00  0.00     0.208 C 
ATOM     19  O   UNL     1       6.682  -3.506  -7.203  1.00  0.00    -0.337 OA
ATOM     20  C   UNL     1       4.514  -3.868  -8.190  1.00  0.00     0.180 C 
ATOM     21  C   UNL     1       5.645  -4.461  -7.344  1.00  0.00     0.179 C 
BRANCH  17  22
ATOM     22  C   UNL     1       7.165  -2.483  -9.293  1.00  0.00     0.225 C 
BRANCH  22  23
ATOM     23  O   UNL     1       8.351  -3.218  -9.147  1.00  0.00    -0.391 OA
ATOM     24  H   UNL     1       8.660  -3.069  -8.215  1.00  0.00     0.210 HD
ENDBRANCH  22  23
ENDBRANCH  17  22
BRANCH  18  25
ATOM     25  O   UNL     1       4.133  -1.856  -6.988  1.00  0.00    -0.385 OA
ATOM     26  H   UNL     1       3.405  -2.480  -6.727  1.00  0.00     0.211 HD
ENDBRANCH  18  25
BRANCH  20  27
ATOM     27  O   UNL     1       4.569  -4.312  -9.523  1.00  0.00    -0.387 OA
ATOM     28  H   UNL     1       3.636  -4.514  -9.793  1.00  0.00     0.211 HD
ENDBRANCH  20  27
BRANCH  21  29
ATOM     29  C   UNL     1       6.205  -5.787  -7.885  1.00  0.00     0.191 C 
BRANCH  29  30
ATOM     30  O   UNL     1       7.608  -5.766  -7.872  1.00  0.00    -0.394 OA
ATOM     31  H   UNL     1       7.908  -6.453  -8.523  1.00  0.00     0.210 HD
ENDBRANCH  29  30
ENDBRANCH  21  29
ENDBRANCH   1  17
TORSDOF 13
ENDMDL
