MODEL 1
REMARK VINA RESULT:    -6.015      0.000      0.000
REMARK INTER + INTRA:          -7.757
REMARK INTER:                  -8.125
REMARK INTRA:                   0.368
REMARK UNBOUND:                 0.368
REMARK SMILES CC[C@H](CC[C@H](C)[C@H]1CC[C@@H]2[C@@H]3CC(=O)C4=CC(=O)CC[C@@]4(C)[C@@H]3CC[C@@]21C)C(C)C
REMARK SMILES IDX 4 1 3 2 2 3 1 4 29 5 30 6 31 7 5 8 6 9 7 10 8 11 9 12 27 13
REMARK SMILES IDX 10 14 11 15 26 16 28 17 12 18 25 19 24 20 13 21 22 22 14 23
REMARK SMILES IDX 16 24 21 25 23 26 15 27 17 28 20 29 18 30 19 31
REMARK H PARENT
REMARK Flexibility Score: inf
ROOT
ATOM      1  C   UNL     1      -2.950  46.896  12.850  1.00  0.00     0.004 C 
ENDROOT
BRANCH   1   2
ATOM      2  C   UNL     1      -3.343  46.120  11.559  1.00  0.00    -0.009 C 
BRANCH   2   3
ATOM      3  C   UNL     1      -4.767  46.459  11.019  1.00  0.00     0.000 C 
ATOM      4  C   UNL     1      -5.315  47.841  11.395  1.00  0.00     0.004 C 
ENDBRANCH   2   3
BRANCH   2   5
ATOM      5  C   UNL     1      -2.249  46.173  10.436  1.00  0.00    -0.014 C 
ATOM      6  C   UNL     1      -1.648  47.581  10.257  1.00  0.00     0.007 C 
ATOM      7  C   UNL     1      -2.722  45.639   9.073  1.00  0.00     0.007 C 
ENDBRANCH   2   5
ENDBRANCH   1   2
BRANCH   1   8
ATOM      8  C   UNL     1      -2.351  46.004  13.966  1.00  0.00     0.004 C 
BRANCH   8   9
ATOM      9  C   UNL     1      -0.796  46.051  14.049  1.00  0.00    -0.011 C 
ATOM     10  C   UNL     1      -0.260  44.603  14.129  1.00  0.00     0.008 C 
BRANCH   9  11
ATOM     11  C   UNL     1      -0.350  47.027  15.206  1.00  0.00    -0.002 C 
ATOM     12  C   UNL     1       0.954  47.817  14.963  1.00  0.00     0.005 C 
ATOM     13  C   UNL     1      -1.358  48.053  15.807  1.00  0.00    -0.026 C 
ATOM     14  C   UNL     1       0.834  49.125  15.754  1.00  0.00     0.005 C 
ATOM     15  C   UNL     1      -0.428  48.996  16.624  1.00  0.00    -0.001 C 
ATOM     16  C   UNL     1      -2.490  47.416  16.667  1.00  0.00     0.007 C 
ATOM     17  C   UNL     1      -2.049  48.888  14.698  1.00  0.00     0.012 C 
ATOM     18  C   UNL     1      -0.124  48.576  18.111  1.00  0.00     0.004 C 
ATOM     19  C   UNL     1      -2.088  46.990  18.082  1.00  0.00     0.005 C 
ATOM     20  C   UNL     1      -1.413  48.148  18.856  1.00  0.00     0.003 C 
ATOM     21  C   UNL     1       0.999  47.530  18.348  1.00  0.00     0.085 C 
ATOM     22  C   UNL     1      -1.181  47.893  20.425  1.00  0.00    -0.000 C 
ATOM     23  C   UNL     1       1.310  47.437  19.807  1.00  0.00     0.159 C 
ATOM     24  C   UNL     1       0.311  47.882  20.805  1.00  0.00     0.005 C 
ATOM     25  C   UNL     1      -1.885  49.048  21.205  1.00  0.00     0.020 C 
ATOM     26  C   UNL     1      -1.771  46.540  20.909  1.00  0.00     0.017 C 
ATOM     27  O   UNL     1       2.431  46.988  20.172  1.00  0.00    -0.295 OA
ATOM     28  C   UNL     1       0.726  48.239  22.036  1.00  0.00     0.055 C 
ATOM     29  C   UNL     1      -1.654  48.994  22.723  1.00  0.00     0.081 C 
ATOM     30  C   UNL     1      -0.203  48.806  23.035  1.00  0.00     0.156 C 
ATOM     31  O   UNL     1       0.234  49.122  24.172  1.00  0.00    -0.295 OA
ENDBRANCH   9  11
ENDBRANCH   8   9
ENDBRANCH   1   8
TORSDOF 6
ENDMDL
MODEL 2
REMARK VINA RESULT:    -5.755      0.885      1.592
REMARK INTER + INTRA:          -7.406
REMARK INTER:                  -7.546
REMARK INTRA:                   0.140
REMARK UNBOUND:                 0.368
REMARK SMILES CC[C@H](CC[C@H](C)[C@H]1CC[C@@H]2[C@@H]3CC(=O)C4=CC(=O)CC[C@@]4(C)[C@@H]3CC[C@@]21C)C(C)C
REMARK SMILES IDX 4 1 3 2 2 3 1 4 29 5 30 6 31 7 5 8 6 9 7 10 8 11 9 12 27 13
REMARK SMILES IDX 10 14 11 15 26 16 28 17 12 18 25 19 24 20 13 21 22 22 14 23
REMARK SMILES IDX 16 24 21 25 23 26 15 27 17 28 20 29 18 30 19 31
REMARK H PARENT
REMARK Flexibility Score: inf
ROOT
ATOM      1  C   UNL     1      -2.300  46.103  12.428  1.00  0.00     0.004 C 
ENDROOT
BRANCH   1   2
ATOM      2  C   UNL     1      -2.905  46.350  11.015  1.00  0.00    -0.009 C 
BRANCH   2   3
ATOM      3  C   UNL     1      -2.610  45.214   9.987  1.00  0.00     0.000 C 
ATOM      4  C   UNL     1      -3.833  44.604   9.292  1.00  0.00     0.004 C 
ENDBRANCH   2   3
BRANCH   2   5
ATOM      5  C   UNL     1      -4.420  46.756  11.041  1.00  0.00    -0.014 C 
ATOM      6  C   UNL     1      -4.827  47.611   9.825  1.00  0.00     0.007 C 
ATOM      7  C   UNL     1      -4.859  47.460  12.336  1.00  0.00     0.007 C 
ENDBRANCH   2   5
ENDBRANCH   1   2
BRANCH   1   8
ATOM      8  C   UNL     1      -0.928  46.786  12.655  1.00  0.00     0.004 C 
BRANCH   8   9
ATOM      9  C   UNL     1      -0.042  46.087  13.730  1.00  0.00    -0.011 C 
ATOM     10  C   UNL     1      -0.646  44.698  14.043  1.00  0.00     0.008 C 
BRANCH   9  11
ATOM     11  C   UNL     1       0.170  47.051  14.960  1.00  0.00    -0.002 C 
ATOM     12  C   UNL     1       1.513  47.811  15.004  1.00  0.00     0.005 C 
ATOM     13  C   UNL     1      -0.919  48.100  15.340  1.00  0.00    -0.026 C 
ATOM     14  C   UNL     1       1.258  49.121  15.759  1.00  0.00     0.005 C 
ATOM     15  C   UNL     1      -0.162  49.021  16.342  1.00  0.00    -0.001 C 
ATOM     16  C   UNL     1      -2.221  47.488  15.937  1.00  0.00     0.007 C 
ATOM     17  C   UNL     1      -1.340  48.952  14.115  1.00  0.00     0.012 C 
ATOM     18  C   UNL     1      -0.190  48.592  17.856  1.00  0.00     0.004 C 
ATOM     19  C   UNL     1      -2.139  47.052  17.402  1.00  0.00     0.005 C 
ATOM     20  C   UNL     1      -1.617  48.193  18.309  1.00  0.00     0.003 C 
ATOM     21  C   UNL     1       0.833  47.520  18.320  1.00  0.00     0.085 C 
ATOM     22  C   UNL     1      -1.729  47.932  19.890  1.00  0.00    -0.000 C 
ATOM     23  C   UNL     1       0.825  47.418  19.811  1.00  0.00     0.159 C 
ATOM     24  C   UNL     1      -0.352  47.885  20.578  1.00  0.00     0.005 C 
ATOM     25  C   UNL     1      -2.556  49.102  20.510  1.00  0.00     0.020 C 
ATOM     26  C   UNL     1      -2.438  46.592  20.230  1.00  0.00     0.017 C 
ATOM     27  O   UNL     1       1.833  46.943  20.403  1.00  0.00    -0.295 OA
ATOM     28  C   UNL     1      -0.200  48.232  21.870  1.00  0.00     0.055 C 
ATOM     29  C   UNL     1      -2.654  49.041  22.041  1.00  0.00     0.081 C 
ATOM     30  C   UNL     1      -1.307  48.819  22.653  1.00  0.00     0.156 C 
ATOM     31  O   UNL     1      -1.114  49.124  23.858  1.00  0.00    -0.295 OA
ENDBRANCH   9  11
ENDBRANCH   8   9
ENDBRANCH   1   8
TORSDOF 6
ENDMDL
MODEL 3
REMARK VINA RESULT:    -5.467      4.155      9.105
REMARK INTER + INTRA:          -7.016
REMARK INTER:                  -7.060
REMARK INTRA:                   0.044
REMARK UNBOUND:                 0.368
REMARK SMILES CC[C@H](CC[C@H](C)[C@H]1CC[C@@H]2[C@@H]3CC(=O)C4=CC(=O)CC[C@@]4(C)[C@@H]3CC[C@@]21C)C(C)C
REMARK SMILES IDX 4 1 3 2 2 3 1 4 29 5 30 6 31 7 5 8 6 9 7 10 8 11 9 12 27 13
REMARK SMILES IDX 10 14 11 15 26 16 28 17 12 18 25 19 24 20 13 21 22 22 14 23
REMARK SMILES IDX 16 24 21 25 23 26 15 27 17 28 20 29 18 30 19 31
REMARK H PARENT
REMARK Flexibility Score: inf
ROOT
ATOM      1  C   UNL     1       3.237  48.543  16.253  1.00  0.00     0.004 C 
ENDROOT
BRANCH   1   2
ATOM      2  C   UNL     1       3.525  48.249  17.754  1.00  0.00    -0.009 C 
BRANCH   2   3
ATOM      3  C   UNL     1       2.270  48.352  18.676  1.00  0.00     0.000 C 
ATOM      4  C   UNL     1       2.489  49.030  20.034  1.00  0.00     0.004 C 
ENDBRANCH   2   3
BRANCH   2   5
ATOM      5  C   UNL     1       4.336  46.927  17.993  1.00  0.00    -0.014 C 
ATOM      6  C   UNL     1       4.932  46.844  19.412  1.00  0.00     0.007 C 
ATOM      7  C   UNL     1       5.442  46.674  16.954  1.00  0.00     0.007 C 
ENDBRANCH   2   5
ENDBRANCH   1   2
BRANCH   1   8
ATOM      8  C   UNL     1       1.853  48.048  15.766  1.00  0.00     0.004 C 
BRANCH   8   9
ATOM      9  C   UNL     1       1.924  46.958  14.655  1.00  0.00    -0.011 C 
ATOM     10  C   UNL     1       2.812  47.483  13.502  1.00  0.00     0.008 C 
BRANCH   9  11
ATOM     11  C   UNL     1       0.468  46.496  14.262  1.00  0.00    -0.002 C 
ATOM     12  C   UNL     1       0.149  45.000  14.473  1.00  0.00     0.005 C 
ATOM     13  C   UNL     1      -0.777  47.270  14.791  1.00  0.00    -0.026 C 
ATOM     14  C   UNL     1      -1.357  44.900  14.737  1.00  0.00     0.005 C 
ATOM     15  C   UNL     1      -1.944  46.294  14.458  1.00  0.00    -0.001 C 
ATOM     16  C   UNL     1      -0.968  48.685  14.169  1.00  0.00     0.007 C 
ATOM     17  C   UNL     1      -0.719  47.457  16.329  1.00  0.00     0.012 C 
ATOM     18  C   UNL     1      -2.593  46.429  13.031  1.00  0.00     0.004 C 
ATOM     19  C   UNL     1      -1.557  48.715  12.756  1.00  0.00     0.005 C 
ATOM     20  C   UNL     1      -2.876  47.909  12.671  1.00  0.00     0.003 C 
ATOM     21  C   UNL     1      -1.880  45.722  11.846  1.00  0.00     0.085 C 
ATOM     22  C   UNL     1      -3.709  48.080  11.308  1.00  0.00    -0.000 C 
ATOM     23  C   UNL     1      -2.754  45.751  10.634  1.00  0.00     0.159 C 
ATOM     24  C   UNL     1      -3.829  46.761  10.522  1.00  0.00     0.005 C 
ATOM     25  C   UNL     1      -5.144  48.569  11.684  1.00  0.00     0.020 C 
ATOM     26  C   UNL     1      -3.073  49.115  10.340  1.00  0.00     0.017 C 
ATOM     27  O   UNL     1      -2.570  44.901   9.719  1.00  0.00    -0.295 OA
ATOM     28  C   UNL     1      -4.878  46.519   9.712  1.00  0.00     0.055 C 
ATOM     29  C   UNL     1      -6.092  48.674  10.480  1.00  0.00     0.081 C 
ATOM     30  C   UNL     1      -6.039  47.430   9.650  1.00  0.00     0.156 C 
ATOM     31  O   UNL     1      -6.993  47.160   8.875  1.00  0.00    -0.295 OA
ENDBRANCH   9  11
ENDBRANCH   8   9
ENDBRANCH   1   8
TORSDOF 6
ENDMDL
MODEL 4
REMARK VINA RESULT:    -4.919      1.599      2.212
REMARK INTER + INTRA:          -6.276
REMARK INTER:                  -5.713
REMARK INTRA:                  -0.563
REMARK UNBOUND:                 0.368
REMARK SMILES CC[C@H](CC[C@H](C)[C@H]1CC[C@@H]2[C@@H]3CC(=O)C4=CC(=O)CC[C@@]4(C)[C@@H]3CC[C@@]21C)C(C)C
REMARK SMILES IDX 4 1 3 2 2 3 1 4 29 5 30 6 31 7 5 8 6 9 7 10 8 11 9 12 27 13
REMARK SMILES IDX 10 14 11 15 26 16 28 17 12 18 25 19 24 20 13 21 22 22 14 23
REMARK SMILES IDX 16 24 21 25 23 26 15 27 17 28 20 29 18 30 19 31
REMARK H PARENT
REMARK Flexibility Score: inf
ROOT
ATOM      1  C   UNL     1      -3.251  46.313  13.391  1.00  0.00     0.004 C 
ENDROOT
BRANCH   1   2
ATOM      2  C   UNL     1      -2.658  46.863  12.061  1.00  0.00    -0.009 C 
BRANCH   2   3
ATOM      3  C   UNL     1      -3.337  46.291  10.777  1.00  0.00     0.000 C 
ATOM      4  C   UNL     1      -2.467  45.372   9.911  1.00  0.00     0.004 C 
ENDBRANCH   2   3
BRANCH   2   5
ATOM      5  C   UNL     1      -2.531  48.426  12.026  1.00  0.00    -0.014 C 
ATOM      6  C   UNL     1      -3.473  49.075  10.993  1.00  0.00     0.007 C 
ATOM      7  C   UNL     1      -1.096  48.933  11.805  1.00  0.00     0.007 C 
ENDBRANCH   2   5
ENDBRANCH   1   2
BRANCH   1   8
ATOM      8  C   UNL     1      -2.220  46.193  14.540  1.00  0.00     0.004 C 
BRANCH   8   9
ATOM      9  C   UNL     1      -0.736  46.193  14.063  1.00  0.00    -0.011 C 
ATOM     10  C   UNL     1      -0.265  44.728  13.911  1.00  0.00     0.008 C 
BRANCH   9  11
ATOM     11  C   UNL     1       0.131  47.113  15.007  1.00  0.00    -0.002 C 
ATOM     12  C   UNL     1       1.325  47.832  14.344  1.00  0.00     0.005 C 
ATOM     13  C   UNL     1      -0.551  48.179  15.916  1.00  0.00    -0.026 C 
ATOM     14  C   UNL     1       1.559  49.125  15.135  1.00  0.00     0.005 C 
ATOM     15  C   UNL     1       0.656  49.047  16.377  1.00  0.00    -0.001 C 
ATOM     16  C   UNL     1      -1.368  47.587  17.103  1.00  0.00     0.007 C 
ATOM     17  C   UNL     1      -1.520  49.081  15.107  1.00  0.00     0.012 C 
ATOM     18  C   UNL     1       1.413  48.574  17.674  1.00  0.00     0.004 C 
ATOM     19  C   UNL     1      -0.543  47.104  18.299  1.00  0.00     0.005 C 
ATOM     20  C   UNL     1       0.423  48.202  18.807  1.00  0.00     0.003 C 
ATOM     21  C   UNL     1       2.483  47.459  17.517  1.00  0.00     0.085 C 
ATOM     22  C   UNL     1       1.151  47.896  20.206  1.00  0.00    -0.000 C 
ATOM     23  C   UNL     1       3.257  47.313  18.786  1.00  0.00     0.159 C 
ATOM     24  C   UNL     1       2.680  47.789  20.063  1.00  0.00     0.005 C 
ATOM     25  C   UNL     1       0.822  49.069  21.182  1.00  0.00     0.020 C 
ATOM     26  C   UNL     1       0.674  46.567  20.854  1.00  0.00     0.017 C 
ATOM     27  O   UNL     1       4.405  46.791  18.752  1.00  0.00    -0.295 OA
ATOM     28  C   UNL     1       3.504  48.091  21.085  1.00  0.00     0.055 C 
ATOM     29  C   UNL     1       1.543  48.964  22.534  1.00  0.00     0.081 C 
ATOM     30  C   UNL     1       3.000  48.686  22.340  1.00  0.00     0.156 C 
ATOM     31  O   UNL     1       3.812  48.948  23.266  1.00  0.00    -0.295 OA
ENDBRANCH   9  11
ENDBRANCH   8   9
ENDBRANCH   1   8
TORSDOF 6
ENDMDL
