MODEL 1
REMARK VINA RESULT:     0.216      0.000      0.000
REMARK INTER + INTRA:          -0.624
REMARK INTER:                   0.329
REMARK INTRA:                  -0.953
REMARK UNBOUND:                -0.953
REMARK SMILES OC[C@@H]1O[C@@H](O[C@@]2(CO)O[C@H](CO)[C@H](O)[C@H]2O)[C@H](O)[C@@H](O)[C@H]1O
REMARK SMILES IDX 6 1 5 2 3 3 22 4 4 5 20 6 18 7 2 8 1 9 23 11 21 13 19 15
REMARK SMILES IDX 7 17 16 18 10 19 14 20 11 21 8 22 9 23 17 25 15 27 12 29
REMARK SMILES IDX 13 30
REMARK H PARENT 1 10 23 12 21 14 19 16 9 24 17 26 15 28 13 31
REMARK Flexibility Score: inf
ROOT
ATOM      1  O   UNL     1      18.489  11.863  13.416  1.00  0.00    -0.313 OA
ENDROOT
BRANCH   1   2
ATOM      2  C   UNL     1      18.042  12.523  14.595  1.00  0.00     0.285 C 
ATOM      3  C   UNL     1      16.873  10.621  15.340  1.00  0.00     0.178 C 
ATOM      4  C   UNL     1      15.490  11.280  15.140  1.00  0.00     0.177 C 
ATOM      5  O   UNL     1      17.854  11.598  15.658  1.00  0.00    -0.341 OA
ATOM      6  C   UNL     1      15.573  12.346  14.028  1.00  0.00     0.179 C 
ATOM      7  C   UNL     1      16.747  13.306  14.303  1.00  0.00     0.202 C 
BRANCH   3   8
ATOM      8  C   UNL     1      16.843   9.582  16.468  1.00  0.00     0.191 C 
BRANCH   8   9
ATOM      9  O   UNL     1      15.694   9.744  17.253  1.00  0.00    -0.394 OA
ATOM     10  H   UNL     1      15.923   9.395  18.153  1.00  0.00     0.210 HD
ENDBRANCH   8   9
ENDBRANCH   3   8
BRANCH   4  11
ATOM     11  O   UNL     1      14.537  10.305  14.804  1.00  0.00    -0.387 OA
ATOM     12  H   UNL     1      14.637  10.129  13.832  1.00  0.00     0.211 HD
ENDBRANCH   4  11
BRANCH   6  13
ATOM     13  O   UNL     1      15.752  11.738  12.772  1.00  0.00    -0.387 OA
ATOM     14  H   UNL     1      15.875  12.467  12.111  1.00  0.00     0.211 HD
ENDBRANCH   6  13
BRANCH   7  15
ATOM     15  O   UNL     1      16.449  14.124  15.406  1.00  0.00    -0.385 OA
ATOM     16  H   UNL     1      16.867  15.007  15.231  1.00  0.00     0.211 HD
ENDBRANCH   7  15
ENDBRANCH   1   2
BRANCH   1  17
ATOM     17  C   UNL     1      19.452  12.605  12.669  1.00  0.00     0.224 C 
ATOM     18  C   UNL     1      20.062  11.692  11.592  1.00  0.00     0.208 C 
ATOM     19  O   UNL     1      20.520  13.045  13.497  1.00  0.00    -0.337 OA
ATOM     20  C   UNL     1      21.256  11.105  12.296  1.00  0.00     0.180 C 
ATOM     21  C   UNL     1      21.656  12.240  13.245  1.00  0.00     0.179 C 
BRANCH  17  22
ATOM     22  C   UNL     1      18.778  13.829  12.010  1.00  0.00     0.225 C 
BRANCH  22  23
ATOM     23  O   UNL     1      17.716  13.433  11.183  1.00  0.00    -0.391 OA
ATOM     24  H   UNL     1      18.121  13.083  10.348  1.00  0.00     0.210 HD
ENDBRANCH  22  23
ENDBRANCH  17  22
BRANCH  18  25
ATOM     25  O   UNL     1      19.168  10.717  11.105  1.00  0.00    -0.385 OA
ATOM     26  H   UNL     1      19.397  10.513  10.162  1.00  0.00     0.211 HD
ENDBRANCH  18  25
BRANCH  20  27
ATOM     27  O   UNL     1      22.262  10.761  11.376  1.00  0.00    -0.387 OA
ATOM     28  H   UNL     1      22.139   9.796  11.177  1.00  0.00     0.211 HD
ENDBRANCH  20  27
BRANCH  21  29
ATOM     29  C   UNL     1      22.782  13.132  12.699  1.00  0.00     0.191 C 
BRANCH  29  30
ATOM     30  O   UNL     1      23.097  14.121  13.638  1.00  0.00    -0.394 OA
ATOM     31  H   UNL     1      22.735  13.803  14.506  1.00  0.00     0.210 HD
ENDBRANCH  29  30
ENDBRANCH  21  29
ENDBRANCH   1  17
TORSDOF 13
ENDMDL
MODEL 2
REMARK VINA RESULT:     0.461     14.875     18.098
REMARK INTER + INTRA:          -0.249
REMARK INTER:                   0.546
REMARK INTRA:                  -0.795
REMARK UNBOUND:                -0.953
REMARK SMILES OC[C@@H]1O[C@@H](O[C@@]2(CO)O[C@H](CO)[C@H](O)[C@H]2O)[C@H](O)[C@@H](O)[C@H]1O
REMARK SMILES IDX 6 1 5 2 3 3 22 4 4 5 20 6 18 7 2 8 1 9 23 11 21 13 19 15
REMARK SMILES IDX 7 17 16 18 10 19 14 20 11 21 8 22 9 23 17 25 15 27 12 29
REMARK SMILES IDX 13 30
REMARK H PARENT 1 10 23 12 21 14 19 16 9 24 17 26 15 28 13 31
REMARK Flexibility Score: inf
ROOT
ATOM      1  O   UNL     1      12.931  -2.853  21.243  1.00  0.00    -0.313 OA
ENDROOT
BRANCH   1   2
ATOM      2  C   UNL     1      12.211  -3.571  22.238  1.00  0.00     0.285 C 
ATOM      3  C   UNL     1      13.386  -2.528  23.989  1.00  0.00     0.178 C 
ATOM      4  C   UNL     1      14.114  -3.828  24.398  1.00  0.00     0.177 C 
ATOM      5  O   UNL     1      12.109  -2.817  23.438  1.00  0.00    -0.341 OA
ATOM      6  C   UNL     1      14.248  -4.760  23.176  1.00  0.00     0.179 C 
ATOM      7  C   UNL     1      12.879  -4.936  22.492  1.00  0.00     0.202 C 
BRANCH   3   8
ATOM      8  C   UNL     1      13.195  -1.589  25.188  1.00  0.00     0.191 C 
BRANCH   8   9
ATOM      9  O   UNL     1      13.973  -2.016  26.272  1.00  0.00    -0.394 OA
ATOM     10  H   UNL     1      14.641  -1.299  26.431  1.00  0.00     0.210 HD
ENDBRANCH   8   9
ENDBRANCH   3   8
BRANCH   4  11
ATOM     11  O   UNL     1      15.383  -3.527  24.918  1.00  0.00    -0.387 OA
ATOM     12  H   UNL     1      15.234  -3.009  25.752  1.00  0.00     0.211 HD
ENDBRANCH   4  11
BRANCH   6  13
ATOM     13  O   UNL     1      15.167  -4.233  22.251  1.00  0.00    -0.387 OA
ATOM     14  H   UNL     1      14.768  -3.401  21.885  1.00  0.00     0.211 HD
ENDBRANCH   6  13
BRANCH   7  15
ATOM     15  O   UNL     1      12.035  -5.715  23.302  1.00  0.00    -0.385 OA
ATOM     16  H   UNL     1      12.597  -6.430  23.700  1.00  0.00     0.211 HD
ENDBRANCH   7  15
ENDBRANCH   1   2
BRANCH   1  17
ATOM     17  C   UNL     1      12.387  -2.981  19.930  1.00  0.00     0.224 C 
ATOM     18  C   UNL     1      13.533  -2.933  18.906  1.00  0.00     0.208 C 
ATOM     19  O   UNL     1      11.511  -1.904  19.626  1.00  0.00    -0.337 OA
ATOM     20  C   UNL     1      13.623  -1.466  18.581  1.00  0.00     0.180 C 
ATOM     21  C   UNL     1      12.168  -1.014  18.745  1.00  0.00     0.179 C 
BRANCH  17  22
ATOM     22  C   UNL     1      11.619  -4.316  19.807  1.00  0.00     0.225 C 
BRANCH  22  23
ATOM     23  O   UNL     1      12.380  -5.273  19.120  1.00  0.00    -0.391 OA
ATOM     24  H   UNL     1      11.901  -6.138  19.213  1.00  0.00     0.210 HD
ENDBRANCH  22  23
ENDBRANCH  17  22
BRANCH  18  25
ATOM     25  O   UNL     1      14.744  -3.472  19.386  1.00  0.00    -0.385 OA
ATOM     26  H   UNL     1      15.422  -3.434  18.663  1.00  0.00     0.211 HD
ENDBRANCH  18  25
BRANCH  20  27
ATOM     27  O   UNL     1      14.130  -1.269  17.285  1.00  0.00    -0.387 OA
ATOM     28  H   UNL     1      15.116  -1.204  17.377  1.00  0.00     0.211 HD
ENDBRANCH  20  27
BRANCH  21  29
ATOM     29  C   UNL     1      11.386  -0.961  17.423  1.00  0.00     0.191 C 
BRANCH  29  30
ATOM     30  O   UNL     1      11.671   0.236  16.755  1.00  0.00    -0.394 OA
ATOM     31  H   UNL     1      10.976   0.333  16.053  1.00  0.00     0.210 HD
ENDBRANCH  29  30
ENDBRANCH  21  29
ENDBRANCH   1  17
TORSDOF 13
ENDMDL
MODEL 3
REMARK VINA RESULT:     0.804      1.356      6.094
REMARK INTER + INTRA:           0.274
REMARK INTER:                   0.775
REMARK INTRA:                  -0.501
REMARK UNBOUND:                -0.953
REMARK SMILES OC[C@@H]1O[C@@H](O[C@@]2(CO)O[C@H](CO)[C@H](O)[C@H]2O)[C@H](O)[C@@H](O)[C@H]1O
REMARK SMILES IDX 6 1 5 2 3 3 22 4 4 5 20 6 18 7 2 8 1 9 23 11 21 13 19 15
REMARK SMILES IDX 7 17 16 18 10 19 14 20 11 21 8 22 9 23 17 25 15 27 12 29
REMARK SMILES IDX 13 30
REMARK H PARENT 1 10 23 12 21 14 19 16 9 24 17 26 15 28 13 31
REMARK Flexibility Score: inf
ROOT
ATOM      1  O   UNL     1      17.828  11.477  13.628  1.00  0.00    -0.313 OA
ENDROOT
BRANCH   1   2
ATOM      2  C   UNL     1      17.934  12.163  12.387  1.00  0.00     0.285 C 
ATOM      3  C   UNL     1      19.574  10.677  11.587  1.00  0.00     0.178 C 
ATOM      4  C   UNL     1      20.689  11.747  11.617  1.00  0.00     0.177 C 
ATOM      5  O   UNL     1      18.309  11.276  11.343  1.00  0.00    -0.341 OA
ATOM      6  C   UNL     1      20.371  12.805  12.694  1.00  0.00     0.179 C 
ATOM      7  C   UNL     1      18.934  13.329  12.513  1.00  0.00     0.202 C 
BRANCH   3   8
ATOM      8  C   UNL     1      19.832   9.627  10.499  1.00  0.00     0.191 C 
BRANCH   8   9
ATOM      9  O   UNL     1      20.979   9.955   9.764  1.00  0.00    -0.394 OA
ATOM     10  H   UNL     1      21.495  10.588  10.328  1.00  0.00     0.210 HD
ENDBRANCH   8   9
ENDBRANCH   3   8
BRANCH   4  11
ATOM     11  O   UNL     1      21.929  11.143  11.883  1.00  0.00    -0.387 OA
ATOM     12  H   UNL     1      22.623  11.836  11.733  1.00  0.00     0.211 HD
ENDBRANCH   4  11
BRANCH   6  13
ATOM     13  O   UNL     1      20.509  12.256  13.982  1.00  0.00    -0.387 OA
ATOM     14  H   UNL     1      19.966  11.426  14.005  1.00  0.00     0.211 HD
ENDBRANCH   6  13
BRANCH   7  15
ATOM     15  O   UNL     1      18.857  14.125  11.358  1.00  0.00    -0.385 OA
ATOM     16  H   UNL     1      19.443  13.703  10.676  1.00  0.00     0.211 HD
ENDBRANCH   7  15
ENDBRANCH   1   2
BRANCH   1  17
ATOM     17  C   UNL     1      16.770  11.949  14.461  1.00  0.00     0.224 C 
ATOM     18  C   UNL     1      17.071  11.567  15.920  1.00  0.00     0.208 C 
ATOM     19  O   UNL     1      15.531  11.340  14.118  1.00  0.00    -0.337 OA
ATOM     20  C   UNL     1      16.401  10.226  16.055  1.00  0.00     0.180 C 
ATOM     21  C   UNL     1      15.215  10.365  15.093  1.00  0.00     0.179 C 
BRANCH  17  22
ATOM     22  C   UNL     1      16.640  13.483  14.328  1.00  0.00     0.225 C 
BRANCH  22  23
ATOM     23  O   UNL     1      15.472  13.830  13.633  1.00  0.00    -0.391 OA
ATOM     24  H   UNL     1      14.896  14.323  14.273  1.00  0.00     0.210 HD
ENDBRANCH  22  23
ENDBRANCH  17  22
BRANCH  18  25
ATOM     25  O   UNL     1      18.448  11.534  16.222  1.00  0.00    -0.385 OA
ATOM     26  H   UNL     1      18.961  11.806  15.418  1.00  0.00     0.211 HD
ENDBRANCH  18  25
BRANCH  20  27
ATOM     27  O   UNL     1      16.018   9.988  17.386  1.00  0.00    -0.387 OA
ATOM     28  H   UNL     1      16.539  10.623  17.944  1.00  0.00     0.211 HD
ENDBRANCH  20  27
BRANCH  21  29
ATOM     29  C   UNL     1      13.903  10.765  15.785  1.00  0.00     0.191 C 
BRANCH  29  30
ATOM     30  O   UNL     1      13.213   9.615  16.188  1.00  0.00    -0.394 OA
ATOM     31  H   UNL     1      12.262   9.765  15.946  1.00  0.00     0.210 HD
ENDBRANCH  29  30
ENDBRANCH  21  29
ENDBRANCH   1  17
TORSDOF 13
ENDMDL
MODEL 4
REMARK VINA RESULT:     1.266     14.970     18.907
REMARK INTER + INTRA:           0.980
REMARK INTER:                   1.891
REMARK INTRA:                  -0.911
REMARK UNBOUND:                -0.953
REMARK SMILES OC[C@@H]1O[C@@H](O[C@@]2(CO)O[C@H](CO)[C@H](O)[C@H]2O)[C@H](O)[C@@H](O)[C@H]1O
REMARK SMILES IDX 6 1 5 2 3 3 22 4 4 5 20 6 18 7 2 8 1 9 23 11 21 13 19 15
REMARK SMILES IDX 7 17 16 18 10 19 14 20 11 21 8 22 9 23 17 25 15 27 12 29
REMARK SMILES IDX 13 30
REMARK H PARENT 1 10 23 12 21 14 19 16 9 24 17 26 15 28 13 31
REMARK Flexibility Score: inf
ROOT
ATOM      1  O   UNL     1      13.411  -3.438  21.877  1.00  0.00    -0.313 OA
ENDROOT
BRANCH   1   2
ATOM      2  C   UNL     1      13.372  -4.119  20.629  1.00  0.00     0.285 C 
ATOM      3  C   UNL     1      13.420  -2.107  19.411  1.00  0.00     0.178 C 
ATOM      4  C   UNL     1      11.973  -2.278  18.896  1.00  0.00     0.177 C 
ATOM      5  O   UNL     1      14.033  -3.371  19.617  1.00  0.00    -0.341 OA
ATOM      6  C   UNL     1      11.156  -3.121  19.897  1.00  0.00     0.179 C 
ATOM      7  C   UNL     1      11.913  -4.419  20.236  1.00  0.00     0.202 C 
BRANCH   3   8
ATOM      8  C   UNL     1      14.278  -1.308  18.421  1.00  0.00     0.191 C 
BRANCH   8   9
ATOM      9  O   UNL     1      13.624  -1.194  17.188  1.00  0.00    -0.394 OA
ATOM     10  H   UNL     1      13.800  -0.271  16.868  1.00  0.00     0.210 HD
ENDBRANCH   8   9
ENDBRANCH   3   8
BRANCH   4  11
ATOM     11  O   UNL     1      11.373  -1.021  18.719  1.00  0.00    -0.387 OA
ATOM     12  H   UNL     1      10.823  -0.850  19.527  1.00  0.00     0.211 HD
ENDBRANCH   4  11
BRANCH   6  13
ATOM     13  O   UNL     1      10.923  -2.395  21.079  1.00  0.00    -0.387 OA
ATOM     14  H   UNL     1      10.359  -1.615  20.835  1.00  0.00     0.211 HD
ENDBRANCH   6  13
BRANCH   7  15
ATOM     15  O   UNL     1      11.905  -5.282  19.127  1.00  0.00    -0.385 OA
ATOM     16  H   UNL     1      12.809  -5.691  19.073  1.00  0.00     0.211 HD
ENDBRANCH   7  15
ENDBRANCH   1   2
BRANCH   1  17
ATOM     17  C   UNL     1      13.726  -4.280  22.985  1.00  0.00     0.224 C 
ATOM     18  C   UNL     1      13.203  -3.627  24.275  1.00  0.00     0.208 C 
ATOM     19  O   UNL     1      15.131  -4.433  23.135  1.00  0.00    -0.337 OA
ATOM     20  C   UNL     1      14.381  -2.809  24.732  1.00  0.00     0.180 C 
ATOM     21  C   UNL     1      15.563  -3.646  24.229  1.00  0.00     0.179 C 
BRANCH  17  22
ATOM     22  C   UNL     1      13.079  -5.669  22.791  1.00  0.00     0.225 C 
BRANCH  22  23
ATOM     23  O   UNL     1      11.800  -5.713  23.365  1.00  0.00    -0.391 OA
ATOM     24  H   UNL     1      11.917  -6.033  24.297  1.00  0.00     0.210 HD
ENDBRANCH  22  23
ENDBRANCH  17  22
BRANCH  18  25
ATOM     25  O   UNL     1      12.034  -2.862  24.087  1.00  0.00    -0.385 OA
ATOM     26  H   UNL     1      12.291  -1.926  23.879  1.00  0.00     0.211 HD
ENDBRANCH  18  25
BRANCH  20  27
ATOM     27  O   UNL     1      14.365  -2.642  26.128  1.00  0.00    -0.387 OA
ATOM     28  H   UNL     1      15.238  -2.981  26.459  1.00  0.00     0.211 HD
ENDBRANCH  20  27
BRANCH  21  29
ATOM     29  C   UNL     1      16.162  -4.573  25.299  1.00  0.00     0.191 C 
BRANCH  29  30
ATOM     30  O   UNL     1      16.402  -5.836  24.746  1.00  0.00    -0.394 OA
ATOM     31  H   UNL     1      15.694  -6.433  25.102  1.00  0.00     0.210 HD
ENDBRANCH  29  30
ENDBRANCH  21  29
ENDBRANCH   1  17
TORSDOF 13
ENDMDL
