MODEL 1
REMARK VINA RESULT:    -5.048      0.000      0.000
REMARK INTER + INTRA:          -7.841
REMARK INTER:                  -7.704
REMARK INTRA:                  -0.137
REMARK UNBOUND:                -0.137
REMARK SMILES CC1=CCC[C@@H](C)C(=O)C[C@@H](C(C)C)C(=O)C1
REMARK SMILES IDX 8 1 9 2 6 3 7 4 5 5 4 6 3 7 2 8 1 9 10 11 11 12 15 13 16 14
REMARK SMILES IDX 17 15 12 17 13 18 14 19
REMARK H PARENT
REMARK Flexibility Score: 70.00
ROOT
ATOM      1  C   UNL     1      -8.393  33.669  26.054  1.00  0.00     0.136 C 
ATOM      2  O   UNL     1      -7.955  33.477  27.180  1.00  0.00    -0.299 OA
ENDROOT
BRANCH   1   3
ATOM      3  C   UNL     1      -7.923  34.910  25.311  1.00  0.00     0.053 C 
ATOM      4  C   UNL     1      -8.981  36.024  25.238  1.00  0.00     0.016 C 
BRANCH   3   5
ATOM      5  C   UNL     1      -7.294  34.568  23.942  1.00  0.00     0.015 C 
BRANCH   5   6
ATOM      6  C   UNL     1      -8.186  34.906  22.732  1.00  0.00     0.028 C 
BRANCH   6   7
ATOM      7  C   UNL     1      -8.081  33.887  21.623  1.00  0.00    -0.028 C 
ATOM      8  C   UNL     1      -8.782  32.728  21.553  1.00  0.00    -0.070 CG0
ATOM      9  C   UNL     1      -8.605  31.877  20.320  1.00  0.00     0.039 C 
ATOM     10  G   UNL     1      -9.701  32.230  22.662  1.00  0.00     0.000 G0
ENDBRANCH   6   7
ENDBRANCH   5   6
ENDBRANCH   3   5
ENDBRANCH   1   3
BRANCH   1  11
ATOM     11  C   UNL     1      -9.383  32.666  25.490  1.00  0.00     0.087 C 
BRANCH  11  12
ATOM     12  C   UNL     1      -8.686  31.397  24.934  1.00  0.00     0.066 C 
BRANCH  12  13
ATOM     13  C   UNL     1      -9.118  31.117  23.503  1.00  0.00     0.140 C 
ATOM     14  O   UNL     1      -8.979  30.005  23.017  1.00  0.00    -0.299 OA
BRANCH  13  15
ATOM     15  C   UNL     1      -9.706  32.226  22.666  1.00  0.00     0.106 CG0
ATOM     16  G   UNL     1      -8.772  32.728  21.571  1.00  0.00     0.000 G0
ENDBRANCH  13  15
ENDBRANCH  12  13
BRANCH  12  17
ATOM     17  C   UNL     1      -8.831  30.172  25.894  1.00  0.00    -0.006 C 
ATOM     18  C   UNL     1      -9.849  30.445  27.011  1.00  0.00     0.008 C 
ATOM     19  C   UNL     1      -7.505  29.663  26.488  1.00  0.00     0.008 C 
ENDBRANCH  12  17
ENDBRANCH  11  12
ENDBRANCH   1  11
TORSDOF 1
ENDMDL
MODEL 2
REMARK VINA RESULT:    -4.879      2.046      4.557
REMARK INTER + INTRA:          -7.583
REMARK INTER:                  -7.746
REMARK INTRA:                   0.163
REMARK UNBOUND:                -0.137
REMARK SMILES CC1=CCC[C@@H](C)C(=O)C[C@@H](C(C)C)C(=O)C1
REMARK SMILES IDX 8 1 9 2 6 3 7 4 5 5 4 6 3 7 2 8 1 9 10 11 11 12 15 13 16 14
REMARK SMILES IDX 17 15 12 17 13 18 14 19
REMARK H PARENT
REMARK Flexibility Score: 70.00
ROOT
ATOM      1  C   UNL     1      -8.279  33.576  22.068  1.00  0.00     0.136 C 
ATOM      2  O   UNL     1      -7.965  34.678  21.638  1.00  0.00    -0.299 OA
ENDROOT
BRANCH   1   3
ATOM      3  C   UNL     1      -7.797  32.352  21.304  1.00  0.00     0.053 C 
ATOM      4  C   UNL     1      -7.665  32.581  19.789  1.00  0.00     0.016 C 
BRANCH   3   5
ATOM      5  C   UNL     1      -8.602  31.084  21.667  1.00  0.00     0.015 C 
BRANCH   5   6
ATOM      6  C   UNL     1      -7.842  30.084  22.559  1.00  0.00     0.028 C 
BRANCH   6   7
ATOM      7  C   UNL     1      -8.745  29.356  23.525  1.00  0.00    -0.028 C 
ATOM      8  C   UNL     1      -8.960  29.707  24.817  1.00  0.00    -0.070 CG0
ATOM      9  C   UNL     1      -9.968  28.905  25.602  1.00  0.00     0.039 C 
ATOM     10  G   UNL     1      -8.216  30.837  25.519  1.00  0.00     0.000 G0
ENDBRANCH   6   7
ENDBRANCH   5   6
ENDBRANCH   3   5
ENDBRANCH   1   3
BRANCH   1  11
ATOM     11  C   UNL     1      -9.138  33.513  23.317  1.00  0.00     0.087 C 
BRANCH  11  12
ATOM     12  C   UNL     1      -8.299  33.269  24.598  1.00  0.00     0.066 C 
BRANCH  12  13
ATOM     13  C   UNL     1      -8.909  32.167  25.451  1.00  0.00     0.140 C 
ATOM     14  O   UNL     1      -9.943  32.360  26.072  1.00  0.00    -0.299 OA
BRANCH  13  15
ATOM     15  C   UNL     1      -8.221  30.828  25.550  1.00  0.00     0.106 CG0
ATOM     16  G   UNL     1      -8.952  29.707  24.820  1.00  0.00     0.000 G0
ENDBRANCH  13  15
ENDBRANCH  12  13
BRANCH  12  17
ATOM     17  C   UNL     1      -8.012  34.592  25.380  1.00  0.00    -0.006 C 
ATOM     18  C   UNL     1      -8.016  34.364  26.899  1.00  0.00     0.008 C 
ATOM     19  C   UNL     1      -8.934  35.768  25.011  1.00  0.00     0.008 C 
ENDBRANCH  12  17
ENDBRANCH  11  12
ENDBRANCH   1  11
TORSDOF 1
ENDMDL
MODEL 3
REMARK VINA RESULT:    -4.697      2.043      4.047
REMARK INTER + INTRA:          -7.305
REMARK INTER:                  -7.713
REMARK INTRA:                   0.408
REMARK UNBOUND:                -0.137
REMARK SMILES CC1=CCC[C@@H](C)C(=O)C[C@@H](C(C)C)C(=O)C1
REMARK SMILES IDX 8 1 9 2 6 3 7 4 5 5 4 6 3 7 2 8 1 9 10 11 11 12 15 13 16 14
REMARK SMILES IDX 17 15 12 17 13 18 14 19
REMARK H PARENT
REMARK Flexibility Score: 70.00
ROOT
ATOM      1  C   UNL     1      -9.292  32.694  21.609  1.00  0.00     0.136 C 
ATOM      2  O   UNL     1      -9.458  32.068  20.572  1.00  0.00    -0.299 OA
ENDROOT
BRANCH   1   3
ATOM      3  C   UNL     1      -8.265  33.816  21.607  1.00  0.00     0.053 C 
ATOM      4  C   UNL     1      -7.345  33.808  20.375  1.00  0.00     0.016 C 
BRANCH   3   5
ATOM      5  C   UNL     1      -7.499  33.908  22.947  1.00  0.00     0.015 C 
BRANCH   5   6
ATOM      6  C   UNL     1      -8.326  34.483  24.111  1.00  0.00     0.028 C 
BRANCH   6   7
ATOM      7  C   UNL     1      -7.908  33.934  25.454  1.00  0.00    -0.028 C 
ATOM      8  C   UNL     1      -8.524  32.923  26.116  1.00  0.00    -0.070 CG0
ATOM      9  C   UNL     1      -7.906  32.454  27.409  1.00  0.00     0.039 C 
ATOM     10  G   UNL     1      -9.816  32.267  25.641  1.00  0.00     0.000 G0
ENDBRANCH   6   7
ENDBRANCH   5   6
ENDBRANCH   3   5
ENDBRANCH   1   3
BRANCH   1  11
ATOM     11  C   UNL     1     -10.109  32.294  22.825  1.00  0.00     0.087 C 
BRANCH  11  12
ATOM     12  C   UNL     1      -9.686  30.914  23.392  1.00  0.00     0.066 C 
BRANCH  12  13
ATOM     13  C   UNL     1      -9.596  30.950  24.910  1.00  0.00     0.140 C 
ATOM     14  O   UNL     1      -9.376  29.930  25.545  1.00  0.00    -0.299 OA
BRANCH  13  15
ATOM     15  C   UNL     1      -9.802  32.252  25.643  1.00  0.00     0.106 CG0
ATOM     16  G   UNL     1      -8.505  32.918  26.087  1.00  0.00     0.000 G0
ENDBRANCH  13  15
ENDBRANCH  12  13
BRANCH  12  17
ATOM     17  C   UNL     1      -8.406  30.352  22.693  1.00  0.00    -0.006 C 
ATOM     18  C   UNL     1      -8.591  28.887  22.268  1.00  0.00     0.008 C 
ATOM     19  C   UNL     1      -7.108  30.516  23.503  1.00  0.00     0.008 C 
ENDBRANCH  12  17
ENDBRANCH  11  12
ENDBRANCH   1  11
TORSDOF 1
ENDMDL
MODEL 4
REMARK VINA RESULT:    -4.363      2.194      5.451
REMARK INTER + INTRA:          -6.796
REMARK INTER:                  -7.037
REMARK INTRA:                   0.241
REMARK UNBOUND:                -0.137
REMARK SMILES CC1=CCC[C@@H](C)C(=O)C[C@@H](C(C)C)C(=O)C1
REMARK SMILES IDX 8 1 9 2 6 3 7 4 5 5 4 6 3 7 2 8 1 9 10 11 11 12 15 13 16 14
REMARK SMILES IDX 17 15 12 17 13 18 14 19
REMARK H PARENT
REMARK Flexibility Score: 70.00
ROOT
ATOM      1  C   UNL     1      -9.142  31.935  23.268  1.00  0.00     0.136 C 
ATOM      2  O   UNL     1      -9.792  32.150  22.255  1.00  0.00    -0.299 OA
ENDROOT
BRANCH   1   3
ATOM      3  C   UNL     1      -8.102  30.826  23.224  1.00  0.00     0.053 C 
ATOM      4  C   UNL     1      -7.761  30.355  21.800  1.00  0.00     0.016 C 
BRANCH   3   5
ATOM      5  C   UNL     1      -8.442  29.668  24.190  1.00  0.00     0.015 C 
BRANCH   5   6
ATOM      6  C   UNL     1      -7.657  29.698  25.515  1.00  0.00     0.028 C 
BRANCH   6   7
ATOM      7  C   UNL     1      -8.543  29.914  26.717  1.00  0.00    -0.028 C 
ATOM      8  C   UNL     1      -8.554  31.025  27.495  1.00  0.00    -0.070 CG0
ATOM      9  C   UNL     1      -9.575  31.094  28.604  1.00  0.00     0.039 C 
ATOM     10  G   UNL     1      -7.573  32.180  27.330  1.00  0.00     0.000 G0
ENDBRANCH   6   7
ENDBRANCH   5   6
ENDBRANCH   3   5
ENDBRANCH   1   3
BRANCH   1  11
ATOM     11  C   UNL     1      -9.433  32.777  24.497  1.00  0.00     0.087 C 
BRANCH  11  12
ATOM     12  C   UNL     1      -8.152  33.419  25.089  1.00  0.00     0.066 C 
BRANCH  12  13
ATOM     13  C   UNL     1      -8.175  33.385  26.610  1.00  0.00     0.140 C 
ATOM     14  O   UNL     1      -8.643  34.317  27.247  1.00  0.00    -0.299 OA
BRANCH  13  15
ATOM     15  C   UNL     1      -7.596  32.201  27.343  1.00  0.00     0.106 CG0
ATOM     16  G   UNL     1      -8.566  31.034  27.487  1.00  0.00     0.000 G0
ENDBRANCH  13  15
ENDBRANCH  12  13
BRANCH  12  17
ATOM     17  C   UNL     1      -7.865  34.833  24.489  1.00  0.00    -0.006 C 
ATOM     18  C   UNL     1      -9.006  35.818  24.789  1.00  0.00     0.008 C 
ATOM     19  C   UNL     1      -7.534  34.837  22.986  1.00  0.00     0.008 C 
ENDBRANCH  12  17
ENDBRANCH  11  12
ENDBRANCH   1  11
TORSDOF 1
ENDMDL
MODEL 5
REMARK VINA RESULT:    -4.256      2.094      4.276
REMARK INTER + INTRA:          -6.632
REMARK INTER:                  -6.503
REMARK INTRA:                  -0.129
REMARK UNBOUND:                -0.137
REMARK SMILES CC1=CCC[C@@H](C)C(=O)C[C@@H](C(C)C)C(=O)C1
REMARK SMILES IDX 8 1 9 2 6 3 7 4 5 5 4 6 3 7 2 8 1 9 10 11 11 12 15 13 16 14
REMARK SMILES IDX 17 15 12 17 13 18 14 19
REMARK H PARENT
REMARK Flexibility Score: 70.00
ROOT
ATOM      1  C   UNL     1      -7.743  34.069  24.066  1.00  0.00     0.136 C 
ATOM      2  O   UNL     1      -7.049  34.827  23.403  1.00  0.00    -0.299 OA
ENDROOT
BRANCH   1   3
ATOM      3  C   UNL     1      -8.760  34.684  25.015  1.00  0.00     0.053 C 
ATOM      4  C   UNL     1      -9.345  36.016  24.516  1.00  0.00     0.016 C 
BRANCH   3   5
ATOM      5  C   UNL     1      -8.239  34.747  26.469  1.00  0.00     0.015 C 
BRANCH   5   6
ATOM      6  C   UNL     1      -7.634  33.428  26.983  1.00  0.00     0.028 C 
BRANCH   6   7
ATOM      7  C   UNL     1      -8.674  32.477  27.523  1.00  0.00    -0.028 C 
ATOM      8  C   UNL     1      -8.880  31.208  27.088  1.00  0.00    -0.070 CG0
ATOM      9  C   UNL     1      -9.912  30.379  27.812  1.00  0.00     0.039 C 
ATOM     10  G   UNL     1      -8.156  30.598  25.894  1.00  0.00     0.000 G0
ENDBRANCH   6   7
ENDBRANCH   5   6
ENDBRANCH   3   5
ENDBRANCH   1   3
BRANCH   1  11
ATOM     11  C   UNL     1      -7.524  32.576  23.909  1.00  0.00     0.087 C 
BRANCH  11  12
ATOM     12  C   UNL     1      -8.850  31.807  23.674  1.00  0.00     0.066 C 
BRANCH  12  13
ATOM     13  C   UNL     1      -8.968  30.619  24.617  1.00  0.00     0.140 C 
ATOM     14  O   UNL     1      -9.726  29.695  24.363  1.00  0.00    -0.299 OA
BRANCH  13  15
ATOM     15  C   UNL     1      -8.159  30.588  25.890  1.00  0.00     0.106 CG0
ATOM     16  G   UNL     1      -8.873  31.207  27.086  1.00  0.00     0.000 G0
ENDBRANCH  13  15
ENDBRANCH  12  13
BRANCH  12  17
ATOM     17  C   UNL     1      -9.071  31.448  22.169  1.00  0.00    -0.006 C 
ATOM     18  C   UNL     1      -7.746  31.110  21.468  1.00  0.00     0.008 C 
ATOM     19  C   UNL     1      -9.848  32.506  21.365  1.00  0.00     0.008 C 
ENDBRANCH  12  17
ENDBRANCH  11  12
ENDBRANCH   1  11
TORSDOF 1
ENDMDL
MODEL 6
REMARK VINA RESULT:    -3.714     17.756     19.402
REMARK INTER + INTRA:          -5.806
REMARK INTER:                  -5.717
REMARK INTRA:                  -0.089
REMARK UNBOUND:                -0.137
REMARK SMILES CC1=CCC[C@@H](C)C(=O)C[C@@H](C(C)C)C(=O)C1
REMARK SMILES IDX 8 1 9 2 6 3 7 4 5 5 4 6 3 7 2 8 1 9 10 11 11 12 15 13 16 14
REMARK SMILES IDX 17 15 12 17 13 18 14 19
REMARK H PARENT
REMARK Flexibility Score: 70.00
ROOT
ATOM      1  C   UNL     1       0.640  45.709  14.661  1.00  0.00     0.136 C 
ATOM      2  O   UNL     1       1.177  44.641  14.919  1.00  0.00    -0.299 OA
ENDROOT
BRANCH   1   3
ATOM      3  C   UNL     1       1.362  46.984  15.067  1.00  0.00     0.053 C 
ATOM      4  C   UNL     1       2.690  47.206  14.326  1.00  0.00     0.016 C 
BRANCH   3   5
ATOM      5  C   UNL     1       1.484  47.122  16.603  1.00  0.00     0.015 C 
BRANCH   5   6
ATOM      6  C   UNL     1       0.940  48.448  17.165  1.00  0.00     0.028 C 
BRANCH   6   7
ATOM      7  C   UNL     1      -0.312  48.266  17.989  1.00  0.00    -0.028 C 
ATOM      8  C   UNL     1      -1.578  48.260  17.504  1.00  0.00    -0.070 CG0
ATOM      9  C   UNL     1      -2.698  47.976  18.473  1.00  0.00     0.039 C 
ATOM     10  G   UNL     1      -1.925  48.558  16.050  1.00  0.00     0.000 G0
ENDBRANCH   6   7
ENDBRANCH   5   6
ENDBRANCH   3   5
ENDBRANCH   1   3
BRANCH   1  11
ATOM     11  C   UNL     1      -0.712  45.682  13.972  1.00  0.00     0.087 C 
BRANCH  11  12
ATOM     12  C   UNL     1      -1.386  47.078  13.940  1.00  0.00     0.066 C 
BRANCH  12  13
ATOM     13  C   UNL     1      -2.200  47.322  15.202  1.00  0.00     0.140 C 
ATOM     14  O   UNL     1      -3.075  46.539  15.539  1.00  0.00    -0.299 OA
BRANCH  13  15
ATOM     15  C   UNL     1      -1.941  48.552  16.035  1.00  0.00     0.106 CG0
ATOM     16  G   UNL     1      -1.564  48.246  17.480  1.00  0.00     0.000 G0
ENDBRANCH  13  15
ENDBRANCH  12  13
BRANCH  12  17
ATOM     17  C   UNL     1      -2.178  47.325  12.615  1.00  0.00    -0.006 C 
ATOM     18  C   UNL     1      -2.241  46.058  11.749  1.00  0.00     0.008 C 
ATOM     19  C   UNL     1      -1.678  48.520  11.783  1.00  0.00     0.008 C 
ENDBRANCH  12  17
ENDBRANCH  11  12
ENDBRANCH   1  11
TORSDOF 1
ENDMDL
MODEL 7
REMARK VINA RESULT:    -3.701      1.468      3.712
REMARK INTER + INTRA:          -5.786
REMARK INTER:                  -6.998
REMARK INTRA:                   1.212
REMARK UNBOUND:                -0.137
REMARK SMILES CC1=CCC[C@@H](C)C(=O)C[C@@H](C(C)C)C(=O)C1
REMARK SMILES IDX 8 1 9 2 6 3 7 4 5 5 4 6 3 7 2 8 1 9 10 11 11 12 15 13 16 14
REMARK SMILES IDX 17 15 12 17 13 18 14 19
REMARK H PARENT
REMARK Flexibility Score: 70.00
ROOT
ATOM      1  C   UNL     1      -7.866  31.148  22.262  1.00  0.00     0.136 C 
ATOM      2  O   UNL     1      -7.070  30.832  21.389  1.00  0.00    -0.299 OA
ENDROOT
BRANCH   1   3
ATOM      3  C   UNL     1      -9.184  31.772  21.830  1.00  0.00     0.053 C 
ATOM      4  C   UNL     1      -9.733  31.206  20.510  1.00  0.00     0.016 C 
BRANCH   3   5
ATOM      5  C   UNL     1      -9.137  33.317  21.865  1.00  0.00     0.015 C 
BRANCH   5   6
ATOM      6  C   UNL     1      -7.749  33.901  22.186  1.00  0.00     0.028 C 
BRANCH   6   7
ATOM      7  C   UNL     1      -7.769  34.847  23.363  1.00  0.00    -0.028 C 
ATOM      8  C   UNL     1      -8.447  34.645  24.521  1.00  0.00    -0.070 CG0
ATOM      9  C   UNL     1      -8.275  35.665  25.618  1.00  0.00     0.039 C 
ATOM     10  G   UNL     1      -9.392  33.472  24.752  1.00  0.00     0.000 G0
ENDBRANCH   6   7
ENDBRANCH   5   6
ENDBRANCH   3   5
ENDBRANCH   1   3
BRANCH   1  11
ATOM     11  C   UNL     1      -7.473  30.911  23.708  1.00  0.00     0.087 C 
BRANCH  11  12
ATOM     12  C   UNL     1      -8.692  30.958  24.666  1.00  0.00     0.066 C 
BRANCH  12  13
ATOM     13  C   UNL     1      -8.747  32.279  25.418  1.00  0.00     0.140 C 
ATOM     14  O   UNL     1      -8.275  32.377  26.541  1.00  0.00    -0.299 OA
BRANCH  13  15
ATOM     15  C   UNL     1      -9.410  33.477  24.784  1.00  0.00     0.106 CG0
ATOM     16  G   UNL     1      -8.459  34.641  24.530  1.00  0.00     0.000 G0
ENDBRANCH  13  15
ENDBRANCH  12  13
BRANCH  12  17
ATOM     17  C   UNL     1      -8.772  29.698  25.587  1.00  0.00    -0.006 C 
ATOM     18  C   UNL     1     -10.059  29.692  26.427  1.00  0.00     0.008 C 
ATOM     19  C   UNL     1      -7.543  29.483  26.488  1.00  0.00     0.008 C 
ENDBRANCH  12  17
ENDBRANCH  11  12
ENDBRANCH   1  11
TORSDOF 1
ENDMDL
MODEL 8
REMARK VINA RESULT:    -3.655     17.431     18.973
REMARK INTER + INTRA:          -5.716
REMARK INTER:                  -5.617
REMARK INTRA:                  -0.099
REMARK UNBOUND:                -0.137
REMARK SMILES CC1=CCC[C@@H](C)C(=O)C[C@@H](C(C)C)C(=O)C1
REMARK SMILES IDX 8 1 9 2 6 3 7 4 5 5 4 6 3 7 2 8 1 9 10 11 11 12 15 13 16 14
REMARK SMILES IDX 17 15 12 17 13 18 14 19
REMARK H PARENT
REMARK Flexibility Score: 70.00
ROOT
ATOM      1  C   UNL     1       2.034  48.018  16.703  1.00  0.00     0.136 C 
ATOM      2  O   UNL     1       2.203  48.922  15.897  1.00  0.00    -0.299 OA
ENDROOT
BRANCH   1   3
ATOM      3  C   UNL     1       2.551  46.635  16.339  1.00  0.00     0.053 C 
ATOM      4  C   UNL     1       4.078  46.495  16.454  1.00  0.00     0.016 C 
BRANCH   3   5
ATOM      5  C   UNL     1       1.988  46.139  14.987  1.00  0.00     0.015 C 
BRANCH   5   6
ATOM      6  C   UNL     1       0.561  45.564  15.067  1.00  0.00     0.028 C 
BRANCH   6   7
ATOM      7  C   UNL     1      -0.456  46.418  14.351  1.00  0.00    -0.028 C 
ATOM      8  C   UNL     1      -1.480  47.083  14.943  1.00  0.00    -0.070 CG0
ATOM      9  C   UNL     1      -2.344  47.958  14.069  1.00  0.00     0.039 C 
ATOM     10  G   UNL     1      -1.820  46.962  16.423  1.00  0.00     0.000 G0
ENDBRANCH   6   7
ENDBRANCH   5   6
ENDBRANCH   3   5
ENDBRANCH   1   3
BRANCH   1  11
ATOM     11  C   UNL     1       1.307  48.339  17.996  1.00  0.00     0.087 C 
BRANCH  11  12
ATOM     12  C   UNL     1       0.039  47.468  18.192  1.00  0.00     0.066 C 
BRANCH  12  13
ATOM     13  C   UNL     1      -1.099  47.950  17.304  1.00  0.00     0.140 C 
ATOM     14  O   UNL     1      -1.437  49.124  17.309  1.00  0.00    -0.299 OA
BRANCH  13  15
ATOM     15  C   UNL     1      -1.832  46.969  16.424  1.00  0.00     0.106 CG0
ATOM     16  G   UNL     1      -1.487  47.094  14.945  1.00  0.00     0.000 G0
ENDBRANCH  13  15
ENDBRANCH  12  13
BRANCH  12  17
ATOM     17  C   UNL     1      -0.350  47.315  19.697  1.00  0.00    -0.006 C 
ATOM     18  C   UNL     1      -1.869  47.428  19.904  1.00  0.00     0.008 C 
ATOM     19  C   UNL     1       0.393  48.267  20.652  1.00  0.00     0.008 C 
ENDBRANCH  12  17
ENDBRANCH  11  12
ENDBRANCH   1  11
TORSDOF 1
ENDMDL
MODEL 9
REMARK VINA RESULT:    -3.609     17.492     19.243
REMARK INTER + INTRA:          -5.644
REMARK INTER:                  -5.811
REMARK INTRA:                   0.167
REMARK UNBOUND:                -0.137
REMARK SMILES CC1=CCC[C@@H](C)C(=O)C[C@@H](C(C)C)C(=O)C1
REMARK SMILES IDX 8 1 9 2 6 3 7 4 5 5 4 6 3 7 2 8 1 9 10 11 11 12 15 13 16 14
REMARK SMILES IDX 17 15 12 17 13 18 14 19
REMARK H PARENT
REMARK Flexibility Score: 70.00
ROOT
ATOM      1  C   UNL     1       0.092  45.805  14.519  1.00  0.00     0.136 C 
ATOM      2  O   UNL     1       0.689  44.769  14.777  1.00  0.00    -0.299 OA
ENDROOT
BRANCH   1   3
ATOM      3  C   UNL     1      -1.264  45.694  13.840  1.00  0.00     0.053 C 
ATOM      4  C   UNL     1      -1.435  46.643  12.642  1.00  0.00     0.016 C 
BRANCH   3   5
ATOM      5  C   UNL     1      -2.431  45.763  14.852  1.00  0.00     0.015 C 
BRANCH   5   6
ATOM      6  C   UNL     1      -2.694  47.171  15.420  1.00  0.00     0.028 C 
BRANCH   6   7
ATOM      7  C   UNL     1      -2.692  47.203  16.929  1.00  0.00    -0.028 C 
ATOM      8  C   UNL     1      -1.733  47.771  17.702  1.00  0.00    -0.070 CG0
ATOM      9  C   UNL     1      -1.950  47.780  19.194  1.00  0.00     0.039 C 
ATOM     10  G   UNL     1      -0.443  48.363  17.146  1.00  0.00     0.000 G0
ENDBRANCH   6   7
ENDBRANCH   5   6
ENDBRANCH   3   5
ENDBRANCH   1   3
BRANCH   1  11
ATOM     11  C   UNL     1       0.756  47.121  14.879  1.00  0.00     0.087 C 
BRANCH  11  12
ATOM     12  C   UNL     1       1.585  47.027  16.186  1.00  0.00     0.066 C 
BRANCH  12  13
ATOM     13  C   UNL     1       0.800  47.567  17.372  1.00  0.00     0.140 C 
ATOM     14  O   UNL     1       1.155  47.324  18.516  1.00  0.00    -0.299 OA
BRANCH  13  15
ATOM     15  C   UNL     1      -0.441  48.391  17.138  1.00  0.00     0.106 CG0
ATOM     16  G   UNL     1      -1.711  47.760  17.697  1.00  0.00     0.000 G0
ENDBRANCH  13  15
ENDBRANCH  12  13
BRANCH  12  17
ATOM     17  C   UNL     1       3.011  47.647  16.032  1.00  0.00    -0.006 C 
ATOM     18  C   UNL     1       4.098  46.711  16.580  1.00  0.00     0.008 C 
ATOM     19  C   UNL     1       3.165  49.057  16.629  1.00  0.00     0.008 C 
ENDBRANCH  12  17
ENDBRANCH  11  12
ENDBRANCH   1  11
TORSDOF 1
ENDMDL
