MODEL 1
REMARK VINA RESULT:    -3.457      0.000      0.000
REMARK INTER + INTRA:         -13.719
REMARK INTER:                  -8.712
REMARK INTRA:                  -5.007
REMARK UNBOUND:                -5.007
REMARK SMILES CCCCCCCCCCCCCCCCCCCCCCCCCCCC(=O)[O-]
REMARK SMILES IDX 15 1 16 2 17 3 18 4 19 5 20 6 21 7 22 8 23 9 24 10 25 11
REMARK SMILES IDX 26 12 27 13 28 14 29 15 30 16 14 17 13 18 12 19 11 20 10 21
REMARK SMILES IDX 9 22 8 23 7 24 6 25 5 26 4 27 3 28 2 29 1 30
REMARK H PARENT
REMARK Flexibility Score: inf
ROOT
ATOM      1  C   UNL     1      29.973  -1.601 -36.089  1.00  0.00     0.000 C 
ENDROOT
BRANCH   1   2
ATOM      2  C   UNL     1      30.257  -2.795 -35.162  1.00  0.00     0.000 C 
BRANCH   2   3
ATOM      3  C   UNL     1      30.923  -3.973 -35.893  1.00  0.00     0.000 C 
BRANCH   3   4
ATOM      4  C   UNL     1      30.999  -3.789 -37.423  1.00  0.00     0.000 C 
BRANCH   4   5
ATOM      5  C   UNL     1      30.149  -4.828 -38.175  1.00  0.00     0.000 C 
BRANCH   5   6
ATOM      6  C   UNL     1      28.668  -4.423 -38.279  1.00  0.00     0.000 C 
BRANCH   6   7
ATOM      7  C   UNL     1      27.764  -5.248 -37.345  1.00  0.00     0.000 C 
BRANCH   7   8
ATOM      8  C   UNL     1      26.569  -4.442 -36.807  1.00  0.00     0.000 C 
BRANCH   8   9
ATOM      9  C   UNL     1      26.731  -3.915 -35.368  1.00  0.00     0.000 C 
BRANCH   9  10
ATOM     10  C   UNL     1      25.792  -4.590 -34.344  1.00  0.00     0.000 C 
BRANCH  10  11
ATOM     11  C   UNL     1      24.444  -3.858 -34.215  1.00  0.00     0.000 C 
BRANCH  11  12
ATOM     12  C   UNL     1      23.682  -4.250 -32.937  1.00  0.00     0.006 C 
BRANCH  12  13
ATOM     13  C   UNL     1      24.564  -4.180 -31.681  1.00  0.00     0.053 C 
BRANCH  13  14
ATOM     14  C   UNL     1      23.978  -4.992 -30.569  1.00  0.00     0.041 C 
ATOM     15  O   UNL     1      23.775  -6.226 -30.722  1.00  0.00    -0.550 OA
ATOM     16  O   UNL     1      23.672  -4.390 -29.352  1.00  0.00    -0.550 OA
ENDBRANCH  13  14
ENDBRANCH  12  13
ENDBRANCH  11  12
ENDBRANCH  10  11
ENDBRANCH   9  10
ENDBRANCH   8   9
ENDBRANCH   7   8
ENDBRANCH   6   7
ENDBRANCH   5   6
ENDBRANCH   4   5
ENDBRANCH   3   4
ENDBRANCH   2   3
ENDBRANCH   1   2
BRANCH   1  17
ATOM     17  C   UNL     1      28.935  -0.631 -35.501  1.00  0.00     0.000 C 
BRANCH  17  18
ATOM     18  C   UNL     1      27.956  -0.099 -36.564  1.00  0.00     0.000 C 
BRANCH  18  19
ATOM     19  C   UNL     1      27.949  -0.953 -37.842  1.00  0.00     0.000 C 
BRANCH  19  20
ATOM     20  C   UNL     1      28.288  -0.135 -39.099  1.00  0.00     0.000 C 
BRANCH  20  21
ATOM     21  C   UNL     1      29.779  -0.201 -39.476  1.00  0.00     0.000 C 
BRANCH  21  22
ATOM     22  C   UNL     1      30.607   1.040 -39.094  1.00  0.00    -0.000 C 
BRANCH  22  23
ATOM     23  C   UNL     1      31.771   0.711 -38.143  1.00  0.00    -0.000 C 
BRANCH  23  24
ATOM     24  C   UNL     1      32.570  -0.532 -38.577  1.00  0.00    -0.000 C 
BRANCH  24  25
ATOM     25  C   UNL     1      33.453  -1.168 -37.483  1.00  0.00    -0.000 C 
BRANCH  25  26
ATOM     26  C   UNL     1      33.781  -0.251 -36.292  1.00  0.00    -0.000 C 
BRANCH  26  27
ATOM     27  C   UNL     1      33.381  -0.866 -34.941  1.00  0.00    -0.000 C 
BRANCH  27  28
ATOM     28  C   UNL     1      32.612   0.126 -34.053  1.00  0.00    -0.000 C 
BRANCH  28  29
ATOM     29  C   UNL     1      32.750   1.575 -34.541  1.00  0.00    -0.003 C 
ATOM     30  C   UNL     1      31.381   2.209 -34.777  1.00  0.00     0.004 C 
ENDBRANCH  28  29
ENDBRANCH  27  28
ENDBRANCH  26  27
ENDBRANCH  25  26
ENDBRANCH  24  25
ENDBRANCH  23  24
ENDBRANCH  22  23
ENDBRANCH  21  22
ENDBRANCH  20  21
ENDBRANCH  19  20
ENDBRANCH  18  19
ENDBRANCH  17  18
ENDBRANCH   1  17
TORSDOF 26
ENDMDL
MODEL 2
REMARK VINA RESULT:    -3.360      2.371      2.924
REMARK INTER + INTRA:         -13.474
REMARK INTER:                  -7.708
REMARK INTRA:                  -5.767
REMARK UNBOUND:                -5.007
REMARK SMILES CCCCCCCCCCCCCCCCCCCCCCCCCCCC(=O)[O-]
REMARK SMILES IDX 15 1 16 2 17 3 18 4 19 5 20 6 21 7 22 8 23 9 24 10 25 11
REMARK SMILES IDX 26 12 27 13 28 14 29 15 30 16 14 17 13 18 12 19 11 20 10 21
REMARK SMILES IDX 9 22 8 23 7 24 6 25 5 26 4 27 3 28 2 29 1 30
REMARK H PARENT
REMARK Flexibility Score: inf
ROOT
ATOM      1  C   UNL     1      30.039  -0.770 -35.703  1.00  0.00     0.000 C 
ENDROOT
BRANCH   1   2
ATOM      2  C   UNL     1      29.903  -1.861 -34.628  1.00  0.00     0.000 C 
BRANCH   2   3
ATOM      3  C   UNL     1      30.035  -3.283 -35.201  1.00  0.00     0.000 C 
BRANCH   3   4
ATOM      4  C   UNL     1      30.460  -3.316 -36.683  1.00  0.00     0.000 C 
BRANCH   4   5
ATOM      5  C   UNL     1      29.606  -4.292 -37.510  1.00  0.00     0.000 C 
BRANCH   5   6
ATOM      6  C   UNL     1      28.106  -3.949 -37.474  1.00  0.00     0.000 C 
BRANCH   6   7
ATOM      7  C   UNL     1      27.231  -5.163 -37.116  1.00  0.00     0.000 C 
BRANCH   7   8
ATOM      8  C   UNL     1      26.086  -4.809 -36.151  1.00  0.00     0.000 C 
BRANCH   8   9
ATOM      9  C   UNL     1      26.528  -4.395 -34.734  1.00  0.00     0.000 C 
BRANCH   9  10
ATOM     10  C   UNL     1      25.799  -3.149 -34.187  1.00  0.00     0.000 C 
BRANCH  10  11
ATOM     11  C   UNL     1      26.261  -1.851 -34.873  1.00  0.00     0.000 C 
BRANCH  11  12
ATOM     12  C   UNL     1      25.083  -1.015 -35.404  1.00  0.00     0.006 C 
BRANCH  12  13
ATOM     13  C   UNL     1      24.676  -1.412 -36.831  1.00  0.00     0.053 C 
BRANCH  13  14
ATOM     14  C   UNL     1      23.296  -1.989 -36.852  1.00  0.00     0.041 C 
ATOM     15  O   UNL     1      23.129  -3.233 -36.971  1.00  0.00    -0.550 OA
ATOM     16  O   UNL     1      22.188  -1.155 -36.723  1.00  0.00    -0.550 OA
ENDBRANCH  13  14
ENDBRANCH  12  13
ENDBRANCH  11  12
ENDBRANCH  10  11
ENDBRANCH   9  10
ENDBRANCH   8   9
ENDBRANCH   7   8
ENDBRANCH   6   7
ENDBRANCH   5   6
ENDBRANCH   4   5
ENDBRANCH   3   4
ENDBRANCH   2   3
ENDBRANCH   1   2
BRANCH   1  17
ATOM     17  C   UNL     1      29.170   0.463 -35.406  1.00  0.00     0.000 C 
BRANCH  17  18
ATOM     18  C   UNL     1      28.220   0.809 -36.568  1.00  0.00     0.000 C 
BRANCH  18  19
ATOM     19  C   UNL     1      28.111  -0.326 -37.600  1.00  0.00     0.000 C 
BRANCH  19  20
ATOM     20  C   UNL     1      28.313   0.169 -39.042  1.00  0.00     0.000 C 
BRANCH  20  21
ATOM     21  C   UNL     1      29.766   0.023 -39.529  1.00  0.00     0.000 C 
BRANCH  21  22
ATOM     22  C   UNL     1      30.679   1.229 -39.236  1.00  0.00    -0.000 C 
BRANCH  22  23
ATOM     23  C   UNL     1      31.899   0.858 -38.375  1.00  0.00    -0.000 C 
BRANCH  23  24
ATOM     24  C   UNL     1      32.417  -0.567 -38.648  1.00  0.00    -0.000 C 
BRANCH  24  25
ATOM     25  C   UNL     1      33.276  -1.186 -37.525  1.00  0.00    -0.000 C 
BRANCH  25  26
ATOM     26  C   UNL     1      33.985  -0.173 -36.610  1.00  0.00    -0.000 C 
BRANCH  26  27
ATOM     27  C   UNL     1      33.529  -0.275 -35.145  1.00  0.00    -0.000 C 
BRANCH  27  28
ATOM     28  C   UNL     1      33.127   1.090 -34.563  1.00  0.00    -0.000 C 
BRANCH  28  29
ATOM     29  C   UNL     1      32.305   0.956 -33.273  1.00  0.00    -0.003 C 
ATOM     30  C   UNL     1      32.744  -0.262 -32.464  1.00  0.00     0.004 C 
ENDBRANCH  28  29
ENDBRANCH  27  28
ENDBRANCH  26  27
ENDBRANCH  25  26
ENDBRANCH  24  25
ENDBRANCH  23  24
ENDBRANCH  22  23
ENDBRANCH  21  22
ENDBRANCH  20  21
ENDBRANCH  19  20
ENDBRANCH  18  19
ENDBRANCH  17  18
ENDBRANCH   1  17
TORSDOF 26
ENDMDL
MODEL 3
REMARK VINA RESULT:    -3.281      1.094      3.372
REMARK INTER + INTRA:         -13.275
REMARK INTER:                  -8.263
REMARK INTRA:                  -5.011
REMARK UNBOUND:                -5.007
REMARK SMILES CCCCCCCCCCCCCCCCCCCCCCCCCCCC(=O)[O-]
REMARK SMILES IDX 15 1 16 2 17 3 18 4 19 5 20 6 21 7 22 8 23 9 24 10 25 11
REMARK SMILES IDX 26 12 27 13 28 14 29 15 30 16 14 17 13 18 12 19 11 20 10 21
REMARK SMILES IDX 9 22 8 23 7 24 6 25 5 26 4 27 3 28 2 29 1 30
REMARK H PARENT
REMARK Flexibility Score: inf
ROOT
ATOM      1  C   UNL     1      30.329  -2.310 -35.071  1.00  0.00     0.000 C 
ENDROOT
BRANCH   1   2
ATOM      2  C   UNL     1      30.957  -3.632 -35.543  1.00  0.00     0.000 C 
BRANCH   2   3
ATOM      3  C   UNL     1      30.685  -3.926 -37.028  1.00  0.00     0.000 C 
BRANCH   3   4
ATOM      4  C   UNL     1      29.892  -2.812 -37.744  1.00  0.00     0.000 C 
BRANCH   4   5
ATOM      5  C   UNL     1      28.555  -3.324 -38.308  1.00  0.00     0.000 C 
BRANCH   5   6
ATOM      6  C   UNL     1      28.170  -4.711 -37.763  1.00  0.00     0.000 C 
BRANCH   6   7
ATOM      7  C   UNL     1      26.919  -4.667 -36.869  1.00  0.00     0.000 C 
BRANCH   7   8
ATOM      8  C   UNL     1      27.199  -4.067 -35.480  1.00  0.00     0.000 C 
BRANCH   8   9
ATOM      9  C   UNL     1      26.368  -2.817 -35.127  1.00  0.00     0.000 C 
BRANCH   9  10
ATOM     10  C   UNL     1      24.842  -3.030 -35.228  1.00  0.00     0.000 C 
BRANCH  10  11
ATOM     11  C   UNL     1      24.147  -2.943 -33.857  1.00  0.00     0.000 C 
BRANCH  11  12
ATOM     12  C   UNL     1      23.687  -4.319 -33.343  1.00  0.00     0.006 C 
BRANCH  12  13
ATOM     13  C   UNL     1      24.832  -5.122 -32.708  1.00  0.00     0.053 C 
BRANCH  13  14
ATOM     14  C   UNL     1      24.660  -5.218 -31.224  1.00  0.00     0.041 C 
ATOM     15  O   UNL     1      23.779  -5.975 -30.734  1.00  0.00    -0.550 OA
ATOM     16  O   UNL     1      25.486  -4.485 -30.377  1.00  0.00    -0.550 OA
ENDBRANCH  13  14
ENDBRANCH  12  13
ENDBRANCH  11  12
ENDBRANCH  10  11
ENDBRANCH   9  10
ENDBRANCH   8   9
ENDBRANCH   7   8
ENDBRANCH   6   7
ENDBRANCH   5   6
ENDBRANCH   4   5
ENDBRANCH   3   4
ENDBRANCH   2   3
ENDBRANCH   1   2
BRANCH   1  17
ATOM     17  C   UNL     1      31.188  -1.593 -34.017  1.00  0.00     0.000 C 
BRANCH  17  18
ATOM     18  C   UNL     1      31.947  -0.385 -34.597  1.00  0.00     0.000 C 
BRANCH  18  19
ATOM     19  C   UNL     1      33.425  -0.698 -34.884  1.00  0.00     0.000 C 
BRANCH  19  20
ATOM     20  C   UNL     1      33.870  -0.214 -36.275  1.00  0.00     0.000 C 
BRANCH  20  21
ATOM     21  C   UNL     1      33.348  -1.105 -37.416  1.00  0.00     0.000 C 
BRANCH  21  22
ATOM     22  C   UNL     1      32.629  -0.358 -38.555  1.00  0.00    -0.000 C 
BRANCH  22  23
ATOM     23  C   UNL     1      31.589   0.654 -38.042  1.00  0.00    -0.000 C 
BRANCH  23  24
ATOM     24  C   UNL     1      30.700   1.223 -39.163  1.00  0.00    -0.000 C 
BRANCH  24  25
ATOM     25  C   UNL     1      29.550   0.305 -39.628  1.00  0.00    -0.000 C 
BRANCH  25  26
ATOM     26  C   UNL     1      28.141   0.914 -39.515  1.00  0.00    -0.000 C 
BRANCH  26  27
ATOM     27  C   UNL     1      27.783   1.321 -38.076  1.00  0.00    -0.000 C 
BRANCH  27  28
ATOM     28  C   UNL     1      27.868   0.139 -37.097  1.00  0.00    -0.000 C 
BRANCH  28  29
ATOM     29  C   UNL     1      27.998   0.598 -35.638  1.00  0.00    -0.003 C 
ATOM     30  C   UNL     1      29.059   1.685 -35.495  1.00  0.00     0.004 C 
ENDBRANCH  28  29
ENDBRANCH  27  28
ENDBRANCH  26  27
ENDBRANCH  25  26
ENDBRANCH  24  25
ENDBRANCH  23  24
ENDBRANCH  22  23
ENDBRANCH  21  22
ENDBRANCH  20  21
ENDBRANCH  19  20
ENDBRANCH  18  19
ENDBRANCH  17  18
ENDBRANCH   1  17
TORSDOF 26
ENDMDL
MODEL 4
REMARK VINA RESULT:    -3.262      1.595      4.061
REMARK INTER + INTRA:         -13.227
REMARK INTER:                  -7.713
REMARK INTRA:                  -5.513
REMARK UNBOUND:                -5.007
REMARK SMILES CCCCCCCCCCCCCCCCCCCCCCCCCCCC(=O)[O-]
REMARK SMILES IDX 15 1 16 2 17 3 18 4 19 5 20 6 21 7 22 8 23 9 24 10 25 11
REMARK SMILES IDX 26 12 27 13 28 14 29 15 30 16 14 17 13 18 12 19 11 20 10 21
REMARK SMILES IDX 9 22 8 23 7 24 6 25 5 26 4 27 3 28 2 29 1 30
REMARK H PARENT
REMARK Flexibility Score: inf
ROOT
ATOM      1  C   UNL     1      28.963   2.681 -36.446  1.00  0.00     0.000 C 
ENDROOT
BRANCH   1   2
ATOM      2  C   UNL     1      29.682   2.479 -35.102  1.00  0.00     0.000 C 
BRANCH   2   3
ATOM      3  C   UNL     1      30.844   1.474 -35.192  1.00  0.00     0.000 C 
BRANCH   3   4
ATOM      4  C   UNL     1      30.483   0.064 -34.681  1.00  0.00     0.000 C 
BRANCH   4   5
ATOM      5  C   UNL     1      30.109  -0.891 -35.828  1.00  0.00     0.000 C 
BRANCH   5   6
ATOM      6  C   UNL     1      29.369  -2.148 -35.339  1.00  0.00     0.000 C 
BRANCH   6   7
ATOM      7  C   UNL     1      28.225  -1.817 -34.364  1.00  0.00     0.000 C 
BRANCH   7   8
ATOM      8  C   UNL     1      26.956  -1.324 -35.081  1.00  0.00     0.000 C 
BRANCH   8   9
ATOM      9  C   UNL     1      26.629  -2.046 -36.403  1.00  0.00     0.000 C 
BRANCH   9  10
ATOM     10  C   UNL     1      25.685  -3.256 -36.241  1.00  0.00     0.000 C 
BRANCH  10  11
ATOM     11  C   UNL     1      26.451  -4.586 -36.119  1.00  0.00     0.000 C 
BRANCH  11  12
ATOM     12  C   UNL     1      25.996  -5.419 -34.908  1.00  0.00     0.006 C 
BRANCH  12  13
ATOM     13  C   UNL     1      25.954  -4.597 -33.611  1.00  0.00     0.053 C 
BRANCH  13  14
ATOM     14  C   UNL     1      24.633  -4.748 -32.924  1.00  0.00     0.041 C 
ATOM     15  O   UNL     1      24.530  -5.466 -31.894  1.00  0.00    -0.550 OA
ATOM     16  O   UNL     1      23.513  -4.079 -33.412  1.00  0.00    -0.550 OA
ENDBRANCH  13  14
ENDBRANCH  12  13
ENDBRANCH  11  12
ENDBRANCH  10  11
ENDBRANCH   9  10
ENDBRANCH   8   9
ENDBRANCH   7   8
ENDBRANCH   6   7
ENDBRANCH   5   6
ENDBRANCH   4   5
ENDBRANCH   3   4
ENDBRANCH   2   3
ENDBRANCH   1   2
BRANCH   1  17
ATOM     17  C   UNL     1      27.660   1.870 -36.546  1.00  0.00     0.000 C 
BRANCH  17  18
ATOM     18  C   UNL     1      27.286   1.531 -38.001  1.00  0.00     0.000 C 
BRANCH  18  19
ATOM     19  C   UNL     1      28.137   0.388 -38.579  1.00  0.00     0.000 C 
BRANCH  19  20
ATOM     20  C   UNL     1      29.173   0.885 -39.602  1.00  0.00     0.000 C 
BRANCH  20  21
ATOM     21  C   UNL     1      30.554   0.229 -39.425  1.00  0.00     0.000 C 
BRANCH  21  22
ATOM     22  C   UNL     1      31.608   1.100 -38.716  1.00  0.00    -0.000 C 
BRANCH  22  23
ATOM     23  C   UNL     1      32.757   0.273 -38.112  1.00  0.00    -0.000 C 
BRANCH  23  24
ATOM     24  C   UNL     1      32.921  -1.106 -38.778  1.00  0.00    -0.000 C 
BRANCH  24  25
ATOM     25  C   UNL     1      32.915  -2.312 -37.815  1.00  0.00    -0.000 C 
BRANCH  25  26
ATOM     26  C   UNL     1      32.049  -3.502 -38.263  1.00  0.00    -0.000 C 
BRANCH  26  27
ATOM     27  C   UNL     1      30.899  -3.083 -39.193  1.00  0.00    -0.000 C 
BRANCH  27  28
ATOM     28  C   UNL     1      29.538  -3.618 -38.718  1.00  0.00    -0.000 C 
BRANCH  28  29
ATOM     29  C   UNL     1      29.678  -4.871 -37.841  1.00  0.00    -0.003 C 
ATOM     30  C   UNL     1      28.956  -6.063 -38.463  1.00  0.00     0.004 C 
ENDBRANCH  28  29
ENDBRANCH  27  28
ENDBRANCH  26  27
ENDBRANCH  25  26
ENDBRANCH  24  25
ENDBRANCH  23  24
ENDBRANCH  22  23
ENDBRANCH  21  22
ENDBRANCH  20  21
ENDBRANCH  19  20
ENDBRANCH  18  19
ENDBRANCH  17  18
ENDBRANCH   1  17
TORSDOF 26
ENDMDL
MODEL 5
REMARK VINA RESULT:    -3.253      5.365      8.550
REMARK INTER + INTRA:         -13.205
REMARK INTER:                  -8.339
REMARK INTRA:                  -4.866
REMARK UNBOUND:                -5.007
REMARK SMILES CCCCCCCCCCCCCCCCCCCCCCCCCCCC(=O)[O-]
REMARK SMILES IDX 15 1 16 2 17 3 18 4 19 5 20 6 21 7 22 8 23 9 24 10 25 11
REMARK SMILES IDX 26 12 27 13 28 14 29 15 30 16 14 17 13 18 12 19 11 20 10 21
REMARK SMILES IDX 9 22 8 23 7 24 6 25 5 26 4 27 3 28 2 29 1 30
REMARK H PARENT
REMARK Flexibility Score: inf
ROOT
ATOM      1  C   UNL     1      30.776   3.792 -33.748  1.00  0.00     0.000 C 
ENDROOT
BRANCH   1   2
ATOM      2  C   UNL     1      31.009   2.774 -34.878  1.00  0.00     0.000 C 
BRANCH   2   3
ATOM      3  C   UNL     1      30.134   1.516 -34.738  1.00  0.00     0.000 C 
BRANCH   3   4
ATOM      4  C   UNL     1      30.850   0.215 -35.155  1.00  0.00     0.000 C 
BRANCH   4   5
ATOM      5  C   UNL     1      32.377   0.391 -35.225  1.00  0.00     0.000 C 
BRANCH   5   6
ATOM      6  C   UNL     1      33.080  -0.787 -35.924  1.00  0.00     0.000 C 
BRANCH   6   7
ATOM      7  C   UNL     1      33.983  -0.329 -37.084  1.00  0.00     0.000 C 
BRANCH   7   8
ATOM      8  C   UNL     1      33.352  -0.578 -38.465  1.00  0.00     0.000 C 
BRANCH   8   9
ATOM      9  C   UNL     1      31.993  -1.303 -38.441  1.00  0.00     0.000 C 
BRANCH   9  10
ATOM     10  C   UNL     1      30.810  -0.434 -38.921  1.00  0.00     0.000 C 
BRANCH  10  11
ATOM     11  C   UNL     1      31.136   1.070 -38.888  1.00  0.00     0.000 C 
BRANCH  11  12
ATOM     12  C   UNL     1      29.913   1.945 -39.212  1.00  0.00     0.006 C 
BRANCH  12  13
ATOM     13  C   UNL     1      28.800   1.810 -38.163  1.00  0.00     0.053 C 
BRANCH  13  14
ATOM     14  C   UNL     1      28.111   3.120 -37.942  1.00  0.00     0.041 C 
ATOM     15  O   UNL     1      28.579   3.955 -37.122  1.00  0.00    -0.550 OA
ATOM     16  O   UNL     1      26.957   3.431 -38.657  1.00  0.00    -0.550 OA
ENDBRANCH  13  14
ENDBRANCH  12  13
ENDBRANCH  11  12
ENDBRANCH  10  11
ENDBRANCH   9  10
ENDBRANCH   8   9
ENDBRANCH   7   8
ENDBRANCH   6   7
ENDBRANCH   5   6
ENDBRANCH   4   5
ENDBRANCH   3   4
ENDBRANCH   2   3
ENDBRANCH   1   2
BRANCH   1  17
ATOM     17  C   UNL     1      32.090   4.311 -33.143  1.00  0.00     0.000 C 
BRANCH  17  18
ATOM     18  C   UNL     1      33.323   3.550 -33.666  1.00  0.00     0.000 C 
BRANCH  18  19
ATOM     19  C   UNL     1      34.628   4.007 -32.994  1.00  0.00     0.000 C 
BRANCH  19  20
ATOM     20  C   UNL     1      34.949   5.485 -33.273  1.00  0.00     0.000 C 
BRANCH  20  21
ATOM     21  C   UNL     1      35.688   6.169 -32.109  1.00  0.00     0.000 C 
BRANCH  21  22
ATOM     22  C   UNL     1      34.940   7.350 -31.461  1.00  0.00    -0.000 C 
BRANCH  22  23
ATOM     23  C   UNL     1      33.656   6.915 -30.733  1.00  0.00    -0.000 C 
BRANCH  23  24
ATOM     24  C   UNL     1      33.921   5.911 -29.595  1.00  0.00    -0.000 C 
BRANCH  24  25
ATOM     25  C   UNL     1      33.089   4.613 -29.651  1.00  0.00    -0.000 C 
BRANCH  25  26
ATOM     26  C   UNL     1      33.895   3.312 -29.491  1.00  0.00    -0.000 C 
BRANCH  26  27
ATOM     27  C   UNL     1      33.011   2.055 -29.541  1.00  0.00    -0.000 C 
BRANCH  27  28
ATOM     28  C   UNL     1      33.107   1.327 -30.891  1.00  0.00    -0.000 C 
BRANCH  28  29
ATOM     29  C   UNL     1      31.730   0.919 -31.434  1.00  0.00    -0.003 C 
ATOM     30  C   UNL     1      31.652  -0.588 -31.662  1.00  0.00     0.004 C 
ENDBRANCH  28  29
ENDBRANCH  27  28
ENDBRANCH  26  27
ENDBRANCH  25  26
ENDBRANCH  24  25
ENDBRANCH  23  24
ENDBRANCH  22  23
ENDBRANCH  21  22
ENDBRANCH  20  21
ENDBRANCH  19  20
ENDBRANCH  18  19
ENDBRANCH  17  18
ENDBRANCH   1  17
TORSDOF 26
ENDMDL
MODEL 6
REMARK VINA RESULT:    -3.221      1.725      4.932
REMARK INTER + INTRA:         -13.123
REMARK INTER:                  -7.515
REMARK INTRA:                  -5.608
REMARK UNBOUND:                -5.007
REMARK SMILES CCCCCCCCCCCCCCCCCCCCCCCCCCCC(=O)[O-]
REMARK SMILES IDX 15 1 16 2 17 3 18 4 19 5 20 6 21 7 22 8 23 9 24 10 25 11
REMARK SMILES IDX 26 12 27 13 28 14 29 15 30 16 14 17 13 18 12 19 11 20 10 21
REMARK SMILES IDX 9 22 8 23 7 24 6 25 5 26 4 27 3 28 2 29 1 30
REMARK H PARENT
REMARK Flexibility Score: inf
ROOT
ATOM      1  C   UNL     1      33.333   0.451 -35.222  1.00  0.00     0.000 C 
ENDROOT
BRANCH   1   2
ATOM      2  C   UNL     1      32.228   0.131 -34.202  1.00  0.00     0.000 C 
BRANCH   2   3
ATOM      3  C   UNL     1      30.835   0.589 -34.667  1.00  0.00     0.000 C 
BRANCH   3   4
ATOM      4  C   UNL     1      30.871   1.778 -35.650  1.00  0.00     0.000 C 
BRANCH   4   5
ATOM      5  C   UNL     1      30.153   1.458 -36.973  1.00  0.00     0.000 C 
BRANCH   5   6
ATOM      6  C   UNL     1      28.674   1.885 -36.966  1.00  0.00     0.000 C 
BRANCH   6   7
ATOM      7  C   UNL     1      27.755   0.836 -37.616  1.00  0.00     0.000 C 
BRANCH   7   8
ATOM      8  C   UNL     1      27.142  -0.135 -36.592  1.00  0.00     0.000 C 
BRANCH   8   9
ATOM      9  C   UNL     1      25.610  -0.282 -36.665  1.00  0.00     0.000 C 
BRANCH   9  10
ATOM     10  C   UNL     1      25.119  -1.746 -36.652  1.00  0.00     0.000 C 
BRANCH  10  11
ATOM     11  C   UNL     1      26.267  -2.748 -36.434  1.00  0.00     0.000 C 
BRANCH  11  12
ATOM     12  C   UNL     1      25.763  -4.138 -36.010  1.00  0.00     0.006 C 
BRANCH  12  13
ATOM     13  C   UNL     1      26.165  -4.496 -34.572  1.00  0.00     0.053 C 
BRANCH  13  14
ATOM     14  C   UNL     1      24.968  -4.541 -33.676  1.00  0.00     0.041 C 
ATOM     15  O   UNL     1      24.915  -5.366 -32.726  1.00  0.00    -0.550 OA
ATOM     16  O   UNL     1      23.912  -3.655 -33.878  1.00  0.00    -0.550 OA
ENDBRANCH  13  14
ENDBRANCH  12  13
ENDBRANCH  11  12
ENDBRANCH  10  11
ENDBRANCH   9  10
ENDBRANCH   8   9
ENDBRANCH   7   8
ENDBRANCH   6   7
ENDBRANCH   5   6
ENDBRANCH   4   5
ENDBRANCH   3   4
ENDBRANCH   2   3
ENDBRANCH   1   2
BRANCH   1  17
ATOM     17  C   UNL     1      33.558  -0.692 -36.226  1.00  0.00     0.000 C 
BRANCH  17  18
ATOM     18  C   UNL     1      33.353  -0.245 -37.685  1.00  0.00     0.000 C 
BRANCH  18  19
ATOM     19  C   UNL     1      33.187  -1.431 -38.649  1.00  0.00     0.000 C 
BRANCH  19  20
ATOM     20  C   UNL     1      33.597  -2.770 -38.011  1.00  0.00     0.000 C 
BRANCH  20  21
ATOM     21  C   UNL     1      32.934  -3.984 -38.686  1.00  0.00     0.000 C 
BRANCH  21  22
ATOM     22  C   UNL     1      32.594  -5.154 -37.744  1.00  0.00    -0.000 C 
BRANCH  22  23
ATOM     23  C   UNL     1      31.147  -5.653 -37.910  1.00  0.00    -0.000 C 
BRANCH  23  24
ATOM     24  C   UNL     1      30.333  -4.812 -38.911  1.00  0.00    -0.000 C 
BRANCH  24  25
ATOM     25  C   UNL     1      29.214  -3.947 -38.294  1.00  0.00    -0.000 C 
BRANCH  25  26
ATOM     26  C   UNL     1      29.591  -2.479 -38.032  1.00  0.00    -0.000 C 
BRANCH  26  27
ATOM     27  C   UNL     1      30.194  -2.260 -36.634  1.00  0.00    -0.000 C 
BRANCH  27  28
ATOM     28  C   UNL     1      29.657  -3.267 -35.603  1.00  0.00    -0.000 C 
BRANCH  28  29
ATOM     29  C   UNL     1      30.455  -3.240 -34.292  1.00  0.00    -0.003 C 
ATOM     30  C   UNL     1      31.912  -3.630 -34.525  1.00  0.00     0.004 C 
ENDBRANCH  28  29
ENDBRANCH  27  28
ENDBRANCH  26  27
ENDBRANCH  25  26
ENDBRANCH  24  25
ENDBRANCH  23  24
ENDBRANCH  22  23
ENDBRANCH  21  22
ENDBRANCH  20  21
ENDBRANCH  19  20
ENDBRANCH  18  19
ENDBRANCH  17  18
ENDBRANCH   1  17
TORSDOF 26
ENDMDL
MODEL 7
REMARK VINA RESULT:    -3.189      2.841      4.804
REMARK INTER + INTRA:         -13.042
REMARK INTER:                  -7.340
REMARK INTRA:                  -5.702
REMARK UNBOUND:                -5.007
REMARK SMILES CCCCCCCCCCCCCCCCCCCCCCCCCCCC(=O)[O-]
REMARK SMILES IDX 15 1 16 2 17 3 18 4 19 5 20 6 21 7 22 8 23 9 24 10 25 11
REMARK SMILES IDX 26 12 27 13 28 14 29 15 30 16 14 17 13 18 12 19 11 20 10 21
REMARK SMILES IDX 9 22 8 23 7 24 6 25 5 26 4 27 3 28 2 29 1 30
REMARK H PARENT
REMARK Flexibility Score: inf
ROOT
ATOM      1  C   UNL     1      28.611   0.388 -36.903  1.00  0.00     0.000 C 
ENDROOT
BRANCH   1   2
ATOM      2  C   UNL     1      27.967  -0.127 -35.606  1.00  0.00     0.000 C 
BRANCH   2   3
ATOM      3  C   UNL     1      28.889  -1.073 -34.817  1.00  0.00     0.000 C 
BRANCH   3   4
ATOM      4  C   UNL     1      28.208  -1.726 -33.597  1.00  0.00     0.000 C 
BRANCH   4   5
ATOM      5  C   UNL     1      28.669  -3.179 -33.383  1.00  0.00     0.000 C 
BRANCH   5   6
ATOM      6  C   UNL     1      27.521  -4.111 -32.957  1.00  0.00     0.000 C 
BRANCH   6   7
ATOM      7  C   UNL     1      26.356  -3.349 -32.299  1.00  0.00     0.000 C 
BRANCH   7   8
ATOM      8  C   UNL     1      24.983  -3.762 -32.857  1.00  0.00     0.000 C 
BRANCH   8   9
ATOM      9  C   UNL     1      25.005  -4.342 -34.285  1.00  0.00     0.000 C 
BRANCH   9  10
ATOM     10  C   UNL     1      24.708  -3.303 -35.388  1.00  0.00     0.000 C 
BRANCH  10  11
ATOM     11  C   UNL     1      25.909  -3.084 -36.326  1.00  0.00     0.000 C 
BRANCH  11  12
ATOM     12  C   UNL     1      26.665  -4.389 -36.629  1.00  0.00     0.006 C 
BRANCH  12  13
ATOM     13  C   UNL     1      28.159  -4.155 -36.897  1.00  0.00     0.053 C 
BRANCH  13  14
ATOM     14  C   UNL     1      28.574  -4.773 -38.195  1.00  0.00     0.041 C 
ATOM     15  O   UNL     1      28.726  -4.057 -39.220  1.00  0.00    -0.550 OA
ATOM     16  O   UNL     1      28.812  -6.143 -38.271  1.00  0.00    -0.550 OA
ENDBRANCH  13  14
ENDBRANCH  12  13
ENDBRANCH  11  12
ENDBRANCH  10  11
ENDBRANCH   9  10
ENDBRANCH   8   9
ENDBRANCH   7   8
ENDBRANCH   6   7
ENDBRANCH   5   6
ENDBRANCH   4   5
ENDBRANCH   3   4
ENDBRANCH   2   3
ENDBRANCH   1   2
BRANCH   1  17
ATOM     17  C   UNL     1      28.860  -0.734 -37.924  1.00  0.00     0.000 C 
BRANCH  17  18
ATOM     18  C   UNL     1      30.267  -0.664 -38.547  1.00  0.00     0.000 C 
BRANCH  18  19
ATOM     19  C   UNL     1      31.207   0.279 -37.778  1.00  0.00     0.000 C 
BRANCH  19  20
ATOM     20  C   UNL     1      32.666   0.174 -38.256  1.00  0.00     0.000 C 
BRANCH  20  21
ATOM     21  C   UNL     1      33.067  -1.258 -38.649  1.00  0.00     0.000 C 
BRANCH  21  22
ATOM     22  C   UNL     1      33.863  -2.033 -37.581  1.00  0.00    -0.000 C 
BRANCH  22  23
ATOM     23  C   UNL     1      33.559  -3.541 -37.587  1.00  0.00    -0.000 C 
BRANCH  23  24
ATOM     24  C   UNL     1      32.076  -3.857 -37.315  1.00  0.00    -0.000 C 
BRANCH  24  25
ATOM     25  C   UNL     1      31.485  -3.215 -36.042  1.00  0.00    -0.000 C 
BRANCH  25  26
ATOM     26  C   UNL     1      32.187  -3.601 -34.728  1.00  0.00    -0.000 C 
BRANCH  26  27
ATOM     27  C   UNL     1      32.940  -2.422 -34.088  1.00  0.00    -0.000 C 
BRANCH  27  28
ATOM     28  C   UNL     1      32.294  -1.067 -34.422  1.00  0.00    -0.000 C 
BRANCH  28  29
ATOM     29  C   UNL     1      32.883   0.080 -33.589  1.00  0.00    -0.003 C 
ATOM     30  C   UNL     1      33.607   1.090 -34.477  1.00  0.00     0.004 C 
ENDBRANCH  28  29
ENDBRANCH  27  28
ENDBRANCH  26  27
ENDBRANCH  25  26
ENDBRANCH  24  25
ENDBRANCH  23  24
ENDBRANCH  22  23
ENDBRANCH  21  22
ENDBRANCH  20  21
ENDBRANCH  19  20
ENDBRANCH  18  19
ENDBRANCH  17  18
ENDBRANCH   1  17
TORSDOF 26
ENDMDL
MODEL 8
REMARK VINA RESULT:    -3.187      2.500      3.704
REMARK INTER + INTRA:         -13.037
REMARK INTER:                  -8.110
REMARK INTRA:                  -4.927
REMARK UNBOUND:                -5.007
REMARK SMILES CCCCCCCCCCCCCCCCCCCCCCCCCCCC(=O)[O-]
REMARK SMILES IDX 15 1 16 2 17 3 18 4 19 5 20 6 21 7 22 8 23 9 24 10 25 11
REMARK SMILES IDX 26 12 27 13 28 14 29 15 30 16 14 17 13 18 12 19 11 20 10 21
REMARK SMILES IDX 9 22 8 23 7 24 6 25 5 26 4 27 3 28 2 29 1 30
REMARK H PARENT
REMARK Flexibility Score: inf
ROOT
ATOM      1  C   UNL     1      33.274  -2.601 -35.302  1.00  0.00     0.000 C 
ENDROOT
BRANCH   1   2
ATOM      2  C   UNL     1      32.444  -3.854 -34.975  1.00  0.00     0.000 C 
BRANCH   2   3
ATOM      3  C   UNL     1      31.494  -3.646 -33.783  1.00  0.00     0.000 C 
BRANCH   3   4
ATOM      4  C   UNL     1      30.064  -3.237 -34.195  1.00  0.00     0.000 C 
BRANCH   4   5
ATOM      5  C   UNL     1      29.851  -3.329 -35.716  1.00  0.00     0.000 C 
BRANCH   5   6
ATOM      6  C   UNL     1      28.908  -2.237 -36.252  1.00  0.00     0.000 C 
BRANCH   6   7
ATOM      7  C   UNL     1      27.874  -2.788 -37.250  1.00  0.00     0.000 C 
BRANCH   7   8
ATOM      8  C   UNL     1      27.706  -4.314 -37.152  1.00  0.00     0.000 C 
BRANCH   8   9
ATOM      9  C   UNL     1      26.358  -4.788 -36.573  1.00  0.00     0.000 C 
BRANCH   9  10
ATOM     10  C   UNL     1      26.380  -5.027 -35.048  1.00  0.00     0.000 C 
BRANCH  10  11
ATOM     11  C   UNL     1      25.759  -3.858 -34.263  1.00  0.00     0.000 C 
BRANCH  11  12
ATOM     12  C   UNL     1      24.254  -3.694 -34.542  1.00  0.00     0.006 C 
BRANCH  12  13
ATOM     13  C   UNL     1      23.810  -2.225 -34.525  1.00  0.00     0.053 C 
BRANCH  13  14
ATOM     14  C   UNL     1      23.349  -1.789 -35.881  1.00  0.00     0.041 C 
ATOM     15  O   UNL     1      22.723  -0.705 -36.021  1.00  0.00    -0.550 OA
ATOM     16  O   UNL     1      23.629  -2.572 -36.998  1.00  0.00    -0.550 OA
ENDBRANCH  13  14
ENDBRANCH  12  13
ENDBRANCH  11  12
ENDBRANCH  10  11
ENDBRANCH   9  10
ENDBRANCH   8   9
ENDBRANCH   7   8
ENDBRANCH   6   7
ENDBRANCH   5   6
ENDBRANCH   4   5
ENDBRANCH   3   4
ENDBRANCH   2   3
ENDBRANCH   1   2
BRANCH   1  17
ATOM     17  C   UNL     1      33.490  -2.414 -36.813  1.00  0.00     0.000 C 
BRANCH  17  18
ATOM     18  C   UNL     1      33.369  -0.942 -37.249  1.00  0.00     0.000 C 
BRANCH  18  19
ATOM     19  C   UNL     1      32.671  -0.784 -38.609  1.00  0.00     0.000 C 
BRANCH  19  20
ATOM     20  C   UNL     1      31.575  -1.840 -38.835  1.00  0.00     0.000 C 
BRANCH  20  21
ATOM     21  C   UNL     1      30.315  -1.263 -39.504  1.00  0.00     0.000 C 
BRANCH  21  22
ATOM     22  C   UNL     1      30.117   0.254 -39.332  1.00  0.00    -0.000 C 
BRANCH  22  23
ATOM     23  C   UNL     1      28.787   0.608 -38.642  1.00  0.00    -0.000 C 
BRANCH  23  24
ATOM     24  C   UNL     1      28.961   1.591 -37.469  1.00  0.00    -0.000 C 
BRANCH  24  25
ATOM     25  C   UNL     1      30.331   1.541 -36.761  1.00  0.00    -0.000 C 
BRANCH  25  26
ATOM     26  C   UNL     1      30.272   1.348 -35.236  1.00  0.00    -0.000 C 
BRANCH  26  27
ATOM     27  C   UNL     1      31.176   0.205 -34.746  1.00  0.00    -0.000 C 
BRANCH  27  28
ATOM     28  C   UNL     1      32.100   0.642 -33.598  1.00  0.00    -0.000 C 
BRANCH  28  29
ATOM     29  C   UNL     1      33.447   1.178 -34.104  1.00  0.00    -0.003 C 
ATOM     30  C   UNL     1      33.645   2.637 -33.701  1.00  0.00     0.004 C 
ENDBRANCH  28  29
ENDBRANCH  27  28
ENDBRANCH  26  27
ENDBRANCH  25  26
ENDBRANCH  24  25
ENDBRANCH  23  24
ENDBRANCH  22  23
ENDBRANCH  21  22
ENDBRANCH  20  21
ENDBRANCH  19  20
ENDBRANCH  18  19
ENDBRANCH  17  18
ENDBRANCH   1  17
TORSDOF 26
ENDMDL
MODEL 9
REMARK VINA RESULT:    -3.158      1.852      4.246
REMARK INTER + INTRA:         -12.965
REMARK INTER:                  -7.273
REMARK INTRA:                  -5.691
REMARK UNBOUND:                -5.007
REMARK SMILES CCCCCCCCCCCCCCCCCCCCCCCCCCCC(=O)[O-]
REMARK SMILES IDX 15 1 16 2 17 3 18 4 19 5 20 6 21 7 22 8 23 9 24 10 25 11
REMARK SMILES IDX 26 12 27 13 28 14 29 15 30 16 14 17 13 18 12 19 11 20 10 21
REMARK SMILES IDX 9 22 8 23 7 24 6 25 5 26 4 27 3 28 2 29 1 30
REMARK H PARENT
REMARK Flexibility Score: inf
ROOT
ATOM      1  C   UNL     1      32.445   0.164 -34.042  1.00  0.00     0.000 C 
ENDROOT
BRANCH   1   2
ATOM      2  C   UNL     1      31.000   0.041 -34.555  1.00  0.00     0.000 C 
BRANCH   2   3
ATOM      3  C   UNL     1      30.131  -0.873 -33.675  1.00  0.00     0.000 C 
BRANCH   3   4
ATOM      4  C   UNL     1      29.372  -1.957 -34.469  1.00  0.00     0.000 C 
BRANCH   4   5
ATOM      5  C   UNL     1      30.118  -3.303 -34.472  1.00  0.00     0.000 C 
BRANCH   5   6
ATOM      6  C   UNL     1      30.740  -3.636 -35.840  1.00  0.00     0.000 C 
BRANCH   6   7
ATOM      7  C   UNL     1      30.205  -2.733 -36.966  1.00  0.00     0.000 C 
BRANCH   7   8
ATOM      8  C   UNL     1      29.268  -3.478 -37.932  1.00  0.00     0.000 C 
BRANCH   8   9
ATOM      9  C   UNL     1      27.781  -3.482 -37.528  1.00  0.00     0.000 C 
BRANCH   9  10
ATOM     10  C   UNL     1      27.255  -4.865 -37.084  1.00  0.00     0.000 C 
BRANCH  10  11
ATOM     11  C   UNL     1      26.440  -4.792 -35.781  1.00  0.00     0.000 C 
BRANCH  11  12
ATOM     12  C   UNL     1      26.045  -3.350 -35.414  1.00  0.00     0.006 C 
BRANCH  12  13
ATOM     13  C   UNL     1      25.342  -3.262 -34.052  1.00  0.00     0.053 C 
BRANCH  13  14
ATOM     14  C   UNL     1      23.983  -2.653 -34.188  1.00  0.00     0.041 C 
ATOM     15  O   UNL     1      23.579  -2.243 -35.309  1.00  0.00    -0.550 OA
ATOM     16  O   UNL     1      23.148  -2.553 -33.078  1.00  0.00    -0.550 OA
ENDBRANCH  13  14
ENDBRANCH  12  13
ENDBRANCH  11  12
ENDBRANCH  10  11
ENDBRANCH   9  10
ENDBRANCH   8   9
ENDBRANCH   7   8
ENDBRANCH   6   7
ENDBRANCH   5   6
ENDBRANCH   4   5
ENDBRANCH   3   4
ENDBRANCH   2   3
ENDBRANCH   1   2
BRANCH   1  17
ATOM     17  C   UNL     1      33.464   0.321 -35.183  1.00  0.00     0.000 C 
BRANCH  17  18
ATOM     18  C   UNL     1      33.309  -0.762 -36.266  1.00  0.00     0.000 C 
BRANCH  18  19
ATOM     19  C   UNL     1      33.596  -0.230 -37.680  1.00  0.00     0.000 C 
BRANCH  19  20
ATOM     20  C   UNL     1      32.367  -0.316 -38.602  1.00  0.00     0.000 C 
BRANCH  20  21
ATOM     21  C   UNL     1      31.265   0.691 -38.228  1.00  0.00     0.000 C 
BRANCH  21  22
ATOM     22  C   UNL     1      30.809   1.618 -39.370  1.00  0.00    -0.000 C 
BRANCH  22  23
ATOM     23  C   UNL     1      29.300   1.512 -39.658  1.00  0.00    -0.000 C 
BRANCH  23  24
ATOM     24  C   UNL     1      28.827   0.060 -39.857  1.00  0.00    -0.000 C 
BRANCH  24  25
ATOM     25  C   UNL     1      27.391  -0.241 -39.378  1.00  0.00    -0.000 C 
BRANCH  25  26
ATOM     26  C   UNL     1      26.932   0.558 -38.146  1.00  0.00    -0.000 C 
BRANCH  26  27
ATOM     27  C   UNL     1      27.545   0.035 -36.837  1.00  0.00    -0.000 C 
BRANCH  27  28
ATOM     28  C   UNL     1      27.649   1.130 -35.762  1.00  0.00    -0.000 C 
BRANCH  28  29
ATOM     29  C   UNL     1      27.879   2.522 -36.368  1.00  0.00    -0.003 C 
ATOM     30  C   UNL     1      29.308   3.000 -36.122  1.00  0.00     0.004 C 
ENDBRANCH  28  29
ENDBRANCH  27  28
ENDBRANCH  26  27
ENDBRANCH  25  26
ENDBRANCH  24  25
ENDBRANCH  23  24
ENDBRANCH  22  23
ENDBRANCH  21  22
ENDBRANCH  20  21
ENDBRANCH  19  20
ENDBRANCH  18  19
ENDBRANCH  17  18
ENDBRANCH   1  17
TORSDOF 26
ENDMDL
