MODEL 1
REMARK VINA RESULT:    -4.569      0.000      0.000
REMARK INTER + INTRA:          -4.987
REMARK INTER:                  -4.970
REMARK INTRA:                  -0.017
REMARK UNBOUND:                -0.017
REMARK SMILES C=C1C[C@@]2(O)O[C@@]3(C[C@H]2C(C)C)[C@H](C)CC[C@@H]13
REMARK SMILES IDX 14 1 13 2 15 3 16 4 17 5 7 6 8 7 9 8 4 9 6 10 3 11 2 12 1 13
REMARK SMILES IDX 10 14 11 15 12 16 5 17
REMARK H PARENT 5 18
REMARK Flexibility Score: inf
ROOT
ATOM      1  C   UNL     1      24.220  25.849   4.501  1.00  0.00     0.011 C 
ATOM      2  C   UNL     1      23.997  24.963   5.744  1.00  0.00     0.019 C 
ATOM      3  C   UNL     1      24.650  25.603   6.974  1.00  0.00     0.007 C 
ATOM      4  C   UNL     1      26.039  24.972   7.120  1.00  0.00     0.011 C 
ATOM      5  C   UNL     1      26.125  23.838   6.087  1.00  0.00     0.047 C 
ATOM      6  C   UNL     1      24.667  23.581   5.654  1.00  0.00     0.081 C 
ATOM      7  C   UNL     1      24.565  22.873   4.291  1.00  0.00     0.046 C 
ATOM      8  C   UNL     1      24.449  21.403   4.683  1.00  0.00     0.054 C 
ATOM      9  C   UNL     1      24.556  21.435   6.230  1.00  0.00     0.173 C 
ATOM     10  O   UNL     1      24.073  22.706   6.592  1.00  0.00    -0.342 OA
ATOM     11  C   UNL     1      25.988  21.305   6.818  1.00  0.00     0.096 C 
ATOM     12  C   UNL     1      26.784  22.586   6.649  1.00  0.00    -0.066 C 
ATOM     13  C   UNL     1      28.079  22.608   6.993  1.00  0.00     0.008 C 
ENDROOT
BRANCH   8  14
ATOM     14  C   UNL     1      25.342  20.376   3.905  1.00  0.00    -0.009 C 
ATOM     15  C   UNL     1      26.815  20.784   3.706  1.00  0.00     0.008 C 
ATOM     16  C   UNL     1      24.726  20.062   2.532  1.00  0.00     0.008 C 
ENDBRANCH   8  14
BRANCH   9  17
ATOM     17  O   UNL     1      23.720  20.458   6.799  1.00  0.00    -0.365 OA
ATOM     18  H   UNL     1      24.017  20.325   7.736  1.00  0.00     0.214 HD
ENDBRANCH   9  17
TORSDOF 2
ENDMDL
MODEL 2
REMARK VINA RESULT:    -4.464      9.913     11.441
REMARK INTER + INTRA:          -4.872
REMARK INTER:                  -4.507
REMARK INTRA:                  -0.365
REMARK UNBOUND:                -0.017
REMARK SMILES C=C1C[C@@]2(O)O[C@@]3(C[C@H]2C(C)C)[C@H](C)CC[C@@H]13
REMARK SMILES IDX 14 1 13 2 15 3 16 4 17 5 7 6 8 7 9 8 4 9 6 10 3 11 2 12 1 13
REMARK SMILES IDX 10 14 11 15 12 16 5 17
REMARK H PARENT 5 18
REMARK Flexibility Score: inf
ROOT
ATOM      1  C   UNL     1      15.193  18.503   5.295  1.00  0.00     0.011 C 
ATOM      2  C   UNL     1      15.563  19.540   4.214  1.00  0.00     0.019 C 
ATOM      3  C   UNL     1      17.082  19.745   4.174  1.00  0.00     0.007 C 
ATOM      4  C   UNL     1      17.390  20.963   5.052  1.00  0.00     0.011 C 
ATOM      5  C   UNL     1      16.041  21.577   5.455  1.00  0.00     0.047 C 
ATOM      6  C   UNL     1      15.013  20.951   4.490  1.00  0.00     0.081 C 
ATOM      7  C   UNL     1      13.572  21.017   5.027  1.00  0.00     0.046 C 
ATOM      8  C   UNL     1      13.032  22.291   4.386  1.00  0.00     0.054 C 
ATOM      9  C   UNL     1      14.250  22.841   3.599  1.00  0.00     0.173 C 
ATOM     10  O   UNL     1      15.016  21.701   3.292  1.00  0.00    -0.342 OA
ATOM     11  C   UNL     1      15.176  23.821   4.369  1.00  0.00     0.096 C 
ATOM     12  C   UNL     1      16.046  23.097   5.379  1.00  0.00    -0.066 C 
ATOM     13  C   UNL     1      16.817  23.807   6.215  1.00  0.00     0.008 C 
ENDROOT
BRANCH   8  14
ATOM     14  C   UNL     1      12.243  23.285   5.308  1.00  0.00    -0.009 C 
ATOM     15  C   UNL     1      12.384  23.047   6.825  1.00  0.00     0.008 C 
ATOM     16  C   UNL     1      10.750  23.284   4.943  1.00  0.00     0.008 C 
ENDBRANCH   8  14
BRANCH   9  17
ATOM     17  O   UNL     1      13.827  23.435   2.396  1.00  0.00    -0.365 OA
ATOM     18  H   UNL     1      14.336  23.005   1.660  1.00  0.00     0.214 HD
ENDBRANCH   9  17
TORSDOF 2
ENDMDL
MODEL 3
REMARK VINA RESULT:    -3.708      1.720      2.736
REMARK INTER + INTRA:          -4.050
REMARK INTER:                  -3.709
REMARK INTRA:                  -0.341
REMARK UNBOUND:                -0.017
REMARK SMILES C=C1C[C@@]2(O)O[C@@]3(C[C@H]2C(C)C)[C@H](C)CC[C@@H]13
REMARK SMILES IDX 14 1 13 2 15 3 16 4 17 5 7 6 8 7 9 8 4 9 6 10 3 11 2 12 1 13
REMARK SMILES IDX 10 14 11 15 12 16 5 17
REMARK H PARENT 5 18
REMARK Flexibility Score: inf
ROOT
ATOM      1  C   UNL     1      26.040  25.290   6.449  1.00  0.00     0.011 C 
ATOM      2  C   UNL     1      24.914  24.683   5.587  1.00  0.00     0.019 C 
ATOM      3  C   UNL     1      23.589  24.698   6.358  1.00  0.00     0.007 C 
ATOM      4  C   UNL     1      23.443  23.323   7.018  1.00  0.00     0.011 C 
ATOM      5  C   UNL     1      24.587  22.447   6.487  1.00  0.00     0.047 C 
ATOM      6  C   UNL     1      25.120  23.196   5.247  1.00  0.00     0.081 C 
ATOM      7  C   UNL     1      26.556  22.786   4.874  1.00  0.00     0.046 C 
ATOM      8  C   UNL     1      26.334  21.705   3.821  1.00  0.00     0.054 C 
ATOM      9  C   UNL     1      24.789  21.581   3.755  1.00  0.00     0.173 C 
ATOM     10  O   UNL     1      24.316  22.849   4.139  1.00  0.00    -0.342 OA
ATOM     11  C   UNL     1      24.146  20.542   4.714  1.00  0.00     0.096 C 
ATOM     12  C   UNL     1      24.133  21.034   6.149  1.00  0.00    -0.066 C 
ATOM     13  C   UNL     1      23.722  20.212   7.125  1.00  0.00     0.008 C 
ENDROOT
BRANCH   8  14
ATOM     14  C   UNL     1      27.173  20.387   3.950  1.00  0.00    -0.009 C 
ATOM     15  C   UNL     1      28.125  20.315   5.161  1.00  0.00     0.008 C 
ATOM     16  C   UNL     1      27.984  20.139   2.668  1.00  0.00     0.008 C 
ENDBRANCH   8  14
BRANCH   9  17
ATOM     17  O   UNL     1      24.374  21.327   2.435  1.00  0.00    -0.365 OA
ATOM     18  H   UNL     1      24.440  22.182   1.936  1.00  0.00     0.214 HD
ENDBRANCH   9  17
TORSDOF 2
ENDMDL
MODEL 4
REMARK VINA RESULT:    -3.342      2.081      3.560
REMARK INTER + INTRA:          -3.653
REMARK INTER:                  -3.530
REMARK INTRA:                  -0.122
REMARK UNBOUND:                -0.017
REMARK SMILES C=C1C[C@@]2(O)O[C@@]3(C[C@H]2C(C)C)[C@H](C)CC[C@@H]13
REMARK SMILES IDX 14 1 13 2 15 3 16 4 17 5 7 6 8 7 9 8 4 9 6 10 3 11 2 12 1 13
REMARK SMILES IDX 10 14 11 15 12 16 5 17
REMARK H PARENT 5 18
REMARK Flexibility Score: inf
ROOT
ATOM      1  C   UNL     1      23.735  24.544   7.080  1.00  0.00     0.011 C 
ATOM      2  C   UNL     1      24.905  23.549   6.939  1.00  0.00     0.019 C 
ATOM      3  C   UNL     1      25.900  24.047   5.884  1.00  0.00     0.007 C 
ATOM      4  C   UNL     1      25.528  23.364   4.564  1.00  0.00     0.011 C 
ATOM      5  C   UNL     1      24.435  22.334   4.885  1.00  0.00     0.047 C 
ATOM      6  C   UNL     1      24.487  22.162   6.418  1.00  0.00     0.081 C 
ATOM      7  C   UNL     1      23.180  21.593   6.999  1.00  0.00     0.046 C 
ATOM      8  C   UNL     1      23.466  20.097   7.069  1.00  0.00     0.054 C 
ATOM      9  C   UNL     1      24.888  19.975   6.463  1.00  0.00     0.173 C 
ATOM     10  O   UNL     1      25.492  21.219   6.726  1.00  0.00    -0.342 OA
ATOM     11  C   UNL     1      24.960  19.747   4.928  1.00  0.00     0.096 C 
ATOM     12  C   UNL     1      24.645  21.014   4.156  1.00  0.00    -0.066 C 
ATOM     13  C   UNL     1      24.543  20.965   2.820  1.00  0.00     0.008 C 
ENDROOT
BRANCH   8  14
ATOM     14  C   UNL     1      22.356  19.124   6.540  1.00  0.00    -0.009 C 
ATOM     15  C   UNL     1      20.909  19.476   6.942  1.00  0.00     0.008 C 
ATOM     16  C   UNL     1      22.654  17.681   6.979  1.00  0.00     0.008 C 
ENDBRANCH   8  14
BRANCH   9  17
ATOM     17  O   UNL     1      25.619  18.973   7.125  1.00  0.00    -0.365 OA
ATOM     18  H   UNL     1      25.020  18.574   7.808  1.00  0.00     0.214 HD
ENDBRANCH   9  17
TORSDOF 2
ENDMDL
MODEL 5
REMARK VINA RESULT:    -2.962      1.759      3.181
REMARK INTER + INTRA:          -3.239
REMARK INTER:                  -3.426
REMARK INTRA:                   0.187
REMARK UNBOUND:                -0.017
REMARK SMILES C=C1C[C@@]2(O)O[C@@]3(C[C@H]2C(C)C)[C@H](C)CC[C@@H]13
REMARK SMILES IDX 14 1 13 2 15 3 16 4 17 5 7 6 8 7 9 8 4 9 6 10 3 11 2 12 1 13
REMARK SMILES IDX 10 14 11 15 12 16 5 17
REMARK H PARENT 5 18
REMARK Flexibility Score: inf
ROOT
ATOM      1  C   UNL     1      23.204  25.950   7.000  1.00  0.00     0.011 C 
ATOM      2  C   UNL     1      24.506  25.573   6.263  1.00  0.00     0.019 C 
ATOM      3  C   UNL     1      24.527  26.205   4.867  1.00  0.00     0.007 C 
ATOM      4  C   UNL     1      23.998  25.148   3.891  1.00  0.00     0.011 C 
ATOM      5  C   UNL     1      23.841  23.844   4.687  1.00  0.00     0.047 C 
ATOM      6  C   UNL     1      24.650  24.066   5.982  1.00  0.00     0.081 C 
ATOM      7  C   UNL     1      24.220  23.126   7.122  1.00  0.00     0.046 C 
ATOM      8  C   UNL     1      25.208  21.971   6.996  1.00  0.00     0.054 C 
ATOM      9  C   UNL     1      26.055  22.357   5.756  1.00  0.00     0.173 C 
ATOM     10  O   UNL     1      26.004  23.762   5.717  1.00  0.00    -0.342 OA
ATOM     11  C   UNL     1      25.535  21.842   4.386  1.00  0.00     0.096 C 
ATOM     12  C   UNL     1      24.326  22.626   3.913  1.00  0.00    -0.066 C 
ATOM     13  C   UNL     1      23.677  22.234   2.806  1.00  0.00     0.008 C 
ENDROOT
BRANCH   8  14
ATOM     14  C   UNL     1      24.629  20.515   7.067  1.00  0.00    -0.009 C 
ATOM     15  C   UNL     1      25.425  19.439   6.301  1.00  0.00     0.008 C 
ATOM     16  C   UNL     1      23.171  20.493   6.578  1.00  0.00     0.008 C 
ENDBRANCH   8  14
BRANCH   9  17
ATOM     17  O   UNL     1      27.392  21.961   5.934  1.00  0.00    -0.365 OA
ATOM     18  H   UNL     1      27.932  22.421   5.240  1.00  0.00     0.214 HD
ENDBRANCH   9  17
TORSDOF 2
ENDMDL
MODEL 6
REMARK VINA RESULT:    -2.958      9.392     10.592
REMARK INTER + INTRA:          -3.235
REMARK INTER:                  -3.039
REMARK INTRA:                  -0.196
REMARK UNBOUND:                -0.017
REMARK SMILES C=C1C[C@@]2(O)O[C@@]3(C[C@H]2C(C)C)[C@H](C)CC[C@@H]13
REMARK SMILES IDX 14 1 13 2 15 3 16 4 17 5 7 6 8 7 9 8 4 9 6 10 3 11 2 12 1 13
REMARK SMILES IDX 10 14 11 15 12 16 5 17
REMARK H PARENT 5 18
REMARK Flexibility Score: inf
ROOT
ATOM      1  C   UNL     1      15.570  24.407   4.364  1.00  0.00     0.011 C 
ATOM      2  C   UNL     1      14.991  23.221   3.563  1.00  0.00     0.019 C 
ATOM      3  C   UNL     1      13.468  23.350   3.451  1.00  0.00     0.007 C 
ATOM      4  C   UNL     1      12.865  22.516   4.586  1.00  0.00     0.011 C 
ATOM      5  C   UNL     1      14.025  21.757   5.248  1.00  0.00     0.047 C 
ATOM      6  C   UNL     1      15.191  21.854   4.242  1.00  0.00     0.081 C 
ATOM      7  C   UNL     1      16.565  21.624   4.898  1.00  0.00     0.046 C 
ATOM      8  C   UNL     1      16.807  20.138   4.659  1.00  0.00     0.054 C 
ATOM      9  C   UNL     1      15.512  19.674   3.942  1.00  0.00     0.173 C 
ATOM     10  O   UNL     1      15.040  20.825   3.285  1.00  0.00    -0.342 OA
ATOM     11  C   UNL     1      14.367  19.168   4.861  1.00  0.00     0.096 C 
ATOM     12  C   UNL     1      13.668  20.312   5.570  1.00  0.00    -0.066 C 
ATOM     13  C   UNL     1      12.734  20.044   6.494  1.00  0.00     0.008 C 
ENDROOT
BRANCH   8  14
ATOM     14  C   UNL     1      17.322  19.286   5.870  1.00  0.00    -0.009 C 
ATOM     15  C   UNL     1      18.261  20.016   6.852  1.00  0.00     0.008 C 
ATOM     16  C   UNL     1      18.024  18.012   5.371  1.00  0.00     0.008 C 
ENDBRANCH   8  14
BRANCH   9  17
ATOM     17  O   UNL     1      15.811  18.697   2.976  1.00  0.00    -0.365 OA
ATOM     18  H   UNL     1      16.563  18.154   3.328  1.00  0.00     0.214 HD
ENDBRANCH   9  17
TORSDOF 2
ENDMDL
MODEL 7
REMARK VINA RESULT:    -2.672      8.130      9.656
REMARK INTER + INTRA:          -2.923
REMARK INTER:                  -3.011
REMARK INTRA:                   0.088
REMARK UNBOUND:                -0.017
REMARK SMILES C=C1C[C@@]2(O)O[C@@]3(C[C@H]2C(C)C)[C@H](C)CC[C@@H]13
REMARK SMILES IDX 14 1 13 2 15 3 16 4 17 5 7 6 8 7 9 8 4 9 6 10 3 11 2 12 1 13
REMARK SMILES IDX 10 14 11 15 12 16 5 17
REMARK H PARENT 5 18
REMARK Flexibility Score: inf
ROOT
ATOM      1  C   UNL     1      17.950  17.382   6.082  1.00  0.00     0.011 C 
ATOM      2  C   UNL     1      18.304  18.494   5.073  1.00  0.00     0.019 C 
ATOM      3  C   UNL     1      19.693  19.065   5.378  1.00  0.00     0.007 C 
ATOM      4  C   UNL     1      19.483  20.307   6.250  1.00  0.00     0.011 C 
ATOM      5  C   UNL     1      17.970  20.566   6.303  1.00  0.00     0.047 C 
ATOM      6  C   UNL     1      17.380  19.724   5.152  1.00  0.00     0.081 C 
ATOM      7  C   UNL     1      15.881  19.427   5.337  1.00  0.00     0.046 C 
ATOM      8  C   UNL     1      15.216  20.540   4.534  1.00  0.00     0.054 C 
ATOM      9  C   UNL     1      16.416  21.383   4.028  1.00  0.00     0.173 C 
ATOM     10  O   UNL     1      17.484  20.470   3.957  1.00  0.00    -0.342 OA
ATOM     11  C   UNL     1      16.870  22.548   4.950  1.00  0.00     0.096 C 
ATOM     12  C   UNL     1      17.625  22.042   6.164  1.00  0.00    -0.066 C 
ATOM     13  C   UNL     1      17.983  22.906   7.125  1.00  0.00     0.008 C 
ENDROOT
BRANCH   8  14
ATOM     14  C   UNL     1      14.017  21.296   5.204  1.00  0.00    -0.009 C 
ATOM     15  C   UNL     1      12.829  20.415   5.640  1.00  0.00     0.008 C 
ATOM     16  C   UNL     1      13.496  22.404   4.274  1.00  0.00     0.008 C 
ENDBRANCH   8  14
BRANCH   9  17
ATOM     17  O   UNL     1      16.158  21.874   2.736  1.00  0.00    -0.365 OA
ATOM     18  H   UNL     1      16.337  22.850   2.750  1.00  0.00     0.214 HD
ENDBRANCH   9  17
TORSDOF 2
ENDMDL
MODEL 8
REMARK VINA RESULT:    -2.159      1.981      4.410
REMARK INTER + INTRA:          -2.366
REMARK INTER:                  -2.074
REMARK INTRA:                  -0.291
REMARK UNBOUND:                -0.017
REMARK SMILES C=C1C[C@@]2(O)O[C@@]3(C[C@H]2C(C)C)[C@H](C)CC[C@@H]13
REMARK SMILES IDX 14 1 13 2 15 3 16 4 17 5 7 6 8 7 9 8 4 9 6 10 3 11 2 12 1 13
REMARK SMILES IDX 10 14 11 15 12 16 5 17
REMARK H PARENT 5 18
REMARK Flexibility Score: inf
ROOT
ATOM      1  C   UNL     1      25.022  19.522   2.370  1.00  0.00     0.011 C 
ATOM      2  C   UNL     1      25.936  20.737   2.633  1.00  0.00     0.019 C 
ATOM      3  C   UNL     1      27.408  20.317   2.565  1.00  0.00     0.007 C 
ATOM      4  C   UNL     1      27.855  20.022   4.001  1.00  0.00     0.011 C 
ATOM      5  C   UNL     1      26.702  20.443   4.923  1.00  0.00     0.047 C 
ATOM      6  C   UNL     1      25.793  21.330   4.046  1.00  0.00     0.081 C 
ATOM      7  C   UNL     1      24.356  21.433   4.589  1.00  0.00     0.046 C 
ATOM      8  C   UNL     1      24.398  22.716   5.412  1.00  0.00     0.054 C 
ATOM      9  C   UNL     1      25.876  23.171   5.292  1.00  0.00     0.173 C 
ATOM     10  O   UNL     1      26.309  22.646   4.061  1.00  0.00    -0.342 OA
ATOM     11  C   UNL     1      26.845  22.638   6.383  1.00  0.00     0.096 C 
ATOM     12  C   UNL     1      27.186  21.176   6.167  1.00  0.00    -0.066 C 
ATOM     13  C   UNL     1      27.915  20.525   7.085  1.00  0.00     0.008 C 
ENDROOT
BRANCH   8  14
ATOM     14  C   UNL     1      23.754  22.679   6.841  1.00  0.00    -0.009 C 
ATOM     15  C   UNL     1      22.807  21.493   7.119  1.00  0.00     0.008 C 
ATOM     16  C   UNL     1      23.002  23.989   7.125  1.00  0.00     0.008 C 
ENDBRANCH   8  14
BRANCH   9  17
ATOM     17  O   UNL     1      25.953  24.573   5.234  1.00  0.00    -0.365 OA
ATOM     18  H   UNL     1      25.219  24.885   4.645  1.00  0.00     0.214 HD
ENDBRANCH   9  17
TORSDOF 2
ENDMDL
