MODEL 1
REMARK VINA RESULT:    -5.184      0.000      0.000
REMARK INTER + INTRA:          -9.510
REMARK INTER:                  -8.063
REMARK INTRA:                  -1.446
REMARK UNBOUND:                -1.446
REMARK SMILES C[C@]12C[C@]3(O)O[C@H](O1)[C@@]1(COC(=O)c4ccccc4)[C@@H]3C[C@]12O[C@@H]1O[C@H](CO)[C@@H](O)[C@H](O)[C@H]1O
REMARK SMILES IDX 1 1 2 2 3 3 4 4 20 5 21 6 22 7 9 8 7 9 8 10 6 11 23 12 24 13
REMARK SMILES IDX 33 14 25 15 31 16 26 17 29 18 34 19 32 21 27 23 28 24 30 26
REMARK SMILES IDX 5 28 10 30 11 31 12 32 13 33 14 34 15 35 19 36 16 37 18 38
REMARK SMILES IDX 17 39
REMARK H PARENT 34 20 32 22 28 25 30 27 5 29
REMARK Flexibility Score: inf
ROOT
ATOM      1  C   UNL     1      -7.883  -8.821   1.354  1.00  0.00     0.046 C 
ATOM      2  C   UNL     1      -6.705  -7.945   1.775  1.00  0.00     0.104 C 
ATOM      3  C   UNL     1      -5.524  -8.822   2.333  1.00  0.00     0.104 C 
ATOM      4  C   UNL     1      -4.392  -7.775   2.604  1.00  0.00     0.175 C 
ATOM      5  C   UNL     1      -4.199  -6.846   1.361  1.00  0.00     0.070 C 
ATOM      6  C   UNL     1      -4.814  -7.430   0.073  1.00  0.00     0.050 C 
ATOM      7  C   UNL     1      -6.185  -6.973   0.645  1.00  0.00     0.115 C 
ATOM      8  C   UNL     1      -5.446  -5.981   1.544  1.00  0.00     0.096 C 
ATOM      9  C   UNL     1      -5.943  -6.224   2.960  1.00  0.00     0.267 C 
ATOM     10  O   UNL     1      -7.067  -7.082   2.836  1.00  0.00    -0.342 OA
ATOM     11  O   UNL     1      -4.894  -6.921   3.615  1.00  0.00    -0.320 OA
ENDROOT
BRANCH   7  12
ATOM     12  O   UNL     1      -7.239  -6.397  -0.139  1.00  0.00    -0.339 OA
BRANCH  12  13
ATOM     13  C   UNL     1      -7.181  -6.625  -1.540  1.00  0.00     0.282 C 
ATOM     14  C   UNL     1      -8.310  -7.562  -2.020  1.00  0.00     0.202 C 
ATOM     15  O   UNL     1      -7.171  -5.395  -2.245  1.00  0.00    -0.341 OA
ATOM     16  C   UNL     1      -9.680  -6.881  -1.927  1.00  0.00     0.179 C 
ATOM     17  C   UNL     1      -8.387  -4.660  -2.206  1.00  0.00     0.178 C 
ATOM     18  C   UNL     1      -9.654  -5.484  -2.577  1.00  0.00     0.177 C 
BRANCH  14  19
ATOM     19  O   UNL     1      -8.075  -7.947  -3.352  1.00  0.00    -0.385 OA
ATOM     20  H   UNL     1      -7.091  -7.978  -3.475  1.00  0.00     0.211 HD
ENDBRANCH  14  19
BRANCH  16  21
ATOM     21  O   UNL     1     -10.080  -6.802  -0.584  1.00  0.00    -0.387 OA
ATOM     22  H   UNL     1     -10.273  -5.846  -0.393  1.00  0.00     0.211 HD
ENDBRANCH  16  21
BRANCH  17  23
ATOM     23  C   UNL     1      -8.510  -3.769  -0.951  1.00  0.00     0.191 C 
BRANCH  23  24
ATOM     24  O   UNL     1      -9.822  -3.711  -0.479  1.00  0.00    -0.394 OA
ATOM     25  H   UNL     1     -10.355  -4.340  -1.035  1.00  0.00     0.210 HD
ENDBRANCH  23  24
ENDBRANCH  17  23
BRANCH  18  26
ATOM     26  O   UNL     1      -9.711  -5.648  -3.973  1.00  0.00    -0.387 OA
ATOM     27  H   UNL     1     -10.231  -6.477  -4.150  1.00  0.00     0.211 HD
ENDBRANCH  18  26
ENDBRANCH  12  13
ENDBRANCH   7  12
BRANCH   4  28
ATOM     28  O   UNL     1      -3.195  -8.375   3.019  1.00  0.00    -0.365 OA
ATOM     29  H   UNL     1      -3.436  -9.268   3.381  1.00  0.00     0.214 HD
ENDBRANCH   4  28
BRANCH   8  30
ATOM     30  C   UNL     1      -5.332  -4.508   1.095  1.00  0.00     0.249 C 
BRANCH  30  31
ATOM     31  O   UNL     1      -4.718  -3.722   2.115  1.00  0.00    -0.461 OA
BRANCH  31  32
ATOM     32  C   UNL     1      -3.804  -2.692   1.863  1.00  0.00     0.338 C 
ATOM     33  O   UNL     1      -4.176  -1.487   1.913  1.00  0.00    -0.246 OA
BRANCH  32  34
ATOM     34  C   UNL     1      -2.396  -3.023   1.549  1.00  0.00     0.060 A 
ATOM     35  C   UNL     1      -1.785  -4.164   2.107  1.00  0.00     0.015 A 
ATOM     36  C   UNL     1      -1.641  -2.189   0.707  1.00  0.00     0.015 A 
ATOM     37  C   UNL     1      -0.448  -4.458   1.825  1.00  0.00     0.001 A 
ATOM     38  C   UNL     1      -0.304  -2.487   0.429  1.00  0.00     0.001 A 
ATOM     39  C   UNL     1       0.292  -3.622   0.986  1.00  0.00     0.000 A 
ENDBRANCH  32  34
ENDBRANCH  31  32
ENDBRANCH  30  31
ENDBRANCH   8  30
TORSDOF 12
ENDMDL
MODEL 2
REMARK VINA RESULT:    -5.039      0.889      1.238
REMARK INTER + INTRA:          -9.284
REMARK INTER:                  -7.538
REMARK INTRA:                  -1.746
REMARK UNBOUND:                -1.446
REMARK SMILES C[C@]12C[C@]3(O)O[C@H](O1)[C@@]1(COC(=O)c4ccccc4)[C@@H]3C[C@]12O[C@@H]1O[C@H](CO)[C@@H](O)[C@H](O)[C@H]1O
REMARK SMILES IDX 1 1 2 2 3 3 4 4 20 5 21 6 22 7 9 8 7 9 8 10 6 11 23 12 24 13
REMARK SMILES IDX 33 14 25 15 31 16 26 17 29 18 34 19 32 21 27 23 28 24 30 26
REMARK SMILES IDX 5 28 10 30 11 31 12 32 13 33 14 34 15 35 19 36 16 37 18 38
REMARK SMILES IDX 17 39
REMARK H PARENT 34 20 32 22 28 25 30 27 5 29
REMARK Flexibility Score: inf
ROOT
ATOM      1  C   UNL     1      -6.935  -9.122   0.541  1.00  0.00     0.046 C 
ATOM      2  C   UNL     1      -5.878  -8.087   0.920  1.00  0.00     0.104 C 
ATOM      3  C   UNL     1      -4.456  -8.751   1.033  1.00  0.00     0.104 C 
ATOM      4  C   UNL     1      -3.510  -7.535   1.315  1.00  0.00     0.175 C 
ATOM      5  C   UNL     1      -3.790  -6.380   0.299  1.00  0.00     0.070 C 
ATOM      6  C   UNL     1      -4.566  -6.850  -0.948  1.00  0.00     0.050 C 
ATOM      7  C   UNL     1      -5.827  -6.834  -0.041  1.00  0.00     0.115 C 
ATOM      8  C   UNL     1      -5.099  -5.876   0.903  1.00  0.00     0.096 C 
ATOM      9  C   UNL     1      -5.200  -6.478   2.296  1.00  0.00     0.267 C 
ATOM     10  O   UNL     1      -6.139  -7.537   2.196  1.00  0.00    -0.342 OA
ATOM     11  O   UNL     1      -3.916  -7.018   2.567  1.00  0.00    -0.320 OA
ENDROOT
BRANCH   7  12
ATOM     12  O   UNL     1      -7.123  -6.388  -0.462  1.00  0.00    -0.339 OA
BRANCH  12  13
ATOM     13  C   UNL     1      -7.340  -6.312  -1.864  1.00  0.00     0.282 C 
ATOM     14  C   UNL     1      -8.286  -7.425  -2.363  1.00  0.00     0.202 C 
ATOM     15  O   UNL     1      -7.796  -5.019  -2.227  1.00  0.00    -0.341 OA
ATOM     16  C   UNL     1      -9.720  -7.204  -1.869  1.00  0.00     0.179 C 
ATOM     17  C   UNL     1      -9.111  -4.693  -1.798  1.00  0.00     0.178 C 
ATOM     18  C   UNL     1     -10.188  -5.762  -2.142  1.00  0.00     0.177 C 
BRANCH  14  19
ATOM     19  O   UNL     1      -8.282  -7.458  -3.769  1.00  0.00    -0.385 OA
ATOM     20  H   UNL     1      -7.545  -8.064  -4.041  1.00  0.00     0.211 HD
ENDBRANCH  14  19
BRANCH  16  21
ATOM     21  O   UNL     1      -9.802  -7.509  -0.501  1.00  0.00    -0.387 OA
ATOM     22  H   UNL     1     -10.191  -8.421  -0.429  1.00  0.00     0.211 HD
ENDBRANCH  16  21
BRANCH  17  23
ATOM     23  C   UNL     1      -9.151  -4.139  -0.358  1.00  0.00     0.191 C 
BRANCH  23  24
ATOM     24  O   UNL     1     -10.274  -4.584   0.342  1.00  0.00    -0.394 OA
ATOM     25  H   UNL     1     -10.240  -4.157   1.239  1.00  0.00     0.210 HD
ENDBRANCH  23  24
ENDBRANCH  17  23
BRANCH  18  26
ATOM     26  O   UNL     1     -10.528  -5.660  -3.503  1.00  0.00    -0.387 OA
ATOM     27  H   UNL     1     -10.651  -4.694  -3.703  1.00  0.00     0.211 HD
ENDBRANCH  18  26
ENDBRANCH  12  13
ENDBRANCH   7  12
BRANCH   4  28
ATOM     28  O   UNL     1      -2.159  -7.906   1.351  1.00  0.00    -0.365 OA
ATOM     29  H   UNL     1      -2.050  -8.646   0.698  1.00  0.00     0.214 HD
ENDBRANCH   4  28
BRANCH   8  30
ATOM     30  C   UNL     1      -5.373  -4.361   0.784  1.00  0.00     0.249 C 
BRANCH  30  31
ATOM     31  O   UNL     1      -4.932  -3.681   1.959  1.00  0.00    -0.461 OA
BRANCH  31  32
ATOM     32  C   UNL     1      -3.969  -2.664   1.958  1.00  0.00     0.338 C 
ATOM     33  O   UNL     1      -4.291  -1.485   2.267  1.00  0.00    -0.246 OA
BRANCH  32  34
ATOM     34  C   UNL     1      -2.568  -2.984   1.603  1.00  0.00     0.060 A 
ATOM     35  C   UNL     1      -1.862  -2.189   0.678  1.00  0.00     0.015 A 
ATOM     36  C   UNL     1      -1.930  -4.102   2.168  1.00  0.00     0.015 A 
ATOM     37  C   UNL     1      -0.547  -2.511   0.330  1.00  0.00     0.001 A 
ATOM     38  C   UNL     1      -0.615  -4.420   1.815  1.00  0.00     0.001 A 
ATOM     39  C   UNL     1       0.077  -3.624   0.898  1.00  0.00     0.000 A 
ENDBRANCH  32  34
ENDBRANCH  31  32
ENDBRANCH  30  31
ENDBRANCH   8  30
TORSDOF 12
ENDMDL
MODEL 3
REMARK VINA RESULT:    -4.953     10.889     15.212
REMARK INTER + INTRA:          -9.151
REMARK INTER:                  -7.788
REMARK INTRA:                  -1.363
REMARK UNBOUND:                -1.446
REMARK SMILES C[C@]12C[C@]3(O)O[C@H](O1)[C@@]1(COC(=O)c4ccccc4)[C@@H]3C[C@]12O[C@@H]1O[C@H](CO)[C@@H](O)[C@H](O)[C@H]1O
REMARK SMILES IDX 1 1 2 2 3 3 4 4 20 5 21 6 22 7 9 8 7 9 8 10 6 11 23 12 24 13
REMARK SMILES IDX 33 14 25 15 31 16 26 17 29 18 34 19 32 21 27 23 28 24 30 26
REMARK SMILES IDX 5 28 10 30 11 31 12 32 13 33 14 34 15 35 19 36 16 37 18 38
REMARK SMILES IDX 17 39
REMARK H PARENT 34 20 32 22 28 25 30 27 5 29
REMARK Flexibility Score: inf
ROOT
ATOM      1  C   UNL     1       6.540   3.767  -7.456  1.00  0.00     0.046 C 
ATOM      2  C   UNL     1       5.758   2.813  -6.557  1.00  0.00     0.104 C 
ATOM      3  C   UNL     1       6.663   2.270  -5.390  1.00  0.00     0.104 C 
ATOM      4  C   UNL     1       5.674   1.412  -4.532  1.00  0.00     0.175 C 
ATOM      5  C   UNL     1       4.366   2.219  -4.239  1.00  0.00     0.070 C 
ATOM      6  C   UNL     1       4.533   3.736  -4.462  1.00  0.00     0.050 C 
ATOM      7  C   UNL     1       4.419   3.420  -5.979  1.00  0.00     0.115 C 
ATOM      8  C   UNL     1       3.728   2.103  -5.622  1.00  0.00     0.096 C 
ATOM      9  C   UNL     1       4.478   1.005  -6.360  1.00  0.00     0.267 C 
ATOM     10  O   UNL     1       5.340   1.667  -7.273  1.00  0.00    -0.342 OA
ATOM     11  O   UNL     1       5.260   0.352  -5.371  1.00  0.00    -0.320 OA
ENDROOT
BRANCH   7  12
ATOM     12  O   UNL     1       3.708   4.230  -6.926  1.00  0.00    -0.339 OA
BRANCH  12  13
ATOM     13  C   UNL     1       3.571   5.606  -6.601  1.00  0.00     0.282 C 
ATOM     14  C   UNL     1       4.313   6.514  -7.605  1.00  0.00     0.202 C 
ATOM     15  O   UNL     1       2.201   5.953  -6.476  1.00  0.00    -0.341 OA
ATOM     16  C   UNL     1       3.632   6.504  -8.978  1.00  0.00     0.179 C 
ATOM     17  C   UNL     1       1.460   5.953  -7.689  1.00  0.00     0.178 C 
ATOM     18  C   UNL     1       2.116   6.754  -8.850  1.00  0.00     0.177 C 
BRANCH  14  19
ATOM     19  O   UNL     1       4.351   7.832  -7.117  1.00  0.00    -0.385 OA
ATOM     20  H   UNL     1       4.941   8.348  -7.725  1.00  0.00     0.211 HD
ENDBRANCH  14  19
BRANCH  16  21
ATOM     21  O   UNL     1       3.887   5.285  -9.625  1.00  0.00    -0.387 OA
ATOM     22  H   UNL     1       4.819   5.025  -9.399  1.00  0.00     0.211 HD
ENDBRANCH  16  21
BRANCH  17  23
ATOM     23  C   UNL     1       0.918   4.556  -8.060  1.00  0.00     0.191 C 
BRANCH  23  24
ATOM     24  O   UNL     1      -0.164   4.186  -7.259  1.00  0.00    -0.394 OA
ATOM     25  H   UNL     1      -0.936   4.044  -7.869  1.00  0.00     0.210 HD
ENDBRANCH  23  24
ENDBRANCH  17  23
BRANCH  18  26
ATOM     26  O   UNL     1       1.914   8.130  -8.641  1.00  0.00    -0.387 OA
ATOM     27  H   UNL     1       1.991   8.292  -7.663  1.00  0.00     0.211 HD
ENDBRANCH  18  26
ENDBRANCH  12  13
ENDBRANCH   7  12
BRANCH   4  28
ATOM     28  O   UNL     1       6.270   0.912  -3.367  1.00  0.00    -0.365 OA
ATOM     29  H   UNL     1       6.631   0.015  -3.595  1.00  0.00     0.214 HD
ENDBRANCH   4  28
BRANCH   8  30
ATOM     30  C   UNL     1       2.186   2.035  -5.664  1.00  0.00     0.249 C 
BRANCH  30  31
ATOM     31  O   UNL     1       1.758   0.916  -6.441  1.00  0.00    -0.461 OA
BRANCH  31  32
ATOM     32  C   UNL     1       0.438   0.719  -6.863  1.00  0.00     0.338 C 
ATOM     33  O   UNL     1       0.012   1.292  -7.903  1.00  0.00    -0.246 OA
BRANCH  32  34
ATOM     34  C   UNL     1      -0.452  -0.176  -6.089  1.00  0.00     0.060 A 
ATOM     35  C   UNL     1      -0.734  -1.479  -6.547  1.00  0.00     0.015 A 
ATOM     36  C   UNL     1      -1.047   0.272  -4.898  1.00  0.00     0.015 A 
ATOM     37  C   UNL     1      -1.594  -2.310  -5.823  1.00  0.00     0.001 A 
ATOM     38  C   UNL     1      -1.907  -0.564  -4.179  1.00  0.00     0.001 A 
ATOM     39  C   UNL     1      -2.178  -1.854  -4.640  1.00  0.00     0.000 A 
ENDBRANCH  32  34
ENDBRANCH  31  32
ENDBRANCH  30  31
ENDBRANCH   8  30
TORSDOF 12
ENDMDL
MODEL 4
REMARK VINA RESULT:    -4.806      2.219      4.793
REMARK INTER + INTRA:          -8.921
REMARK INTER:                  -7.479
REMARK INTRA:                  -1.442
REMARK UNBOUND:                -1.446
REMARK SMILES C[C@]12C[C@]3(O)O[C@H](O1)[C@@]1(COC(=O)c4ccccc4)[C@@H]3C[C@]12O[C@@H]1O[C@H](CO)[C@@H](O)[C@H](O)[C@H]1O
REMARK SMILES IDX 1 1 2 2 3 3 4 4 20 5 21 6 22 7 9 8 7 9 8 10 6 11 23 12 24 13
REMARK SMILES IDX 33 14 25 15 31 16 26 17 29 18 34 19 32 21 27 23 28 24 30 26
REMARK SMILES IDX 5 28 10 30 11 31 12 32 13 33 14 34 15 35 19 36 16 37 18 38
REMARK SMILES IDX 17 39
REMARK H PARENT 34 20 32 22 28 25 30 27 5 29
REMARK Flexibility Score: inf
ROOT
ATOM      1  C   UNL     1      -6.914  -7.256  -2.315  1.00  0.00     0.046 C 
ATOM      2  C   UNL     1      -7.211  -6.433  -1.063  1.00  0.00     0.104 C 
ATOM      3  C   UNL     1      -8.677  -6.695  -0.553  1.00  0.00     0.104 C 
ATOM      4  C   UNL     1      -8.753  -5.864   0.772  1.00  0.00     0.175 C 
ATOM      5  C   UNL     1      -7.512  -6.162   1.675  1.00  0.00     0.070 C 
ATOM      6  C   UNL     1      -6.779  -7.461   1.281  1.00  0.00     0.050 C 
ATOM      7  C   UNL     1      -6.174  -6.641   0.109  1.00  0.00     0.115 C 
ATOM      8  C   UNL     1      -6.477  -5.360   0.887  1.00  0.00     0.096 C 
ATOM      9  C   UNL     1      -7.250  -4.452  -0.055  1.00  0.00     0.267 C 
ATOM     10  O   UNL     1      -7.152  -5.047  -1.339  1.00  0.00    -0.342 OA
ATOM     11  O   UNL     1      -8.599  -4.512   0.385  1.00  0.00    -0.320 OA
ENDROOT
BRANCH   7  12
ATOM     12  O   UNL     1      -4.818  -6.756  -0.346  1.00  0.00    -0.339 OA
BRANCH  12  13
ATOM     13  C   UNL     1      -4.011  -7.721   0.314  1.00  0.00     0.282 C 
ATOM     14  C   UNL     1      -3.918  -9.040  -0.482  1.00  0.00     0.202 C 
ATOM     15  O   UNL     1      -2.732  -7.182   0.607  1.00  0.00    -0.341 OA
ATOM     16  C   UNL     1      -3.106  -8.861  -1.769  1.00  0.00     0.179 C 
ATOM     17  C   UNL     1      -1.896  -6.950  -0.519  1.00  0.00     0.178 C 
ATOM     18  C   UNL     1      -1.763  -8.160  -1.488  1.00  0.00     0.177 C 
BRANCH  14  19
ATOM     19  O   UNL     1      -3.317 -10.034   0.311  1.00  0.00    -0.385 OA
ATOM     20  H   UNL     1      -3.405  -9.743   1.255  1.00  0.00     0.211 HD
ENDBRANCH  14  19
BRANCH  16  21
ATOM     21  O   UNL     1      -3.860  -8.144  -2.711  1.00  0.00    -0.387 OA
ATOM     22  H   UNL     1      -4.470  -7.546  -2.201  1.00  0.00     0.211 HD
ENDBRANCH  16  21
BRANCH  17  23
ATOM     23  C   UNL     1      -2.155  -5.582  -1.186  1.00  0.00     0.191 C 
BRANCH  23  24
ATOM     24  O   UNL     1      -2.021  -5.644  -2.574  1.00  0.00    -0.394 OA
ATOM     25  H   UNL     1      -1.839  -6.595  -2.802  1.00  0.00     0.210 HD
ENDBRANCH  23  24
ENDBRANCH  17  23
BRANCH  18  26
ATOM     26  O   UNL     1      -0.880  -9.105  -0.935  1.00  0.00    -0.387 OA
ATOM     27  H   UNL     1       0.042  -8.821  -1.175  1.00  0.00     0.211 HD
ENDBRANCH  18  26
ENDBRANCH  12  13
ENDBRANCH   7  12
BRANCH   4  28
ATOM     28  O   UNL     1      -9.967  -6.046   1.449  1.00  0.00    -0.365 OA
ATOM     29  H   UNL     1     -10.123  -7.026   1.494  1.00  0.00     0.214 HD
ENDBRANCH   4  28
BRANCH   8  30
ATOM     30  C   UNL     1      -5.347  -4.702   1.709  1.00  0.00     0.249 C 
BRANCH  30  31
ATOM     31  O   UNL     1      -4.950  -3.468   1.111  1.00  0.00    -0.461 OA
BRANCH  31  32
ATOM     32  C   UNL     1      -3.974  -2.619   1.647  1.00  0.00     0.338 C 
ATOM     33  O   UNL     1      -4.312  -1.601   2.309  1.00  0.00    -0.246 OA
BRANCH  32  34
ATOM     34  C   UNL     1      -2.541  -2.931   1.442  1.00  0.00     0.060 A 
ATOM     35  C   UNL     1      -1.757  -2.159   0.563  1.00  0.00     0.015 A 
ATOM     36  C   UNL     1      -1.950  -4.020   2.106  1.00  0.00     0.015 A 
ATOM     37  C   UNL     1      -0.410  -2.473   0.356  1.00  0.00     0.001 A 
ATOM     38  C   UNL     1      -0.603  -4.330   1.895  1.00  0.00     0.001 A 
ATOM     39  C   UNL     1       0.167  -3.557   1.022  1.00  0.00     0.000 A 
ENDBRANCH  32  34
ENDBRANCH  31  32
ENDBRANCH  30  31
ENDBRANCH   8  30
TORSDOF 12
ENDMDL
MODEL 5
REMARK VINA RESULT:    -4.766      2.374      4.787
REMARK INTER + INTRA:          -8.860
REMARK INTER:                  -7.649
REMARK INTRA:                  -1.210
REMARK UNBOUND:                -1.446
REMARK SMILES C[C@]12C[C@]3(O)O[C@H](O1)[C@@]1(COC(=O)c4ccccc4)[C@@H]3C[C@]12O[C@@H]1O[C@H](CO)[C@@H](O)[C@H](O)[C@H]1O
REMARK SMILES IDX 1 1 2 2 3 3 4 4 20 5 21 6 22 7 9 8 7 9 8 10 6 11 23 12 24 13
REMARK SMILES IDX 33 14 25 15 31 16 26 17 29 18 34 19 32 21 27 23 28 24 30 26
REMARK SMILES IDX 5 28 10 30 11 31 12 32 13 33 14 34 15 35 19 36 16 37 18 38
REMARK SMILES IDX 17 39
REMARK H PARENT 34 20 32 22 28 25 30 27 5 29
REMARK Flexibility Score: inf
ROOT
ATOM      1  C   UNL     1     -12.123  -5.885  -3.004  1.00  0.00     0.046 C 
ATOM      2  C   UNL     1     -11.270  -5.646  -1.760  1.00  0.00     0.104 C 
ATOM      3  C   UNL     1     -12.034  -6.093  -0.459  1.00  0.00     0.104 C 
ATOM      4  C   UNL     1     -10.977  -5.876   0.675  1.00  0.00     0.175 C 
ATOM      5  C   UNL     1      -9.608  -6.517   0.275  1.00  0.00     0.070 C 
ATOM      6  C   UNL     1      -9.736  -7.542  -0.870  1.00  0.00     0.050 C 
ATOM      7  C   UNL     1      -9.841  -6.315  -1.817  1.00  0.00     0.115 C 
ATOM      8  C   UNL     1      -9.167  -5.464  -0.740  1.00  0.00     0.096 C 
ATOM      9  C   UNL     1     -10.056  -4.250  -0.526  1.00  0.00     0.267 C 
ATOM     10  O   UNL     1     -11.002  -4.268  -1.584  1.00  0.00    -0.342 OA
ATOM     11  O   UNL     1     -10.726  -4.484   0.703  1.00  0.00    -0.320 OA
ENDROOT
BRANCH   7  12
ATOM     12  O   UNL     1      -9.228  -6.235  -3.111  1.00  0.00    -0.339 OA
BRANCH  12  13
ATOM     13  C   UNL     1      -8.785  -7.461  -3.677  1.00  0.00     0.282 C 
ATOM     14  C   UNL     1      -9.591  -7.840  -4.938  1.00  0.00     0.202 C 
ATOM     15  O   UNL     1      -7.390  -7.418  -3.927  1.00  0.00    -0.341 OA
ATOM     16  C   UNL     1      -9.286  -6.893  -6.103  1.00  0.00     0.179 C 
ATOM     17  C   UNL     1      -6.985  -6.549  -4.977  1.00  0.00     0.178 C 
ATOM     18  C   UNL     1      -7.767  -6.734  -6.309  1.00  0.00     0.177 C 
BRANCH  14  19
ATOM     19  O   UNL     1      -9.285  -9.158  -5.320  1.00  0.00    -0.385 OA
ATOM     20  H   UNL     1      -9.962  -9.747  -4.895  1.00  0.00     0.211 HD
ENDBRANCH  14  19
BRANCH  16  21
ATOM     21  O   UNL     1      -9.895  -5.650  -5.877  1.00  0.00    -0.387 OA
ATOM     22  H   UNL     1      -9.373  -5.195  -5.162  1.00  0.00     0.211 HD
ENDBRANCH  16  21
BRANCH  17  23
ATOM     23  C   UNL     1      -6.795  -5.090  -4.508  1.00  0.00     0.191 C 
BRANCH  23  24
ATOM     24  O   UNL     1      -7.754  -4.237  -5.054  1.00  0.00    -0.394 OA
ATOM     25  H   UNL     1      -8.427  -4.814  -5.505  1.00  0.00     0.210 HD
ENDBRANCH  23  24
ENDBRANCH  17  23
BRANCH  18  26
ATOM     26  O   UNL     1      -7.291  -7.879  -6.974  1.00  0.00    -0.387 OA
ATOM     27  H   UNL     1      -6.494  -8.199  -6.473  1.00  0.00     0.211 HD
ENDBRANCH  18  26
ENDBRANCH  12  13
ENDBRANCH   7  12
BRANCH   4  28
ATOM     28  O   UNL     1     -11.434  -6.317   1.925  1.00  0.00    -0.365 OA
ATOM     29  H   UNL     1     -11.627  -5.503   2.460  1.00  0.00     0.214 HD
ENDBRANCH   4  28
BRANCH   8  30
ATOM     30  C   UNL     1      -7.649  -5.199  -0.840  1.00  0.00     0.249 C 
BRANCH  30  31
ATOM     31  O   UNL     1      -7.212  -4.386   0.249  1.00  0.00    -0.461 OA
BRANCH  31  32
ATOM     32  C   UNL     1      -6.267  -4.794   1.198  1.00  0.00     0.338 C 
ATOM     33  O   UNL     1      -6.504  -5.783   1.945  1.00  0.00    -0.246 OA
BRANCH  32  34
ATOM     34  C   UNL     1      -4.983  -4.066   1.312  1.00  0.00     0.060 A 
ATOM     35  C   UNL     1      -3.758  -4.742   1.158  1.00  0.00     0.015 A 
ATOM     36  C   UNL     1      -4.971  -2.690   1.601  1.00  0.00     0.015 A 
ATOM     37  C   UNL     1      -2.549  -4.053   1.290  1.00  0.00     0.001 A 
ATOM     38  C   UNL     1      -3.760  -2.006   1.733  1.00  0.00     0.001 A 
ATOM     39  C   UNL     1      -2.549  -2.686   1.576  1.00  0.00     0.000 A 
ENDBRANCH  32  34
ENDBRANCH  31  32
ENDBRANCH  30  31
ENDBRANCH   8  30
TORSDOF 12
ENDMDL
MODEL 6
REMARK VINA RESULT:    -4.737     11.512     14.011
REMARK INTER + INTRA:          -8.814
REMARK INTER:                  -7.381
REMARK INTRA:                  -1.433
REMARK UNBOUND:                -1.446
REMARK SMILES C[C@]12C[C@]3(O)O[C@H](O1)[C@@]1(COC(=O)c4ccccc4)[C@@H]3C[C@]12O[C@@H]1O[C@H](CO)[C@@H](O)[C@H](O)[C@H]1O
REMARK SMILES IDX 1 1 2 2 3 3 4 4 20 5 21 6 22 7 9 8 7 9 8 10 6 11 23 12 24 13
REMARK SMILES IDX 33 14 25 15 31 16 26 17 29 18 34 19 32 21 27 23 28 24 30 26
REMARK SMILES IDX 5 28 10 30 11 31 12 32 13 33 14 34 15 35 19 36 16 37 18 38
REMARK SMILES IDX 17 39
REMARK H PARENT 34 20 32 22 28 25 30 27 5 29
REMARK Flexibility Score: inf
ROOT
ATOM      1  C   UNL     1       2.958   4.406  -8.170  1.00  0.00     0.046 C 
ATOM      2  C   UNL     1       3.824   3.822  -7.056  1.00  0.00     0.104 C 
ATOM      3  C   UNL     1       4.334   4.953  -6.089  1.00  0.00     0.104 C 
ATOM      4  C   UNL     1       5.096   4.161  -4.974  1.00  0.00     0.175 C 
ATOM      5  C   UNL     1       4.219   2.978  -4.450  1.00  0.00     0.070 C 
ATOM      6  C   UNL     1       2.726   3.131  -4.806  1.00  0.00     0.050 C 
ATOM      7  C   UNL     1       3.127   2.667  -6.234  1.00  0.00     0.115 C 
ATOM      8  C   UNL     1       4.390   2.039  -5.643  1.00  0.00     0.096 C 
ATOM      9  C   UNL     1       5.560   2.571  -6.454  1.00  0.00     0.267 C 
ATOM     10  O   UNL     1       4.991   3.220  -7.580  1.00  0.00    -0.342 OA
ATOM     11  O   UNL     1       6.186   3.538  -5.625  1.00  0.00    -0.320 OA
ENDROOT
BRANCH   7  12
ATOM     12  O   UNL     1       2.346   1.782  -7.049  1.00  0.00    -0.339 OA
BRANCH  12  13
ATOM     13  C   UNL     1       0.948   1.761  -6.795  1.00  0.00     0.282 C 
ATOM     14  C   UNL     1       0.129   2.178  -8.036  1.00  0.00     0.202 C 
ATOM     15  O   UNL     1       0.552   0.494  -6.295  1.00  0.00    -0.341 OA
ATOM     16  C   UNL     1       0.207   1.119  -9.140  1.00  0.00     0.179 C 
ATOM     17  C   UNL     1       0.608  -0.575  -7.230  1.00  0.00     0.178 C 
ATOM     18  C   UNL     1      -0.096  -0.287  -8.587  1.00  0.00     0.177 C 
BRANCH  14  19
ATOM     19  O   UNL     1      -1.216   2.373  -7.675  1.00  0.00    -0.385 OA
ATOM     20  H   UNL     1      -1.253   2.368  -6.684  1.00  0.00     0.211 HD
ENDBRANCH  14  19
BRANCH  16  21
ATOM     21  O   UNL     1       1.472   1.158  -9.747  1.00  0.00    -0.387 OA
ATOM     22  H   UNL     1       1.972   0.360  -9.430  1.00  0.00     0.211 HD
ENDBRANCH  16  21
BRANCH  17  23
ATOM     23  C   UNL     1       2.010  -1.216  -7.324  1.00  0.00     0.191 C 
BRANCH  23  24
ATOM     24  O   UNL     1       2.608  -0.984  -8.564  1.00  0.00    -0.394 OA
ATOM     25  H   UNL     1       3.038  -1.838  -8.838  1.00  0.00     0.210 HD
ENDBRANCH  23  24
ENDBRANCH  17  23
BRANCH  18  26
ATOM     26  O   UNL     1      -1.488  -0.405  -8.424  1.00  0.00    -0.387 OA
ATOM     27  H   UNL     1      -1.866   0.514  -8.457  1.00  0.00     0.211 HD
ENDBRANCH  18  26
ENDBRANCH  12  13
ENDBRANCH   7  12
BRANCH   4  28
ATOM     28  O   UNL     1       5.551   4.993  -3.941  1.00  0.00    -0.365 OA
ATOM     29  H   UNL     1       5.774   4.400  -3.176  1.00  0.00     0.214 HD
ENDBRANCH   4  28
BRANCH   8  30
ATOM     30  C   UNL     1       4.395   0.526  -5.332  1.00  0.00     0.249 C 
BRANCH  30  31
ATOM     31  O   UNL     1       5.732   0.057  -5.162  1.00  0.00    -0.461 OA
BRANCH  31  32
ATOM     32  C   UNL     1       6.397   0.021  -3.930  1.00  0.00     0.338 C 
ATOM     33  O   UNL     1       7.023   1.035  -3.517  1.00  0.00    -0.246 OA
BRANCH  32  34
ATOM     34  C   UNL     1       6.351  -1.211  -3.110  1.00  0.00     0.060 A 
ATOM     35  C   UNL     1       6.677  -1.173  -1.740  1.00  0.00     0.015 A 
ATOM     36  C   UNL     1       6.002  -2.440  -3.695  1.00  0.00     0.015 A 
ATOM     37  C   UNL     1       6.655  -2.344  -0.977  1.00  0.00     0.001 A 
ATOM     38  C   UNL     1       5.982  -3.608  -2.927  1.00  0.00     0.001 A 
ATOM     39  C   UNL     1       6.306  -3.560  -1.569  1.00  0.00     0.000 A 
ENDBRANCH  32  34
ENDBRANCH  31  32
ENDBRANCH  30  31
ENDBRANCH   8  30
TORSDOF 12
ENDMDL
MODEL 7
REMARK VINA RESULT:    -4.638     11.986     14.110
REMARK INTER + INTRA:          -8.660
REMARK INTER:                  -7.214
REMARK INTRA:                  -1.446
REMARK UNBOUND:                -1.446
REMARK SMILES C[C@]12C[C@]3(O)O[C@H](O1)[C@@]1(COC(=O)c4ccccc4)[C@@H]3C[C@]12O[C@@H]1O[C@H](CO)[C@@H](O)[C@H](O)[C@H]1O
REMARK SMILES IDX 1 1 2 2 3 3 4 4 20 5 21 6 22 7 9 8 7 9 8 10 6 11 23 12 24 13
REMARK SMILES IDX 33 14 25 15 31 16 26 17 29 18 34 19 32 21 27 23 28 24 30 26
REMARK SMILES IDX 5 28 10 30 11 31 12 32 13 33 14 34 15 35 19 36 16 37 18 38
REMARK SMILES IDX 17 39
REMARK H PARENT 34 20 32 22 28 25 30 27 5 29
REMARK Flexibility Score: inf
ROOT
ATOM      1  C   UNL     1       1.356   3.502  -8.706  1.00  0.00     0.046 C 
ATOM      2  C   UNL     1       1.887   3.703  -7.288  1.00  0.00     0.104 C 
ATOM      3  C   UNL     1       1.003   4.738  -6.498  1.00  0.00     0.104 C 
ATOM      4  C   UNL     1       1.628   4.726  -5.062  1.00  0.00     0.175 C 
ATOM      5  C   UNL     1       1.807   3.257  -4.558  1.00  0.00     0.070 C 
ATOM      6  C   UNL     1       0.961   2.241  -5.352  1.00  0.00     0.050 C 
ATOM      7  C   UNL     1       2.043   2.367  -6.461  1.00  0.00     0.115 C 
ATOM      8  C   UNL     1       3.021   2.885  -5.407  1.00  0.00     0.096 C 
ATOM      9  C   UNL     1       3.593   4.186  -5.947  1.00  0.00     0.267 C 
ATOM     10  O   UNL     1       3.188   4.256  -7.306  1.00  0.00    -0.342 OA
ATOM     11  O   UNL     1       2.946   5.216  -5.215  1.00  0.00    -0.320 OA
ENDROOT
BRANCH   7  12
ATOM     12  O   UNL     1       2.534   1.269  -7.243  1.00  0.00    -0.339 OA
BRANCH  12  13
ATOM     13  C   UNL     1       1.933   0.004  -7.003  1.00  0.00     0.282 C 
ATOM     14  C   UNL     1       0.971  -0.403  -8.140  1.00  0.00     0.202 C 
ATOM     15  O   UNL     1       2.925  -0.980  -6.763  1.00  0.00    -0.341 OA
ATOM     16  C   UNL     1       1.733  -0.720  -9.431  1.00  0.00     0.179 C 
ATOM     17  C   UNL     1       3.714  -1.339  -7.890  1.00  0.00     0.178 C 
ATOM     18  C   UNL     1       2.898  -1.694  -9.166  1.00  0.00     0.177 C 
BRANCH  14  19
ATOM     19  O   UNL     1       0.227  -1.531  -7.752  1.00  0.00    -0.385 OA
ATOM     20  H   UNL     1      -0.713  -1.366  -8.026  1.00  0.00     0.211 HD
ENDBRANCH  14  19
BRANCH  16  21
ATOM     21  O   UNL     1       2.195   0.469 -10.014  1.00  0.00    -0.387 OA
ATOM     22  H   UNL     1       3.188   0.430 -10.008  1.00  0.00     0.211 HD
ENDBRANCH  16  21
BRANCH  17  23
ATOM     23  C   UNL     1       4.916  -0.393  -8.104  1.00  0.00     0.191 C 
BRANCH  23  24
ATOM     24  O   UNL     1       4.789   0.356  -9.275  1.00  0.00    -0.394 OA
ATOM     25  H   UNL     1       4.214  -0.171  -9.891  1.00  0.00     0.210 HD
ENDBRANCH  23  24
ENDBRANCH  17  23
BRANCH  18  26
ATOM     26  O   UNL     1       2.367  -2.990  -9.034  1.00  0.00    -0.387 OA
ATOM     27  H   UNL     1       2.796  -3.555  -9.730  1.00  0.00     0.211 HD
ENDBRANCH  18  26
ENDBRANCH  12  13
ENDBRANCH   7  12
BRANCH   4  28
ATOM     28  O   UNL     1       0.910   5.522  -4.160  1.00  0.00    -0.365 OA
ATOM     29  H   UNL     1       1.457   5.579  -3.332  1.00  0.00     0.214 HD
ENDBRANCH   4  28
BRANCH   8  30
ATOM     30  C   UNL     1       4.027   1.899  -4.774  1.00  0.00     0.249 C 
BRANCH  30  31
ATOM     31  O   UNL     1       5.287   1.976  -5.440  1.00  0.00    -0.461 OA
BRANCH  31  32
ATOM     32  C   UNL     1       6.457   1.367  -4.970  1.00  0.00     0.338 C 
ATOM     33  O   UNL     1       7.584   1.854  -5.255  1.00  0.00    -0.246 OA
BRANCH  32  34
ATOM     34  C   UNL     1       6.362   0.154  -4.127  1.00  0.00     0.060 A 
ATOM     35  C   UNL     1       6.848   0.159  -2.804  1.00  0.00     0.015 A 
ATOM     36  C   UNL     1       5.806  -1.029  -4.644  1.00  0.00     0.015 A 
ATOM     37  C   UNL     1       6.777  -0.997  -2.021  1.00  0.00     0.001 A 
ATOM     38  C   UNL     1       5.739  -2.182  -3.857  1.00  0.00     0.001 A 
ATOM     39  C   UNL     1       6.222  -2.166  -2.546  1.00  0.00     0.000 A 
ENDBRANCH  32  34
ENDBRANCH  31  32
ENDBRANCH  30  31
ENDBRANCH   8  30
TORSDOF 12
ENDMDL
MODEL 8
REMARK VINA RESULT:    -4.606     12.213     14.237
REMARK INTER + INTRA:          -8.611
REMARK INTER:                  -7.041
REMARK INTRA:                  -1.570
REMARK UNBOUND:                -1.446
REMARK SMILES C[C@]12C[C@]3(O)O[C@H](O1)[C@@]1(COC(=O)c4ccccc4)[C@@H]3C[C@]12O[C@@H]1O[C@H](CO)[C@@H](O)[C@H](O)[C@H]1O
REMARK SMILES IDX 1 1 2 2 3 3 4 4 20 5 21 6 22 7 9 8 7 9 8 10 6 11 23 12 24 13
REMARK SMILES IDX 33 14 25 15 31 16 26 17 29 18 34 19 32 21 27 23 28 24 30 26
REMARK SMILES IDX 5 28 10 30 11 31 12 32 13 33 14 34 15 35 19 36 16 37 18 38
REMARK SMILES IDX 17 39
REMARK H PARENT 34 20 32 22 28 25 30 27 5 29
REMARK Flexibility Score: inf
ROOT
ATOM      1  C   UNL     1       1.231   0.003  -8.037  1.00  0.00     0.046 C 
ATOM      2  C   UNL     1       2.712  -0.358  -7.947  1.00  0.00     0.104 C 
ATOM      3  C   UNL     1       3.188  -1.107  -9.247  1.00  0.00     0.104 C 
ATOM      4  C   UNL     1       4.725  -1.292  -9.016  1.00  0.00     0.175 C 
ATOM      5  C   UNL     1       5.376   0.059  -8.572  1.00  0.00     0.070 C 
ATOM      6  C   UNL     1       4.492   1.284  -8.884  1.00  0.00     0.050 C 
ATOM      7  C   UNL     1       3.659   0.868  -7.640  1.00  0.00     0.115 C 
ATOM      8  C   UNL     1       4.866   0.079  -7.132  1.00  0.00     0.096 C 
ATOM      9  C   UNL     1       4.369  -1.324  -6.823  1.00  0.00     0.267 C 
ATOM     10  O   UNL     1       2.953  -1.258  -6.884  1.00  0.00    -0.342 OA
ATOM     11  O   UNL     1       4.844  -2.135  -7.887  1.00  0.00    -0.320 OA
ENDROOT
BRANCH   7  12
ATOM     12  O   UNL     1       3.105   1.789  -6.691  1.00  0.00    -0.339 OA
BRANCH  12  13
ATOM     13  C   UNL     1       2.861   3.108  -7.160  1.00  0.00     0.282 C 
ATOM     14  C   UNL     1       1.359   3.462  -7.135  1.00  0.00     0.202 C 
ATOM     15  O   UNL     1       3.643   4.045  -6.437  1.00  0.00    -0.341 OA
ATOM     16  C   UNL     1       0.839   3.598  -5.701  1.00  0.00     0.179 C 
ATOM     17  C   UNL     1       3.265   4.237  -5.079  1.00  0.00     0.178 C 
ATOM     18  C   UNL     1       1.750   4.515  -4.861  1.00  0.00     0.177 C 
BRANCH  14  19
ATOM     19  O   UNL     1       1.143   4.670  -7.823  1.00  0.00    -0.385 OA
ATOM     20  H   UNL     1       0.255   4.599  -8.260  1.00  0.00     0.211 HD
ENDBRANCH  14  19
BRANCH  16  21
ATOM     21  O   UNL     1       0.726   2.329  -5.114  1.00  0.00    -0.387 OA
ATOM     22  H   UNL     1      -0.243   2.161  -4.966  1.00  0.00     0.211 HD
ENDBRANCH  16  21
BRANCH  17  23
ATOM     23  C   UNL     1       3.900   3.198  -4.129  1.00  0.00     0.191 C 
BRANCH  23  24
ATOM     24  O   UNL     1       5.265   3.422  -3.948  1.00  0.00    -0.394 OA
ATOM     25  H   UNL     1       5.562   2.808  -3.224  1.00  0.00     0.210 HD
ENDBRANCH  23  24
ENDBRANCH  17  23
BRANCH  18  26
ATOM     26  O   UNL     1       1.467   5.849  -5.205  1.00  0.00    -0.387 OA
ATOM     27  H   UNL     1       2.113   6.422  -4.711  1.00  0.00     0.211 HD
ENDBRANCH  18  26
ENDBRANCH  12  13
ENDBRANCH   7  12
BRANCH   4  28
ATOM     28  O   UNL     1       5.368  -1.861 -10.124  1.00  0.00    -0.365 OA
ATOM     29  H   UNL     1       4.700  -2.443 -10.572  1.00  0.00     0.214 HD
ENDBRANCH   4  28
BRANCH   8  30
ATOM     30  C   UNL     1       5.794   0.730  -6.083  1.00  0.00     0.249 C 
BRANCH  30  31
ATOM     31  O   UNL     1       5.412   0.335  -4.766  1.00  0.00    -0.461 OA
BRANCH  31  32
ATOM     32  C   UNL     1       6.319   0.105  -3.725  1.00  0.00     0.338 C 
ATOM     33  O   UNL     1       7.133   1.006  -3.383  1.00  0.00    -0.246 OA
BRANCH  32  34
ATOM     34  C   UNL     1       6.310  -1.197  -3.021  1.00  0.00     0.060 A 
ATOM     35  C   UNL     1       6.664  -1.279  -1.660  1.00  0.00     0.015 A 
ATOM     36  C   UNL     1       5.971  -2.374  -3.710  1.00  0.00     0.015 A 
ATOM     37  C   UNL     1       6.676  -2.515  -1.007  1.00  0.00     0.001 A 
ATOM     38  C   UNL     1       5.986  -3.607  -3.052  1.00  0.00     0.001 A 
ATOM     39  C   UNL     1       6.336  -3.678  -1.701  1.00  0.00     0.000 A 
ENDBRANCH  32  34
ENDBRANCH  31  32
ENDBRANCH  30  31
ENDBRANCH   8  30
TORSDOF 12
ENDMDL
MODEL 9
REMARK VINA RESULT:    -4.589      1.834      5.438
REMARK INTER + INTRA:          -8.584
REMARK INTER:                  -7.233
REMARK INTRA:                  -1.351
REMARK UNBOUND:                -1.446
REMARK SMILES C[C@]12C[C@]3(O)O[C@H](O1)[C@@]1(COC(=O)c4ccccc4)[C@@H]3C[C@]12O[C@@H]1O[C@H](CO)[C@@H](O)[C@H](O)[C@H]1O
REMARK SMILES IDX 1 1 2 2 3 3 4 4 20 5 21 6 22 7 9 8 7 9 8 10 6 11 23 12 24 13
REMARK SMILES IDX 33 14 25 15 31 16 26 17 29 18 34 19 32 21 27 23 28 24 30 26
REMARK SMILES IDX 5 28 10 30 11 31 12 32 13 33 14 34 15 35 19 36 16 37 18 38
REMARK SMILES IDX 17 39
REMARK H PARENT 34 20 32 22 28 25 30 27 5 29
REMARK Flexibility Score: inf
ROOT
ATOM      1  C   UNL     1      -6.746  -9.167   0.998  1.00  0.00     0.046 C 
ATOM      2  C   UNL     1      -6.906  -7.757   0.434  1.00  0.00     0.104 C 
ATOM      3  C   UNL     1      -8.062  -7.705  -0.632  1.00  0.00     0.104 C 
ATOM      4  C   UNL     1      -8.144  -6.187  -1.005  1.00  0.00     0.175 C 
ATOM      5  C   UNL     1      -8.191  -5.310   0.288  1.00  0.00     0.070 C 
ATOM      6  C   UNL     1      -8.581  -6.113   1.546  1.00  0.00     0.050 C 
ATOM      7  C   UNL     1      -7.120  -6.642   1.533  1.00  0.00     0.115 C 
ATOM      8  C   UNL     1      -6.721  -5.433   0.685  1.00  0.00     0.096 C 
ATOM      9  C   UNL     1      -5.984  -5.977  -0.528  1.00  0.00     0.267 C 
ATOM     10  O   UNL     1      -5.741  -7.348  -0.254  1.00  0.00    -0.342 OA
ATOM     11  O   UNL     1      -6.902  -5.873  -1.606  1.00  0.00    -0.320 OA
ENDROOT
BRANCH   7  12
ATOM     12  O   UNL     1      -6.318  -6.840   2.706  1.00  0.00    -0.339 OA
BRANCH  12  13
ATOM     13  C   UNL     1      -7.021  -6.998   3.930  1.00  0.00     0.282 C 
ATOM     14  C   UNL     1      -6.875  -8.425   4.500  1.00  0.00     0.202 C 
ATOM     15  O   UNL     1      -6.623  -6.006   4.863  1.00  0.00    -0.341 OA
ATOM     16  C   UNL     1      -5.447  -8.691   4.986  1.00  0.00     0.179 C 
ATOM     17  C   UNL     1      -5.300  -6.139   5.367  1.00  0.00     0.178 C 
ATOM     18  C   UNL     1      -4.949  -7.556   5.902  1.00  0.00     0.177 C 
BRANCH  14  19
ATOM     19  O   UNL     1      -7.769  -8.604   5.571  1.00  0.00    -0.385 OA
ATOM     20  H   UNL     1      -8.546  -8.010   5.401  1.00  0.00     0.211 HD
ENDBRANCH  14  19
BRANCH  16  21
ATOM     21  O   UNL     1      -4.594  -8.857   3.884  1.00  0.00    -0.387 OA
ATOM     22  H   UNL     1      -3.814  -8.256   4.025  1.00  0.00     0.211 HD
ENDBRANCH  16  21
BRANCH  17  23
ATOM     23  C   UNL     1      -4.242  -5.487   4.449  1.00  0.00     0.191 C 
BRANCH  23  24
ATOM     24  O   UNL     1      -3.962  -4.173   4.826  1.00  0.00    -0.394 OA
ATOM     25  H   UNL     1      -4.627  -3.928   5.523  1.00  0.00     0.210 HD
ENDBRANCH  23  24
ENDBRANCH  17  23
BRANCH  18  26
ATOM     26  O   UNL     1      -5.528  -7.731   7.172  1.00  0.00    -0.387 OA
ATOM     27  H   UNL     1      -4.903  -7.335   7.837  1.00  0.00     0.211 HD
ENDBRANCH  18  26
ENDBRANCH  12  13
ENDBRANCH   7  12
BRANCH   4  28
ATOM     28  O   UNL     1      -9.199  -5.908  -1.885  1.00  0.00    -0.365 OA
ATOM     29  H   UNL     1      -9.019  -6.421  -2.716  1.00  0.00     0.214 HD
ENDBRANCH   4  28
BRANCH   8  30
ATOM     30  C   UNL     1      -6.093  -4.208   1.384  1.00  0.00     0.249 C 
BRANCH  30  31
ATOM     31  O   UNL     1      -4.690  -4.153   1.127  1.00  0.00    -0.461 OA
BRANCH  31  32
ATOM     32  C   UNL     1      -3.871  -3.076   1.487  1.00  0.00     0.338 C 
ATOM     33  O   UNL     1      -4.382  -2.010   1.926  1.00  0.00    -0.246 OA
BRANCH  32  34
ATOM     34  C   UNL     1      -2.402  -3.200   1.361  1.00  0.00     0.060 A 
ATOM     35  C   UNL     1      -1.660  -2.246   0.636  1.00  0.00     0.015 A 
ATOM     36  C   UNL     1      -1.728  -4.287   1.944  1.00  0.00     0.015 A 
ATOM     37  C   UNL     1      -0.276  -2.382   0.501  1.00  0.00     0.001 A 
ATOM     38  C   UNL     1      -0.343  -4.418   1.805  1.00  0.00     0.001 A 
ATOM     39  C   UNL     1       0.383  -3.466   1.086  1.00  0.00     0.000 A 
ENDBRANCH  32  34
ENDBRANCH  31  32
ENDBRANCH  30  31
ENDBRANCH   8  30
TORSDOF 12
ENDMDL
