MODEL 1
REMARK VINA RESULT:    -2.512      0.000      0.000
REMARK INTER + INTRA:          -5.203
REMARK INTER:                  -4.569
REMARK INTRA:                  -0.635
REMARK UNBOUND:                -0.635
REMARK SMILES CCCCCCCCCCCCCC[C@@H](C)C(=O)[O-]
REMARK SMILES IDX 9 1 10 2 11 3 12 4 13 5 14 6 15 7 16 8 17 9 18 10 19 11 8 12
REMARK SMILES IDX 7 13 6 14 5 15 4 16 3 17 2 18 1 19
REMARK H PARENT
REMARK Flexibility Score: inf
ROOT
ATOM      1  C   UNL     1      44.835 -24.875  -0.148  1.00  0.00     0.000 C 
ENDROOT
BRANCH   1   2
ATOM      2  C   UNL     1      45.106 -23.732  -1.141  1.00  0.00     0.000 C 
BRANCH   2   3
ATOM      3  C   UNL     1      45.981 -24.174  -2.326  1.00  0.00     0.000 C 
BRANCH   3   4
ATOM      4  C   UNL     1      45.291 -25.226  -3.212  1.00  0.00     0.000 C 
BRANCH   4   5
ATOM      5  C   UNL     1      46.066 -25.504  -4.511  1.00  0.00     0.001 C 
BRANCH   5   6
ATOM      6  C   UNL     1      45.245 -25.175  -5.771  1.00  0.00     0.009 C 
BRANCH   6   7
ATOM      7  C   UNL     1      46.115 -24.611  -6.917  1.00  0.00     0.032 C 
ATOM      8  C   UNL     1      45.747 -25.211  -8.281  1.00  0.00     0.014 C 
BRANCH   7   9
ATOM      9  C   UNL     1      45.985 -23.113  -6.971  1.00  0.00     0.044 C 
ATOM     10  O   UNL     1      45.935 -22.515  -8.080  1.00  0.00    -0.550 OA
ATOM     11  O   UNL     1      45.920 -22.379  -5.794  1.00  0.00    -0.550 OA
ENDBRANCH   7   9
ENDBRANCH   6   7
ENDBRANCH   5   6
ENDBRANCH   4   5
ENDBRANCH   3   4
ENDBRANCH   2   3
ENDBRANCH   1   2
BRANCH   1  12
ATOM     12  C   UNL     1      46.125 -25.424   0.485  1.00  0.00     0.000 C 
BRANCH  12  13
ATOM     13  C   UNL     1      46.027 -25.563   2.012  1.00  0.00    -0.000 C 
BRANCH  13  14
ATOM     14  C   UNL     1      45.129 -26.747   2.398  1.00  0.00    -0.000 C 
BRANCH  14  15
ATOM     15  C   UNL     1      45.919 -28.042   2.660  1.00  0.00    -0.000 C 
BRANCH  15  16
ATOM     16  C   UNL     1      45.996 -28.465   4.139  1.00  0.00    -0.000 C 
BRANCH  16  17
ATOM     17  C   UNL     1      46.059 -27.267   5.100  1.00  0.00    -0.000 C 
BRANCH  17  18
ATOM     18  C   UNL     1      46.043 -27.694   6.575  1.00  0.00    -0.003 C 
ATOM     19  C   UNL     1      46.122 -29.211   6.750  1.00  0.00     0.004 C 
ENDBRANCH  17  18
ENDBRANCH  16  17
ENDBRANCH  15  16
ENDBRANCH  14  15
ENDBRANCH  13  14
ENDBRANCH  12  13
ENDBRANCH   1  12
TORSDOF 14
ENDMDL
MODEL 2
REMARK VINA RESULT:    -2.155      1.822      3.754
REMARK INTER + INTRA:          -4.554
REMARK INTER:                  -4.027
REMARK INTRA:                  -0.527
REMARK UNBOUND:                -0.635
REMARK SMILES CCCCCCCCCCCCCC[C@@H](C)C(=O)[O-]
REMARK SMILES IDX 9 1 10 2 11 3 12 4 13 5 14 6 15 7 16 8 17 9 18 10 19 11 8 12
REMARK SMILES IDX 7 13 6 14 5 15 4 16 3 17 2 18 1 19
REMARK H PARENT
REMARK Flexibility Score: inf
ROOT
ATOM      1  C   UNL     1      45.213 -26.813   2.925  1.00  0.00     0.000 C 
ENDROOT
BRANCH   1   2
ATOM      2  C   UNL     1      46.078 -25.700   2.310  1.00  0.00     0.000 C 
BRANCH   2   3
ATOM      3  C   UNL     1      45.370 -24.969   1.157  1.00  0.00     0.000 C 
BRANCH   3   4
ATOM      4  C   UNL     1      46.125 -25.099  -0.178  1.00  0.00     0.000 C 
BRANCH   4   5
ATOM      5  C   UNL     1      45.279 -24.645  -1.380  1.00  0.00     0.001 C 
BRANCH   5   6
ATOM      6  C   UNL     1      46.067 -24.676  -2.702  1.00  0.00     0.009 C 
BRANCH   6   7
ATOM      7  C   UNL     1      45.243 -25.262  -3.871  1.00  0.00     0.032 C 
ATOM      8  C   UNL     1      43.730 -25.120  -3.650  1.00  0.00     0.014 C 
BRANCH   7   9
ATOM      9  C   UNL     1      45.631 -24.591  -5.161  1.00  0.00     0.044 C 
ATOM     10  O   UNL     1      45.787 -25.267  -6.212  1.00  0.00    -0.550 OA
ATOM     11  O   UNL     1      45.819 -23.215  -5.197  1.00  0.00    -0.550 OA
ENDBRANCH   7   9
ENDBRANCH   6   7
ENDBRANCH   5   6
ENDBRANCH   4   5
ENDBRANCH   3   4
ENDBRANCH   2   3
ENDBRANCH   1   2
BRANCH   1  12
ATOM     12  C   UNL     1      46.054 -27.970   3.491  1.00  0.00     0.000 C 
BRANCH  12  13
ATOM     13  C   UNL     1      46.119 -27.961   5.026  1.00  0.00    -0.000 C 
BRANCH  13  14
ATOM     14  C   UNL     1      46.025 -29.388   5.586  1.00  0.00    -0.000 C 
BRANCH  14  15
ATOM     15  C   UNL     1      46.048 -29.433   7.125  1.00  0.00    -0.000 C 
BRANCH  15  16
ATOM     16  C   UNL     1      46.062 -28.055   7.813  1.00  0.00    -0.000 C 
BRANCH  16  17
ATOM     17  C   UNL     1      45.994 -28.152   9.346  1.00  0.00    -0.000 C 
BRANCH  17  18
ATOM     18  C   UNL     1      44.919 -29.138   9.827  1.00  0.00    -0.003 C 
ATOM     19  C   UNL     1      44.201 -28.658  11.089  1.00  0.00     0.004 C 
ENDBRANCH  17  18
ENDBRANCH  16  17
ENDBRANCH  15  16
ENDBRANCH  14  15
ENDBRANCH  13  14
ENDBRANCH  12  13
ENDBRANCH   1  12
TORSDOF 14
ENDMDL
MODEL 3
REMARK VINA RESULT:    -1.755      1.159      1.945
REMARK INTER + INTRA:          -3.826
REMARK INTER:                  -3.070
REMARK INTRA:                  -0.756
REMARK UNBOUND:                -0.635
REMARK SMILES CCCCCCCCCCCCCC[C@@H](C)C(=O)[O-]
REMARK SMILES IDX 9 1 10 2 11 3 12 4 13 5 14 6 15 7 16 8 17 9 18 10 19 11 8 12
REMARK SMILES IDX 7 13 6 14 5 15 4 16 3 17 2 18 1 19
REMARK H PARENT
REMARK Flexibility Score: inf
ROOT
ATOM      1  C   UNL     1      44.895 -24.947   1.386  1.00  0.00     0.000 C 
ENDROOT
BRANCH   1   2
ATOM      2  C   UNL     1      45.345 -23.828   0.431  1.00  0.00     0.000 C 
BRANCH   2   3
ATOM      3  C   UNL     1      45.780 -24.363  -0.944  1.00  0.00     0.000 C 
BRANCH   3   4
ATOM      4  C   UNL     1      44.634 -25.064  -1.696  1.00  0.00     0.000 C 
BRANCH   4   5
ATOM      5  C   UNL     1      45.007 -25.413  -3.147  1.00  0.00     0.001 C 
BRANCH   5   6
ATOM      6  C   UNL     1      46.115 -24.502  -3.708  1.00  0.00     0.009 C 
BRANCH   6   7
ATOM      7  C   UNL     1      46.125 -24.461  -5.253  1.00  0.00     0.032 C 
ATOM      8  C   UNL     1      44.975 -25.271  -5.867  1.00  0.00     0.014 C 
BRANCH   7   9
ATOM      9  C   UNL     1      46.051 -23.036  -5.729  1.00  0.00     0.044 C 
ATOM     10  O   UNL     1      46.101 -22.083  -4.906  1.00  0.00    -0.550 OA
ATOM     11  O   UNL     1      45.926 -22.764  -7.085  1.00  0.00    -0.550 OA
ENDBRANCH   7   9
ENDBRANCH   6   7
ENDBRANCH   5   6
ENDBRANCH   4   5
ENDBRANCH   3   4
ENDBRANCH   2   3
ENDBRANCH   1   2
BRANCH   1  12
ATOM     12  C   UNL     1      45.937 -26.071   1.509  1.00  0.00     0.000 C 
BRANCH  12  13
ATOM     13  C   UNL     1      45.472 -27.217   2.420  1.00  0.00    -0.000 C 
BRANCH  13  14
ATOM     14  C   UNL     1      45.178 -26.705   3.837  1.00  0.00    -0.000 C 
BRANCH  14  15
ATOM     15  C   UNL     1      46.124 -27.296   4.899  1.00  0.00    -0.000 C 
BRANCH  15  16
ATOM     16  C   UNL     1      46.104 -26.572   6.258  1.00  0.00    -0.000 C 
BRANCH  16  17
ATOM     17  C   UNL     1      45.737 -27.504   7.426  1.00  0.00    -0.000 C 
BRANCH  17  18
ATOM     18  C   UNL     1      45.844 -28.989   7.049  1.00  0.00    -0.003 C 
ATOM     19  C   UNL     1      45.704 -29.916   8.257  1.00  0.00     0.004 C 
ENDBRANCH  17  18
ENDBRANCH  16  17
ENDBRANCH  15  16
ENDBRANCH  14  15
ENDBRANCH  13  14
ENDBRANCH  12  13
ENDBRANCH   1  12
TORSDOF 14
ENDMDL
MODEL 4
REMARK VINA RESULT:     0.279      4.116      9.619
REMARK INTER + INTRA:          -0.128
REMARK INTER:                  -1.480
REMARK INTRA:                   1.351
REMARK UNBOUND:                -0.635
REMARK SMILES CCCCCCCCCCCCCC[C@@H](C)C(=O)[O-]
REMARK SMILES IDX 9 1 10 2 11 3 12 4 13 5 14 6 15 7 16 8 17 9 18 10 19 11 8 12
REMARK SMILES IDX 7 13 6 14 5 15 4 16 3 17 2 18 1 19
REMARK H PARENT
REMARK Flexibility Score: inf
ROOT
ATOM      1  C   UNL     1      44.146 -23.637  -1.599  1.00  0.00     0.000 C 
ENDROOT
BRANCH   1   2
ATOM      2  C   UNL     1      45.038 -22.826  -0.645  1.00  0.00     0.000 C 
BRANCH   2   3
ATOM      3  C   UNL     1      45.392 -23.600   0.636  1.00  0.00     0.000 C 
BRANCH   3   4
ATOM      4  C   UNL     1      45.026 -25.092   0.545  1.00  0.00     0.000 C 
BRANCH   4   5
ATOM      5  C   UNL     1      46.083 -26.000   1.196  1.00  0.00     0.001 C 
BRANCH   5   6
ATOM      6  C   UNL     1      45.479 -27.293   1.772  1.00  0.00     0.009 C 
BRANCH   6   7
ATOM      7  C   UNL     1      46.124 -27.705   3.115  1.00  0.00     0.032 C 
ATOM      8  C   UNL     1      45.685 -26.803   4.276  1.00  0.00     0.014 C 
BRANCH   7   9
ATOM      9  C   UNL     1      45.785 -29.137   3.430  1.00  0.00     0.044 C 
ATOM     10  O   UNL     1      45.862 -29.566   4.612  1.00  0.00    -0.550 OA
ATOM     11  O   UNL     1      45.386 -29.995   2.414  1.00  0.00    -0.550 OA
ENDBRANCH   7   9
ENDBRANCH   6   7
ENDBRANCH   5   6
ENDBRANCH   4   5
ENDBRANCH   3   4
ENDBRANCH   2   3
ENDBRANCH   1   2
BRANCH   1  12
ATOM     12  C   UNL     1      44.641 -25.082  -1.785  1.00  0.00     0.000 C 
BRANCH  12  13
ATOM     13  C   UNL     1      46.088 -25.154  -2.293  1.00  0.00    -0.000 C 
BRANCH  13  14
ATOM     14  C   UNL     1      46.125 -25.385  -3.811  1.00  0.00    -0.000 C 
BRANCH  14  15
ATOM     15  C   UNL     1      46.124 -24.075  -4.619  1.00  0.00    -0.000 C 
BRANCH  15  16
ATOM     16  C   UNL     1      45.133 -24.043  -5.798  1.00  0.00    -0.000 C 
BRANCH  16  17
ATOM     17  C   UNL     1      45.593 -23.121  -6.940  1.00  0.00    -0.000 C 
BRANCH  17  18
ATOM     18  C   UNL     1      45.908 -23.892  -8.230  1.00  0.00    -0.003 C 
ATOM     19  C   UNL     1      46.014 -25.401  -8.004  1.00  0.00     0.004 C 
ENDBRANCH  17  18
ENDBRANCH  16  17
ENDBRANCH  15  16
ENDBRANCH  14  15
ENDBRANCH  13  14
ENDBRANCH  12  13
ENDBRANCH   1  12
TORSDOF 14
ENDMDL
