MODEL 1
REMARK VINA RESULT:    19.103      0.000      0.000
REMARK INTER + INTRA:          42.636
REMARK INTER:                  43.672
REMARK INTRA:                  -1.036
REMARK UNBOUND:                -1.036
REMARK SMILES CCCCCCCCCCCCCCCCCCCCCCCC(=O)[O-]
REMARK SMILES IDX 13 1 14 2 15 3 16 4 17 5 18 6 19 7 20 8 21 9 22 10 23 11
REMARK SMILES IDX 24 12 25 13 26 14 12 15 11 16 10 17 9 18 8 19 7 20 6 21 5 22
REMARK SMILES IDX 4 23 3 24 2 25 1 26
REMARK H PARENT
REMARK Flexibility Score: inf
ROOT
ATOM      1  C   UNL     1      -8.250 -17.399  28.038  1.00  0.00     0.000 C 
ENDROOT
BRANCH   1   2
ATOM      2  C   UNL     1      -7.488 -17.276  26.703  1.00  0.00     0.000 C 
BRANCH   2   3
ATOM      3  C   UNL     1      -6.079 -17.897  26.694  1.00  0.00     0.000 C 
BRANCH   3   4
ATOM      4  C   UNL     1      -5.929 -19.018  25.656  1.00  0.00     0.000 C 
BRANCH   4   5
ATOM      5  C   UNL     1      -5.755 -18.444  24.242  1.00  0.00     0.000 C 
BRANCH   5   6
ATOM      6  C   UNL     1      -4.483 -18.973  23.548  1.00  0.00     0.000 C 
BRANCH   6   7
ATOM      7  C   UNL     1      -4.662 -20.352  22.891  1.00  0.00     0.000 C 
BRANCH   7   8
ATOM      8  C   UNL     1      -3.397 -20.840  22.167  1.00  0.00     0.000 C 
BRANCH   8   9
ATOM      9  C   UNL     1      -2.176 -20.789  23.092  1.00  0.00     0.000 C 
BRANCH   9  10
ATOM     10  C   UNL     1      -1.306 -19.563  22.783  1.00  0.00     0.006 C 
BRANCH  10  11
ATOM     11  C   UNL     1      -0.406 -19.208  23.974  1.00  0.00     0.053 C 
BRANCH  11  12
ATOM     12  C   UNL     1      -0.705 -17.828  24.473  1.00  0.00     0.041 C 
ATOM     13  O   UNL     1      -0.191 -16.824  23.907  1.00  0.00    -0.550 OA
ATOM     14  O   UNL     1      -1.520 -17.651  25.586  1.00  0.00    -0.550 OA
ENDBRANCH  11  12
ENDBRANCH  10  11
ENDBRANCH   9  10
ENDBRANCH   8   9
ENDBRANCH   7   8
ENDBRANCH   6   7
ENDBRANCH   5   6
ENDBRANCH   4   5
ENDBRANCH   3   4
ENDBRANCH   2   3
ENDBRANCH   1   2
BRANCH   1  15
ATOM     15  C   UNL     1      -9.755 -17.079  27.968  1.00  0.00     0.000 C 
BRANCH  15  16
ATOM     16  C   UNL     1     -10.112 -16.159  26.788  1.00  0.00     0.000 C 
BRANCH  16  17
ATOM     17  C   UNL     1     -10.005 -14.662  27.135  1.00  0.00     0.000 C 
BRANCH  17  18
ATOM     18  C   UNL     1     -10.968 -13.739  26.365  1.00  0.00    -0.000 C 
BRANCH  18  19
ATOM     19  C   UNL     1     -11.269 -12.429  27.107  1.00  0.00    -0.000 C 
BRANCH  19  20
ATOM     20  C   UNL     1     -10.027 -11.526  27.153  1.00  0.00    -0.000 C 
BRANCH  20  21
ATOM     21  C   UNL     1     -10.375 -10.028  27.113  1.00  0.00    -0.000 C 
BRANCH  21  22
ATOM     22  C   UNL     1      -9.222  -9.112  27.580  1.00  0.00    -0.000 C 
BRANCH  22  23
ATOM     23  C   UNL     1      -7.881  -9.485  26.918  1.00  0.00    -0.000 C 
BRANCH  23  24
ATOM     24  C   UNL     1      -6.739  -9.624  27.948  1.00  0.00    -0.000 C 
BRANCH  24  25
ATOM     25  C   UNL     1      -5.427 -10.155  27.347  1.00  0.00    -0.003 C 
ATOM     26  C   UNL     1      -5.640 -11.011  26.100  1.00  0.00     0.004 C 
ENDBRANCH  24  25
ENDBRANCH  23  24
ENDBRANCH  22  23
ENDBRANCH  21  22
ENDBRANCH  20  21
ENDBRANCH  19  20
ENDBRANCH  18  19
ENDBRANCH  17  18
ENDBRANCH  16  17
ENDBRANCH  15  16
ENDBRANCH   1  15
TORSDOF 22
ENDMDL
MODEL 2
REMARK VINA RESULT:    19.223      2.221      9.772
REMARK INTER + INTRA:          42.910
REMARK INTER:                  44.164
REMARK INTRA:                  -1.254
REMARK UNBOUND:                -1.036
REMARK SMILES CCCCCCCCCCCCCCCCCCCCCCCC(=O)[O-]
REMARK SMILES IDX 13 1 14 2 15 3 16 4 17 5 18 6 19 7 20 8 21 9 22 10 23 11
REMARK SMILES IDX 24 12 25 13 26 14 12 15 11 16 10 17 9 18 8 19 7 20 6 21 5 22
REMARK SMILES IDX 4 23 3 24 2 25 1 26
REMARK H PARENT
REMARK Flexibility Score: inf
ROOT
ATOM      1  C   UNL     1      -8.681 -17.559  27.861  1.00  0.00     0.000 C 
ENDROOT
BRANCH   1   2
ATOM      2  C   UNL     1      -9.924 -16.669  28.070  1.00  0.00     0.000 C 
BRANCH   2   3
ATOM      3  C   UNL     1     -10.386 -15.888  26.825  1.00  0.00     0.000 C 
BRANCH   3   4
ATOM      4  C   UNL     1      -9.949 -14.417  26.851  1.00  0.00     0.000 C 
BRANCH   4   5
ATOM      5  C   UNL     1     -11.147 -13.480  26.633  1.00  0.00     0.000 C 
BRANCH   5   6
ATOM      6  C   UNL     1     -10.997 -12.151  27.403  1.00  0.00     0.000 C 
BRANCH   6   7
ATOM      7  C   UNL     1     -10.104 -11.118  26.694  1.00  0.00     0.000 C 
BRANCH   7   8
ATOM      8  C   UNL     1     -10.319  -9.686  27.208  1.00  0.00     0.000 C 
BRANCH   8   9
ATOM      9  C   UNL     1      -9.003  -9.070  27.696  1.00  0.00     0.000 C 
BRANCH   9  10
ATOM     10  C   UNL     1      -7.820  -9.571  26.857  1.00  0.00     0.006 C 
BRANCH  10  11
ATOM     11  C   UNL     1      -6.567  -9.756  27.723  1.00  0.00     0.053 C 
BRANCH  11  12
ATOM     12  C   UNL     1      -5.532 -10.558  26.995  1.00  0.00     0.041 C 
ATOM     13  O   UNL     1      -5.691 -10.839  25.775  1.00  0.00    -0.550 OA
ATOM     14  O   UNL     1      -4.411 -11.027  27.672  1.00  0.00    -0.550 OA
ENDBRANCH  11  12
ENDBRANCH  10  11
ENDBRANCH   9  10
ENDBRANCH   8   9
ENDBRANCH   7   8
ENDBRANCH   6   7
ENDBRANCH   5   6
ENDBRANCH   4   5
ENDBRANCH   3   4
ENDBRANCH   2   3
ENDBRANCH   1   2
BRANCH   1  15
ATOM     15  C   UNL     1      -7.606 -16.976  26.926  1.00  0.00     0.000 C 
BRANCH  15  16
ATOM     16  C   UNL     1      -6.366 -17.879  26.810  1.00  0.00     0.000 C 
BRANCH  16  17
ATOM     17  C   UNL     1      -6.287 -18.628  25.466  1.00  0.00     0.000 C 
BRANCH  17  18
ATOM     18  C   UNL     1      -4.863 -18.939  24.970  1.00  0.00    -0.000 C 
BRANCH  18  19
ATOM     19  C   UNL     1      -4.776 -19.095  23.445  1.00  0.00    -0.000 C 
BRANCH  19  20
ATOM     20  C   UNL     1      -4.536 -20.562  23.056  1.00  0.00    -0.000 C 
BRANCH  20  21
ATOM     21  C   UNL     1      -3.342 -20.740  22.104  1.00  0.00    -0.000 C 
BRANCH  21  22
ATOM     22  C   UNL     1      -1.986 -20.878  22.830  1.00  0.00    -0.000 C 
BRANCH  22  23
ATOM     23  C   UNL     1      -1.235 -19.535  22.915  1.00  0.00    -0.000 C 
BRANCH  23  24
ATOM     24  C   UNL     1      -0.636 -19.287  24.317  1.00  0.00    -0.000 C 
BRANCH  24  25
ATOM     25  C   UNL     1      -1.018 -17.924  24.919  1.00  0.00    -0.003 C 
ATOM     26  C   UNL     1      -0.265 -16.756  24.286  1.00  0.00     0.004 C 
ENDBRANCH  24  25
ENDBRANCH  23  24
ENDBRANCH  22  23
ENDBRANCH  21  22
ENDBRANCH  20  21
ENDBRANCH  19  20
ENDBRANCH  18  19
ENDBRANCH  17  18
ENDBRANCH  16  17
ENDBRANCH  15  16
ENDBRANCH   1  15
TORSDOF 22
ENDMDL
MODEL 3
REMARK VINA RESULT:    19.309      0.698      1.174
REMARK INTER + INTRA:          43.106
REMARK INTER:                  44.464
REMARK INTRA:                  -1.358
REMARK UNBOUND:                -1.036
REMARK SMILES CCCCCCCCCCCCCCCCCCCCCCCC(=O)[O-]
REMARK SMILES IDX 13 1 14 2 15 3 16 4 17 5 18 6 19 7 20 8 21 9 22 10 23 11
REMARK SMILES IDX 24 12 25 13 26 14 12 15 11 16 10 17 9 18 8 19 7 20 6 21 5 22
REMARK SMILES IDX 4 23 3 24 2 25 1 26
REMARK H PARENT
REMARK Flexibility Score: inf
ROOT
ATOM      1  C   UNL     1      -7.584 -17.035  26.868  1.00  0.00     0.000 C 
ENDROOT
BRANCH   1   2
ATOM      2  C   UNL     1      -6.273 -17.846  26.936  1.00  0.00     0.000 C 
BRANCH   2   3
ATOM      3  C   UNL     1      -5.991 -18.737  25.712  1.00  0.00     0.000 C 
BRANCH   3   4
ATOM      4  C   UNL     1      -6.367 -18.063  24.386  1.00  0.00     0.000 C 
BRANCH   4   5
ATOM      5  C   UNL     1      -5.403 -18.475  23.263  1.00  0.00     0.000 C 
BRANCH   5   6
ATOM      6  C   UNL     1      -4.359 -19.506  23.737  1.00  0.00     0.000 C 
BRANCH   6   7
ATOM      7  C   UNL     1      -3.955 -20.524  22.657  1.00  0.00     0.000 C 
BRANCH   7   8
ATOM      8  C   UNL     1      -2.490 -20.380  22.215  1.00  0.00     0.000 C 
BRANCH   8   9
ATOM      9  C   UNL     1      -1.551 -21.142  23.158  1.00  0.00     0.000 C 
BRANCH   9  10
ATOM     10  C   UNL     1      -0.833 -20.178  24.111  1.00  0.00     0.006 C 
BRANCH  10  11
ATOM     11  C   UNL     1      -0.475 -18.864  23.405  1.00  0.00     0.053 C 
BRANCH  11  12
ATOM     12  C   UNL     1      -0.560 -17.709  24.355  1.00  0.00     0.041 C 
ATOM     13  O   UNL     1      -1.190 -17.828  25.442  1.00  0.00    -0.550 OA
ATOM     14  O   UNL     1       0.023 -16.490  24.025  1.00  0.00    -0.550 OA
ENDBRANCH  11  12
ENDBRANCH  10  11
ENDBRANCH   9  10
ENDBRANCH   8   9
ENDBRANCH   7   8
ENDBRANCH   6   7
ENDBRANCH   5   6
ENDBRANCH   4   5
ENDBRANCH   3   4
ENDBRANCH   2   3
ENDBRANCH   1   2
BRANCH   1  15
ATOM     15  C   UNL     1      -8.661 -17.440  27.891  1.00  0.00     0.000 C 
BRANCH  15  16
ATOM     16  C   UNL     1      -9.984 -16.680  27.694  1.00  0.00     0.000 C 
BRANCH  16  17
ATOM     17  C   UNL     1      -9.808 -15.348  26.940  1.00  0.00     0.000 C 
BRANCH  17  18
ATOM     18  C   UNL     1     -10.896 -14.291  27.212  1.00  0.00    -0.000 C 
BRANCH  18  19
ATOM     19  C   UNL     1     -10.725 -13.019  26.369  1.00  0.00    -0.000 C 
BRANCH  19  20
ATOM     20  C   UNL     1     -10.744 -11.766  27.258  1.00  0.00    -0.000 C 
BRANCH  20  21
ATOM     21  C   UNL     1      -9.990 -10.579  26.633  1.00  0.00    -0.000 C 
BRANCH  21  22
ATOM     22  C   UNL     1      -9.742  -9.416  27.618  1.00  0.00    -0.000 C 
BRANCH  22  23
ATOM     23  C   UNL     1      -8.242  -9.102  27.778  1.00  0.00    -0.000 C 
BRANCH  23  24
ATOM     24  C   UNL     1      -7.397  -9.675  26.619  1.00  0.00    -0.000 C 
BRANCH  24  25
ATOM     25  C   UNL     1      -5.963 -10.055  27.028  1.00  0.00    -0.003 C 
ATOM     26  C   UNL     1      -5.480 -11.353  26.386  1.00  0.00     0.004 C 
ENDBRANCH  24  25
ENDBRANCH  23  24
ENDBRANCH  22  23
ENDBRANCH  21  22
ENDBRANCH  20  21
ENDBRANCH  19  20
ENDBRANCH  18  19
ENDBRANCH  17  18
ENDBRANCH  16  17
ENDBRANCH  15  16
ENDBRANCH   1  15
TORSDOF 22
ENDMDL
MODEL 4
REMARK VINA RESULT:    19.816      1.815      2.750
REMARK INTER + INTRA:          44.266
REMARK INTER:                  45.294
REMARK INTRA:                  -1.028
REMARK UNBOUND:                -1.036
REMARK SMILES CCCCCCCCCCCCCCCCCCCCCCCC(=O)[O-]
REMARK SMILES IDX 13 1 14 2 15 3 16 4 17 5 18 6 19 7 20 8 21 9 22 10 23 11
REMARK SMILES IDX 24 12 25 13 26 14 12 15 11 16 10 17 9 18 8 19 7 20 6 21 5 22
REMARK SMILES IDX 4 23 3 24 2 25 1 26
REMARK H PARENT
REMARK Flexibility Score: inf
ROOT
ATOM      1  C   UNL     1      -7.551 -17.212  27.319  1.00  0.00     0.000 C 
ENDROOT
BRANCH   1   2
ATOM      2  C   UNL     1      -7.031 -18.021  26.113  1.00  0.00     0.000 C 
BRANCH   2   3
ATOM      3  C   UNL     1      -5.544 -18.414  26.182  1.00  0.00     0.000 C 
BRANCH   3   4
ATOM      4  C   UNL     1      -4.779 -17.657  27.278  1.00  0.00     0.000 C 
BRANCH   4   5
ATOM      5  C   UNL     1      -3.275 -17.961  27.214  1.00  0.00     0.000 C 
BRANCH   5   6
ATOM      6  C   UNL     1      -2.681 -17.683  25.817  1.00  0.00     0.000 C 
BRANCH   6   7
ATOM      7  C   UNL     1      -1.158 -17.885  25.737  1.00  0.00     0.000 C 
BRANCH   7   8
ATOM      8  C   UNL     1      -0.535 -17.260  24.479  1.00  0.00     0.000 C 
BRANCH   8   9
ATOM      9  C   UNL     1      -0.251 -18.325  23.414  1.00  0.00     0.000 C 
BRANCH   9  10
ATOM     10  C   UNL     1      -1.162 -19.545  23.604  1.00  0.00     0.006 C 
BRANCH  10  11
ATOM     11  C   UNL     1      -1.850 -19.933  22.288  1.00  0.00     0.053 C 
BRANCH  11  12
ATOM     12  C   UNL     1      -2.993 -20.867  22.541  1.00  0.00     0.041 C 
ATOM     13  O   UNL     1      -4.160 -20.554  22.177  1.00  0.00    -0.550 OA
ATOM     14  O   UNL     1      -2.777 -22.067  23.211  1.00  0.00    -0.550 OA
ENDBRANCH  11  12
ENDBRANCH  10  11
ENDBRANCH   9  10
ENDBRANCH   8   9
ENDBRANCH   7   8
ENDBRANCH   6   7
ENDBRANCH   5   6
ENDBRANCH   4   5
ENDBRANCH   3   4
ENDBRANCH   2   3
ENDBRANCH   1   2
BRANCH   1  15
ATOM     15  C   UNL     1      -8.865 -17.724  27.937  1.00  0.00     0.000 C 
BRANCH  15  16
ATOM     16  C   UNL     1     -10.004 -16.693  27.853  1.00  0.00     0.000 C 
BRANCH  16  17
ATOM     17  C   UNL     1      -9.691 -15.525  26.898  1.00  0.00     0.000 C 
BRANCH  17  18
ATOM     18  C   UNL     1     -10.834 -14.511  26.704  1.00  0.00    -0.000 C 
BRANCH  18  19
ATOM     19  C   UNL     1     -10.338 -13.067  26.545  1.00  0.00    -0.000 C 
BRANCH  19  20
ATOM     20  C   UNL     1     -11.275 -12.083  27.264  1.00  0.00    -0.000 C 
BRANCH  20  21
ATOM     21  C   UNL     1     -10.516 -10.967  28.003  1.00  0.00    -0.000 C 
BRANCH  21  22
ATOM     22  C   UNL     1     -10.158  -9.763  27.105  1.00  0.00    -0.000 C 
BRANCH  22  23
ATOM     23  C   UNL     1      -8.726  -9.254  27.363  1.00  0.00    -0.000 C 
BRANCH  23  24
ATOM     24  C   UNL     1      -7.687  -9.945  26.453  1.00  0.00    -0.000 C 
BRANCH  24  25
ATOM     25  C   UNL     1      -6.318 -10.151  27.125  1.00  0.00    -0.003 C 
ATOM     26  C   UNL     1      -5.364 -11.008  26.294  1.00  0.00     0.004 C 
ENDBRANCH  24  25
ENDBRANCH  23  24
ENDBRANCH  22  23
ENDBRANCH  21  22
ENDBRANCH  20  21
ENDBRANCH  19  20
ENDBRANCH  18  19
ENDBRANCH  17  18
ENDBRANCH  16  17
ENDBRANCH  15  16
ENDBRANCH   1  15
TORSDOF 22
ENDMDL
MODEL 5
REMARK VINA RESULT:    19.821      2.403      9.782
REMARK INTER + INTRA:          44.277
REMARK INTER:                  45.680
REMARK INTRA:                  -1.403
REMARK UNBOUND:                -1.036
REMARK SMILES CCCCCCCCCCCCCCCCCCCCCCCC(=O)[O-]
REMARK SMILES IDX 13 1 14 2 15 3 16 4 17 5 18 6 19 7 20 8 21 9 22 10 23 11
REMARK SMILES IDX 24 12 25 13 26 14 12 15 11 16 10 17 9 18 8 19 7 20 6 21 5 22
REMARK SMILES IDX 4 23 3 24 2 25 1 26
REMARK H PARENT
REMARK Flexibility Score: inf
ROOT
ATOM      1  C   UNL     1      -8.160 -17.488  27.882  1.00  0.00     0.000 C 
ENDROOT
BRANCH   1   2
ATOM      2  C   UNL     1      -9.534 -16.808  28.052  1.00  0.00     0.000 C 
BRANCH   2   3
ATOM      3  C   UNL     1     -10.035 -16.029  26.821  1.00  0.00     0.000 C 
BRANCH   3   4
ATOM      4  C   UNL     1      -9.838 -14.513  26.956  1.00  0.00     0.000 C 
BRANCH   4   5
ATOM      5  C   UNL     1     -11.102 -13.750  26.532  1.00  0.00     0.000 C 
BRANCH   5   6
ATOM      6  C   UNL     1     -11.213 -12.373  27.220  1.00  0.00     0.000 C 
BRANCH   6   7
ATOM      7  C   UNL     1     -10.030 -11.434  26.926  1.00  0.00     0.000 C 
BRANCH   7   8
ATOM      8  C   UNL     1     -10.388  -9.949  27.093  1.00  0.00     0.000 C 
BRANCH   8   9
ATOM      9  C   UNL     1      -9.196  -9.150  27.630  1.00  0.00     0.000 C 
BRANCH   9  10
ATOM     10  C   UNL     1      -7.924  -9.462  26.832  1.00  0.00     0.006 C 
BRANCH  10  11
ATOM     11  C   UNL     1      -6.731  -9.710  27.765  1.00  0.00     0.053 C 
BRANCH  11  12
ATOM     12  C   UNL     1      -5.633 -10.431  27.045  1.00  0.00     0.041 C 
ATOM     13  O   UNL     1      -5.820 -10.862  25.874  1.00  0.00    -0.550 OA
ATOM     14  O   UNL     1      -4.418 -10.662  27.681  1.00  0.00    -0.550 OA
ENDBRANCH  11  12
ENDBRANCH  10  11
ENDBRANCH   9  10
ENDBRANCH   8   9
ENDBRANCH   7   8
ENDBRANCH   6   7
ENDBRANCH   5   6
ENDBRANCH   4   5
ENDBRANCH   3   4
ENDBRANCH   2   3
ENDBRANCH   1   2
BRANCH   1  15
ATOM     15  C   UNL     1      -7.406 -17.132  26.588  1.00  0.00     0.000 C 
BRANCH  15  16
ATOM     16  C   UNL     1      -6.782 -18.362  25.906  1.00  0.00     0.000 C 
BRANCH  16  17
ATOM     17  C   UNL     1      -5.242 -18.337  25.908  1.00  0.00     0.000 C 
BRANCH  17  18
ATOM     18  C   UNL     1      -4.593 -17.967  27.256  1.00  0.00    -0.000 C 
BRANCH  18  19
ATOM     19  C   UNL     1      -3.119 -17.557  27.122  1.00  0.00    -0.000 C 
BRANCH  19  20
ATOM     20  C   UNL     1      -2.576 -17.908  25.728  1.00  0.00    -0.000 C 
BRANCH  20  21
ATOM     21  C   UNL     1      -1.056 -18.137  25.720  1.00  0.00    -0.000 C 
BRANCH  21  22
ATOM     22  C   UNL     1      -0.495 -18.526  24.334  1.00  0.00    -0.000 C 
BRANCH  22  23
ATOM     23  C   UNL     1      -0.997 -19.908  23.873  1.00  0.00    -0.000 C 
BRANCH  23  24
ATOM     24  C   UNL     1      -1.778 -19.834  22.543  1.00  0.00    -0.000 C 
BRANCH  24  25
ATOM     25  C   UNL     1      -2.784 -20.983  22.352  1.00  0.00    -0.003 C 
ATOM     26  C   UNL     1      -4.218 -20.589  22.699  1.00  0.00     0.004 C 
ENDBRANCH  24  25
ENDBRANCH  23  24
ENDBRANCH  22  23
ENDBRANCH  21  22
ENDBRANCH  20  21
ENDBRANCH  19  20
ENDBRANCH  18  19
ENDBRANCH  17  18
ENDBRANCH  16  17
ENDBRANCH  15  16
ENDBRANCH   1  15
TORSDOF 22
ENDMDL
MODEL 6
REMARK VINA RESULT:    20.585      2.286      9.640
REMARK INTER + INTRA:          46.023
REMARK INTER:                  46.823
REMARK INTRA:                  -0.801
REMARK UNBOUND:                -1.036
REMARK SMILES CCCCCCCCCCCCCCCCCCCCCCCC(=O)[O-]
REMARK SMILES IDX 13 1 14 2 15 3 16 4 17 5 18 6 19 7 20 8 21 9 22 10 23 11
REMARK SMILES IDX 24 12 25 13 26 14 12 15 11 16 10 17 9 18 8 19 7 20 6 21 5 22
REMARK SMILES IDX 4 23 3 24 2 25 1 26
REMARK H PARENT
REMARK Flexibility Score: inf
ROOT
ATOM      1  C   UNL     1     -10.182 -15.906  26.804  1.00  0.00     0.000 C 
ENDROOT
BRANCH   1   2
ATOM      2  C   UNL     1     -10.054 -14.378  26.974  1.00  0.00     0.000 C 
BRANCH   2   3
ATOM      3  C   UNL     1     -11.155 -13.549  26.285  1.00  0.00     0.000 C 
BRANCH   3   4
ATOM      4  C   UNL     1     -11.929 -12.658  27.265  1.00  0.00     0.000 C 
BRANCH   4   5
ATOM      5  C   UNL     1     -11.007 -11.615  27.913  1.00  0.00     0.000 C 
BRANCH   5   6
ATOM      6  C   UNL     1     -10.145 -10.869  26.872  1.00  0.00     0.000 C 
BRANCH   6   7
ATOM      7  C   UNL     1     -10.108  -9.344  27.073  1.00  0.00     0.000 C 
BRANCH   7   8
ATOM      8  C   UNL     1      -8.802  -8.856  27.718  1.00  0.00     0.000 C 
BRANCH   8   9
ATOM      9  C   UNL     1      -7.611  -9.713  27.274  1.00  0.00     0.000 C 
BRANCH   9  10
ATOM     10  C   UNL     1      -6.480  -9.656  28.308  1.00  0.00     0.006 C 
BRANCH  10  11
ATOM     11  C   UNL     1      -5.168 -10.196  27.724  1.00  0.00     0.053 C 
BRANCH  11  12
ATOM     12  C   UNL     1      -5.361 -10.645  26.308  1.00  0.00     0.041 C 
ATOM     13  O   UNL     1      -5.949 -11.734  26.064  1.00  0.00    -0.550 OA
ATOM     14  O   UNL     1      -4.857  -9.882  25.260  1.00  0.00    -0.550 OA
ENDBRANCH  11  12
ENDBRANCH  10  11
ENDBRANCH   9  10
ENDBRANCH   8   9
ENDBRANCH   7   8
ENDBRANCH   6   7
ENDBRANCH   5   6
ENDBRANCH   4   5
ENDBRANCH   3   4
ENDBRANCH   2   3
ENDBRANCH   1   2
BRANCH   1  15
ATOM     15  C   UNL     1      -9.776 -16.740  28.033  1.00  0.00     0.000 C 
BRANCH  15  16
ATOM     16  C   UNL     1      -8.723 -17.812  27.702  1.00  0.00     0.000 C 
BRANCH  16  17
ATOM     17  C   UNL     1      -7.634 -17.309  26.735  1.00  0.00     0.000 C 
BRANCH  17  18
ATOM     18  C   UNL     1      -6.194 -17.722  27.096  1.00  0.00    -0.000 C 
BRANCH  18  19
ATOM     19  C   UNL     1      -5.522 -18.576  26.010  1.00  0.00    -0.000 C 
BRANCH  19  20
ATOM     20  C   UNL     1      -6.090 -18.243  24.622  1.00  0.00    -0.000 C 
BRANCH  20  21
ATOM     21  C   UNL     1      -5.155 -18.667  23.477  1.00  0.00    -0.000 C 
BRANCH  21  22
ATOM     22  C   UNL     1      -4.488 -20.043  23.699  1.00  0.00    -0.000 C 
BRANCH  22  23
ATOM     23  C   UNL     1      -4.085 -20.712  22.371  1.00  0.00    -0.000 C 
BRANCH  23  24
ATOM     24  C   UNL     1      -2.592 -20.501  22.038  1.00  0.00    -0.000 C 
BRANCH  24  25
ATOM     25  C   UNL     1      -1.646 -20.825  23.208  1.00  0.00    -0.003 C 
ATOM     26  C   UNL     1      -0.981 -19.585  23.803  1.00  0.00     0.004 C 
ENDBRANCH  24  25
ENDBRANCH  23  24
ENDBRANCH  22  23
ENDBRANCH  21  22
ENDBRANCH  20  21
ENDBRANCH  19  20
ENDBRANCH  18  19
ENDBRANCH  17  18
ENDBRANCH  16  17
ENDBRANCH  15  16
ENDBRANCH   1  15
TORSDOF 22
ENDMDL
