MODEL 1
REMARK VINA RESULT:    -3.739      0.000      0.000
REMARK INTER + INTRA:          -4.235
REMARK INTER:                  -4.067
REMARK INTRA:                  -0.168
REMARK UNBOUND:                -0.168
REMARK SMILES C=C(C)[C@H]1CC[C@@H](C)C[C@H]1O
REMARK SMILES IDX 8 1 7 2 6 3 5 4 4 5 10 6 9 7 11 8 2 10 1 11 3 12
REMARK H PARENT 11 9
REMARK Flexibility Score: inf
ROOT
ATOM      1  C   UNL     1      -2.725   4.579  -4.136  1.00  0.00     0.008 C 
ATOM      2  C   UNL     1      -2.195   3.998  -5.456  1.00  0.00    -0.012 C 
ATOM      3  C   UNL     1      -2.032   2.465  -5.390  1.00  0.00     0.004 C 
ATOM      4  C   UNL     1      -0.793   2.039  -4.588  1.00  0.00     0.011 C 
ATOM      5  C   UNL     1       0.478   2.697  -5.157  1.00  0.00     0.043 C 
ATOM      6  C   UNL     1       0.366   4.238  -5.159  1.00  0.00     0.121 C 
ATOM      7  C   UNL     1      -0.894   4.689  -5.930  1.00  0.00     0.035 C 
ENDROOT
BRANCH   6   8
ATOM      8  O   UNL     1       0.349   4.741  -3.849  1.00  0.00    -0.392 OA
ATOM      9  H   UNL     1      -0.605   4.854  -3.597  1.00  0.00     0.210 HD
ENDBRANCH   6   8
BRANCH   5  10
ATOM     10  C   UNL     1       1.742   2.220  -4.449  1.00  0.00    -0.075 C 
ATOM     11  C   UNL     1       1.676   1.196  -3.582  1.00  0.00     0.008 C 
ATOM     12  C   UNL     1       3.094   2.829  -4.728  1.00  0.00     0.039 C 
ENDBRANCH   5  10
TORSDOF 2
ENDMDL
MODEL 2
REMARK VINA RESULT:    -3.692      1.571      4.360
REMARK INTER + INTRA:          -4.184
REMARK INTER:                  -3.991
REMARK INTRA:                  -0.193
REMARK UNBOUND:                -0.168
REMARK SMILES C=C(C)[C@H]1CC[C@@H](C)C[C@H]1O
REMARK SMILES IDX 8 1 7 2 6 3 5 4 4 5 10 6 9 7 11 8 2 10 1 11 3 12
REMARK H PARENT 11 9
REMARK Flexibility Score: inf
ROOT
ATOM      1  C   UNL     1       1.120   1.862  -3.991  1.00  0.00     0.008 C 
ATOM      2  C   UNL     1       1.196   2.933  -5.090  1.00  0.00    -0.012 C 
ATOM      3  C   UNL     1       0.880   4.343  -4.549  1.00  0.00     0.004 C 
ATOM      4  C   UNL     1      -0.621   4.558  -4.303  1.00  0.00     0.011 C 
ATOM      5  C   UNL     1      -1.429   4.273  -5.583  1.00  0.00     0.043 C 
ATOM      6  C   UNL     1      -1.187   2.837  -6.099  1.00  0.00     0.121 C 
ATOM      7  C   UNL     1       0.321   2.587  -6.319  1.00  0.00     0.035 C 
ENDROOT
BRANCH   6   8
ATOM      8  O   UNL     1      -1.720   1.889  -5.211  1.00  0.00    -0.392 OA
ATOM      9  H   UNL     1      -1.756   1.025  -5.701  1.00  0.00     0.210 HD
ENDBRANCH   6   8
BRANCH   5  10
ATOM     10  C   UNL     1      -2.915   4.571  -5.406  1.00  0.00    -0.075 C 
ATOM     11  C   UNL     1      -3.383   4.944  -4.204  1.00  0.00     0.008 C 
ATOM     12  C   UNL     1      -3.886   4.512  -6.560  1.00  0.00     0.039 C 
ENDBRANCH   5  10
TORSDOF 2
ENDMDL
MODEL 3
REMARK VINA RESULT:    -3.642      1.391      2.132
REMARK INTER + INTRA:          -4.130
REMARK INTER:                  -3.951
REMARK INTRA:                  -0.179
REMARK UNBOUND:                -0.168
REMARK SMILES C=C(C)[C@H]1CC[C@@H](C)C[C@H]1O
REMARK SMILES IDX 8 1 7 2 6 3 5 4 4 5 10 6 9 7 11 8 2 10 1 11 3 12
REMARK H PARENT 11 9
REMARK Flexibility Score: inf
ROOT
ATOM      1  C   UNL     1      -2.060   4.777  -6.864  1.00  0.00     0.008 C 
ATOM      2  C   UNL     1      -2.263   4.399  -5.388  1.00  0.00    -0.012 C 
ATOM      3  C   UNL     1      -1.251   5.107  -4.463  1.00  0.00     0.004 C 
ATOM      4  C   UNL     1       0.150   4.482  -4.536  1.00  0.00     0.011 C 
ATOM      5  C   UNL     1       0.091   2.975  -4.224  1.00  0.00     0.043 C 
ATOM      6  C   UNL     1      -0.859   2.232  -5.190  1.00  0.00     0.121 C 
ATOM      7  C   UNL     1      -2.266   2.868  -5.162  1.00  0.00     0.035 C 
ENDROOT
BRANCH   6   8
ATOM      8  O   UNL     1      -0.345   2.232  -6.497  1.00  0.00    -0.392 OA
ATOM      9  H   UNL     1      -0.095   1.294  -6.707  1.00  0.00     0.210 HD
ENDBRANCH   6   8
BRANCH   5  10
ATOM     10  C   UNL     1       1.477   2.338  -4.188  1.00  0.00    -0.075 C 
ATOM     11  C   UNL     1       1.649   1.144  -3.596  1.00  0.00     0.008 C 
ATOM     12  C   UNL     1       2.671   2.983  -4.848  1.00  0.00     0.039 C 
ENDBRANCH   5  10
TORSDOF 2
ENDMDL
MODEL 4
REMARK VINA RESULT:    -3.348      1.324      3.995
REMARK INTER + INTRA:          -3.810
REMARK INTER:                  -3.634
REMARK INTRA:                  -0.176
REMARK UNBOUND:                -0.168
REMARK SMILES C=C(C)[C@H]1CC[C@@H](C)C[C@H]1O
REMARK SMILES IDX 8 1 7 2 6 3 5 4 4 5 10 6 9 7 11 8 2 10 1 11 3 12
REMARK H PARENT 11 9
REMARK Flexibility Score: inf
ROOT
ATOM      1  C   UNL     1       2.437   3.365  -6.208  1.00  0.00     0.008 C 
ATOM      2  C   UNL     1       1.988   3.484  -4.743  1.00  0.00    -0.012 C 
ATOM      3  C   UNL     1       1.125   2.283  -4.302  1.00  0.00     0.004 C 
ATOM      4  C   UNL     1      -0.307   2.353  -4.852  1.00  0.00     0.011 C 
ATOM      5  C   UNL     1      -0.980   3.681  -4.455  1.00  0.00     0.043 C 
ATOM      6  C   UNL     1      -0.171   4.898  -4.956  1.00  0.00     0.121 C 
ATOM      7  C   UNL     1       1.284   4.830  -4.445  1.00  0.00     0.035 C 
ENDROOT
BRANCH   6   8
ATOM      8  O   UNL     1      -0.198   4.976  -6.357  1.00  0.00    -0.392 OA
ATOM      9  H   UNL     1      -1.082   4.627  -6.648  1.00  0.00     0.210 HD
ENDBRANCH   6   8
BRANCH   5  10
ATOM     10  C   UNL     1      -2.438   3.745  -4.898  1.00  0.00    -0.075 C 
ATOM     11  C   UNL     1      -3.271   4.634  -4.332  1.00  0.00     0.008 C 
ATOM     12  C   UNL     1      -2.977   2.870  -6.003  1.00  0.00     0.039 C 
ENDBRANCH   5  10
TORSDOF 2
ENDMDL
MODEL 5
REMARK VINA RESULT:    -3.292      9.124     11.084
REMARK INTER + INTRA:          -3.748
REMARK INTER:                  -3.579
REMARK INTRA:                  -0.169
REMARK UNBOUND:                -0.168
REMARK SMILES C=C(C)[C@H]1CC[C@@H](C)C[C@H]1O
REMARK SMILES IDX 8 1 7 2 6 3 5 4 4 5 10 6 9 7 11 8 2 10 1 11 3 12
REMARK H PARENT 11 9
REMARK Flexibility Score: inf
ROOT
ATOM      1  C   UNL     1      -0.050  -4.170  -0.384  1.00  0.00     0.008 C 
ATOM      2  C   UNL     1       0.432  -5.020   0.803  1.00  0.00    -0.012 C 
ATOM      3  C   UNL     1       1.891  -4.702   1.190  1.00  0.00     0.004 C 
ATOM      4  C   UNL     1       2.906  -5.310   0.212  1.00  0.00     0.011 C 
ATOM      5  C   UNL     1       2.697  -6.831   0.085  1.00  0.00     0.043 C 
ATOM      6  C   UNL     1       1.263  -7.170  -0.378  1.00  0.00     0.121 C 
ATOM      7  C   UNL     1       0.223  -6.536   0.571  1.00  0.00     0.035 C 
ENDROOT
BRANCH   6   8
ATOM      8  O   UNL     1       1.048  -6.743  -1.699  1.00  0.00    -0.392 OA
ATOM      9  H   UNL     1       1.568  -7.353  -2.286  1.00  0.00     0.210 HD
ENDBRANCH   6   8
BRANCH   5  10
ATOM     10  C   UNL     1       3.751  -7.487  -0.802  1.00  0.00    -0.075 C 
ATOM     11  C   UNL     1       4.810  -6.774  -1.220  1.00  0.00     0.008 C 
ATOM     12  C   UNL     1       3.675  -8.943  -1.192  1.00  0.00     0.039 C 
ENDBRANCH   5  10
TORSDOF 2
ENDMDL
MODEL 6
REMARK VINA RESULT:    -3.254      2.332      2.964
REMARK INTER + INTRA:          -3.708
REMARK INTER:                  -3.528
REMARK INTRA:                  -0.179
REMARK UNBOUND:                -0.168
REMARK SMILES C=C(C)[C@H]1CC[C@@H](C)C[C@H]1O
REMARK SMILES IDX 8 1 7 2 6 3 5 4 4 5 10 6 9 7 11 8 2 10 1 11 3 12
REMARK H PARENT 11 9
REMARK Flexibility Score: inf
ROOT
ATOM      1  C   UNL     1      -1.993   4.330  -4.360  1.00  0.00     0.008 C 
ATOM      2  C   UNL     1      -1.959   2.904  -4.932  1.00  0.00    -0.012 C 
ATOM      3  C   UNL     1      -0.612   2.202  -4.660  1.00  0.00     0.004 C 
ATOM      4  C   UNL     1       0.511   2.706  -5.578  1.00  0.00     0.011 C 
ATOM      5  C   UNL     1       0.111   2.559  -7.059  1.00  0.00     0.043 C 
ATOM      6  C   UNL     1      -1.196   3.321  -7.371  1.00  0.00     0.121 C 
ATOM      7  C   UNL     1      -2.331   2.857  -6.433  1.00  0.00     0.035 C 
ENDROOT
BRANCH   6   8
ATOM      8  O   UNL     1      -1.006   4.708  -7.265  1.00  0.00    -0.392 OA
ATOM      9  H   UNL     1      -0.683   5.023  -8.150  1.00  0.00     0.210 HD
ENDBRANCH   6   8
BRANCH   5  10
ATOM     10  C   UNL     1       1.241   2.957  -8.004  1.00  0.00    -0.075 C 
ATOM     11  C   UNL     1       1.203   2.572  -9.290  1.00  0.00     0.008 C 
ATOM     12  C   UNL     1       2.392   3.824  -7.555  1.00  0.00     0.039 C 
ENDBRANCH   5  10
TORSDOF 2
ENDMDL
MODEL 7
REMARK VINA RESULT:    -3.059      9.282     11.683
REMARK INTER + INTRA:          -3.495
REMARK INTER:                  -3.358
REMARK INTRA:                  -0.137
REMARK UNBOUND:                -0.168
REMARK SMILES C=C(C)[C@H]1CC[C@@H](C)C[C@H]1O
REMARK SMILES IDX 8 1 7 2 6 3 5 4 4 5 10 6 9 7 11 8 2 10 1 11 3 12
REMARK H PARENT 11 9
REMARK Flexibility Score: inf
ROOT
ATOM      1  C   UNL     1       2.593  -9.533  -0.081  1.00  0.00     0.008 C 
ATOM      2  C   UNL     1       3.106  -8.432  -1.022  1.00  0.00    -0.012 C 
ATOM      3  C   UNL     1       3.921  -7.359  -0.270  1.00  0.00     0.004 C 
ATOM      4  C   UNL     1       3.032  -6.398   0.533  1.00  0.00     0.011 C 
ATOM      5  C   UNL     1       1.978  -5.741  -0.379  1.00  0.00     0.043 C 
ATOM      6  C   UNL     1       1.098  -6.797  -1.083  1.00  0.00     0.121 C 
ATOM      7  C   UNL     1       1.975  -7.798  -1.867  1.00  0.00     0.035 C 
ENDROOT
BRANCH   6   8
ATOM      8  O   UNL     1       0.288  -7.473  -0.157  1.00  0.00    -0.392 OA
ATOM      9  H   UNL     1      -0.436  -7.912  -0.675  1.00  0.00     0.210 HD
ENDBRANCH   6   8
BRANCH   5  10
ATOM     10  C   UNL     1       1.139  -4.704   0.362  1.00  0.00    -0.075 C 
ATOM     11  C   UNL     1       1.540  -4.254   1.563  1.00  0.00     0.008 C 
ATOM     12  C   UNL     1      -0.117  -4.117  -0.233  1.00  0.00     0.039 C 
ENDBRANCH   5  10
TORSDOF 2
ENDMDL
MODEL 8
REMARK VINA RESULT:    -3.039     11.859     13.223
REMARK INTER + INTRA:          -3.474
REMARK INTER:                  -3.281
REMARK INTRA:                  -0.192
REMARK UNBOUND:                -0.168
REMARK SMILES C=C(C)[C@H]1CC[C@@H](C)C[C@H]1O
REMARK SMILES IDX 8 1 7 2 6 3 5 4 4 5 10 6 9 7 11 8 2 10 1 11 3 12
REMARK H PARENT 11 9
REMARK Flexibility Score: inf
ROOT
ATOM      1  C   UNL     1      -0.711   0.422   5.254  1.00  0.00     0.008 C 
ATOM      2  C   UNL     1      -0.559   0.301   6.778  1.00  0.00    -0.012 C 
ATOM      3  C   UNL     1      -1.557  -0.709   7.382  1.00  0.00     0.004 C 
ATOM      4  C   UNL     1      -2.984  -0.148   7.467  1.00  0.00     0.011 C 
ATOM      5  C   UNL     1      -3.003   1.174   8.258  1.00  0.00     0.043 C 
ATOM      6  C   UNL     1      -2.068   2.228   7.625  1.00  0.00     0.121 C 
ATOM      7  C   UNL     1      -0.633   1.670   7.494  1.00  0.00     0.035 C 
ENDROOT
BRANCH   6   8
ATOM      8  O   UNL     1      -2.552   2.640   6.373  1.00  0.00    -0.392 OA
ATOM      9  H   UNL     1      -2.013   3.429   6.102  1.00  0.00     0.210 HD
ENDBRANCH   6   8
BRANCH   5  10
ATOM     10  C   UNL     1      -4.418   1.712   8.450  1.00  0.00    -0.075 C 
ATOM     11  C   UNL     1      -5.453   1.098   7.855  1.00  0.00     0.008 C 
ATOM     12  C   UNL     1      -4.710   2.896   9.340  1.00  0.00     0.039 C 
ENDBRANCH   5  10
TORSDOF 2
ENDMDL
