MODEL 1
REMARK VINA RESULT:    -2.234      0.000      0.000
REMARK INTER + INTRA:          -2.962
REMARK INTER:                  -2.888
REMARK INTRA:                  -0.075
REMARK UNBOUND:                -0.075
REMARK SMILES CCCCCCC(=O)[O-]
REMARK SMILES IDX 5 1 6 2 7 3 8 4 9 5 4 6 3 7 2 8 1 9
REMARK H PARENT
REMARK Flexibility Score: inf
ROOT
ATOM      1  C   UNL     1      -7.328  28.983 -18.791  1.00  0.00     0.006 C 
ENDROOT
BRANCH   1   2
ATOM      2  C   UNL     1      -7.132  28.709 -17.295  1.00  0.00     0.053 C 
BRANCH   2   3
ATOM      3  C   UNL     1      -8.182  29.381 -16.465  1.00  0.00     0.041 C 
ATOM      4  O   UNL     1      -8.085  29.396 -15.210  1.00  0.00    -0.550 OA
ATOM      5  O   UNL     1      -9.252  30.019 -17.081  1.00  0.00    -0.550 OA
ENDBRANCH   2   3
ENDBRANCH   1   2
BRANCH   1   6
ATOM      6  C   UNL     1      -6.322  28.216 -19.660  1.00  0.00     0.000 C 
BRANCH   6   7
ATOM      7  C   UNL     1      -6.171  28.873 -21.038  1.00  0.00    -0.000 C 
BRANCH   7   8
ATOM      8  C   UNL     1      -6.228  27.825 -22.155  1.00  0.00    -0.003 C 
ATOM      9  C   UNL     1      -4.885  27.712 -22.873  1.00  0.00     0.004 C 
ENDBRANCH   7   8
ENDBRANCH   6   7
ENDBRANCH   1   6
TORSDOF 5
ENDMDL
MODEL 2
REMARK VINA RESULT:    -1.961      1.122      1.964
REMARK INTER + INTRA:          -2.609
REMARK INTER:                  -2.480
REMARK INTRA:                  -0.129
REMARK UNBOUND:                -0.075
REMARK SMILES CCCCCCC(=O)[O-]
REMARK SMILES IDX 5 1 6 2 7 3 8 4 9 5 4 6 3 7 2 8 1 9
REMARK H PARENT
REMARK Flexibility Score: inf
ROOT
ATOM      1  C   UNL     1      -7.475  28.763 -17.033  1.00  0.00     0.006 C 
ENDROOT
BRANCH   1   2
ATOM      2  C   UNL     1      -8.641  29.689 -17.404  1.00  0.00     0.053 C 
BRANCH   2   3
ATOM      3  C   UNL     1      -8.969  30.639 -16.293  1.00  0.00     0.041 C 
ATOM      4  O   UNL     1      -9.220  31.847 -16.546  1.00  0.00    -0.550 OA
ATOM      5  O   UNL     1      -9.027  30.183 -14.983  1.00  0.00    -0.550 OA
ENDBRANCH   2   3
ENDBRANCH   1   2
BRANCH   1   6
ATOM      6  C   UNL     1      -6.408  28.701 -18.136  1.00  0.00     0.000 C 
BRANCH   6   7
ATOM      7  C   UNL     1      -7.056  28.626 -19.524  1.00  0.00    -0.000 C 
BRANCH   7   8
ATOM      8  C   UNL     1      -6.067  29.054 -20.615  1.00  0.00    -0.003 C 
ATOM      9  C   UNL     1      -6.156  28.135 -21.830  1.00  0.00     0.004 C 
ENDBRANCH   7   8
ENDBRANCH   6   7
ENDBRANCH   1   6
TORSDOF 5
ENDMDL
MODEL 3
REMARK VINA RESULT:    -1.405      3.187      5.556
REMARK INTER + INTRA:          -1.890
REMARK INTER:                  -1.745
REMARK INTRA:                  -0.145
REMARK UNBOUND:                -0.075
REMARK SMILES CCCCCCC(=O)[O-]
REMARK SMILES IDX 5 1 6 2 7 3 8 4 9 5 4 6 3 7 2 8 1 9
REMARK H PARENT
REMARK Flexibility Score: inf
ROOT
ATOM      1  C   UNL     1      -6.348  28.364 -19.183  1.00  0.00     0.006 C 
ENDROOT
BRANCH   1   2
ATOM      2  C   UNL     1      -6.183  29.141 -20.495  1.00  0.00     0.053 C 
BRANCH   2   3
ATOM      3  C   UNL     1      -6.067  28.221 -21.673  1.00  0.00     0.041 C 
ATOM      4  O   UNL     1      -7.038  27.493 -22.007  1.00  0.00    -0.550 OA
ATOM      5  O   UNL     1      -4.896  28.193 -22.420  1.00  0.00    -0.550 OA
ENDBRANCH   2   3
ENDBRANCH   1   2
BRANCH   1   6
ATOM      6  C   UNL     1      -7.437  28.967 -18.283  1.00  0.00     0.000 C 
BRANCH   6   7
ATOM      7  C   UNL     1      -7.170  28.648 -16.808  1.00  0.00    -0.000 C 
BRANCH   7   8
ATOM      8  C   UNL     1      -8.181  29.358 -15.900  1.00  0.00    -0.003 C 
ATOM      9  C   UNL     1      -9.110  30.260 -16.709  1.00  0.00     0.004 C 
ENDBRANCH   7   8
ENDBRANCH   6   7
ENDBRANCH   1   6
TORSDOF 5
ENDMDL
MODEL 4
REMARK VINA RESULT:    -1.106      1.921      3.062
REMARK INTER + INTRA:          -1.504
REMARK INTER:                  -1.344
REMARK INTRA:                  -0.160
REMARK UNBOUND:                -0.075
REMARK SMILES CCCCCCC(=O)[O-]
REMARK SMILES IDX 5 1 6 2 7 3 8 4 9 5 4 6 3 7 2 8 1 9
REMARK H PARENT
REMARK Flexibility Score: inf
ROOT
ATOM      1  C   UNL     1      -8.314  29.512 -15.704  1.00  0.00     0.006 C 
ENDROOT
BRANCH   1   2
ATOM      2  C   UNL     1      -9.287  30.315 -16.577  1.00  0.00     0.053 C 
BRANCH   2   3
ATOM      3  C   UNL     1      -9.143  31.790 -16.355  1.00  0.00     0.041 C 
ATOM      4  O   UNL     1      -8.864  32.234 -15.211  1.00  0.00    -0.550 OA
ATOM      5  O   UNL     1      -9.287  32.670 -17.420  1.00  0.00    -0.550 OA
ENDBRANCH   2   3
ENDBRANCH   1   2
BRANCH   1   6
ATOM      6  C   UNL     1      -7.349  28.660 -16.541  1.00  0.00     0.000 C 
BRANCH   6   7
ATOM      7  C   UNL     1      -7.530  28.936 -18.039  1.00  0.00    -0.000 C 
BRANCH   7   8
ATOM      8  C   UNL     1      -6.303  28.476 -18.834  1.00  0.00    -0.003 C 
ATOM      9  C   UNL     1      -6.505  28.693 -20.332  1.00  0.00     0.004 C 
ENDBRANCH   7   8
ENDBRANCH   6   7
ENDBRANCH   1   6
TORSDOF 5
ENDMDL
MODEL 5
REMARK VINA RESULT:    -0.756      2.947      5.422
REMARK INTER + INTRA:          -1.052
REMARK INTER:                  -0.871
REMARK INTRA:                  -0.181
REMARK UNBOUND:                -0.075
REMARK SMILES CCCCCCC(=O)[O-]
REMARK SMILES IDX 5 1 6 2 7 3 8 4 9 5 4 6 3 7 2 8 1 9
REMARK H PARENT
REMARK Flexibility Score: inf
ROOT
ATOM      1  C   UNL     1      -6.698  28.543 -17.694  1.00  0.00     0.006 C 
ENDROOT
BRANCH   1   2
ATOM      2  C   UNL     1      -7.296  28.995 -19.033  1.00  0.00     0.053 C 
BRANCH   2   3
ATOM      3  C   UNL     1      -6.451  28.562 -20.192  1.00  0.00     0.041 C 
ATOM      4  O   UNL     1      -6.064  29.404 -21.044  1.00  0.00    -0.550 OA
ATOM      5  O   UNL     1      -6.065  27.232 -20.312  1.00  0.00    -0.550 OA
ENDBRANCH   2   3
ENDBRANCH   1   2
BRANCH   1   6
ATOM      6  C   UNL     1      -7.583  28.933 -16.501  1.00  0.00     0.000 C 
BRANCH   6   7
ATOM      7  C   UNL     1      -8.802  29.742 -16.962  1.00  0.00    -0.000 C 
BRANCH   7   8
ATOM      8  C   UNL     1      -9.313  30.653 -15.840  1.00  0.00    -0.003 C 
ATOM      9  C   UNL     1      -9.031  32.121 -16.149  1.00  0.00     0.004 C 
ENDBRANCH   7   8
ENDBRANCH   6   7
ENDBRANCH   1   6
TORSDOF 5
ENDMDL
MODEL 6
REMARK VINA RESULT:    -0.733      3.003      5.386
REMARK INTER + INTRA:          -1.022
REMARK INTER:                  -0.824
REMARK INTRA:                  -0.199
REMARK UNBOUND:                -0.075
REMARK SMILES CCCCCCC(=O)[O-]
REMARK SMILES IDX 5 1 6 2 7 3 8 4 9 5 4 6 3 7 2 8 1 9
REMARK H PARENT
REMARK Flexibility Score: inf
ROOT
ATOM      1  C   UNL     1      -6.566  28.528 -18.082  1.00  0.00     0.006 C 
ENDROOT
BRANCH   1   2
ATOM      2  C   UNL     1      -7.087  29.001 -19.445  1.00  0.00     0.053 C 
BRANCH   2   3
ATOM      3  C   UNL     1      -6.377  28.321 -20.576  1.00  0.00     0.041 C 
ATOM      4  O   UNL     1      -5.997  27.126 -20.459  1.00  0.00    -0.550 OA
ATOM      5  O   UNL     1      -6.162  28.999 -21.770  1.00  0.00    -0.550 OA
ENDBRANCH   2   3
ENDBRANCH   1   2
BRANCH   1   6
ATOM      6  C   UNL     1      -7.513  28.909 -16.934  1.00  0.00     0.000 C 
BRANCH   6   7
ATOM      7  C   UNL     1      -8.689  29.748 -17.448  1.00  0.00    -0.000 C 
BRANCH   7   8
ATOM      8  C   UNL     1      -9.372  30.498 -16.299  1.00  0.00    -0.003 C 
ATOM      9  C   UNL     1      -8.753  30.128 -14.953  1.00  0.00     0.004 C 
ENDBRANCH   7   8
ENDBRANCH   6   7
ENDBRANCH   1   6
TORSDOF 5
ENDMDL
MODEL 7
REMARK VINA RESULT:    -0.027     14.074     14.638
REMARK INTER + INTRA:          -0.109
REMARK INTER:                   0.010
REMARK INTRA:                  -0.119
REMARK UNBOUND:                -0.075
REMARK SMILES CCCCCCC(=O)[O-]
REMARK SMILES IDX 5 1 6 2 7 3 8 4 9 5 4 6 3 7 2 8 1 9
REMARK H PARENT
REMARK Flexibility Score: inf
ROOT
ATOM      1  C   UNL     1      -9.515  26.452  -5.432  1.00  0.00     0.006 C 
ENDROOT
BRANCH   1   2
ATOM      2  C   UNL     1     -10.416  27.091  -4.367  1.00  0.00     0.053 C 
BRANCH   2   3
ATOM      3  C   UNL     1     -11.859  27.059  -4.770  1.00  0.00     0.041 C 
ATOM      4  O   UNL     1     -12.347  26.024  -5.296  1.00  0.00    -0.550 OA
ATOM      5  O   UNL     1     -12.671  28.161  -4.535  1.00  0.00    -0.550 OA
ENDBRANCH   2   3
ENDBRANCH   1   2
BRANCH   1   6
ATOM      6  C   UNL     1      -8.755  25.231  -4.894  1.00  0.00     0.000 C 
BRANCH   6   7
ATOM      7  C   UNL     1      -7.815  24.656  -5.960  1.00  0.00    -0.000 C 
BRANCH   7   8
ATOM      8  C   UNL     1      -6.718  23.798  -5.319  1.00  0.00    -0.003 C 
ATOM      9  C   UNL     1      -5.402  24.565  -5.224  1.00  0.00     0.004 C 
ENDBRANCH   7   8
ENDBRANCH   6   7
ENDBRANCH   1   6
TORSDOF 5
ENDMDL
MODEL 8
REMARK VINA RESULT:     0.246     14.171     15.158
REMARK INTER + INTRA:           0.244
REMARK INTER:                   0.359
REMARK INTRA:                  -0.115
REMARK UNBOUND:                -0.075
REMARK SMILES CCCCCCC(=O)[O-]
REMARK SMILES IDX 5 1 6 2 7 3 8 4 9 5 4 6 3 7 2 8 1 9
REMARK H PARENT
REMARK Flexibility Score: inf
ROOT
ATOM      1  C   UNL     1      -8.442  25.063  -4.672  1.00  0.00     0.006 C 
ENDROOT
BRANCH   1   2
ATOM      2  C   UNL     1      -7.649  24.545  -5.879  1.00  0.00     0.053 C 
BRANCH   2   3
ATOM      3  C   UNL     1      -6.264  24.125  -5.493  1.00  0.00     0.041 C 
ATOM      4  O   UNL     1      -6.022  22.921  -5.213  1.00  0.00    -0.550 OA
ATOM      5  O   UNL     1      -5.234  25.057  -5.474  1.00  0.00    -0.550 OA
ENDBRANCH   2   3
ENDBRANCH   1   2
BRANCH   1   6
ATOM      6  C   UNL     1      -9.772  25.712  -5.085  1.00  0.00     0.000 C 
BRANCH   6   7
ATOM      7  C   UNL     1      -9.804  27.195  -4.697  1.00  0.00    -0.000 C 
BRANCH   7   8
ATOM      8  C   UNL     1     -11.217  27.624  -4.285  1.00  0.00    -0.003 C 
ATOM      9  C   UNL     1     -12.278  26.844  -5.057  1.00  0.00     0.004 C 
ENDBRANCH   7   8
ENDBRANCH   6   7
ENDBRANCH   1   6
TORSDOF 5
ENDMDL
