MODEL 1
REMARK VINA RESULT:    -3.624      0.000      0.000
REMARK INTER + INTRA:          -5.421
REMARK INTER:                  -5.108
REMARK INTRA:                  -0.314
REMARK UNBOUND:                -0.314
REMARK SMILES CCCCCCCCC(=O)[O-]
REMARK SMILES IDX 6 1 7 2 8 3 9 4 10 5 11 6 5 7 4 8 3 9 2 10 1 11
REMARK H PARENT
REMARK Flexibility Score: inf
ROOT
ATOM      1  C   UNL     1      57.812  29.542  50.319  1.00  0.00     0.000 C 
ENDROOT
BRANCH   1   2
ATOM      2  C   UNL     1      58.848  29.306  49.204  1.00  0.00     0.006 C 
BRANCH   2   3
ATOM      3  C   UNL     1      59.545  27.936  49.281  1.00  0.00     0.053 C 
BRANCH   3   4
ATOM      4  C   UNL     1      60.989  28.043  49.667  1.00  0.00     0.041 C 
ATOM      5  O   UNL     1      61.719  27.016  49.693  1.00  0.00    -0.550 OA
ATOM      6  O   UNL     1      61.540  29.282  49.969  1.00  0.00    -0.550 OA
ENDBRANCH   3   4
ENDBRANCH   2   3
ENDBRANCH   1   2
BRANCH   1   7
ATOM      7  C   UNL     1      56.765  28.418  50.414  1.00  0.00     0.000 C 
BRANCH   7   8
ATOM      8  C   UNL     1      55.334  28.958  50.573  1.00  0.00    -0.000 C 
BRANCH   8   9
ATOM      9  C   UNL     1      54.272  27.966  50.069  1.00  0.00    -0.000 C 
BRANCH   9  10
ATOM     10  C   UNL     1      54.877  26.613  49.664  1.00  0.00    -0.003 C 
ATOM     11  C   UNL     1      53.837  25.649  49.091  1.00  0.00     0.004 C 
ENDBRANCH   9  10
ENDBRANCH   8   9
ENDBRANCH   7   8
ENDBRANCH   1   7
TORSDOF 7
ENDMDL
MODEL 2
REMARK VINA RESULT:    -3.522     12.345     13.857
REMARK INTER + INTRA:          -5.277
REMARK INTER:                  -5.034
REMARK INTRA:                  -0.243
REMARK UNBOUND:                -0.314
REMARK SMILES CCCCCCCCC(=O)[O-]
REMARK SMILES IDX 6 1 7 2 8 3 9 4 10 5 11 6 5 7 4 8 3 9 2 10 1 11
REMARK H PARENT
REMARK Flexibility Score: inf
ROOT
ATOM      1  C   UNL     1      60.895  32.129  60.591  1.00  0.00     0.000 C 
ENDROOT
BRANCH   1   2
ATOM      2  C   UNL     1      60.768  31.117  61.745  1.00  0.00     0.006 C 
BRANCH   2   3
ATOM      3  C   UNL     1      61.940  30.122  61.833  1.00  0.00     0.053 C 
BRANCH   3   4
ATOM      4  C   UNL     1      61.590  28.768  61.295  1.00  0.00     0.041 C 
ATOM      5  O   UNL     1      60.824  28.657  60.302  1.00  0.00    -0.550 OA
ATOM      6  O   UNL     1      62.136  27.628  61.870  1.00  0.00    -0.550 OA
ENDBRANCH   3   4
ENDBRANCH   2   3
ENDBRANCH   1   2
BRANCH   1   7
ATOM      7  C   UNL     1      62.041  33.136  60.797  1.00  0.00     0.000 C 
BRANCH   7   8
ATOM      8  C   UNL     1      61.633  34.574  60.438  1.00  0.00    -0.000 C 
BRANCH   8   9
ATOM      9  C   UNL     1      62.570  35.623  61.060  1.00  0.00    -0.000 C 
BRANCH   9  10
ATOM     10  C   UNL     1      64.011  35.112  61.206  1.00  0.00    -0.003 C 
ATOM     11  C   UNL     1      64.903  36.074  61.992  1.00  0.00     0.004 C 
ENDBRANCH   9  10
ENDBRANCH   8   9
ENDBRANCH   7   8
ENDBRANCH   1   7
TORSDOF 7
ENDMDL
MODEL 3
REMARK VINA RESULT:    -3.453     12.656     14.258
REMARK INTER + INTRA:          -5.180
REMARK INTER:                  -4.950
REMARK INTRA:                  -0.230
REMARK UNBOUND:                -0.314
REMARK SMILES CCCCCCCCC(=O)[O-]
REMARK SMILES IDX 6 1 7 2 8 3 9 4 10 5 11 6 5 7 4 8 3 9 2 10 1 11
REMARK H PARENT
REMARK Flexibility Score: inf
ROOT
ATOM      1  C   UNL     1      61.778  33.185  60.694  1.00  0.00     0.000 C 
ENDROOT
BRANCH   1   2
ATOM      2  C   UNL     1      60.878  31.937  60.636  1.00  0.00     0.006 C 
BRANCH   2   3
ATOM      3  C   UNL     1      60.988  31.030  61.874  1.00  0.00     0.053 C 
BRANCH   3   4
ATOM      4  C   UNL     1      62.038  29.972  61.725  1.00  0.00     0.041 C 
ATOM      5  O   UNL     1      63.258  30.284  61.708  1.00  0.00    -0.550 OA
ATOM      6  O   UNL     1      61.672  28.635  61.636  1.00  0.00    -0.550 OA
ENDBRANCH   3   4
ENDBRANCH   2   3
ENDBRANCH   1   2
BRANCH   1   7
ATOM      7  C   UNL     1      61.018  34.490  60.395  1.00  0.00     0.000 C 
BRANCH   7   8
ATOM      8  C   UNL     1      61.848  35.742  60.719  1.00  0.00    -0.000 C 
BRANCH   8   9
ATOM      9  C   UNL     1      63.308  35.407  61.067  1.00  0.00    -0.000 C 
BRANCH   9  10
ATOM     10  C   UNL     1      64.049  36.595  61.700  1.00  0.00    -0.003 C 
ATOM     11  C   UNL     1      65.569  36.478  61.574  1.00  0.00     0.004 C 
ENDBRANCH   9  10
ENDBRANCH   8   9
ENDBRANCH   7   8
ENDBRANCH   1   7
TORSDOF 7
ENDMDL
MODEL 4
REMARK VINA RESULT:    -3.426      1.185      1.415
REMARK INTER + INTRA:          -5.142
REMARK INTER:                  -4.687
REMARK INTRA:                  -0.455
REMARK UNBOUND:                -0.314
REMARK SMILES CCCCCCCCC(=O)[O-]
REMARK SMILES IDX 6 1 7 2 8 3 9 4 10 5 11 6 5 7 4 8 3 9 2 10 1 11
REMARK H PARENT
REMARK Flexibility Score: inf
ROOT
ATOM      1  C   UNL     1      58.288  29.369  49.796  1.00  0.00     0.000 C 
ENDROOT
BRANCH   1   2
ATOM      2  C   UNL     1      59.307  28.390  49.185  1.00  0.00     0.006 C 
BRANCH   2   3
ATOM      3  C   UNL     1      59.050  26.916  49.547  1.00  0.00     0.053 C 
BRANCH   3   4
ATOM      4  C   UNL     1      60.310  26.173  49.873  1.00  0.00     0.041 C 
ATOM      5  O   UNL     1      60.281  24.929  50.070  1.00  0.00    -0.550 OA
ATOM      6  O   UNL     1      61.522  26.848  49.928  1.00  0.00    -0.550 OA
ENDBRANCH   3   4
ENDBRANCH   2   3
ENDBRANCH   1   2
BRANCH   1   7
ATOM      7  C   UNL     1      57.352  28.702  50.820  1.00  0.00     0.000 C 
BRANCH   7   8
ATOM      8  C   UNL     1      55.873  28.786  50.409  1.00  0.00    -0.000 C 
BRANCH   8   9
ATOM      9  C   UNL     1      55.093  27.506  50.755  1.00  0.00    -0.000 C 
BRANCH   9  10
ATOM     10  C   UNL     1      55.312  26.387  49.724  1.00  0.00    -0.003 C 
ATOM     11  C   UNL     1      54.000  25.787  49.217  1.00  0.00     0.004 C 
ENDBRANCH   9  10
ENDBRANCH   8   9
ENDBRANCH   7   8
ENDBRANCH   1   7
TORSDOF 7
ENDMDL
MODEL 5
REMARK VINA RESULT:    -3.385     12.658     13.642
REMARK INTER + INTRA:          -5.085
REMARK INTER:                  -4.432
REMARK INTRA:                  -0.653
REMARK UNBOUND:                -0.314
REMARK SMILES CCCCCCCCC(=O)[O-]
REMARK SMILES IDX 6 1 7 2 8 3 9 4 10 5 11 6 5 7 4 8 3 9 2 10 1 11
REMARK H PARENT
REMARK Flexibility Score: inf
ROOT
ATOM      1  C   UNL     1      61.223  33.447  60.592  1.00  0.00     0.000 C 
ENDROOT
BRANCH   1   2
ATOM      2  C   UNL     1      62.606  33.764  59.994  1.00  0.00     0.006 C 
BRANCH   2   3
ATOM      3  C   UNL     1      63.714  33.949  61.046  1.00  0.00     0.053 C 
BRANCH   3   4
ATOM      4  C   UNL     1      63.961  35.389  61.379  1.00  0.00     0.041 C 
ATOM      5  O   UNL     1      63.009  36.214  61.378  1.00  0.00    -0.550 OA
ATOM      6  O   UNL     1      65.237  35.815  61.723  1.00  0.00    -0.550 OA
ENDBRANCH   3   4
ENDBRANCH   2   3
ENDBRANCH   1   2
BRANCH   1   7
ATOM      7  C   UNL     1      60.835  31.964  60.457  1.00  0.00     0.000 C 
BRANCH   7   8
ATOM      8  C   UNL     1      60.744  31.253  61.817  1.00  0.00    -0.000 C 
BRANCH   8   9
ATOM      9  C   UNL     1      61.726  30.074  61.930  1.00  0.00    -0.000 C 
BRANCH   9  10
ATOM     10  C   UNL     1      62.653  29.962  60.710  1.00  0.00    -0.003 C 
ATOM     11  C   UNL     1      64.116  30.247  61.052  1.00  0.00     0.004 C 
ENDBRANCH   9  10
ENDBRANCH   8   9
ENDBRANCH   7   8
ENDBRANCH   1   7
TORSDOF 7
ENDMDL
MODEL 6
REMARK VINA RESULT:    -3.373     12.869     13.773
REMARK INTER + INTRA:          -5.067
REMARK INTER:                  -4.687
REMARK INTRA:                  -0.380
REMARK UNBOUND:                -0.314
REMARK SMILES CCCCCCCCC(=O)[O-]
REMARK SMILES IDX 6 1 7 2 8 3 9 4 10 5 11 6 5 7 4 8 3 9 2 10 1 11
REMARK H PARENT
REMARK Flexibility Score: inf
ROOT
ATOM      1  C   UNL     1      61.735  34.272  60.254  1.00  0.00     0.000 C 
ENDROOT
BRANCH   1   2
ATOM      2  C   UNL     1      62.568  35.324  61.009  1.00  0.00     0.006 C 
BRANCH   2   3
ATOM      3  C   UNL     1      63.991  34.857  61.362  1.00  0.00     0.053 C 
BRANCH   3   4
ATOM      4  C   UNL     1      65.052  35.712  60.739  1.00  0.00     0.041 C 
ATOM      5  O   UNL     1      65.883  36.323  61.462  1.00  0.00    -0.550 OA
ATOM      6  O   UNL     1      65.144  35.811  59.356  1.00  0.00    -0.550 OA
ENDBRANCH   3   4
ENDBRANCH   2   3
ENDBRANCH   1   2
BRANCH   1   7
ATOM      7  C   UNL     1      62.122  32.827  60.615  1.00  0.00     0.000 C 
BRANCH   7   8
ATOM      8  C   UNL     1      60.936  32.019  61.165  1.00  0.00    -0.000 C 
BRANCH   8   9
ATOM      9  C   UNL     1      61.373  30.684  61.791  1.00  0.00    -0.000 C 
BRANCH   9  10
ATOM     10  C   UNL     1      62.870  30.402  61.588  1.00  0.00    -0.003 C 
ATOM     11  C   UNL     1      63.144  28.972  61.120  1.00  0.00     0.004 C 
ENDBRANCH   9  10
ENDBRANCH   8   9
ENDBRANCH   7   8
ENDBRANCH   1   7
TORSDOF 7
ENDMDL
MODEL 7
REMARK VINA RESULT:    -3.365     12.223     13.424
REMARK INTER + INTRA:          -5.055
REMARK INTER:                  -4.706
REMARK INTRA:                  -0.349
REMARK UNBOUND:                -0.314
REMARK SMILES CCCCCCCCC(=O)[O-]
REMARK SMILES IDX 6 1 7 2 8 3 9 4 10 5 11 6 5 7 4 8 3 9 2 10 1 11
REMARK H PARENT
REMARK Flexibility Score: inf
ROOT
ATOM      1  C   UNL     1      60.785  31.582  61.284  1.00  0.00     0.000 C 
ENDROOT
BRANCH   1   2
ATOM      2  C   UNL     1      61.641  30.448  61.875  1.00  0.00     0.006 C 
BRANCH   2   3
ATOM      3  C   UNL     1      63.131  30.528  61.496  1.00  0.00     0.053 C 
BRANCH   3   4
ATOM      4  C   UNL     1      63.652  29.247  60.920  1.00  0.00     0.041 C 
ATOM      5  O   UNL     1      64.885  28.993  60.945  1.00  0.00    -0.550 OA
ATOM      6  O   UNL     1      62.771  28.317  60.382  1.00  0.00    -0.550 OA
ENDBRANCH   3   4
ENDBRANCH   2   3
ENDBRANCH   1   2
BRANCH   1   7
ATOM      7  C   UNL     1      61.548  32.440  60.259  1.00  0.00     0.000 C 
BRANCH   7   8
ATOM      8  C   UNL     1      61.392  33.947  60.520  1.00  0.00    -0.000 C 
BRANCH   8   9
ATOM      9  C   UNL     1      62.747  34.670  60.620  1.00  0.00    -0.000 C 
BRANCH   9  10
ATOM     10  C   UNL     1      62.616  36.086  61.202  1.00  0.00    -0.003 C 
ATOM     11  C   UNL     1      61.301  36.764  60.815  1.00  0.00     0.004 C 
ENDBRANCH   9  10
ENDBRANCH   8   9
ENDBRANCH   7   8
ENDBRANCH   1   7
TORSDOF 7
ENDMDL
MODEL 8
REMARK VINA RESULT:    -3.285     11.825     13.259
REMARK INTER + INTRA:          -4.944
REMARK INTER:                  -4.566
REMARK INTRA:                  -0.377
REMARK UNBOUND:                -0.314
REMARK SMILES CCCCCCCCC(=O)[O-]
REMARK SMILES IDX 6 1 7 2 8 3 9 4 10 5 11 6 5 7 4 8 3 9 2 10 1 11
REMARK H PARENT
REMARK Flexibility Score: inf
ROOT
ATOM      1  C   UNL     1      60.907  31.195  61.770  1.00  0.00     0.000 C 
ENDROOT
BRANCH   1   2
ATOM      2  C   UNL     1      62.195  30.351  61.733  1.00  0.00     0.006 C 
BRANCH   2   3
ATOM      3  C   UNL     1      61.947  28.840  61.584  1.00  0.00     0.053 C 
BRANCH   3   4
ATOM      4  C   UNL     1      60.967  28.519  60.496  1.00  0.00     0.041 C 
ATOM      5  O   UNL     1      61.270  28.714  59.289  1.00  0.00    -0.550 OA
ATOM      6  O   UNL     1      59.729  27.974  60.813  1.00  0.00    -0.550 OA
ENDBRANCH   3   4
ENDBRANCH   2   3
ENDBRANCH   1   2
BRANCH   1   7
ATOM      7  C   UNL     1      60.853  32.259  60.659  1.00  0.00     0.000 C 
BRANCH   7   8
ATOM      8  C   UNL     1      62.097  33.162  60.647  1.00  0.00    -0.000 C 
BRANCH   8   9
ATOM      9  C   UNL     1      61.738  34.657  60.618  1.00  0.00    -0.000 C 
BRANCH   9  10
ATOM     10  C   UNL     1      62.913  35.553  61.039  1.00  0.00    -0.003 C 
ATOM     11  C   UNL     1      64.168  34.753  61.394  1.00  0.00     0.004 C 
ENDBRANCH   9  10
ENDBRANCH   8   9
ENDBRANCH   7   8
ENDBRANCH   1   7
TORSDOF 7
ENDMDL
MODEL 9
REMARK VINA RESULT:    -3.265     12.596     13.633
REMARK INTER + INTRA:          -4.914
REMARK INTER:                  -4.422
REMARK INTRA:                  -0.492
REMARK UNBOUND:                -0.314
REMARK SMILES CCCCCCCCC(=O)[O-]
REMARK SMILES IDX 6 1 7 2 8 3 9 4 10 5 11 6 5 7 4 8 3 9 2 10 1 11
REMARK H PARENT
REMARK Flexibility Score: inf
ROOT
ATOM      1  C   UNL     1      63.876  32.141  59.641  1.00  0.00     0.000 C 
ENDROOT
BRANCH   1   2
ATOM      2  C   UNL     1      63.705  30.633  59.901  1.00  0.00     0.006 C 
BRANCH   2   3
ATOM      3  C   UNL     1      63.537  30.272  61.387  1.00  0.00     0.053 C 
BRANCH   3   4
ATOM      4  C   UNL     1      62.131  29.884  61.733  1.00  0.00     0.041 C 
ATOM      5  O   UNL     1      61.267  30.769  61.969  1.00  0.00    -0.550 OA
ATOM      6  O   UNL     1      61.766  28.544  61.764  1.00  0.00    -0.550 OA
ENDBRANCH   3   4
ENDBRANCH   2   3
ENDBRANCH   1   2
BRANCH   1   7
ATOM      7  C   UNL     1      64.112  32.950  60.929  1.00  0.00     0.000 C 
BRANCH   7   8
ATOM      8  C   UNL     1      63.341  34.280  60.939  1.00  0.00    -0.000 C 
BRANCH   8   9
ATOM      9  C   UNL     1      61.891  34.122  60.449  1.00  0.00    -0.000 C 
BRANCH   9  10
ATOM     10  C   UNL     1      61.088  35.428  60.560  1.00  0.00    -0.003 C 
ATOM     11  C   UNL     1      61.948  36.616  60.992  1.00  0.00     0.004 C 
ENDBRANCH   9  10
ENDBRANCH   8   9
ENDBRANCH   7   8
ENDBRANCH   1   7
TORSDOF 7
ENDMDL
