MODEL 1
REMARK VINA RESULT:    -3.685      0.000      0.000
REMARK INTER + INTRA:         -13.270
REMARK INTER:                  -8.424
REMARK INTRA:                  -4.847
REMARK UNBOUND:                -4.847
REMARK SMILES CCCCCCCCCCCCCCCCCCCCCCCC(=O)[O-]
REMARK SMILES IDX 13 1 14 2 15 3 16 4 17 5 18 6 19 7 20 8 21 9 22 10 23 11
REMARK SMILES IDX 24 12 25 13 26 14 12 15 11 16 10 17 9 18 8 19 7 20 6 21 5 22
REMARK SMILES IDX 4 23 3 24 2 25 1 26
REMARK H PARENT
REMARK Flexibility Score: inf
ROOT
ATOM      1  C   UNL     1      -3.480   6.051  39.751  1.00  0.00     0.000 C 
ENDROOT
BRANCH   1   2
ATOM      2  C   UNL     1      -2.809   5.125  40.782  1.00  0.00     0.000 C 
BRANCH   2   3
ATOM      3  C   UNL     1      -1.940   5.893  41.794  1.00  0.00     0.000 C 
BRANCH   3   4
ATOM      4  C   UNL     1      -0.463   5.454  41.753  1.00  0.00     0.000 C 
BRANCH   4   5
ATOM      5  C   UNL     1      -0.132   4.446  40.634  1.00  0.00     0.000 C 
BRANCH   5   6
ATOM      6  C   UNL     1       0.827   4.990  39.556  1.00  0.00     0.000 C 
BRANCH   6   7
ATOM      7  C   UNL     1       0.092   5.403  38.268  1.00  0.00     0.000 C 
BRANCH   7   8
ATOM      8  C   UNL     1      -0.869   4.316  37.759  1.00  0.00     0.000 C 
BRANCH   8   9
ATOM      9  C   UNL     1      -1.753   4.803  36.598  1.00  0.00     0.000 C 
BRANCH   9  10
ATOM     10  C   UNL     1      -0.951   5.069  35.314  1.00  0.00     0.006 C 
BRANCH  10  11
ATOM     11  C   UNL     1      -0.018   3.910  34.942  1.00  0.00     0.053 C 
BRANCH  11  12
ATOM     12  C   UNL     1       1.347   4.422  34.603  1.00  0.00     0.041 C 
ATOM     13  O   UNL     1       2.070   3.800  33.781  1.00  0.00    -0.550 OA
ATOM     14  O   UNL     1       1.804   5.608  35.165  1.00  0.00    -0.550 OA
ENDBRANCH  11  12
ENDBRANCH  10  11
ENDBRANCH   9  10
ENDBRANCH   8   9
ENDBRANCH   7   8
ENDBRANCH   6   7
ENDBRANCH   5   6
ENDBRANCH   4   5
ENDBRANCH   3   4
ENDBRANCH   2   3
ENDBRANCH   1   2
BRANCH   1  15
ATOM     15  C   UNL     1      -3.066   7.533  39.839  1.00  0.00     0.000 C 
BRANCH  15  16
ATOM     16  C   UNL     1      -2.140   8.023  38.711  1.00  0.00     0.000 C 
BRANCH  16  17
ATOM     17  C   UNL     1      -2.383   9.497  38.340  1.00  0.00     0.000 C 
BRANCH  17  18
ATOM     18  C   UNL     1      -1.693   9.894  37.025  1.00  0.00    -0.000 C 
BRANCH  18  19
ATOM     19  C   UNL     1      -1.556   8.716  36.046  1.00  0.00    -0.000 C 
BRANCH  19  20
ATOM     20  C   UNL     1      -0.143   8.595  35.451  1.00  0.00    -0.000 C 
BRANCH  20  21
ATOM     21  C   UNL     1       0.918   9.427  36.204  1.00  0.00    -0.000 C 
BRANCH  21  22
ATOM     22  C   UNL     1       1.663   8.597  37.265  1.00  0.00    -0.000 C 
BRANCH  22  23
ATOM     23  C   UNL     1       1.865   9.375  38.583  1.00  0.00    -0.000 C 
BRANCH  23  24
ATOM     24  C   UNL     1       1.170   8.728  39.793  1.00  0.00    -0.000 C 
BRANCH  24  25
ATOM     25  C   UNL     1       0.482   9.752  40.705  1.00  0.00    -0.003 C 
ATOM     26  C   UNL     1       0.085   9.124  42.038  1.00  0.00     0.004 C 
ENDBRANCH  24  25
ENDBRANCH  23  24
ENDBRANCH  22  23
ENDBRANCH  21  22
ENDBRANCH  20  21
ENDBRANCH  19  20
ENDBRANCH  18  19
ENDBRANCH  17  18
ENDBRANCH  16  17
ENDBRANCH  15  16
ENDBRANCH   1  15
TORSDOF 22
ENDMDL
MODEL 2
REMARK VINA RESULT:    -3.508      2.516      4.756
REMARK INTER + INTRA:         -12.865
REMARK INTER:                  -8.267
REMARK INTRA:                  -4.598
REMARK UNBOUND:                -4.847
REMARK SMILES CCCCCCCCCCCCCCCCCCCCCCCC(=O)[O-]
REMARK SMILES IDX 13 1 14 2 15 3 16 4 17 5 18 6 19 7 20 8 21 9 22 10 23 11
REMARK SMILES IDX 24 12 25 13 26 14 12 15 11 16 10 17 9 18 8 19 7 20 6 21 5 22
REMARK SMILES IDX 4 23 3 24 2 25 1 26
REMARK H PARENT
REMARK Flexibility Score: inf
ROOT
ATOM      1  C   UNL     1      -2.214   7.904  39.028  1.00  0.00     0.000 C 
ENDROOT
BRANCH   1   2
ATOM      2  C   UNL     1      -3.313   7.500  40.027  1.00  0.00     0.000 C 
BRANCH   2   3
ATOM      3  C   UNL     1      -2.866   7.644  41.493  1.00  0.00     0.000 C 
BRANCH   3   4
ATOM      4  C   UNL     1      -2.388   6.309  42.097  1.00  0.00     0.000 C 
BRANCH   4   5
ATOM      5  C   UNL     1      -2.753   5.067  41.257  1.00  0.00     0.000 C 
BRANCH   5   6
ATOM      6  C   UNL     1      -1.557   4.148  40.937  1.00  0.00     0.000 C 
BRANCH   6   7
ATOM      7  C   UNL     1      -0.998   4.381  39.521  1.00  0.00     0.000 C 
BRANCH   7   8
ATOM      8  C   UNL     1       0.462   4.863  39.532  1.00  0.00     0.000 C 
BRANCH   8   9
ATOM      9  C   UNL     1       0.648   6.207  38.807  1.00  0.00     0.000 C 
BRANCH   9  10
ATOM     10  C   UNL     1       1.513   7.196  39.605  1.00  0.00     0.006 C 
BRANCH  10  11
ATOM     11  C   UNL     1       0.942   7.499  40.997  1.00  0.00     0.053 C 
BRANCH  11  12
ATOM     12  C   UNL     1       0.625   8.956  41.128  1.00  0.00     0.041 C 
ATOM     13  O   UNL     1       0.833   9.738  40.163  1.00  0.00    -0.550 OA
ATOM     14  O   UNL     1       0.062   9.443  42.301  1.00  0.00    -0.550 OA
ENDBRANCH  11  12
ENDBRANCH  10  11
ENDBRANCH   9  10
ENDBRANCH   8   9
ENDBRANCH   7   8
ENDBRANCH   6   7
ENDBRANCH   5   6
ENDBRANCH   4   5
ENDBRANCH   3   4
ENDBRANCH   2   3
ENDBRANCH   1   2
BRANCH   1  15
ATOM     15  C   UNL     1      -2.284   9.364  38.537  1.00  0.00     0.000 C 
BRANCH  15  16
ATOM     16  C   UNL     1      -1.800   9.593  37.094  1.00  0.00     0.000 C 
BRANCH  16  17
ATOM     17  C   UNL     1      -0.335   9.174  36.884  1.00  0.00     0.000 C 
BRANCH  17  18
ATOM     18  C   UNL     1      -0.151   8.272  35.653  1.00  0.00    -0.000 C 
BRANCH  18  19
ATOM     19  C   UNL     1      -1.264   7.218  35.517  1.00  0.00    -0.000 C 
BRANCH  19  20
ATOM     20  C   UNL     1      -0.781   5.924  34.839  1.00  0.00    -0.000 C 
BRANCH  20  21
ATOM     21  C   UNL     1      -0.535   4.763  35.828  1.00  0.00    -0.000 C 
BRANCH  21  22
ATOM     22  C   UNL     1       0.876   4.165  35.684  1.00  0.00    -0.000 C 
BRANCH  22  23
ATOM     23  C   UNL     1       1.899   5.196  35.160  1.00  0.00    -0.000 C 
BRANCH  23  24
ATOM     24  C   UNL     1       3.173   5.289  36.015  1.00  0.00    -0.000 C 
BRANCH  24  25
ATOM     25  C   UNL     1       3.226   4.232  37.127  1.00  0.00    -0.003 C 
ATOM     26  C   UNL     1       4.059   4.716  38.310  1.00  0.00     0.004 C 
ENDBRANCH  24  25
ENDBRANCH  23  24
ENDBRANCH  22  23
ENDBRANCH  21  22
ENDBRANCH  20  21
ENDBRANCH  19  20
ENDBRANCH  18  19
ENDBRANCH  17  18
ENDBRANCH  16  17
ENDBRANCH  15  16
ENDBRANCH   1  15
TORSDOF 22
ENDMDL
MODEL 3
REMARK VINA RESULT:    -3.364      1.612      5.185
REMARK INTER + INTRA:         -12.536
REMARK INTER:                  -7.885
REMARK INTRA:                  -4.651
REMARK UNBOUND:                -4.847
REMARK SMILES CCCCCCCCCCCCCCCCCCCCCCCC(=O)[O-]
REMARK SMILES IDX 13 1 14 2 15 3 16 4 17 5 18 6 19 7 20 8 21 9 22 10 23 11
REMARK SMILES IDX 24 12 25 13 26 14 12 15 11 16 10 17 9 18 8 19 7 20 6 21 5 22
REMARK SMILES IDX 4 23 3 24 2 25 1 26
REMARK H PARENT
REMARK Flexibility Score: inf
ROOT
ATOM      1  C   UNL     1       0.979   8.897  39.695  1.00  0.00     0.000 C 
ENDROOT
BRANCH   1   2
ATOM      2  C   UNL     1       0.417   9.304  41.069  1.00  0.00     0.000 C 
BRANCH   2   3
ATOM      3  C   UNL     1       0.796   8.312  42.183  1.00  0.00     0.000 C 
BRANCH   3   4
ATOM      4  C   UNL     1      -0.439   7.653  42.830  1.00  0.00     0.000 C 
BRANCH   4   5
ATOM      5  C   UNL     1      -1.776   8.008  42.149  1.00  0.00     0.000 C 
BRANCH   5   6
ATOM      6  C   UNL     1      -2.393   6.858  41.330  1.00  0.00     0.000 C 
BRANCH   6   7
ATOM      7  C   UNL     1      -3.245   7.365  40.151  1.00  0.00     0.000 C 
BRANCH   7   8
ATOM      8  C   UNL     1      -2.392   7.858  38.972  1.00  0.00     0.000 C 
BRANCH   8   9
ATOM      9  C   UNL     1      -2.589   9.356  38.683  1.00  0.00     0.000 C 
BRANCH   9  10
ATOM     10  C   UNL     1      -1.766   9.840  37.478  1.00  0.00     0.006 C 
BRANCH  10  11
ATOM     11  C   UNL     1      -1.259   8.688  36.600  1.00  0.00     0.053 C 
BRANCH  11  12
ATOM     12  C   UNL     1      -0.035   9.103  35.846  1.00  0.00     0.041 C 
ATOM     13  O   UNL     1      -0.102  10.023  34.989  1.00  0.00    -0.550 OA
ATOM     14  O   UNL     1       1.188   8.502  36.118  1.00  0.00    -0.550 OA
ENDBRANCH  11  12
ENDBRANCH  10  11
ENDBRANCH   9  10
ENDBRANCH   8   9
ENDBRANCH   7   8
ENDBRANCH   6   7
ENDBRANCH   5   6
ENDBRANCH   4   5
ENDBRANCH   3   4
ENDBRANCH   2   3
ENDBRANCH   1   2
BRANCH   1  15
ATOM     15  C   UNL     1       1.597   7.487  39.635  1.00  0.00     0.000 C 
BRANCH  15  16
ATOM     16  C   UNL     1       0.662   6.384  39.105  1.00  0.00     0.000 C 
BRANCH  16  17
ATOM     17  C   UNL     1       0.593   5.163  40.039  1.00  0.00     0.000 C 
BRANCH  17  18
ATOM     18  C   UNL     1      -0.435   4.121  39.571  1.00  0.00    -0.000 C 
BRANCH  18  19
ATOM     19  C   UNL     1      -1.311   4.629  38.413  1.00  0.00    -0.000 C 
BRANCH  19  20
ATOM     20  C   UNL     1      -1.171   3.778  37.139  1.00  0.00    -0.000 C 
BRANCH  20  21
ATOM     21  C   UNL     1      -1.554   4.531  35.846  1.00  0.00    -0.000 C 
BRANCH  21  22
ATOM     22  C   UNL     1      -0.396   5.394  35.312  1.00  0.00    -0.000 C 
BRANCH  22  23
ATOM     23  C   UNL     1       0.516   4.615  34.341  1.00  0.00    -0.000 C 
BRANCH  23  24
ATOM     24  C   UNL     1       2.007   4.678  34.711  1.00  0.00    -0.000 C 
BRANCH  24  25
ATOM     25  C   UNL     1       2.278   4.284  36.169  1.00  0.00    -0.003 C 
ATOM     26  C   UNL     1       3.217   5.279  36.845  1.00  0.00     0.004 C 
ENDBRANCH  24  25
ENDBRANCH  23  24
ENDBRANCH  22  23
ENDBRANCH  21  22
ENDBRANCH  20  21
ENDBRANCH  19  20
ENDBRANCH  18  19
ENDBRANCH  17  18
ENDBRANCH  16  17
ENDBRANCH  15  16
ENDBRANCH   1  15
TORSDOF 22
ENDMDL
MODEL 4
REMARK VINA RESULT:    -3.329      1.569      4.971
REMARK INTER + INTRA:         -12.457
REMARK INTER:                  -7.915
REMARK INTRA:                  -4.542
REMARK UNBOUND:                -4.847
REMARK SMILES CCCCCCCCCCCCCCCCCCCCCCCC(=O)[O-]
REMARK SMILES IDX 13 1 14 2 15 3 16 4 17 5 18 6 19 7 20 8 21 9 22 10 23 11
REMARK SMILES IDX 24 12 25 13 26 14 12 15 11 16 10 17 9 18 8 19 7 20 6 21 5 22
REMARK SMILES IDX 4 23 3 24 2 25 1 26
REMARK H PARENT
REMARK Flexibility Score: inf
ROOT
ATOM      1  C   UNL     1      -1.584   9.826  38.340  1.00  0.00     0.000 C 
ENDROOT
BRANCH   1   2
ATOM      2  C   UNL     1      -1.863   8.971  37.091  1.00  0.00     0.000 C 
BRANCH   2   3
ATOM      3  C   UNL     1      -1.087   7.642  37.096  1.00  0.00     0.000 C 
BRANCH   3   4
ATOM      4  C   UNL     1      -0.196   7.476  35.849  1.00  0.00     0.000 C 
BRANCH   4   5
ATOM      5  C   UNL     1      -0.757   6.502  34.793  1.00  0.00     0.000 C 
BRANCH   5   6
ATOM      6  C   UNL     1      -0.325   5.036  34.994  1.00  0.00     0.000 C 
BRANCH   6   7
ATOM      7  C   UNL     1      -1.377   4.210  35.757  1.00  0.00     0.000 C 
BRANCH   7   8
ATOM      8  C   UNL     1      -0.894   3.779  37.151  1.00  0.00     0.000 C 
BRANCH   8   9
ATOM      9  C   UNL     1       0.639   3.685  37.245  1.00  0.00     0.000 C 
BRANCH   9  10
ATOM     10  C   UNL     1       1.208   4.468  38.439  1.00  0.00     0.006 C 
BRANCH  10  11
ATOM     11  C   UNL     1       2.001   5.711  38.015  1.00  0.00     0.053 C 
BRANCH  11  12
ATOM     12  C   UNL     1       3.120   5.331  37.098  1.00  0.00     0.041 C 
ATOM     13  O   UNL     1       4.116   4.701  37.542  1.00  0.00    -0.550 OA
ATOM     14  O   UNL     1       3.044   5.636  35.744  1.00  0.00    -0.550 OA
ENDBRANCH  11  12
ENDBRANCH  10  11
ENDBRANCH   9  10
ENDBRANCH   8   9
ENDBRANCH   7   8
ENDBRANCH   6   7
ENDBRANCH   5   6
ENDBRANCH   4   5
ENDBRANCH   3   4
ENDBRANCH   2   3
ENDBRANCH   1   2
BRANCH   1  15
ATOM     15  C   UNL     1      -0.092  10.058  38.652  1.00  0.00     0.000 C 
BRANCH  15  16
ATOM     16  C   UNL     1       0.324   9.774  40.107  1.00  0.00     0.000 C 
BRANCH  16  17
ATOM     17  C   UNL     1       0.882   8.353  40.300  1.00  0.00     0.000 C 
BRANCH  17  18
ATOM     18  C   UNL     1       0.598   7.794  41.703  1.00  0.00    -0.000 C 
BRANCH  18  19
ATOM     19  C   UNL     1       0.055   8.862  42.669  1.00  0.00    -0.000 C 
BRANCH  19  20
ATOM     20  C   UNL     1      -1.387   8.576  43.125  1.00  0.00    -0.000 C 
BRANCH  20  21
ATOM     21  C   UNL     1      -2.049   7.398  42.377  1.00  0.00    -0.000 C 
BRANCH  21  22
ATOM     22  C   UNL     1      -2.966   7.875  41.236  1.00  0.00    -0.000 C 
BRANCH  22  23
ATOM     23  C   UNL     1      -3.161   6.795  40.151  1.00  0.00    -0.000 C 
BRANCH  23  24
ATOM     24  C   UNL     1      -1.941   5.877  39.968  1.00  0.00    -0.000 C 
BRANCH  24  25
ATOM     25  C   UNL     1      -2.201   4.438  40.432  1.00  0.00    -0.003 C 
ATOM     26  C   UNL     1      -1.134   3.974  41.420  1.00  0.00     0.004 C 
ENDBRANCH  24  25
ENDBRANCH  23  24
ENDBRANCH  22  23
ENDBRANCH  21  22
ENDBRANCH  20  21
ENDBRANCH  19  20
ENDBRANCH  18  19
ENDBRANCH  17  18
ENDBRANCH  16  17
ENDBRANCH  15  16
ENDBRANCH   1  15
TORSDOF 22
ENDMDL
MODEL 5
REMARK VINA RESULT:    -3.318      1.770      3.523
REMARK INTER + INTRA:         -12.433
REMARK INTER:                  -8.310
REMARK INTRA:                  -4.123
REMARK UNBOUND:                -4.847
REMARK SMILES CCCCCCCCCCCCCCCCCCCCCCCC(=O)[O-]
REMARK SMILES IDX 13 1 14 2 15 3 16 4 17 5 18 6 19 7 20 8 21 9 22 10 23 11
REMARK SMILES IDX 24 12 25 13 26 14 12 15 11 16 10 17 9 18 8 19 7 20 6 21 5 22
REMARK SMILES IDX 4 23 3 24 2 25 1 26
REMARK H PARENT
REMARK Flexibility Score: inf
ROOT
ATOM      1  C   UNL     1      -2.499   9.300  38.645  1.00  0.00     0.000 C 
ENDROOT
BRANCH   1   2
ATOM      2  C   UNL     1      -1.979   7.857  38.768  1.00  0.00     0.000 C 
BRANCH   2   3
ATOM      3  C   UNL     1      -2.960   6.932  39.511  1.00  0.00     0.000 C 
BRANCH   3   4
ATOM      4  C   UNL     1      -2.697   5.441  39.222  1.00  0.00     0.000 C 
BRANCH   4   5
ATOM      5  C   UNL     1      -1.586   5.183  38.184  1.00  0.00     0.000 C 
BRANCH   5   6
ATOM      6  C   UNL     1      -2.107   4.845  36.773  1.00  0.00     0.000 C 
BRANCH   6   7
ATOM      7  C   UNL     1      -1.417   5.677  35.676  1.00  0.00     0.000 C 
BRANCH   7   8
ATOM      8  C   UNL     1       0.039   6.025  36.024  1.00  0.00     0.000 C 
BRANCH   8   9
ATOM      9  C   UNL     1       1.023   4.904  35.646  1.00  0.00     0.000 C 
BRANCH   9  10
ATOM     10  C   UNL     1       2.483   5.266  35.962  1.00  0.00     0.006 C 
BRANCH  10  11
ATOM     11  C   UNL     1       3.059   4.455  37.130  1.00  0.00     0.053 C 
BRANCH  11  12
ATOM     12  C   UNL     1       4.344   3.800  36.731  1.00  0.00     0.041 C 
ATOM     13  O   UNL     1       5.211   4.448  36.089  1.00  0.00    -0.550 OA
ATOM     14  O   UNL     1       4.600   2.486  37.104  1.00  0.00    -0.550 OA
ENDBRANCH  11  12
ENDBRANCH  10  11
ENDBRANCH   9  10
ENDBRANCH   8   9
ENDBRANCH   7   8
ENDBRANCH   6   7
ENDBRANCH   5   6
ENDBRANCH   4   5
ENDBRANCH   3   4
ENDBRANCH   2   3
ENDBRANCH   1   2
BRANCH   1  15
ATOM     15  C   UNL     1      -1.879  10.120  37.495  1.00  0.00     0.000 C 
BRANCH  15  16
ATOM     16  C   UNL     1      -1.569   9.322  36.216  1.00  0.00     0.000 C 
BRANCH  16  17
ATOM     17  C   UNL     1      -0.107   9.476  35.759  1.00  0.00     0.000 C 
BRANCH  17  18
ATOM     18  C   UNL     1       0.788  10.094  36.845  1.00  0.00    -0.000 C 
BRANCH  18  19
ATOM     19  C   UNL     1       1.848   9.112  37.372  1.00  0.00    -0.000 C 
BRANCH  19  20
ATOM     20  C   UNL     1       1.690   8.811  38.872  1.00  0.00    -0.000 C 
BRANCH  20  21
ATOM     21  C   UNL     1       1.094   9.986  39.678  1.00  0.00    -0.000 C 
BRANCH  21  22
ATOM     22  C   UNL     1       0.335   9.507  40.929  1.00  0.00    -0.000 C 
BRANCH  22  23
ATOM     23  C   UNL     1       1.009   8.287  41.592  1.00  0.00    -0.000 C 
BRANCH  23  24
ATOM     24  C   UNL     1       0.120   7.032  41.623  1.00  0.00    -0.000 C 
BRANCH  24  25
ATOM     25  C   UNL     1       0.717   5.857  40.837  1.00  0.00    -0.003 C 
ATOM     26  C   UNL     1       0.593   4.551  41.617  1.00  0.00     0.004 C 
ENDBRANCH  24  25
ENDBRANCH  23  24
ENDBRANCH  22  23
ENDBRANCH  21  22
ENDBRANCH  20  21
ENDBRANCH  19  20
ENDBRANCH  18  19
ENDBRANCH  17  18
ENDBRANCH  16  17
ENDBRANCH  15  16
ENDBRANCH   1  15
TORSDOF 22
ENDMDL
MODEL 6
REMARK VINA RESULT:    -3.316      1.732      3.121
REMARK INTER + INTRA:         -12.428
REMARK INTER:                  -7.785
REMARK INTRA:                  -4.643
REMARK UNBOUND:                -4.847
REMARK SMILES CCCCCCCCCCCCCCCCCCCCCCCC(=O)[O-]
REMARK SMILES IDX 13 1 14 2 15 3 16 4 17 5 18 6 19 7 20 8 21 9 22 10 23 11
REMARK SMILES IDX 24 12 25 13 26 14 12 15 11 16 10 17 9 18 8 19 7 20 6 21 5 22
REMARK SMILES IDX 4 23 3 24 2 25 1 26
REMARK H PARENT
REMARK Flexibility Score: inf
ROOT
ATOM      1  C   UNL     1      -1.093   4.141  37.960  1.00  0.00     0.000 C 
ENDROOT
BRANCH   1   2
ATOM      2  C   UNL     1      -0.873   4.357  39.469  1.00  0.00     0.000 C 
BRANCH   2   3
ATOM      3  C   UNL     1       0.596   4.172  39.887  1.00  0.00     0.000 C 
BRANCH   3   4
ATOM      4  C   UNL     1       1.260   5.499  40.305  1.00  0.00     0.000 C 
BRANCH   4   5
ATOM      5  C   UNL     1       2.313   6.023  39.307  1.00  0.00     0.000 C 
BRANCH   5   6
ATOM      6  C   UNL     1       1.731   6.886  38.170  1.00  0.00     0.000 C 
BRANCH   6   7
ATOM      7  C   UNL     1       2.182   6.407  36.778  1.00  0.00     0.000 C 
BRANCH   7   8
ATOM      8  C   UNL     1       2.408   4.888  36.718  1.00  0.00     0.000 C 
BRANCH   8   9
ATOM      9  C   UNL     1       2.194   4.312  35.307  1.00  0.00     0.000 C 
BRANCH   9  10
ATOM     10  C   UNL     1       1.749   5.378  34.293  1.00  0.00     0.006 C 
BRANCH  10  11
ATOM     11  C   UNL     1       1.846   4.897  32.839  1.00  0.00     0.053 C 
BRANCH  11  12
ATOM     12  C   UNL     1       0.495   4.522  32.319  1.00  0.00     0.041 C 
ATOM     13  O   UNL     1      -0.299   3.860  33.039  1.00  0.00    -0.550 OA
ATOM     14  O   UNL     1       0.095   4.938  31.055  1.00  0.00    -0.550 OA
ENDBRANCH  11  12
ENDBRANCH  10  11
ENDBRANCH   9  10
ENDBRANCH   8   9
ENDBRANCH   7   8
ENDBRANCH   6   7
ENDBRANCH   5   6
ENDBRANCH   4   5
ENDBRANCH   3   4
ENDBRANCH   2   3
ENDBRANCH   1   2
BRANCH   1  15
ATOM     15  C   UNL     1      -1.938   5.227  37.264  1.00  0.00     0.000 C 
BRANCH  15  16
ATOM     16  C   UNL     1      -1.398   5.704  35.904  1.00  0.00     0.000 C 
BRANCH  16  17
ATOM     17  C   UNL     1      -1.825   7.143  35.565  1.00  0.00     0.000 C 
BRANCH  17  18
ATOM     18  C   UNL     1      -0.636   8.116  35.522  1.00  0.00    -0.000 C 
BRANCH  18  19
ATOM     19  C   UNL     1      -1.034   9.557  35.885  1.00  0.00    -0.000 C 
BRANCH  19  20
ATOM     20  C   UNL     1      -0.904   9.851  37.390  1.00  0.00    -0.000 C 
BRANCH  20  21
ATOM     21  C   UNL     1      -2.259   9.906  38.129  1.00  0.00    -0.000 C 
BRANCH  21  22
ATOM     22  C   UNL     1      -2.532   8.624  38.937  1.00  0.00    -0.000 C 
BRANCH  22  23
ATOM     23  C   UNL     1      -1.251   8.054  39.582  1.00  0.00    -0.000 C 
BRANCH  23  24
ATOM     24  C   UNL     1      -1.143   8.334  41.090  1.00  0.00    -0.000 C 
BRANCH  24  25
ATOM     25  C   UNL     1       0.221   8.909  41.496  1.00  0.00    -0.003 C 
ATOM     26  C   UNL     1       0.758   9.859  40.430  1.00  0.00     0.004 C 
ENDBRANCH  24  25
ENDBRANCH  23  24
ENDBRANCH  22  23
ENDBRANCH  21  22
ENDBRANCH  20  21
ENDBRANCH  19  20
ENDBRANCH  18  19
ENDBRANCH  17  18
ENDBRANCH  16  17
ENDBRANCH  15  16
ENDBRANCH   1  15
TORSDOF 22
ENDMDL
MODEL 7
REMARK VINA RESULT:    -3.307      1.194      4.163
REMARK INTER + INTRA:         -12.406
REMARK INTER:                  -8.138
REMARK INTRA:                  -4.268
REMARK UNBOUND:                -4.847
REMARK SMILES CCCCCCCCCCCCCCCCCCCCCCCC(=O)[O-]
REMARK SMILES IDX 13 1 14 2 15 3 16 4 17 5 18 6 19 7 20 8 21 9 22 10 23 11
REMARK SMILES IDX 24 12 25 13 26 14 12 15 11 16 10 17 9 18 8 19 7 20 6 21 5 22
REMARK SMILES IDX 4 23 3 24 2 25 1 26
REMARK H PARENT
REMARK Flexibility Score: inf
ROOT
ATOM      1  C   UNL     1      -3.036   6.602  39.751  1.00  0.00     0.000 C 
ENDROOT
BRANCH   1   2
ATOM      2  C   UNL     1      -2.316   7.507  38.735  1.00  0.00     0.000 C 
BRANCH   2   3
ATOM      3  C   UNL     1      -2.555   9.005  39.000  1.00  0.00     0.000 C 
BRANCH   3   4
ATOM      4  C   UNL     1      -2.039   9.895  37.852  1.00  0.00     0.000 C 
BRANCH   4   5
ATOM      5  C   UNL     1      -1.867   9.159  36.507  1.00  0.00     0.000 C 
BRANCH   5   6
ATOM      6  C   UNL     1      -0.414   9.113  35.993  1.00  0.00     0.000 C 
BRANCH   6   7
ATOM      7  C   UNL     1      -0.118   7.841  35.178  1.00  0.00     0.000 C 
BRANCH   7   8
ATOM      8  C   UNL     1      -1.269   6.823  35.228  1.00  0.00     0.000 C 
BRANCH   8   9
ATOM      9  C   UNL     1      -0.799   5.418  35.642  1.00  0.00     0.000 C 
BRANCH   9  10
ATOM     10  C   UNL     1      -0.286   4.591  34.452  1.00  0.00     0.006 C 
BRANCH  10  11
ATOM     11  C   UNL     1       1.122   4.025  34.681  1.00  0.00     0.053 C 
BRANCH  11  12
ATOM     12  C   UNL     1       2.150   5.102  34.536  1.00  0.00     0.041 C 
ATOM     13  O   UNL     1       2.934   5.361  35.487  1.00  0.00    -0.550 OA
ATOM     14  O   UNL     1       2.270   5.793  33.336  1.00  0.00    -0.550 OA
ENDBRANCH  11  12
ENDBRANCH  10  11
ENDBRANCH   9  10
ENDBRANCH   8   9
ENDBRANCH   7   8
ENDBRANCH   6   7
ENDBRANCH   5   6
ENDBRANCH   4   5
ENDBRANCH   3   4
ENDBRANCH   2   3
ENDBRANCH   1   2
BRANCH   1  15
ATOM     15  C   UNL     1      -2.117   5.644  40.535  1.00  0.00     0.000 C 
BRANCH  15  16
ATOM     16  C   UNL     1      -2.115   5.842  42.062  1.00  0.00     0.000 C 
BRANCH  16  17
ATOM     17  C   UNL     1      -2.862   7.115  42.497  1.00  0.00     0.000 C 
BRANCH  17  18
ATOM     18  C   UNL     1      -1.908   8.226  42.966  1.00  0.00    -0.000 C 
BRANCH  18  19
ATOM     19  C   UNL     1      -0.447   7.753  43.059  1.00  0.00    -0.000 C 
BRANCH  19  20
ATOM     20  C   UNL     1       0.538   8.724  42.384  1.00  0.00    -0.000 C 
BRANCH  20  21
ATOM     21  C   UNL     1      -0.019   9.375  41.099  1.00  0.00    -0.000 C 
BRANCH  21  22
ATOM     22  C   UNL     1       1.100   9.799  40.130  1.00  0.00    -0.000 C 
BRANCH  22  23
ATOM     23  C   UNL     1       1.337   8.757  39.017  1.00  0.00    -0.000 C 
BRANCH  23  24
ATOM     24  C   UNL     1       1.272   7.302  39.510  1.00  0.00    -0.000 C 
BRANCH  24  25
ATOM     25  C   UNL     1       1.214   6.283  38.364  1.00  0.00    -0.003 C 
ATOM     26  C   UNL     1       1.090   4.859  38.896  1.00  0.00     0.004 C 
ENDBRANCH  24  25
ENDBRANCH  23  24
ENDBRANCH  22  23
ENDBRANCH  21  22
ENDBRANCH  20  21
ENDBRANCH  19  20
ENDBRANCH  18  19
ENDBRANCH  17  18
ENDBRANCH  16  17
ENDBRANCH  15  16
ENDBRANCH   1  15
TORSDOF 22
ENDMDL
MODEL 8
REMARK VINA RESULT:    -3.288      1.789      4.769
REMARK INTER + INTRA:         -12.362
REMARK INTER:                  -7.698
REMARK INTRA:                  -4.664
REMARK UNBOUND:                -4.847
REMARK SMILES CCCCCCCCCCCCCCCCCCCCCCCC(=O)[O-]
REMARK SMILES IDX 13 1 14 2 15 3 16 4 17 5 18 6 19 7 20 8 21 9 22 10 23 11
REMARK SMILES IDX 24 12 25 13 26 14 12 15 11 16 10 17 9 18 8 19 7 20 6 21 5 22
REMARK SMILES IDX 4 23 3 24 2 25 1 26
REMARK H PARENT
REMARK Flexibility Score: inf
ROOT
ATOM      1  C   UNL     1       0.495   9.348  35.917  1.00  0.00     0.000 C 
ENDROOT
BRANCH   1   2
ATOM      2  C   UNL     1      -0.917   8.753  35.775  1.00  0.00     0.000 C 
BRANCH   2   3
ATOM      3  C   UNL     1      -0.900   7.286  35.310  1.00  0.00     0.000 C 
BRANCH   3   4
ATOM      4  C   UNL     1      -1.473   6.325  36.371  1.00  0.00     0.000 C 
BRANCH   4   5
ATOM      5  C   UNL     1      -0.801   4.937  36.397  1.00  0.00     0.000 C 
BRANCH   5   6
ATOM      6  C   UNL     1       0.601   4.926  37.038  1.00  0.00     0.000 C 
BRANCH   6   7
ATOM      7  C   UNL     1       1.636   4.179  36.177  1.00  0.00     0.000 C 
BRANCH   7   8
ATOM      8  C   UNL     1       2.699   5.117  35.582  1.00  0.00     0.000 C 
BRANCH   8   9
ATOM      9  C   UNL     1       2.200   5.859  34.330  1.00  0.00     0.000 C 
BRANCH   9  10
ATOM     10  C   UNL     1       1.917   4.912  33.153  1.00  0.00     0.006 C 
BRANCH  10  11
ATOM     11  C   UNL     1       0.465   4.984  32.664  1.00  0.00     0.053 C 
BRANCH  11  12
ATOM     12  C   UNL     1       0.416   5.352  31.215  1.00  0.00     0.041 C 
ATOM     13  O   UNL     1       1.150   6.275  30.772  1.00  0.00    -0.550 OA
ATOM     14  O   UNL     1      -0.409   4.650  30.345  1.00  0.00    -0.550 OA
ENDBRANCH  11  12
ENDBRANCH  10  11
ENDBRANCH   9  10
ENDBRANCH   8   9
ENDBRANCH   7   8
ENDBRANCH   6   7
ENDBRANCH   5   6
ENDBRANCH   4   5
ENDBRANCH   3   4
ENDBRANCH   2   3
ENDBRANCH   1   2
BRANCH   1  15
ATOM     15  C   UNL     1       1.466   8.522  36.784  1.00  0.00     0.000 C 
BRANCH  15  16
ATOM     16  C   UNL     1       1.536   8.937  38.265  1.00  0.00     0.000 C 
BRANCH  16  17
ATOM     17  C   UNL     1       0.937   7.879  39.208  1.00  0.00     0.000 C 
BRANCH  17  18
ATOM     18  C   UNL     1      -0.179   8.448  40.100  1.00  0.00    -0.000 C 
BRANCH  18  19
ATOM     19  C   UNL     1      -1.123   9.394  39.338  1.00  0.00    -0.000 C 
BRANCH  19  20
ATOM     20  C   UNL     1      -2.483   8.750  39.017  1.00  0.00    -0.000 C 
BRANCH  20  21
ATOM     21  C   UNL     1      -2.976   7.774  40.108  1.00  0.00    -0.000 C 
BRANCH  21  22
ATOM     22  C   UNL     1      -3.359   6.400  39.528  1.00  0.00    -0.000 C 
BRANCH  22  23
ATOM     23  C   UNL     1      -2.938   5.237  40.451  1.00  0.00    -0.000 C 
BRANCH  23  24
ATOM     24  C   UNL     1      -1.672   4.503  39.980  1.00  0.00    -0.000 C 
BRANCH  24  25
ATOM     25  C   UNL     1      -0.442   4.818  40.842  1.00  0.00    -0.003 C 
ATOM     26  C   UNL     1      -0.849   5.399  42.193  1.00  0.00     0.004 C 
ENDBRANCH  24  25
ENDBRANCH  23  24
ENDBRANCH  22  23
ENDBRANCH  21  22
ENDBRANCH  20  21
ENDBRANCH  19  20
ENDBRANCH  18  19
ENDBRANCH  17  18
ENDBRANCH  16  17
ENDBRANCH  15  16
ENDBRANCH   1  15
TORSDOF 22
ENDMDL
MODEL 9
REMARK VINA RESULT:    -3.243      1.546      3.765
REMARK INTER + INTRA:         -12.261
REMARK INTER:                  -8.143
REMARK INTRA:                  -4.118
REMARK UNBOUND:                -4.847
REMARK SMILES CCCCCCCCCCCCCCCCCCCCCCCC(=O)[O-]
REMARK SMILES IDX 13 1 14 2 15 3 16 4 17 5 18 6 19 7 20 8 21 9 22 10 23 11
REMARK SMILES IDX 24 12 25 13 26 14 12 15 11 16 10 17 9 18 8 19 7 20 6 21 5 22
REMARK SMILES IDX 4 23 3 24 2 25 1 26
REMARK H PARENT
REMARK Flexibility Score: inf
ROOT
ATOM      1  C   UNL     1      -3.027   7.262  39.764  1.00  0.00     0.000 C 
ENDROOT
BRANCH   1   2
ATOM      2  C   UNL     1      -2.918   5.726  39.766  1.00  0.00     0.000 C 
BRANCH   2   3
ATOM      3  C   UNL     1      -1.791   5.209  38.854  1.00  0.00     0.000 C 
BRANCH   3   4
ATOM      4  C   UNL     1      -0.518   6.075  38.941  1.00  0.00     0.000 C 
BRANCH   4   5
ATOM      5  C   UNL     1       0.498   5.602  40.000  1.00  0.00     0.000 C 
BRANCH   5   6
ATOM      6  C   UNL     1       1.968   5.675  39.541  1.00  0.00     0.000 C 
BRANCH   6   7
ATOM      7  C   UNL     1       2.103   6.038  38.051  1.00  0.00     0.000 C 
BRANCH   7   8
ATOM      8  C   UNL     1       2.602   4.862  37.196  1.00  0.00     0.000 C 
BRANCH   8   9
ATOM      9  C   UNL     1       3.010   5.292  35.777  1.00  0.00     0.000 C 
BRANCH   9  10
ATOM     10  C   UNL     1       1.800   5.562  34.868  1.00  0.00     0.006 C 
BRANCH  10  11
ATOM     11  C   UNL     1       2.202   5.953  33.440  1.00  0.00     0.053 C 
BRANCH  11  12
ATOM     12  C   UNL     1       1.776   4.899  32.468  1.00  0.00     0.041 C 
ATOM     13  O   UNL     1       1.372   5.222  31.320  1.00  0.00    -0.550 OA
ATOM     14  O   UNL     1       1.862   3.555  32.815  1.00  0.00    -0.550 OA
ENDBRANCH  11  12
ENDBRANCH  10  11
ENDBRANCH   9  10
ENDBRANCH   8   9
ENDBRANCH   7   8
ENDBRANCH   6   7
ENDBRANCH   5   6
ENDBRANCH   4   5
ENDBRANCH   3   4
ENDBRANCH   2   3
ENDBRANCH   1   2
BRANCH   1  15
ATOM     15  C   UNL     1      -3.020   7.917  41.159  1.00  0.00     0.000 C 
BRANCH  15  16
ATOM     16  C   UNL     1      -2.643   6.980  42.320  1.00  0.00     0.000 C 
BRANCH  16  17
ATOM     17  C   UNL     1      -1.187   7.163  42.784  1.00  0.00     0.000 C 
BRANCH  17  18
ATOM     18  C   UNL     1      -0.732   8.630  42.733  1.00  0.00    -0.000 C 
BRANCH  18  19
ATOM     19  C   UNL     1       0.538   8.829  41.889  1.00  0.00    -0.000 C 
BRANCH  19  20
ATOM     20  C   UNL     1       0.326   9.796  40.711  1.00  0.00    -0.000 C 
BRANCH  20  21
ATOM     21  C   UNL     1       1.012   9.338  39.404  1.00  0.00    -0.000 C 
BRANCH  21  22
ATOM     22  C   UNL     1       0.442  10.055  38.167  1.00  0.00    -0.000 C 
BRANCH  22  23
ATOM     23  C   UNL     1      -1.084   9.864  38.030  1.00  0.00    -0.000 C 
BRANCH  23  24
ATOM     24  C   UNL     1      -1.523   9.384  36.637  1.00  0.00    -0.000 C 
BRANCH  24  25
ATOM     25  C   UNL     1      -0.615   8.284  36.070  1.00  0.00    -0.003 C 
ATOM     26  C   UNL     1      -1.433   7.105  35.551  1.00  0.00     0.004 C 
ENDBRANCH  24  25
ENDBRANCH  23  24
ENDBRANCH  22  23
ENDBRANCH  21  22
ENDBRANCH  20  21
ENDBRANCH  19  20
ENDBRANCH  18  19
ENDBRANCH  17  18
ENDBRANCH  16  17
ENDBRANCH  15  16
ENDBRANCH   1  15
TORSDOF 22
ENDMDL
