MODEL 1
REMARK VINA RESULT:    -6.922      0.000      0.000
REMARK INTER + INTRA:          -8.425
REMARK INTER:                  -8.136
REMARK INTRA:                  -0.289
REMARK UNBOUND:                -0.289
REMARK SMILES O=c1c(O)c(-c2ccc(O)cc2)oc2cc(O)cc(O)c12
REMARK SMILES IDX 5 1 3 2 2 3 1 4 21 5 19 6 18 7 16 8 15 9 14 10 13 11 6 12
REMARK SMILES IDX 7 13 8 14 9 15 12 16 11 17 10 18 4 20 20 22 17 24
REMARK H PARENT 10 19 4 21 20 23 17 25
REMARK Flexibility Score: inf
ROOT
ATOM      1  C   UNL     1     -14.469  43.503  31.580  1.00  0.00     0.180 A 
ATOM      2  C   UNL     1     -15.283  44.399  30.866  1.00  0.00     0.208 A 
ATOM      3  C   UNL     1     -16.662  44.425  31.130  1.00  0.00     0.238 A 
ATOM      4  O   UNL     1     -17.376  45.268  30.527  1.00  0.00    -0.285 OA
ATOM      5  C   UNL     1     -17.212  43.544  32.092  1.00  0.00     0.111 A 
ATOM      6  C   UNL     1     -18.601  43.456  32.409  1.00  0.00     0.134 A 
ATOM      7  C   UNL     1     -19.016  42.641  33.470  1.00  0.00     0.093 A 
ATOM      8  C   UNL     1     -18.104  41.862  34.179  1.00  0.00     0.123 A 
ATOM      9  C   UNL     1     -16.752  41.894  33.838  1.00  0.00     0.094 A 
ATOM     10  C   UNL     1     -16.301  42.725  32.809  1.00  0.00     0.146 A 
ATOM     11  O   UNL     1     -15.005  42.735  32.523  1.00  0.00    -0.452 OA
ENDROOT
BRANCH   1  12
ATOM     12  C   UNL     1     -13.011  43.399  31.341  1.00  0.00     0.021 A 
ATOM     13  C   UNL     1     -12.535  42.537  30.340  1.00  0.00     0.016 A 
ATOM     14  C   UNL     1     -11.163  42.440  30.083  1.00  0.00     0.047 A 
ATOM     15  C   UNL     1     -10.254  43.215  30.811  1.00  0.00     0.115 A 
ATOM     16  C   UNL     1     -12.093  44.190  32.056  1.00  0.00     0.016 A 
ATOM     17  C   UNL     1     -10.723  44.092  31.796  1.00  0.00     0.047 A 
BRANCH  15  18
ATOM     18  O   UNL     1      -8.892  43.107  30.543  1.00  0.00    -0.508 OA
ATOM     19  H   UNL     1      -8.214  43.704  31.004  1.00  0.00     0.293 HD
ENDBRANCH  15  18
ENDBRANCH   1  12
BRANCH   2  20
ATOM     20  O   UNL     1     -14.716  45.276  29.938  1.00  0.00    -0.502 OA
ATOM     21  H   UNL     1     -13.716  45.331  29.782  1.00  0.00     0.293 HD
ENDBRANCH   2  20
BRANCH   6  22
ATOM     22  O   UNL     1     -19.607  44.122  31.702  1.00  0.00    -0.507 OA
ATOM     23  H   UNL     1     -20.569  43.824  31.654  1.00  0.00     0.293 HD
ENDBRANCH   6  22
BRANCH   8  24
ATOM     24  O   UNL     1     -18.555  41.050  35.218  1.00  0.00    -0.508 OA
ATOM     25  H   UNL     1     -17.954  40.355  35.647  1.00  0.00     0.293 HD
ENDBRANCH   8  24
TORSDOF 5
ENDMDL
MODEL 2
REMARK VINA RESULT:    -6.875      2.422      3.975
REMARK INTER + INTRA:          -8.370
REMARK INTER:                  -8.074
REMARK INTRA:                  -0.296
REMARK UNBOUND:                -0.289
REMARK SMILES O=c1c(O)c(-c2ccc(O)cc2)oc2cc(O)cc(O)c12
REMARK SMILES IDX 5 1 3 2 2 3 1 4 21 5 19 6 18 7 16 8 15 9 14 10 13 11 6 12
REMARK SMILES IDX 7 13 8 14 9 15 12 16 11 17 10 18 4 20 20 22 17 24
REMARK H PARENT 10 19 4 21 20 23 17 25
REMARK Flexibility Score: inf
ROOT
ATOM      1  C   UNL     1     -12.452  44.388  30.333  1.00  0.00     0.180 A 
ATOM      2  C   UNL     1     -12.028  43.878  31.572  1.00  0.00     0.208 A 
ATOM      3  C   UNL     1     -12.983  43.638  32.573  1.00  0.00     0.238 A 
ATOM      4  O   UNL     1     -12.605  43.130  33.660  1.00  0.00    -0.285 OA
ATOM      5  C   UNL     1     -14.348  43.925  32.327  1.00  0.00     0.111 A 
ATOM      6  C   UNL     1     -15.395  43.759  33.283  1.00  0.00     0.134 A 
ATOM      7  C   UNL     1     -16.726  43.951  32.889  1.00  0.00     0.093 A 
ATOM      8  C   UNL     1     -17.041  44.366  31.597  1.00  0.00     0.123 A 
ATOM      9  C   UNL     1     -16.021  44.591  30.672  1.00  0.00     0.094 A 
ATOM     10  C   UNL     1     -14.687  44.372  31.023  1.00  0.00     0.146 A 
ATOM     11  O   UNL     1     -13.747  44.585  30.110  1.00  0.00    -0.452 OA
ENDROOT
BRANCH   1  12
ATOM     12  C   UNL     1     -11.502  44.691  29.238  1.00  0.00     0.021 A 
ATOM     13  C   UNL     1     -11.234  43.713  28.266  1.00  0.00     0.016 A 
ATOM     14  C   UNL     1     -10.356  43.986  27.211  1.00  0.00     0.047 A 
ATOM     15  C   UNL     1      -9.750  45.241  27.106  1.00  0.00     0.115 A 
ATOM     16  C   UNL     1     -10.903  45.958  29.116  1.00  0.00     0.016 A 
ATOM     17  C   UNL     1     -10.028  46.228  28.060  1.00  0.00     0.047 A 
BRANCH  15  18
ATOM     18  O   UNL     1      -8.878  45.497  26.051  1.00  0.00    -0.508 OA
ATOM     19  H   UNL     1      -9.202  45.518  25.091  1.00  0.00     0.293 HD
ENDBRANCH  15  18
ENDBRANCH   1  12
BRANCH   2  20
ATOM     20  O   UNL     1     -10.680  43.580  31.785  1.00  0.00    -0.502 OA
ATOM     21  H   UNL     1     -10.079  44.158  32.360  1.00  0.00     0.293 HD
ENDBRANCH   2  20
BRANCH   6  22
ATOM     22  O   UNL     1     -15.182  43.436  34.626  1.00  0.00    -0.507 OA
ATOM     23  H   UNL     1     -15.663  43.861  35.403  1.00  0.00     0.293 HD
ENDBRANCH   6  22
BRANCH   8  24
ATOM     24  O   UNL     1     -18.375  44.563  31.245  1.00  0.00    -0.508 OA
ATOM     25  H   UNL     1     -18.886  43.878  30.699  1.00  0.00     0.293 HD
ENDBRANCH   8  24
TORSDOF 5
ENDMDL
MODEL 3
REMARK VINA RESULT:    -6.873      3.544      4.898
REMARK INTER + INTRA:          -8.367
REMARK INTER:                  -8.068
REMARK INTRA:                  -0.299
REMARK UNBOUND:                -0.289
REMARK SMILES O=c1c(O)c(-c2ccc(O)cc2)oc2cc(O)cc(O)c12
REMARK SMILES IDX 5 1 3 2 2 3 1 4 21 5 19 6 18 7 16 8 15 9 14 10 13 11 6 12
REMARK SMILES IDX 7 13 8 14 9 15 12 16 11 17 10 18 4 20 20 22 17 24
REMARK H PARENT 10 19 4 21 20 23 17 25
REMARK Flexibility Score: inf
ROOT
ATOM      1  C   UNL     1     -15.948  41.376  30.791  1.00  0.00     0.180 A 
ATOM      2  C   UNL     1     -14.794  41.821  31.458  1.00  0.00     0.208 A 
ATOM      3  C   UNL     1     -14.910  42.847  32.409  1.00  0.00     0.238 A 
ATOM      4  O   UNL     1     -13.883  43.203  33.042  1.00  0.00    -0.285 OA
ATOM      5  C   UNL     1     -16.176  43.426  32.669  1.00  0.00     0.111 A 
ATOM      6  C   UNL     1     -16.403  44.500  33.582  1.00  0.00     0.134 A 
ATOM      7  C   UNL     1     -17.715  44.906  33.857  1.00  0.00     0.093 A 
ATOM      8  C   UNL     1     -18.800  44.325  33.204  1.00  0.00     0.123 A 
ATOM      9  C   UNL     1     -18.586  43.316  32.265  1.00  0.00     0.094 A 
ATOM     10  C   UNL     1     -17.292  42.863  31.996  1.00  0.00     0.146 A 
ATOM     11  O   UNL     1     -17.131  41.893  31.104  1.00  0.00    -0.452 OA
ENDROOT
BRANCH   1  12
ATOM     12  C   UNL     1     -15.902  40.315  29.757  1.00  0.00     0.021 A 
ATOM     13  C   UNL     1     -16.165  38.984  30.121  1.00  0.00     0.016 A 
ATOM     14  C   UNL     1     -16.148  37.970  29.157  1.00  0.00     0.047 A 
ATOM     15  C   UNL     1     -15.885  38.276  27.818  1.00  0.00     0.115 A 
ATOM     16  C   UNL     1     -15.657  40.619  28.406  1.00  0.00     0.016 A 
ATOM     17  C   UNL     1     -15.643  39.604  27.445  1.00  0.00     0.047 A 
BRANCH  15  18
ATOM     18  O   UNL     1     -15.871  37.256  26.870  1.00  0.00    -0.508 OA
ATOM     19  H   UNL     1     -15.399  37.367  25.981  1.00  0.00     0.293 HD
ENDBRANCH  15  18
ENDBRANCH   1  12
BRANCH   2  20
ATOM     20  O   UNL     1     -13.559  41.219  31.203  1.00  0.00    -0.502 OA
ATOM     21  H   UNL     1     -13.050  40.701  31.909  1.00  0.00     0.293 HD
ENDBRANCH   2  20
BRANCH   6  22
ATOM     22  O   UNL     1     -15.382  45.212  34.219  1.00  0.00    -0.507 OA
ATOM     23  H   UNL     1     -15.340  45.394  35.209  1.00  0.00     0.293 HD
ENDBRANCH   6  22
BRANCH   8  24
ATOM     24  O   UNL     1     -20.091  44.765  33.490  1.00  0.00    -0.508 OA
ATOM     25  H   UNL     1     -20.906  44.211  33.251  1.00  0.00     0.293 HD
ENDBRANCH   8  24
TORSDOF 5
ENDMDL
MODEL 4
REMARK VINA RESULT:    -6.802      1.704      2.601
REMARK INTER + INTRA:          -8.284
REMARK INTER:                  -8.001
REMARK INTRA:                  -0.283
REMARK UNBOUND:                -0.289
REMARK SMILES O=c1c(O)c(-c2ccc(O)cc2)oc2cc(O)cc(O)c12
REMARK SMILES IDX 5 1 3 2 2 3 1 4 21 5 19 6 18 7 16 8 15 9 14 10 13 11 6 12
REMARK SMILES IDX 7 13 8 14 9 15 12 16 11 17 10 18 4 20 20 22 17 24
REMARK H PARENT 10 19 4 21 20 23 17 25
REMARK Flexibility Score: inf
ROOT
ATOM      1  C   UNL     1     -14.313  43.230  31.626  1.00  0.00     0.180 A 
ATOM      2  C   UNL     1     -14.688  41.923  31.272  1.00  0.00     0.208 A 
ATOM      3  C   UNL     1     -15.986  41.481  31.576  1.00  0.00     0.238 A 
ATOM      4  O   UNL     1     -16.334  40.330  31.207  1.00  0.00    -0.285 OA
ATOM      5  C   UNL     1     -16.886  42.346  32.244  1.00  0.00     0.111 A 
ATOM      6  C   UNL     1     -18.211  41.990  32.638  1.00  0.00     0.134 A 
ATOM      7  C   UNL     1     -19.058  42.967  33.177  1.00  0.00     0.093 A 
ATOM      8  C   UNL     1     -18.608  44.267  33.397  1.00  0.00     0.123 A 
ATOM      9  C   UNL     1     -17.295  44.612  33.072  1.00  0.00     0.094 A 
ATOM     10  C   UNL     1     -16.438  43.669  32.499  1.00  0.00     0.146 A 
ATOM     11  O   UNL     1     -15.200  44.040  32.193  1.00  0.00    -0.452 OA
ENDROOT
BRANCH   1  12
ATOM     12  C   UNL     1     -12.955  43.759  31.362  1.00  0.00     0.021 A 
ATOM     13  C   UNL     1     -11.919  43.491  32.272  1.00  0.00     0.016 A 
ATOM     14  C   UNL     1     -10.624  43.963  32.031  1.00  0.00     0.047 A 
ATOM     15  C   UNL     1     -10.346  44.693  30.871  1.00  0.00     0.115 A 
ATOM     16  C   UNL     1     -12.663  44.478  30.188  1.00  0.00     0.016 A 
ATOM     17  C   UNL     1     -11.369  44.947  29.949  1.00  0.00     0.047 A 
BRANCH  15  18
ATOM     18  O   UNL     1      -9.052  45.157  30.645  1.00  0.00    -0.508 OA
ATOM     19  H   UNL     1      -8.269  44.832  31.201  1.00  0.00     0.293 HD
ENDBRANCH  15  18
ENDBRANCH   1  12
BRANCH   2  20
ATOM     20  O   UNL     1     -13.792  41.095  30.592  1.00  0.00    -0.502 OA
ATOM     21  H   UNL     1     -13.355  41.366  29.719  1.00  0.00     0.293 HD
ENDBRANCH   2  20
BRANCH   6  22
ATOM     22  O   UNL     1     -18.730  40.695  32.547  1.00  0.00    -0.507 OA
ATOM     23  H   UNL     1     -18.334  39.884  32.995  1.00  0.00     0.293 HD
ENDBRANCH   6  22
BRANCH   8  24
ATOM     24  O   UNL     1     -19.473  45.210  33.950  1.00  0.00    -0.508 OA
ATOM     25  H   UNL     1     -20.108  44.969  34.702  1.00  0.00     0.293 HD
ENDBRANCH   8  24
TORSDOF 5
ENDMDL
MODEL 5
REMARK VINA RESULT:    -6.755      1.683      6.601
REMARK INTER + INTRA:          -8.229
REMARK INTER:                  -7.941
REMARK INTRA:                  -0.289
REMARK UNBOUND:                -0.289
REMARK SMILES O=c1c(O)c(-c2ccc(O)cc2)oc2cc(O)cc(O)c12
REMARK SMILES IDX 5 1 3 2 2 3 1 4 21 5 19 6 18 7 16 8 15 9 14 10 13 11 6 12
REMARK SMILES IDX 7 13 8 14 9 15 12 16 11 17 10 18 4 20 20 22 17 24
REMARK H PARENT 10 19 4 21 20 23 17 25
REMARK Flexibility Score: inf
ROOT
ATOM      1  C   UNL     1     -14.524  43.557  31.792  1.00  0.00     0.180 A 
ATOM      2  C   UNL     1     -14.013  44.397  30.788  1.00  0.00     0.208 A 
ATOM      3  C   UNL     1     -12.658  44.295  30.438  1.00  0.00     0.238 A 
ATOM      4  O   UNL     1     -12.219  45.011  29.501  1.00  0.00    -0.285 OA
ATOM      5  C   UNL     1     -11.826  43.364  31.108  1.00  0.00     0.111 A 
ATOM      6  C   UNL     1     -10.429  43.205  30.863  1.00  0.00     0.134 A 
ATOM      7  C   UNL     1      -9.733  42.164  31.491  1.00  0.00     0.093 A 
ATOM      8  C   UNL     1     -10.366  41.322  32.403  1.00  0.00     0.123 A 
ATOM      9  C   UNL     1     -11.718  41.507  32.696  1.00  0.00     0.094 A 
ATOM     10  C   UNL     1     -12.448  42.513  32.058  1.00  0.00     0.146 A 
ATOM     11  O   UNL     1     -13.735  42.649  32.355  1.00  0.00    -0.452 OA
ENDROOT
BRANCH   1  12
ATOM     12  C   UNL     1     -15.937  43.623  32.233  1.00  0.00     0.021 A 
ATOM     13  C   UNL     1     -16.305  44.533  33.237  1.00  0.00     0.016 A 
ATOM     14  C   UNL     1     -17.638  44.627  33.653  1.00  0.00     0.047 A 
ATOM     15  C   UNL     1     -18.618  43.826  33.060  1.00  0.00     0.115 A 
ATOM     16  C   UNL     1     -16.931  42.834  31.627  1.00  0.00     0.016 A 
ATOM     17  C   UNL     1     -18.262  42.931  32.044  1.00  0.00     0.047 A 
BRANCH  15  18
ATOM     18  O   UNL     1     -19.940  43.931  33.485  1.00  0.00    -0.508 OA
ATOM     19  H   UNL     1     -20.710  43.631  32.898  1.00  0.00     0.293 HD
ENDBRANCH  15  18
ENDBRANCH   1  12
BRANCH   2  20
ATOM     20  O   UNL     1     -14.857  45.291  30.124  1.00  0.00    -0.502 OA
ATOM     21  H   UNL     1     -15.209  45.116  29.190  1.00  0.00     0.293 HD
ENDBRANCH   2  20
BRANCH   6  22
ATOM     22  O   UNL     1      -9.679  44.050  30.040  1.00  0.00    -0.507 OA
ATOM     23  H   UNL     1      -9.966  44.971  29.749  1.00  0.00     0.293 HD
ENDBRANCH   6  22
BRANCH   8  24
ATOM     24  O   UNL     1      -9.638  40.307  33.022  1.00  0.00    -0.508 OA
ATOM     25  H   UNL     1      -9.426  40.336  34.013  1.00  0.00     0.293 HD
ENDBRANCH   8  24
TORSDOF 5
ENDMDL
MODEL 6
REMARK VINA RESULT:    -6.502      1.972      6.478
REMARK INTER + INTRA:          -7.932
REMARK INTER:                  -7.684
REMARK INTRA:                  -0.248
REMARK UNBOUND:                -0.289
REMARK SMILES O=c1c(O)c(-c2ccc(O)cc2)oc2cc(O)cc(O)c12
REMARK SMILES IDX 5 1 3 2 2 3 1 4 21 5 19 6 18 7 16 8 15 9 14 10 13 11 6 12
REMARK SMILES IDX 7 13 8 14 9 15 12 16 11 17 10 18 4 20 20 22 17 24
REMARK H PARENT 10 19 4 21 20 23 17 25
REMARK Flexibility Score: inf
ROOT
ATOM      1  C   UNL     1     -14.773  43.223  31.150  1.00  0.00     0.180 A 
ATOM      2  C   UNL     1     -13.929  44.178  30.559  1.00  0.00     0.208 A 
ATOM      3  C   UNL     1     -12.687  43.766  30.049  1.00  0.00     0.238 A 
ATOM      4  O   UNL     1     -11.959  44.614  29.472  1.00  0.00    -0.285 OA
ATOM      5  C   UNL     1     -12.299  42.408  30.151  1.00  0.00     0.111 A 
ATOM      6  C   UNL     1     -11.047  41.888  29.705  1.00  0.00     0.134 A 
ATOM      7  C   UNL     1     -10.823  40.505  29.739  1.00  0.00     0.093 A 
ATOM      8  C   UNL     1     -11.776  39.634  30.261  1.00  0.00     0.123 A 
ATOM      9  C   UNL     1     -12.980  40.137  30.755  1.00  0.00     0.094 A 
ATOM     10  C   UNL     1     -13.248  41.507  30.702  1.00  0.00     0.146 A 
ATOM     11  O   UNL     1     -14.410  41.945  31.172  1.00  0.00    -0.452 OA
ENDROOT
BRANCH   1  12
ATOM     12  C   UNL     1     -16.087  43.585  31.733  1.00  0.00     0.021 A 
ATOM     13  C   UNL     1     -17.265  43.214  31.064  1.00  0.00     0.016 A 
ATOM     14  C   UNL     1     -18.516  43.527  31.607  1.00  0.00     0.047 A 
ATOM     15  C   UNL     1     -18.604  44.198  32.830  1.00  0.00     0.115 A 
ATOM     16  C   UNL     1     -16.183  44.242  32.972  1.00  0.00     0.016 A 
ATOM     17  C   UNL     1     -17.434  44.552  33.513  1.00  0.00     0.047 A 
BRANCH  15  18
ATOM     18  O   UNL     1     -19.856  44.502  33.358  1.00  0.00    -0.508 OA
ATOM     19  H   UNL     1     -20.464  45.183  32.918  1.00  0.00     0.293 HD
ENDBRANCH  15  18
ENDBRANCH   1  12
BRANCH   2  20
ATOM     20  O   UNL     1     -14.341  45.508  30.448  1.00  0.00    -0.502 OA
ATOM     21  H   UNL     1     -14.648  45.911  29.570  1.00  0.00     0.293 HD
ENDBRANCH   2  20
BRANCH   6  22
ATOM     22  O   UNL     1      -9.989  42.681  29.251  1.00  0.00    -0.507 OA
ATOM     23  H   UNL     1      -9.062  42.683  29.646  1.00  0.00     0.293 HD
ENDBRANCH   6  22
BRANCH   8  24
ATOM     24  O   UNL     1     -11.513  38.265  30.293  1.00  0.00    -0.508 OA
ATOM     25  H   UNL     1     -10.596  37.907  30.537  1.00  0.00     0.293 HD
ENDBRANCH   8  24
TORSDOF 5
ENDMDL
MODEL 7
REMARK VINA RESULT:    -6.461      3.720      4.253
REMARK INTER + INTRA:          -7.883
REMARK INTER:                  -7.594
REMARK INTRA:                  -0.289
REMARK UNBOUND:                -0.289
REMARK SMILES O=c1c(O)c(-c2ccc(O)cc2)oc2cc(O)cc(O)c12
REMARK SMILES IDX 5 1 3 2 2 3 1 4 21 5 19 6 18 7 16 8 15 9 14 10 13 11 6 12
REMARK SMILES IDX 7 13 8 14 9 15 12 16 11 17 10 18 4 20 20 22 17 24
REMARK H PARENT 10 19 4 21 20 23 17 25
REMARK Flexibility Score: inf
ROOT
ATOM      1  C   UNL     1     -15.470  40.474  29.965  1.00  0.00     0.180 A 
ATOM      2  C   UNL     1     -15.250  41.739  29.394  1.00  0.00     0.208 A 
ATOM      3  C   UNL     1     -15.998  42.834  29.855  1.00  0.00     0.238 A 
ATOM      4  O   UNL     1     -15.758  43.974  29.378  1.00  0.00    -0.285 OA
ATOM      5  C   UNL     1     -16.968  42.647  30.870  1.00  0.00     0.111 A 
ATOM      6  C   UNL     1     -17.811  43.678  31.383  1.00  0.00     0.134 A 
ATOM      7  C   UNL     1     -18.643  43.407  32.477  1.00  0.00     0.093 A 
ATOM      8  C   UNL     1     -18.711  42.131  33.032  1.00  0.00     0.123 A 
ATOM      9  C   UNL     1     -17.936  41.100  32.499  1.00  0.00     0.094 A 
ATOM     10  C   UNL     1     -17.068  41.348  31.432  1.00  0.00     0.146 A 
ATOM     11  O   UNL     1     -16.339  40.343  30.960  1.00  0.00    -0.452 OA
ENDROOT
BRANCH   1  12
ATOM     12  C   UNL     1     -14.738  39.268  29.515  1.00  0.00     0.021 A 
ATOM     13  C   UNL     1     -15.234  38.521  28.434  1.00  0.00     0.016 A 
ATOM     14  C   UNL     1     -14.547  37.391  27.979  1.00  0.00     0.047 A 
ATOM     15  C   UNL     1     -13.349  37.003  28.587  1.00  0.00     0.115 A 
ATOM     16  C   UNL     1     -13.522  38.883  30.109  1.00  0.00     0.016 A 
ATOM     17  C   UNL     1     -12.837  37.754  29.651  1.00  0.00     0.047 A 
BRANCH  15  18
ATOM     18  O   UNL     1     -12.677  35.875  28.122  1.00  0.00    -0.508 OA
ATOM     19  H   UNL     1     -11.897  35.477  28.633  1.00  0.00     0.293 HD
ENDBRANCH  15  18
ENDBRANCH   1  12
BRANCH   2  20
ATOM     20  O   UNL     1     -14.271  41.905  28.410  1.00  0.00    -0.502 OA
ATOM     21  H   UNL     1     -13.442  42.468  28.557  1.00  0.00     0.293 HD
ENDBRANCH   2  20
BRANCH   6  22
ATOM     22  O   UNL     1     -17.889  44.965  30.843  1.00  0.00    -0.507 OA
ATOM     23  H   UNL     1     -17.542  45.798  31.290  1.00  0.00     0.293 HD
ENDBRANCH   6  22
BRANCH   8  24
ATOM     24  O   UNL     1     -19.562  41.894  34.110  1.00  0.00    -0.508 OA
ATOM     25  H   UNL     1     -20.043  42.651  34.582  1.00  0.00     0.293 HD
ENDBRANCH   8  24
TORSDOF 5
ENDMDL
MODEL 8
REMARK VINA RESULT:    -6.417      3.734      6.908
REMARK INTER + INTRA:          -7.831
REMARK INTER:                  -7.555
REMARK INTRA:                  -0.277
REMARK UNBOUND:                -0.289
REMARK SMILES O=c1c(O)c(-c2ccc(O)cc2)oc2cc(O)cc(O)c12
REMARK SMILES IDX 5 1 3 2 2 3 1 4 21 5 19 6 18 7 16 8 15 9 14 10 13 11 6 12
REMARK SMILES IDX 7 13 8 14 9 15 12 16 11 17 10 18 4 20 20 22 17 24
REMARK H PARENT 10 19 4 21 20 23 17 25
REMARK Flexibility Score: inf
ROOT
ATOM      1  C   UNL     1     -16.705  41.636  30.999  1.00  0.00     0.180 A 
ATOM      2  C   UNL     1     -16.819  40.277  31.336  1.00  0.00     0.208 A 
ATOM      3  C   UNL     1     -16.337  39.310  30.439  1.00  0.00     0.238 A 
ATOM      4  O   UNL     1     -16.392  38.098  30.770  1.00  0.00    -0.285 OA
ATOM      5  C   UNL     1     -15.760  39.714  29.210  1.00  0.00     0.111 A 
ATOM      6  C   UNL     1     -15.276  38.819  28.210  1.00  0.00     0.134 A 
ATOM      7  C   UNL     1     -14.608  39.332  27.090  1.00  0.00     0.093 A 
ATOM      8  C   UNL     1     -14.465  40.705  26.904  1.00  0.00     0.123 A 
ATOM      9  C   UNL     1     -14.987  41.592  27.846  1.00  0.00     0.094 A 
ATOM     10  C   UNL     1     -15.627  41.110  28.991  1.00  0.00     0.146 A 
ATOM     11  O   UNL     1     -16.100  41.987  29.869  1.00  0.00    -0.452 OA
ENDROOT
BRANCH   1  12
ATOM     12  C   UNL     1     -17.213  42.713  31.881  1.00  0.00     0.021 A 
ATOM     13  C   UNL     1     -16.309  43.448  32.665  1.00  0.00     0.016 A 
ATOM     14  C   UNL     1     -16.764  44.483  33.489  1.00  0.00     0.047 A 
ATOM     15  C   UNL     1     -18.124  44.805  33.526  1.00  0.00     0.115 A 
ATOM     16  C   UNL     1     -18.577  43.055  31.909  1.00  0.00     0.016 A 
ATOM     17  C   UNL     1     -19.029  44.091  32.732  1.00  0.00     0.047 A 
BRANCH  15  18
ATOM     18  O   UNL     1     -18.563  45.838  34.351  1.00  0.00    -0.508 OA
ATOM     19  H   UNL     1     -18.929  46.702  33.968  1.00  0.00     0.293 HD
ENDBRANCH  15  18
ENDBRANCH   1  12
BRANCH   2  20
ATOM     20  O   UNL     1     -17.370  39.901  32.564  1.00  0.00    -0.502 OA
ATOM     21  H   UNL     1     -18.338  40.078  32.803  1.00  0.00     0.293 HD
ENDBRANCH   2  20
BRANCH   6  22
ATOM     22  O   UNL     1     -15.449  37.432  28.253  1.00  0.00    -0.507 OA
ATOM     23  H   UNL     1     -16.271  36.967  28.603  1.00  0.00     0.293 HD
ENDBRANCH   6  22
BRANCH   8  24
ATOM     24  O   UNL     1     -13.808  41.180  25.770  1.00  0.00    -0.508 OA
ATOM     25  H   UNL     1     -12.839  41.476  25.804  1.00  0.00     0.293 HD
ENDBRANCH   8  24
TORSDOF 5
ENDMDL
MODEL 9
REMARK VINA RESULT:    -6.387      2.310      2.834
REMARK INTER + INTRA:          -7.796
REMARK INTER:                  -7.516
REMARK INTRA:                  -0.280
REMARK UNBOUND:                -0.289
REMARK SMILES O=c1c(O)c(-c2ccc(O)cc2)oc2cc(O)cc(O)c12
REMARK SMILES IDX 5 1 3 2 2 3 1 4 21 5 19 6 18 7 16 8 15 9 14 10 13 11 6 12
REMARK SMILES IDX 7 13 8 14 9 15 12 16 11 17 10 18 4 20 20 22 17 24
REMARK H PARENT 10 19 4 21 20 23 17 25
REMARK Flexibility Score: inf
ROOT
ATOM      1  C   UNL     1     -14.086  43.117  31.722  1.00  0.00     0.180 A 
ATOM      2  C   UNL     1     -14.975  43.700  32.641  1.00  0.00     0.208 A 
ATOM      3  C   UNL     1     -16.174  43.037  32.944  1.00  0.00     0.238 A 
ATOM      4  O   UNL     1     -16.940  43.537  33.808  1.00  0.00    -0.285 OA
ATOM      5  C   UNL     1     -16.478  41.806  32.313  1.00  0.00     0.111 A 
ATOM      6  C   UNL     1     -17.682  41.068  32.515  1.00  0.00     0.134 A 
ATOM      7  C   UNL     1     -17.819  39.798  31.938  1.00  0.00     0.093 A 
ATOM      8  C   UNL     1     -16.825  39.271  31.116  1.00  0.00     0.123 A 
ATOM      9  C   UNL     1     -15.669  40.010  30.863  1.00  0.00     0.094 A 
ATOM     10  C   UNL     1     -15.487  41.263  31.453  1.00  0.00     0.146 A 
ATOM     11  O   UNL     1     -14.368  41.929  31.197  1.00  0.00    -0.452 OA
ENDROOT
BRANCH   1  12
ATOM     12  C   UNL     1     -12.814  43.767  31.332  1.00  0.00     0.021 A 
ATOM     13  C   UNL     1     -11.665  43.561  32.113  1.00  0.00     0.016 A 
ATOM     14  C   UNL     1     -10.448  44.149  31.751  1.00  0.00     0.047 A 
ATOM     15  C   UNL     1     -10.361  44.935  30.598  1.00  0.00     0.115 A 
ATOM     16  C   UNL     1     -12.715  44.544  30.164  1.00  0.00     0.016 A 
ATOM     17  C   UNL     1     -11.498  45.129  29.804  1.00  0.00     0.047 A 
BRANCH  15  18
ATOM     18  O   UNL     1      -9.143  45.514  30.251  1.00  0.00    -0.508 OA
ATOM     19  H   UNL     1      -8.495  45.048  29.626  1.00  0.00     0.293 HD
ENDBRANCH  15  18
ENDBRANCH   1  12
BRANCH   2  20
ATOM     20  O   UNL     1     -14.645  44.904  33.269  1.00  0.00    -0.502 OA
ATOM     21  H   UNL     1     -15.135  45.242  34.089  1.00  0.00     0.293 HD
ENDBRANCH   2  20
BRANCH   6  22
ATOM     22  O   UNL     1     -18.777  41.543  33.243  1.00  0.00    -0.507 OA
ATOM     23  H   UNL     1     -19.492  42.151  32.875  1.00  0.00     0.293 HD
ENDBRANCH   6  22
BRANCH   8  24
ATOM     24  O   UNL     1     -17.001  38.011  30.546  1.00  0.00    -0.508 OA
ATOM     25  H   UNL     1     -17.864  37.757  30.077  1.00  0.00     0.293 HD
ENDBRANCH   8  24
TORSDOF 5
ENDMDL
