MODEL 1
REMARK VINA RESULT:    -3.779      0.000      0.000
REMARK INTER + INTRA:          -4.125
REMARK INTER:                  -4.110
REMARK INTRA:                  -0.015
REMARK UNBOUND:                -0.015
REMARK SMILES OCc1ccco1
REMARK SMILES IDX 2 1 3 2 5 3 6 4 4 5 7 6 1 7
REMARK H PARENT 1 8
REMARK Flexibility Score: inf
ROOT
ATOM      1  C   UNL     1       0.968 -18.815  -9.209  1.00  0.00     0.231 C 
ENDROOT
BRANCH   1   2
ATOM      2  C   UNL     1       2.253 -19.192  -8.543  1.00  0.00     0.129 A 
ATOM      3  C   UNL     1       3.753 -19.757  -7.041  1.00  0.00     0.042 A 
ATOM      4  C   UNL     1       4.334 -19.575  -8.281  1.00  0.00     0.195 A 
ATOM      5  C   UNL     1       2.407 -19.506  -7.208  1.00  0.00     0.048 A 
ATOM      6  O   UNL     1       3.414 -19.236  -9.155  1.00  0.00    -0.467 OA
ENDBRANCH   1   2
BRANCH   1   7
ATOM      7  O   UNL     1       0.181 -18.052  -8.337  1.00  0.00    -0.388 OA
ATOM      8  H   UNL     1       0.561 -17.134  -8.341  1.00  0.00     0.211 HD
ENDBRANCH   1   7
TORSDOF 2
ENDMDL
MODEL 2
REMARK VINA RESULT:    -3.767     17.926     18.492
REMARK INTER + INTRA:          -4.112
REMARK INTER:                  -4.092
REMARK INTRA:                  -0.020
REMARK UNBOUND:                -0.015
REMARK SMILES OCc1ccco1
REMARK SMILES IDX 2 1 3 2 5 3 6 4 4 5 7 6 1 7
REMARK H PARENT 1 8
REMARK Flexibility Score: inf
ROOT
ATOM      1  C   UNL     1       0.983 -30.554   6.444  1.00  0.00     0.231 C 
ENDROOT
BRANCH   1   2
ATOM      2  C   UNL     1       2.429 -30.650   6.074  1.00  0.00     0.129 A 
ATOM      3  C   UNL     1       4.417 -30.220   5.247  1.00  0.00     0.042 A 
ATOM      4  C   UNL     1       4.389 -31.459   5.858  1.00  0.00     0.195 A 
ATOM      5  C   UNL     1       3.149 -29.696   5.384  1.00  0.00     0.048 A 
ATOM      6  O   UNL     1       3.188 -31.687   6.338  1.00  0.00    -0.467 OA
ENDBRANCH   1   2
BRANCH   1   7
ATOM      7  O   UNL     1       0.384 -31.818   6.374  1.00  0.00    -0.388 OA
ATOM      8  H   UNL     1       0.095 -32.047   7.297  1.00  0.00     0.211 HD
ENDBRANCH   1   7
TORSDOF 2
ENDMDL
MODEL 3
REMARK VINA RESULT:    -3.678     11.615     12.403
REMARK INTER + INTRA:          -4.016
REMARK INTER:                  -4.000
REMARK INTRA:                  -0.016
REMARK UNBOUND:                -0.015
REMARK SMILES OCc1ccco1
REMARK SMILES IDX 2 1 3 2 5 3 6 4 4 5 7 6 1 7
REMARK H PARENT 1 8
REMARK Flexibility Score: inf
ROOT
ATOM      1  C   UNL     1      -4.752 -22.979   1.768  1.00  0.00     0.231 C 
ENDROOT
BRANCH   1   2
ATOM      2  C   UNL     1      -3.861 -23.964   1.080  1.00  0.00     0.129 A 
ATOM      3  C   UNL     1      -2.948 -25.832   0.373  1.00  0.00     0.042 A 
ATOM      4  C   UNL     1      -2.236 -24.732  -0.066  1.00  0.00     0.195 A 
ATOM      5  C   UNL     1      -3.998 -25.337   1.116  1.00  0.00     0.048 A 
ATOM      6  O   UNL     1      -2.804 -23.633   0.375  1.00  0.00    -0.467 OA
ENDBRANCH   1   2
BRANCH   1   7
ATOM      7  O   UNL     1      -5.518 -23.625   2.746  1.00  0.00    -0.388 OA
ATOM      8  H   UNL     1      -6.468 -23.409   2.550  1.00  0.00     0.211 HD
ENDBRANCH   1   7
TORSDOF 2
ENDMDL
MODEL 4
REMARK VINA RESULT:    -3.641     10.864     11.879
REMARK INTER + INTRA:          -3.975
REMARK INTER:                  -3.954
REMARK INTRA:                  -0.021
REMARK UNBOUND:                -0.015
REMARK SMILES OCc1ccco1
REMARK SMILES IDX 2 1 3 2 5 3 6 4 4 5 7 6 1 7
REMARK H PARENT 1 8
REMARK Flexibility Score: inf
ROOT
ATOM      1  C   UNL     1      -1.445 -23.041   0.205  1.00  0.00     0.231 C 
ENDROOT
BRANCH   1   2
ATOM      2  C   UNL     1      -2.796 -23.502   0.650  1.00  0.00     0.129 A 
ATOM      3  C   UNL     1      -4.637 -24.673   0.903  1.00  0.00     0.042 A 
ATOM      4  C   UNL     1      -4.705 -23.483   1.601  1.00  0.00     0.195 A 
ATOM      5  C   UNL     1      -3.405 -24.686   0.285  1.00  0.00     0.048 A 
ATOM      6  O   UNL     1      -3.592 -22.805   1.427  1.00  0.00    -0.467 OA
ENDBRANCH   1   2
BRANCH   1   7
ATOM      7  O   UNL     1      -1.014 -21.974   1.003  1.00  0.00    -0.388 OA
ATOM      8  H   UNL     1      -0.063 -21.809   0.768  1.00  0.00     0.211 HD
ENDBRANCH   1   7
TORSDOF 2
ENDMDL
MODEL 5
REMARK VINA RESULT:    -3.632      2.528      3.393
REMARK INTER + INTRA:          -3.965
REMARK INTER:                  -3.944
REMARK INTRA:                  -0.021
REMARK UNBOUND:                -0.015
REMARK SMILES OCc1ccco1
REMARK SMILES IDX 2 1 3 2 5 3 6 4 4 5 7 6 1 7
REMARK H PARENT 1 8
REMARK Flexibility Score: inf
ROOT
ATOM      1  C   UNL     1       2.962 -22.809  -6.921  1.00  0.00     0.231 C 
ENDROOT
BRANCH   1   2
ATOM      2  C   UNL     1       3.359 -21.588  -7.687  1.00  0.00     0.129 A 
ATOM      3  C   UNL     1       4.001 -19.554  -8.210  1.00  0.00     0.042 A 
ATOM      4  C   UNL     1       3.712 -20.290  -9.342  1.00  0.00     0.195 A 
ATOM      5  C   UNL     1       3.771 -20.390  -7.138  1.00  0.00     0.048 A 
ATOM      6  O   UNL     1       3.329 -21.499  -8.997  1.00  0.00    -0.467 OA
ENDBRANCH   1   2
BRANCH   1   7
ATOM      7  O   UNL     1       2.256 -23.689  -7.750  1.00  0.00    -0.388 OA
ATOM      8  H   UNL     1       1.609 -24.170  -7.169  1.00  0.00     0.211 HD
ENDBRANCH   1   7
TORSDOF 2
ENDMDL
MODEL 6
REMARK VINA RESULT:    -3.626     16.667     17.384
REMARK INTER + INTRA:          -3.959
REMARK INTER:                  -3.945
REMARK INTRA:                  -0.014
REMARK UNBOUND:                -0.015
REMARK SMILES OCc1ccco1
REMARK SMILES IDX 2 1 3 2 5 3 6 4 4 5 7 6 1 7
REMARK H PARENT 1 8
REMARK Flexibility Score: inf
ROOT
ATOM      1  C   UNL     1       2.173 -29.839   6.459  1.00  0.00     0.231 C 
ENDROOT
BRANCH   1   2
ATOM      2  C   UNL     1       3.264 -29.883   5.438  1.00  0.00     0.129 A 
ATOM      3  C   UNL     1       4.395 -29.698   3.564  1.00  0.00     0.042 A 
ATOM      4  C   UNL     1       5.156 -30.299   4.548  1.00  0.00     0.195 A 
ATOM      5  C   UNL     1       3.170 -29.431   4.137  1.00  0.00     0.048 A 
ATOM      6  O   UNL     1       4.453 -30.398   5.653  1.00  0.00    -0.467 OA
ENDBRANCH   1   2
BRANCH   1   7
ATOM      7  O   UNL     1       2.471 -28.887   7.442  1.00  0.00    -0.388 OA
ATOM      8  H   UNL     1       2.201 -29.283   8.312  1.00  0.00     0.211 HD
ENDBRANCH   1   7
TORSDOF 2
ENDMDL
MODEL 7
REMARK VINA RESULT:    -3.582     11.651     12.385
REMARK INTER + INTRA:          -3.912
REMARK INTER:                  -3.891
REMARK INTRA:                  -0.021
REMARK UNBOUND:                -0.015
REMARK SMILES OCc1ccco1
REMARK SMILES IDX 2 1 3 2 5 3 6 4 4 5 7 6 1 7
REMARK H PARENT 1 8
REMARK Flexibility Score: inf
ROOT
ATOM      1  C   UNL     1      -4.577 -23.152   1.498  1.00  0.00     0.231 C 
ENDROOT
BRANCH   1   2
ATOM      2  C   UNL     1      -3.683 -24.205   0.924  1.00  0.00     0.129 A 
ATOM      3  C   UNL     1      -2.116 -25.232  -0.221  1.00  0.00     0.042 A 
ATOM      4  C   UNL     1      -2.895 -26.135   0.476  1.00  0.00     0.195 A 
ATOM      5  C   UNL     1      -2.625 -23.984   0.065  1.00  0.00     0.048 A 
ATOM      6  O   UNL     1      -3.824 -25.491   1.147  1.00  0.00    -0.467 OA
ENDBRANCH   1   2
BRANCH   1   7
ATOM      7  O   UNL     1      -5.302 -23.672   2.577  1.00  0.00    -0.388 OA
ATOM      8  H   UNL     1      -4.639 -24.074   3.198  1.00  0.00     0.211 HD
ENDBRANCH   1   7
TORSDOF 2
ENDMDL
MODEL 8
REMARK VINA RESULT:    -3.581     11.062     11.999
REMARK INTER + INTRA:          -3.910
REMARK INTER:                  -3.894
REMARK INTRA:                  -0.016
REMARK UNBOUND:                -0.015
REMARK SMILES OCc1ccco1
REMARK SMILES IDX 2 1 3 2 5 3 6 4 4 5 7 6 1 7
REMARK H PARENT 1 8
REMARK Flexibility Score: inf
ROOT
ATOM      1  C   UNL     1       4.405 -28.762  -0.634  1.00  0.00     0.231 C 
ENDROOT
BRANCH   1   2
ATOM      2  C   UNL     1       3.062 -28.105  -0.593  1.00  0.00     0.129 A 
ATOM      3  C   UNL     1       0.989 -27.596  -0.078  1.00  0.00     0.042 A 
ATOM      4  C   UNL     1       1.451 -26.809  -1.114  1.00  0.00     0.195 A 
ATOM      5  C   UNL     1       2.028 -28.437   0.259  1.00  0.00     0.048 A 
ATOM      6  O   UNL     1       2.691 -27.139  -1.400  1.00  0.00    -0.467 OA
ENDBRANCH   1   2
BRANCH   1   7
ATOM      7  O   UNL     1       4.554 -29.475  -1.830  1.00  0.00    -0.388 OA
ATOM      8  H   UNL     1       5.164 -28.942  -2.405  1.00  0.00     0.211 HD
ENDBRANCH   1   7
TORSDOF 2
ENDMDL
MODEL 9
REMARK VINA RESULT:    -3.549     17.847     18.657
REMARK INTER + INTRA:          -3.875
REMARK INTER:                  -3.861
REMARK INTRA:                  -0.014
REMARK UNBOUND:                -0.015
REMARK SMILES OCc1ccco1
REMARK SMILES IDX 2 1 3 2 5 3 6 4 4 5 7 6 1 7
REMARK H PARENT 1 8
REMARK Flexibility Score: inf
ROOT
ATOM      1  C   UNL     1       3.166 -33.087   5.966  1.00  0.00     0.231 C 
ENDROOT
BRANCH   1   2
ATOM      2  C   UNL     1       3.128 -31.620   5.677  1.00  0.00     0.129 A 
ATOM      3  C   UNL     1       3.294 -29.673   4.674  1.00  0.00     0.042 A 
ATOM      4  C   UNL     1       2.908 -29.523   5.992  1.00  0.00     0.195 A 
ATOM      5  C   UNL     1       3.439 -31.029   4.469  1.00  0.00     0.048 A 
ATOM      6  O   UNL     1       2.821 -30.702   6.564  1.00  0.00    -0.467 OA
ENDBRANCH   1   2
BRANCH   1   7
ATOM      7  O   UNL     1       1.864 -33.598   6.032  1.00  0.00    -0.388 OA
ATOM      8  H   UNL     1       1.646 -33.698   6.996  1.00  0.00     0.211 HD
ENDBRANCH   1   7
TORSDOF 2
ENDMDL
