MODEL 1
REMARK VINA RESULT:    -3.714      0.000      0.000
REMARK INTER + INTRA:          -7.986
REMARK INTER:                  -6.537
REMARK INTRA:                  -1.450
REMARK UNBOUND:                -1.450
REMARK SMILES CCCCCCCCCCCCCCC(=O)[O-]
REMARK SMILES IDX 9 1 10 2 11 3 12 4 13 5 14 6 15 7 16 8 17 9 8 10 7 11 6 12
REMARK SMILES IDX 5 13 4 14 3 15 2 16 1 17
REMARK H PARENT
REMARK Flexibility Score: inf
ROOT
ATOM      1  C   UNL     1      12.656  -9.577  18.063  1.00  0.00     0.000 C 
ENDROOT
BRANCH   1   2
ATOM      2  C   UNL     1      11.650  -9.701  16.908  1.00  0.00     0.000 C 
BRANCH   2   3
ATOM      3  C   UNL     1      11.725 -11.065  16.199  1.00  0.00     0.000 C 
BRANCH   3   4
ATOM      4  C   UNL     1      11.949 -10.914  14.680  1.00  0.00     0.000 C 
BRANCH   4   5
ATOM      5  C   UNL     1      10.671 -10.566  13.893  1.00  0.00     0.006 C 
BRANCH   5   6
ATOM      6  C   UNL     1      10.928 -10.115  12.443  1.00  0.00     0.053 C 
BRANCH   6   7
ATOM      7  C   UNL     1       9.666  -9.770  11.709  1.00  0.00     0.041 C 
ATOM      8  O   UNL     1       8.595 -10.376  11.972  1.00  0.00    -0.550 OA
ATOM      9  O   UNL     1       9.685  -8.827  10.688  1.00  0.00    -0.550 OA
ENDBRANCH   6   7
ENDBRANCH   5   6
ENDBRANCH   4   5
ENDBRANCH   3   4
ENDBRANCH   2   3
ENDBRANCH   1   2
BRANCH   1  10
ATOM     10  C   UNL     1      13.829 -10.560  17.933  1.00  0.00     0.000 C 
BRANCH  10  11
ATOM     11  C   UNL     1      13.965 -11.422  19.194  1.00  0.00    -0.000 C 
BRANCH  11  12
ATOM     12  C   UNL     1      13.763 -12.909  18.867  1.00  0.00    -0.000 C 
BRANCH  12  13
ATOM     13  C   UNL     1      12.301 -13.358  19.017  1.00  0.00    -0.000 C 
BRANCH  13  14
ATOM     14  C   UNL     1      11.680 -12.908  20.351  1.00  0.00    -0.000 C 
BRANCH  14  15
ATOM     15  C   UNL     1      10.150 -12.770  20.273  1.00  0.00    -0.000 C 
BRANCH  15  16
ATOM     16  C   UNL     1       9.703 -11.674  19.294  1.00  0.00    -0.003 C 
ATOM     17  C   UNL     1       8.321 -11.142  19.662  1.00  0.00     0.004 C 
ENDBRANCH  15  16
ENDBRANCH  14  15
ENDBRANCH  13  14
ENDBRANCH  12  13
ENDBRANCH  11  12
ENDBRANCH  10  11
ENDBRANCH   1  10
TORSDOF 13
ENDMDL
MODEL 2
REMARK VINA RESULT:    -3.682      4.360      6.444
REMARK INTER + INTRA:          -7.930
REMARK INTER:                  -5.525
REMARK INTRA:                  -2.406
REMARK UNBOUND:                -1.450
REMARK SMILES CCCCCCCCCCCCCCC(=O)[O-]
REMARK SMILES IDX 9 1 10 2 11 3 12 4 13 5 14 6 15 7 16 8 17 9 8 10 7 11 6 12
REMARK SMILES IDX 5 13 4 14 3 15 2 16 1 17
REMARK H PARENT
REMARK Flexibility Score: inf
ROOT
ATOM      1  C   UNL     1      14.111 -10.322  18.016  1.00  0.00     0.000 C 
ENDROOT
BRANCH   1   2
ATOM      2  C   UNL     1      13.814 -10.205  19.519  1.00  0.00     0.000 C 
BRANCH   2   3
ATOM      3  C   UNL     1      12.311 -10.287  19.834  1.00  0.00     0.000 C 
BRANCH   3   4
ATOM      4  C   UNL     1      11.905 -11.682  20.354  1.00  0.00     0.000 C 
BRANCH   4   5
ATOM      5  C   UNL     1      10.503 -12.134  19.900  1.00  0.00     0.006 C 
BRANCH   5   6
ATOM      6  C   UNL     1       9.718 -12.917  20.968  1.00  0.00     0.053 C 
BRANCH   6   7
ATOM      7  C   UNL     1      10.420 -14.169  21.404  1.00  0.00     0.041 C 
ATOM      8  O   UNL     1      10.424 -15.184  20.660  1.00  0.00    -0.550 OA
ATOM      9  O   UNL     1      11.012 -14.240  22.659  1.00  0.00    -0.550 OA
ENDBRANCH   6   7
ENDBRANCH   5   6
ENDBRANCH   4   5
ENDBRANCH   3   4
ENDBRANCH   2   3
ENDBRANCH   1   2
BRANCH   1  10
ATOM     10  C   UNL     1      12.856 -10.145  17.150  1.00  0.00     0.000 C 
BRANCH  10  11
ATOM     11  C   UNL     1      12.760 -11.247  16.088  1.00  0.00    -0.000 C 
BRANCH  11  12
ATOM     12  C   UNL     1      13.441 -12.536  16.572  1.00  0.00    -0.000 C 
BRANCH  12  13
ATOM     13  C   UNL     1      12.439 -13.579  17.092  1.00  0.00    -0.000 C 
BRANCH  13  14
ATOM     14  C   UNL     1      13.045 -14.492  18.173  1.00  0.00    -0.000 C 
BRANCH  14  15
ATOM     15  C   UNL     1      14.490 -14.106  18.529  1.00  0.00    -0.000 C 
BRANCH  15  16
ATOM     16  C   UNL     1      14.680 -13.842  20.030  1.00  0.00    -0.003 C 
ATOM     17  C   UNL     1      14.052 -14.954  20.866  1.00  0.00     0.004 C 
ENDBRANCH  15  16
ENDBRANCH  14  15
ENDBRANCH  13  14
ENDBRANCH  12  13
ENDBRANCH  11  12
ENDBRANCH  10  11
ENDBRANCH   1  10
TORSDOF 13
ENDMDL
MODEL 3
REMARK VINA RESULT:    -3.659      4.702      6.926
REMARK INTER + INTRA:          -7.889
REMARK INTER:                  -5.582
REMARK INTRA:                  -2.308
REMARK UNBOUND:                -1.450
REMARK SMILES CCCCCCCCCCCCCCC(=O)[O-]
REMARK SMILES IDX 9 1 10 2 11 3 12 4 13 5 14 6 15 7 16 8 17 9 8 10 7 11 6 12
REMARK SMILES IDX 5 13 4 14 3 15 2 16 1 17
REMARK H PARENT
REMARK Flexibility Score: inf
ROOT
ATOM      1  C   UNL     1      12.447 -11.166  20.186  1.00  0.00     0.000 C 
ENDROOT
BRANCH   1   2
ATOM      2  C   UNL     1      12.281 -12.691  20.276  1.00  0.00     0.000 C 
BRANCH   2   3
ATOM      3  C   UNL     1      10.848 -13.152  19.958  1.00  0.00     0.000 C 
BRANCH   3   4
ATOM      4  C   UNL     1       9.960 -11.985  19.478  1.00  0.00     0.000 C 
BRANCH   4   5
ATOM      5  C   UNL     1       8.994 -11.454  20.555  1.00  0.00     0.006 C 
BRANCH   5   6
ATOM      6  C   UNL     1       8.624 -12.487  21.634  1.00  0.00     0.053 C 
BRANCH   6   7
ATOM      7  C   UNL     1       9.081 -12.084  23.006  1.00  0.00     0.041 C 
ATOM      8  O   UNL     1      10.305 -12.099  23.295  1.00  0.00    -0.550 OA
ATOM      9  O   UNL     1       8.151 -11.757  23.986  1.00  0.00    -0.550 OA
ENDBRANCH   6   7
ENDBRANCH   5   6
ENDBRANCH   4   5
ENDBRANCH   3   4
ENDBRANCH   2   3
ENDBRANCH   1   2
BRANCH   1  10
ATOM     10  C   UNL     1      13.853 -10.751  19.729  1.00  0.00     0.000 C 
BRANCH  10  11
ATOM     11  C   UNL     1      13.790  -9.922  18.441  1.00  0.00    -0.000 C 
BRANCH  11  12
ATOM     12  C   UNL     1      12.339  -9.560  18.091  1.00  0.00    -0.000 C 
BRANCH  12  13
ATOM     13  C   UNL     1      11.944  -9.991  16.669  1.00  0.00    -0.000 C 
BRANCH  13  14
ATOM     14  C   UNL     1      12.686 -11.259  16.210  1.00  0.00    -0.000 C 
BRANCH  14  15
ATOM     15  C   UNL     1      11.911 -12.546  16.536  1.00  0.00    -0.000 C 
BRANCH  15  16
ATOM     16  C   UNL     1      12.828 -13.770  16.677  1.00  0.00    -0.003 C 
ATOM     17  C   UNL     1      14.212 -13.364  17.173  1.00  0.00     0.004 C 
ENDBRANCH  15  16
ENDBRANCH  14  15
ENDBRANCH  13  14
ENDBRANCH  12  13
ENDBRANCH  11  12
ENDBRANCH  10  11
ENDBRANCH   1  10
TORSDOF 13
ENDMDL
MODEL 4
REMARK VINA RESULT:    -3.623      3.756      5.911
REMARK INTER + INTRA:          -7.826
REMARK INTER:                  -5.338
REMARK INTRA:                  -2.489
REMARK UNBOUND:                -1.450
REMARK SMILES CCCCCCCCCCCCCCC(=O)[O-]
REMARK SMILES IDX 9 1 10 2 11 3 12 4 13 5 14 6 15 7 16 8 17 9 8 10 7 11 6 12
REMARK SMILES IDX 5 13 4 14 3 15 2 16 1 17
REMARK H PARENT
REMARK Flexibility Score: inf
ROOT
ATOM      1  C   UNL     1      11.721 -12.556  20.507  1.00  0.00     0.000 C 
ENDROOT
BRANCH   1   2
ATOM      2  C   UNL     1      12.711 -13.730  20.499  1.00  0.00     0.000 C 
BRANCH   2   3
ATOM      3  C   UNL     1      14.114 -13.320  20.016  1.00  0.00     0.000 C 
BRANCH   3   4
ATOM      4  C   UNL     1      14.437 -13.900  18.623  1.00  0.00     0.000 C 
BRANCH   4   5
ATOM      5  C   UNL     1      13.297 -14.742  18.018  1.00  0.00     0.006 C 
BRANCH   5   6
ATOM      6  C   UNL     1      13.251 -14.726  16.480  1.00  0.00     0.053 C 
BRANCH   6   7
ATOM      7  C   UNL     1      14.557 -15.122  15.855  1.00  0.00     0.041 C 
ATOM      8  O   UNL     1      15.232 -14.278  15.211  1.00  0.00    -0.550 OA
ATOM      9  O   UNL     1      14.996 -16.439  15.924  1.00  0.00    -0.550 OA
ENDBRANCH   6   7
ENDBRANCH   5   6
ENDBRANCH   4   5
ENDBRANCH   3   4
ENDBRANCH   2   3
ENDBRANCH   1   2
BRANCH   1  10
ATOM     10  C   UNL     1      10.461 -12.839  19.675  1.00  0.00     0.000 C 
BRANCH  10  11
ATOM     11  C   UNL     1      10.194 -11.706  18.678  1.00  0.00    -0.000 C 
BRANCH  11  12
ATOM     12  C   UNL     1      11.071 -11.858  17.426  1.00  0.00    -0.000 C 
BRANCH  12  13
ATOM     13  C   UNL     1      11.802 -10.559  17.050  1.00  0.00    -0.000 C 
BRANCH  13  14
ATOM     14  C   UNL     1      13.313 -10.769  16.849  1.00  0.00    -0.000 C 
BRANCH  14  15
ATOM     15  C   UNL     1      14.146 -10.216  18.017  1.00  0.00    -0.000 C 
BRANCH  15  16
ATOM     16  C   UNL     1      13.323  -9.330  18.964  1.00  0.00    -0.003 C 
ATOM     17  C   UNL     1      13.722  -9.564  20.419  1.00  0.00     0.004 C 
ENDBRANCH  15  16
ENDBRANCH  14  15
ENDBRANCH  13  14
ENDBRANCH  12  13
ENDBRANCH  11  12
ENDBRANCH  10  11
ENDBRANCH   1  10
TORSDOF 13
ENDMDL
MODEL 5
REMARK VINA RESULT:    -3.592      3.922      6.825
REMARK INTER + INTRA:          -7.771
REMARK INTER:                  -5.773
REMARK INTRA:                  -1.998
REMARK UNBOUND:                -1.450
REMARK SMILES CCCCCCCCCCCCCCC(=O)[O-]
REMARK SMILES IDX 9 1 10 2 11 3 12 4 13 5 14 6 15 7 16 8 17 9 8 10 7 11 6 12
REMARK SMILES IDX 5 13 4 14 3 15 2 16 1 17
REMARK H PARENT
REMARK Flexibility Score: inf
ROOT
ATOM      1  C   UNL     1       9.397 -12.842  21.592  1.00  0.00     0.000 C 
ENDROOT
BRANCH   1   2
ATOM      2  C   UNL     1      10.401 -13.968  21.884  1.00  0.00     0.000 C 
BRANCH   2   3
ATOM      3  C   UNL     1      10.518 -14.974  20.726  1.00  0.00     0.000 C 
BRANCH   3   4
ATOM      4  C   UNL     1      11.958 -15.062  20.180  1.00  0.00     0.000 C 
BRANCH   4   5
ATOM      5  C   UNL     1      12.969 -14.184  20.942  1.00  0.00     0.006 C 
BRANCH   5   6
ATOM      6  C   UNL     1      13.859 -13.317  20.034  1.00  0.00     0.053 C 
BRANCH   6   7
ATOM      7  C   UNL     1      14.570 -14.116  18.982  1.00  0.00     0.041 C 
ATOM      8  O   UNL     1      14.374 -13.873  17.763  1.00  0.00    -0.550 OA
ATOM      9  O   UNL     1      15.397 -15.173  19.344  1.00  0.00    -0.550 OA
ENDBRANCH   6   7
ENDBRANCH   5   6
ENDBRANCH   4   5
ENDBRANCH   3   4
ENDBRANCH   2   3
ENDBRANCH   1   2
BRANCH   1  10
ATOM     10  C   UNL     1      10.008 -11.706  20.759  1.00  0.00     0.000 C 
BRANCH  10  11
ATOM     11  C   UNL     1       8.997 -11.167  19.740  1.00  0.00    -0.000 C 
BRANCH  11  12
ATOM     12  C   UNL     1       9.467 -11.440  18.303  1.00  0.00    -0.000 C 
BRANCH  12  13
ATOM     13  C   UNL     1      10.838 -12.134  18.247  1.00  0.00    -0.000 C 
BRANCH  13  14
ATOM     14  C   UNL     1      11.599 -11.831  16.945  1.00  0.00    -0.000 C 
BRANCH  14  15
ATOM     15  C   UNL     1      12.024 -10.357  16.838  1.00  0.00    -0.000 C 
BRANCH  15  16
ATOM     16  C   UNL     1      12.800  -9.873  18.072  1.00  0.00    -0.003 C 
ATOM     17  C   UNL     1      14.281 -10.225  17.961  1.00  0.00     0.004 C 
ENDBRANCH  15  16
ENDBRANCH  14  15
ENDBRANCH  13  14
ENDBRANCH  12  13
ENDBRANCH  11  12
ENDBRANCH  10  11
ENDBRANCH   1  10
TORSDOF 13
ENDMDL
MODEL 6
REMARK VINA RESULT:    -3.548      4.402      5.989
REMARK INTER + INTRA:          -7.694
REMARK INTER:                  -5.589
REMARK INTRA:                  -2.105
REMARK UNBOUND:                -1.450
REMARK SMILES CCCCCCCCCCCCCCC(=O)[O-]
REMARK SMILES IDX 9 1 10 2 11 3 12 4 13 5 14 6 15 7 16 8 17 9 8 10 7 11 6 12
REMARK SMILES IDX 5 13 4 14 3 15 2 16 1 17
REMARK H PARENT
REMARK Flexibility Score: inf
ROOT
ATOM      1  C   UNL     1      13.982 -10.820  17.469  1.00  0.00     0.000 C 
ENDROOT
BRANCH   1   2
ATOM      2  C   UNL     1      13.910  -9.915  18.709  1.00  0.00     0.000 C 
BRANCH   2   3
ATOM      3  C   UNL     1      13.964 -10.707  20.026  1.00  0.00     0.000 C 
BRANCH   3   4
ATOM      4  C   UNL     1      13.922 -12.231  19.786  1.00  0.00     0.000 C 
BRANCH   4   5
ATOM      5  C   UNL     1      12.705 -12.929  20.423  1.00  0.00     0.006 C 
BRANCH   5   6
ATOM      6  C   UNL     1      12.127 -14.080  19.579  1.00  0.00     0.053 C 
BRANCH   6   7
ATOM      7  C   UNL     1      11.263 -15.010  20.379  1.00  0.00     0.041 C 
ATOM      8  O   UNL     1      10.997 -16.160  19.941  1.00  0.00    -0.550 OA
ATOM      9  O   UNL     1      10.696 -14.586  21.575  1.00  0.00    -0.550 OA
ENDBRANCH   6   7
ENDBRANCH   5   6
ENDBRANCH   4   5
ENDBRANCH   3   4
ENDBRANCH   2   3
ENDBRANCH   1   2
BRANCH   1  10
ATOM     10  C   UNL     1      12.781 -10.634  16.531  1.00  0.00     0.000 C 
BRANCH  10  11
ATOM     11  C   UNL     1      11.509 -10.310  17.323  1.00  0.00    -0.000 C 
BRANCH  11  12
ATOM     12  C   UNL     1      10.513 -11.478  17.263  1.00  0.00    -0.000 C 
BRANCH  12  13
ATOM     13  C   UNL     1       9.695 -11.629  18.556  1.00  0.00    -0.000 C 
BRANCH  13  14
ATOM     14  C   UNL     1       9.993 -10.517  19.577  1.00  0.00    -0.000 C 
BRANCH  14  15
ATOM     15  C   UNL     1       9.502 -10.867  20.991  1.00  0.00    -0.000 C 
BRANCH  15  16
ATOM     16  C   UNL     1       8.386 -11.922  20.987  1.00  0.00    -0.003 C 
ATOM     17  C   UNL     1       7.549 -11.839  22.261  1.00  0.00     0.004 C 
ENDBRANCH  15  16
ENDBRANCH  14  15
ENDBRANCH  13  14
ENDBRANCH  12  13
ENDBRANCH  11  12
ENDBRANCH  10  11
ENDBRANCH   1  10
TORSDOF 13
ENDMDL
MODEL 7
REMARK VINA RESULT:    -3.527      4.196      6.128
REMARK INTER + INTRA:          -7.657
REMARK INTER:                  -5.351
REMARK INTRA:                  -2.306
REMARK UNBOUND:                -1.450
REMARK SMILES CCCCCCCCCCCCCCC(=O)[O-]
REMARK SMILES IDX 9 1 10 2 11 3 12 4 13 5 14 6 15 7 16 8 17 9 8 10 7 11 6 12
REMARK SMILES IDX 5 13 4 14 3 15 2 16 1 17
REMARK H PARENT
REMARK Flexibility Score: inf
ROOT
ATOM      1  C   UNL     1      14.238  -9.942  18.476  1.00  0.00     0.000 C 
ENDROOT
BRANCH   1   2
ATOM      2  C   UNL     1      13.319  -9.532  19.638  1.00  0.00     0.000 C 
BRANCH   2   3
ATOM      3  C   UNL     1      13.300 -10.570  20.774  1.00  0.00     0.000 C 
BRANCH   3   4
ATOM      4  C   UNL     1      14.592 -11.412  20.808  1.00  0.00     0.000 C 
BRANCH   4   5
ATOM      5  C   UNL     1      14.345 -12.932  20.861  1.00  0.00     0.006 C 
BRANCH   5   6
ATOM      6  C   UNL     1      14.274 -13.606  19.479  1.00  0.00     0.053 C 
BRANCH   6   7
ATOM      7  C   UNL     1      13.629 -14.960  19.525  1.00  0.00     0.041 C 
ATOM      8  O   UNL     1      13.622 -15.622  20.596  1.00  0.00    -0.550 OA
ATOM      9  O   UNL     1      13.095 -15.522  18.372  1.00  0.00    -0.550 OA
ENDBRANCH   6   7
ENDBRANCH   5   6
ENDBRANCH   4   5
ENDBRANCH   3   4
ENDBRANCH   2   3
ENDBRANCH   1   2
BRANCH   1  10
ATOM     10  C   UNL     1      13.472 -10.602  17.321  1.00  0.00     0.000 C 
BRANCH  10  11
ATOM     11  C   UNL     1      12.016 -10.122  17.281  1.00  0.00    -0.000 C 
BRANCH  11  12
ATOM     12  C   UNL     1      11.048 -11.311  17.191  1.00  0.00    -0.000 C 
BRANCH  12  13
ATOM     13  C   UNL     1      10.253 -11.531  18.488  1.00  0.00    -0.000 C 
BRANCH  13  14
ATOM     14  C   UNL     1      10.692 -12.800  19.240  1.00  0.00    -0.000 C 
BRANCH  14  15
ATOM     15  C   UNL     1      10.372 -12.735  20.743  1.00  0.00    -0.000 C 
BRANCH  15  16
ATOM     16  C   UNL     1      10.507 -14.098  21.437  1.00  0.00    -0.003 C 
ATOM     17  C   UNL     1      11.254 -13.966  22.762  1.00  0.00     0.004 C 
ENDBRANCH  15  16
ENDBRANCH  14  15
ENDBRANCH  13  14
ENDBRANCH  12  13
ENDBRANCH  11  12
ENDBRANCH  10  11
ENDBRANCH   1  10
TORSDOF 13
ENDMDL
MODEL 8
REMARK VINA RESULT:    -3.510      3.918      4.707
REMARK INTER + INTRA:          -7.627
REMARK INTER:                  -5.197
REMARK INTRA:                  -2.430
REMARK UNBOUND:                -1.450
REMARK SMILES CCCCCCCCCCCCCCC(=O)[O-]
REMARK SMILES IDX 9 1 10 2 11 3 12 4 13 5 14 6 15 7 16 8 17 9 8 10 7 11 6 12
REMARK SMILES IDX 5 13 4 14 3 15 2 16 1 17
REMARK H PARENT
REMARK Flexibility Score: inf
ROOT
ATOM      1  C   UNL     1      14.160  -9.980  18.302  1.00  0.00     0.000 C 
ENDROOT
BRANCH   1   2
ATOM      2  C   UNL     1      13.096 -10.298  17.240  1.00  0.00     0.000 C 
BRANCH   2   3
ATOM      3  C   UNL     1      13.243 -11.715  16.658  1.00  0.00     0.000 C 
BRANCH   3   4
ATOM      4  C   UNL     1      14.392 -12.497  17.326  1.00  0.00     0.000 C 
BRANCH   4   5
ATOM      5  C   UNL     1      14.163 -14.020  17.376  1.00  0.00     0.006 C 
BRANCH   5   6
ATOM      6  C   UNL     1      12.951 -14.501  16.559  1.00  0.00     0.053 C 
BRANCH   6   7
ATOM      7  C   UNL     1      12.887 -15.996  16.439  1.00  0.00     0.041 C 
ATOM      8  O   UNL     1      13.220 -16.723  17.411  1.00  0.00    -0.550 OA
ATOM      9  O   UNL     1      12.525 -16.588  15.236  1.00  0.00    -0.550 OA
ENDBRANCH   6   7
ENDBRANCH   5   6
ENDBRANCH   4   5
ENDBRANCH   3   4
ENDBRANCH   2   3
ENDBRANCH   1   2
BRANCH   1  10
ATOM     10  C   UNL     1      13.598  -9.168  19.477  1.00  0.00     0.000 C 
BRANCH  10  11
ATOM     11  C   UNL     1      13.088 -10.092  20.590  1.00  0.00    -0.000 C 
BRANCH  11  12
ATOM     12  C   UNL     1      14.073 -11.243  20.843  1.00  0.00    -0.000 C 
BRANCH  12  13
ATOM     13  C   UNL     1      13.394 -12.622  20.821  1.00  0.00    -0.000 C 
BRANCH  13  14
ATOM     14  C   UNL     1      11.859 -12.525  20.844  1.00  0.00    -0.000 C 
BRANCH  14  15
ATOM     15  C   UNL     1      11.211 -13.117  19.582  1.00  0.00    -0.000 C 
BRANCH  15  16
ATOM     16  C   UNL     1      10.313 -12.109  18.849  1.00  0.00    -0.003 C 
ATOM     17  C   UNL     1       9.467 -11.309  19.835  1.00  0.00     0.004 C 
ENDBRANCH  15  16
ENDBRANCH  14  15
ENDBRANCH  13  14
ENDBRANCH  12  13
ENDBRANCH  11  12
ENDBRANCH  10  11
ENDBRANCH   1  10
TORSDOF 13
ENDMDL
MODEL 9
REMARK VINA RESULT:    -3.509      4.075      5.072
REMARK INTER + INTRA:          -7.625
REMARK INTER:                  -5.057
REMARK INTRA:                  -2.568
REMARK UNBOUND:                -1.450
REMARK SMILES CCCCCCCCCCCCCCC(=O)[O-]
REMARK SMILES IDX 9 1 10 2 11 3 12 4 13 5 14 6 15 7 16 8 17 9 8 10 7 11 6 12
REMARK SMILES IDX 5 13 4 14 3 15 2 16 1 17
REMARK H PARENT
REMARK Flexibility Score: inf
ROOT
ATOM      1  C   UNL     1      11.633  -9.266  17.618  1.00  0.00     0.000 C 
ENDROOT
BRANCH   1   2
ATOM      2  C   UNL     1      12.355 -10.263  16.699  1.00  0.00     0.000 C 
BRANCH   2   3
ATOM      3  C   UNL     1      11.477 -11.470  16.326  1.00  0.00     0.000 C 
BRANCH   3   4
ATOM      4  C   UNL     1      11.896 -12.746  17.085  1.00  0.00     0.000 C 
BRANCH   4   5
ATOM      5  C   UNL     1      13.249 -13.327  16.629  1.00  0.00     0.006 C 
BRANCH   5   6
ATOM      6  C   UNL     1      14.359 -13.244  17.692  1.00  0.00     0.053 C 
BRANCH   6   7
ATOM      7  C   UNL     1      14.487 -14.503  18.499  1.00  0.00     0.041 C 
ATOM      8  O   UNL     1      15.039 -14.476  19.630  1.00  0.00    -0.550 OA
ATOM      9  O   UNL     1      14.059 -15.717  17.976  1.00  0.00    -0.550 OA
ENDBRANCH   6   7
ENDBRANCH   5   6
ENDBRANCH   4   5
ENDBRANCH   3   4
ENDBRANCH   2   3
ENDBRANCH   1   2
BRANCH   1  10
ATOM     10  C   UNL     1      12.353  -9.071  18.960  1.00  0.00     0.000 C 
BRANCH  10  11
ATOM     11  C   UNL     1      13.743  -9.718  18.937  1.00  0.00    -0.000 C 
BRANCH  11  12
ATOM     12  C   UNL     1      13.893 -10.738  20.076  1.00  0.00    -0.000 C 
BRANCH  12  13
ATOM     13  C   UNL     1      12.560 -11.049  20.775  1.00  0.00    -0.000 C 
BRANCH  13  14
ATOM     14  C   UNL     1      12.218 -12.549  20.753  1.00  0.00    -0.000 C 
BRANCH  14  15
ATOM     15  C   UNL     1      10.728 -12.811  20.476  1.00  0.00    -0.000 C 
BRANCH  15  16
ATOM     16  C   UNL     1       9.893 -11.522  20.459  1.00  0.00    -0.003 C 
ATOM     17  C   UNL     1       9.069 -11.420  19.178  1.00  0.00     0.004 C 
ENDBRANCH  15  16
ENDBRANCH  14  15
ENDBRANCH  13  14
ENDBRANCH  12  13
ENDBRANCH  11  12
ENDBRANCH  10  11
ENDBRANCH   1  10
TORSDOF 13
ENDMDL
