MODEL 1
REMARK VINA RESULT:    -3.821      0.000      0.000
REMARK INTER + INTRA:          -4.199
REMARK INTER:                  -4.156
REMARK INTRA:                  -0.043
REMARK UNBOUND:                -0.043
REMARK SMILES COc1ccccc1O
REMARK SMILES IDX 3 1 4 2 5 3 6 4 7 5 8 6 2 7 1 8 9 9
REMARK H PARENT 9 10
REMARK Flexibility Score: inf
ROOT
ATOM      1  C   UNL     1     -45.131 -52.991   9.966  1.00  0.00     0.160 A 
ATOM      2  C   UNL     1     -45.632 -51.799   9.404  1.00  0.00     0.050 A 
ATOM      3  C   UNL     1     -46.077 -50.761  10.229  1.00  0.00     0.004 A 
ATOM      4  C   UNL     1     -46.027 -50.900  11.616  1.00  0.00     0.004 A 
ATOM      5  C   UNL     1     -45.533 -52.075  12.184  1.00  0.00     0.050 A 
ATOM      6  C   UNL     1     -45.086 -53.121  11.368  1.00  0.00     0.157 A 
ENDROOT
BRANCH   1   7
ATOM      7  O   UNL     1     -44.677 -54.054   9.171  1.00  0.00    -0.493 OA
ATOM      8  C   UNL     1     -45.518 -54.880   8.371  1.00  0.00     0.278 C 
ENDBRANCH   1   7
BRANCH   6   9
ATOM      9  O   UNL     1     -44.598 -54.281  11.968  1.00  0.00    -0.504 OA
ATOM     10  H   UNL     1     -45.210 -54.976  12.377  1.00  0.00     0.293 HD
ENDBRANCH   6   9
TORSDOF 2
ENDMDL
MODEL 2
REMARK VINA RESULT:    -3.671      0.963      2.759
REMARK INTER + INTRA:          -4.037
REMARK INTER:                  -4.009
REMARK INTRA:                  -0.028
REMARK UNBOUND:                -0.043
REMARK SMILES COc1ccccc1O
REMARK SMILES IDX 3 1 4 2 5 3 6 4 7 5 8 6 2 7 1 8 9 9
REMARK H PARENT 9 10
REMARK Flexibility Score: inf
ROOT
ATOM      1  C   UNL     1     -45.042 -52.692  11.120  1.00  0.00     0.160 A 
ATOM      2  C   UNL     1     -45.541 -51.428  11.496  1.00  0.00     0.050 A 
ATOM      3  C   UNL     1     -46.131 -50.590  10.545  1.00  0.00     0.004 A 
ATOM      4  C   UNL     1     -46.229 -51.000   9.215  1.00  0.00     0.004 A 
ATOM      5  C   UNL     1     -45.738 -52.248   8.831  1.00  0.00     0.050 A 
ATOM      6  C   UNL     1     -45.146 -53.096   9.774  1.00  0.00     0.157 A 
ENDROOT
BRANCH   1   7
ATOM      7  O   UNL     1     -44.444 -53.560  12.045  1.00  0.00    -0.493 OA
ATOM      8  C   UNL     1     -44.824 -53.669  13.413  1.00  0.00     0.278 C 
ENDBRANCH   1   7
BRANCH   6   9
ATOM      9  O   UNL     1     -44.665 -54.337   9.357  1.00  0.00    -0.504 OA
ATOM     10  H   UNL     1     -43.699 -54.481   9.091  1.00  0.00     0.293 HD
ENDBRANCH   6   9
TORSDOF 2
ENDMDL
MODEL 3
REMARK VINA RESULT:    -3.669      2.139      2.566
REMARK INTER + INTRA:          -4.035
REMARK INTER:                  -4.009
REMARK INTRA:                  -0.025
REMARK UNBOUND:                -0.043
REMARK SMILES COc1ccccc1O
REMARK SMILES IDX 3 1 4 2 5 3 6 4 7 5 8 6 2 7 1 8 9 9
REMARK H PARENT 9 10
REMARK Flexibility Score: inf
ROOT
ATOM      1  C   UNL     1     -43.177 -53.087  11.338  1.00  0.00     0.160 A 
ATOM      2  C   UNL     1     -43.008 -51.920  10.566  1.00  0.00     0.050 A 
ATOM      3  C   UNL     1     -44.038 -50.979  10.474  1.00  0.00     0.004 A 
ATOM      4  C   UNL     1     -45.241 -51.190  11.148  1.00  0.00     0.004 A 
ATOM      5  C   UNL     1     -45.420 -52.342  11.915  1.00  0.00     0.050 A 
ATOM      6  C   UNL     1     -44.396 -53.291  12.014  1.00  0.00     0.157 A 
ENDROOT
BRANCH   1   7
ATOM      7  O   UNL     1     -42.167 -54.054  11.453  1.00  0.00    -0.493 OA
ATOM      8  C   UNL     1     -40.961 -54.056  10.695  1.00  0.00     0.278 C 
ENDBRANCH   1   7
BRANCH   6   9
ATOM      9  O   UNL     1     -44.607 -54.431  12.789  1.00  0.00    -0.504 OA
ATOM     10  H   UNL     1     -44.733 -54.386  13.793  1.00  0.00     0.293 HD
ENDBRANCH   6   9
TORSDOF 2
ENDMDL
MODEL 4
REMARK VINA RESULT:    -3.573      2.012      3.624
REMARK INTER + INTRA:          -3.930
REMARK INTER:                  -3.898
REMARK INTRA:                  -0.032
REMARK UNBOUND:                -0.043
REMARK SMILES COc1ccccc1O
REMARK SMILES IDX 3 1 4 2 5 3 6 4 7 5 8 6 2 7 1 8 9 9
REMARK H PARENT 9 10
REMARK Flexibility Score: inf
ROOT
ATOM      1  C   UNL     1     -45.896 -51.043   9.680  1.00  0.00     0.160 A 
ATOM      2  C   UNL     1     -45.758 -51.002  11.082  1.00  0.00     0.050 A 
ATOM      3  C   UNL     1     -45.350 -52.139  11.786  1.00  0.00     0.004 A 
ATOM      4  C   UNL     1     -45.077 -53.325  11.102  1.00  0.00     0.004 A 
ATOM      5  C   UNL     1     -45.211 -53.378   9.714  1.00  0.00     0.050 A 
ATOM      6  C   UNL     1     -45.618 -52.245   8.999  1.00  0.00     0.157 A 
ENDROOT
BRANCH   1   7
ATOM      7  O   UNL     1     -46.304 -49.923   8.940  1.00  0.00    -0.493 OA
ATOM      8  C   UNL     1     -45.790 -48.607   9.120  1.00  0.00     0.278 C 
ENDBRANCH   1   7
BRANCH   6   9
ATOM      9  O   UNL     1     -45.741 -52.332   7.613  1.00  0.00    -0.504 OA
ATOM     10  H   UNL     1     -44.983 -52.648   7.022  1.00  0.00     0.293 HD
ENDBRANCH   6   9
TORSDOF 2
ENDMDL
MODEL 5
REMARK VINA RESULT:    -3.565      1.859      2.687
REMARK INTER + INTRA:          -3.921
REMARK INTER:                  -3.878
REMARK INTRA:                  -0.042
REMARK UNBOUND:                -0.043
REMARK SMILES COc1ccccc1O
REMARK SMILES IDX 3 1 4 2 5 3 6 4 7 5 8 6 2 7 1 8 9 9
REMARK H PARENT 9 10
REMARK Flexibility Score: inf
ROOT
ATOM      1  C   UNL     1     -45.562 -52.637   9.064  1.00  0.00     0.160 A 
ATOM      2  C   UNL     1     -45.145 -53.450  10.138  1.00  0.00     0.050 A 
ATOM      3  C   UNL     1     -45.123 -52.942  11.440  1.00  0.00     0.004 A 
ATOM      4  C   UNL     1     -45.514 -51.625  11.685  1.00  0.00     0.004 A 
ATOM      5  C   UNL     1     -45.927 -50.811  10.629  1.00  0.00     0.050 A 
ATOM      6  C   UNL     1     -45.953 -51.309   9.321  1.00  0.00     0.157 A 
ENDROOT
BRANCH   1   7
ATOM      7  O   UNL     1     -45.596 -53.111   7.744  1.00  0.00    -0.493 OA
ATOM      8  C   UNL     1     -44.446 -53.473   6.985  1.00  0.00     0.278 C 
ENDBRANCH   1   7
BRANCH   6   9
ATOM      9  O   UNL     1     -46.372 -50.469   8.290  1.00  0.00    -0.504 OA
ATOM     10  H   UNL     1     -46.762 -50.827   7.427  1.00  0.00     0.293 HD
ENDBRANCH   6   9
TORSDOF 2
ENDMDL
MODEL 6
REMARK VINA RESULT:    -3.501      1.994      2.212
REMARK INTER + INTRA:          -3.851
REMARK INTER:                  -3.805
REMARK INTRA:                  -0.046
REMARK UNBOUND:                -0.043
REMARK SMILES COc1ccccc1O
REMARK SMILES IDX 3 1 4 2 5 3 6 4 7 5 8 6 2 7 1 8 9 9
REMARK H PARENT 9 10
REMARK Flexibility Score: inf
ROOT
ATOM      1  C   UNL     1     -43.478 -52.432  10.448  1.00  0.00     0.160 A 
ATOM      2  C   UNL     1     -44.554 -51.523  10.486  1.00  0.00     0.050 A 
ATOM      3  C   UNL     1     -45.515 -51.609  11.498  1.00  0.00     0.004 A 
ATOM      4  C   UNL     1     -45.414 -52.596  12.478  1.00  0.00     0.004 A 
ATOM      5  C   UNL     1     -44.352 -53.502  12.450  1.00  0.00     0.050 A 
ATOM      6  C   UNL     1     -43.384 -53.426  11.442  1.00  0.00     0.157 A 
ENDROOT
BRANCH   1   7
ATOM      7  O   UNL     1     -42.495 -52.378   9.448  1.00  0.00    -0.493 OA
ATOM      8  C   UNL     1     -42.649 -52.908   8.135  1.00  0.00     0.278 C 
ENDBRANCH   1   7
BRANCH   6   9
ATOM      9  O   UNL     1     -42.336 -54.346  11.443  1.00  0.00    -0.504 OA
ATOM     10  H   UNL     1     -42.195 -55.003  12.200  1.00  0.00     0.293 HD
ENDBRANCH   6   9
TORSDOF 2
ENDMDL
MODEL 7
REMARK VINA RESULT:    -3.497      1.249      2.037
REMARK INTER + INTRA:          -3.847
REMARK INTER:                  -3.806
REMARK INTRA:                  -0.041
REMARK UNBOUND:                -0.043
REMARK SMILES COc1ccccc1O
REMARK SMILES IDX 3 1 4 2 5 3 6 4 7 5 8 6 2 7 1 8 9 9
REMARK H PARENT 9 10
REMARK Flexibility Score: inf
ROOT
ATOM      1  C   UNL     1     -45.440 -52.249   9.195  1.00  0.00     0.160 A 
ATOM      2  C   UNL     1     -45.812 -51.084   9.897  1.00  0.00     0.050 A 
ATOM      3  C   UNL     1     -45.789 -51.064  11.294  1.00  0.00     0.004 A 
ATOM      4  C   UNL     1     -45.399 -52.200  12.005  1.00  0.00     0.004 A 
ATOM      5  C   UNL     1     -45.030 -53.359  11.320  1.00  0.00     0.050 A 
ATOM      6  C   UNL     1     -45.048 -53.391   9.921  1.00  0.00     0.157 A 
ENDROOT
BRANCH   1   7
ATOM      7  O   UNL     1     -45.451 -52.307   7.793  1.00  0.00    -0.493 OA
ATOM      8  C   UNL     1     -44.597 -51.542   6.947  1.00  0.00     0.278 C 
ENDBRANCH   1   7
BRANCH   6   9
ATOM      9  O   UNL     1     -44.673 -54.565   9.269  1.00  0.00    -0.504 OA
ATOM     10  H   UNL     1     -44.903 -55.482   9.631  1.00  0.00     0.293 HD
ENDBRANCH   6   9
TORSDOF 2
ENDMDL
MODEL 8
REMARK VINA RESULT:    -3.449      8.981     10.560
REMARK INTER + INTRA:          -3.795
REMARK INTER:                  -3.762
REMARK INTRA:                  -0.032
REMARK UNBOUND:                -0.043
REMARK SMILES COc1ccccc1O
REMARK SMILES IDX 3 1 4 2 5 3 6 4 7 5 8 6 2 7 1 8 9 9
REMARK H PARENT 9 10
REMARK Flexibility Score: inf
ROOT
ATOM      1  C   UNL     1     -47.105 -44.053  15.960  1.00  0.00     0.160 A 
ATOM      2  C   UNL     1     -46.350 -43.252  15.080  1.00  0.00     0.050 A 
ATOM      3  C   UNL     1     -46.337 -43.527  13.710  1.00  0.00     0.004 A 
ATOM      4  C   UNL     1     -47.073 -44.600  13.204  1.00  0.00     0.004 A 
ATOM      5  C   UNL     1     -47.823 -45.400  14.066  1.00  0.00     0.050 A 
ATOM      6  C   UNL     1     -47.844 -45.134  15.440  1.00  0.00     0.157 A 
ENDROOT
BRANCH   1   7
ATOM      7  O   UNL     1     -47.143 -43.808  17.342  1.00  0.00    -0.493 OA
ATOM      8  C   UNL     1     -47.348 -42.527  17.929  1.00  0.00     0.278 C 
ENDBRANCH   1   7
BRANCH   6   9
ATOM      9  O   UNL     1     -48.605 -45.954  16.273  1.00  0.00    -0.504 OA
ATOM     10  H   UNL     1     -48.183 -46.576  16.951  1.00  0.00     0.293 HD
ENDBRANCH   6   9
TORSDOF 2
ENDMDL
MODEL 9
REMARK VINA RESULT:    -3.416      6.757      8.487
REMARK INTER + INTRA:          -3.759
REMARK INTER:                  -3.714
REMARK INTRA:                  -0.045
REMARK UNBOUND:                -0.043
REMARK SMILES COc1ccccc1O
REMARK SMILES IDX 3 1 4 2 5 3 6 4 7 5 8 6 2 7 1 8 9 9
REMARK H PARENT 9 10
REMARK Flexibility Score: inf
ROOT
ATOM      1  C   UNL     1     -47.080 -45.489  14.272  1.00  0.00     0.160 A 
ATOM      2  C   UNL     1     -47.130 -44.773  13.058  1.00  0.00     0.050 A 
ATOM      3  C   UNL     1     -46.518 -45.285  11.910  1.00  0.00     0.004 A 
ATOM      4  C   UNL     1     -45.851 -46.510  11.960  1.00  0.00     0.004 A 
ATOM      5  C   UNL     1     -45.795 -47.227  13.156  1.00  0.00     0.050 A 
ATOM      6  C   UNL     1     -46.404 -46.724  14.311  1.00  0.00     0.157 A 
ENDROOT
BRANCH   1   7
ATOM      7  O   UNL     1     -47.682 -45.007  15.444  1.00  0.00    -0.493 OA
ATOM      8  C   UNL     1     -47.174 -43.932  16.229  1.00  0.00     0.278 C 
ENDBRANCH   1   7
BRANCH   6   9
ATOM      9  O   UNL     1     -46.329 -47.466  15.490  1.00  0.00    -0.504 OA
ATOM     10  H   UNL     1     -47.058 -47.440  16.192  1.00  0.00     0.293 HD
ENDBRANCH   6   9
TORSDOF 2
ENDMDL
