MODEL 1
REMARK VINA RESULT:    -7.894      0.000      0.000
REMARK INTER + INTRA:          -8.586
REMARK INTER:                  -8.586
REMARK INTRA:                   0.000
REMARK UNBOUND:                 0.000
REMARK SMILES Cc1cc(O)c2c(c1)C(=O)c1cc(O)cc(O)c1C2=O
REMARK SMILES IDX 1 1 2 2 8 3 7 4 6 5 4 6 3 7 19 8 20 9 18 10 11 11 9 12 10 13
REMARK SMILES IDX 12 14 13 15 15 16 16 17 5 18 17 20 14 22
REMARK H PARENT 5 19 17 21 14 23
REMARK Flexibility Score: inf
ROOT
ATOM      1  C   UNL     1     164.767 156.888 151.551  1.00  0.00     0.044 C 
ATOM      2  C   UNL     1     164.978 155.437 151.233  1.00  0.00    -0.047 A 
ATOM      3  C   UNL     1     166.224 154.990 150.780  1.00  0.00     0.016 A 
ATOM      4  C   UNL     1     166.440 153.628 150.507  1.00  0.00     0.038 A 
ATOM      5  C   UNL     1     165.393 152.699 150.693  1.00  0.00     0.076 A 
ATOM      6  C   UNL     1     164.160 153.146 151.234  1.00  0.00     0.127 A 
ATOM      7  C   UNL     1     163.961 154.508 151.478  1.00  0.00     0.050 A 
ATOM      8  C   UNL     1     165.612 151.296 150.256  1.00  0.00     0.201 C 
ATOM      9  O   UNL     1     164.637 150.603 149.860  1.00  0.00    -0.288 OA
ATOM     10  C   UNL     1     166.996 150.778 150.107  1.00  0.00     0.076 A 
ATOM     11  C   UNL     1     168.042 151.711 149.923  1.00  0.00     0.041 A 
ATOM     12  C   UNL     1     167.765 153.162 150.034  1.00  0.00     0.194 C 
ATOM     13  O   UNL     1     168.664 154.000 149.747  1.00  0.00    -0.289 OA
ATOM     14  C   UNL     1     169.342 151.257 149.642  1.00  0.00     0.059 A 
ATOM     15  C   UNL     1     169.613 149.888 149.557  1.00  0.00     0.120 A 
ATOM     16  C   UNL     1     168.592 148.964 149.777  1.00  0.00     0.093 A 
ATOM     17  C   UNL     1     167.294 149.390 150.079  1.00  0.00     0.131 A 
ENDROOT
BRANCH   6  18
ATOM     18  O   UNL     1     163.125 152.272 151.577  1.00  0.00    -0.507 OA
ATOM     19  H   UNL     1     163.073 151.788 152.462  1.00  0.00     0.293 HD
ENDBRANCH   6  18
BRANCH  17  20
ATOM     20  O   UNL     1     166.346 148.408 150.376  1.00  0.00    -0.507 OA
ATOM     21  H   UNL     1     165.562 148.557 150.996  1.00  0.00     0.293 HD
ENDBRANCH  17  20
BRANCH  15  22
ATOM     22  O   UNL     1     170.897 149.435 149.266  1.00  0.00    -0.508 OA
ATOM     23  H   UNL     1     171.130 149.043 148.361  1.00  0.00     0.293 HD
ENDBRANCH  15  22
TORSDOF 3
ENDMDL
MODEL 2
REMARK VINA RESULT:    -7.179      1.693      3.688
REMARK INTER + INTRA:          -7.808
REMARK INTER:                  -7.808
REMARK INTRA:                   0.000
REMARK UNBOUND:                 0.000
REMARK SMILES Cc1cc(O)c2c(c1)C(=O)c1cc(O)cc(O)c1C2=O
REMARK SMILES IDX 1 1 2 2 8 3 7 4 6 5 4 6 3 7 19 8 20 9 18 10 11 11 9 12 10 13
REMARK SMILES IDX 12 14 13 15 15 16 16 17 5 18 17 20 14 22
REMARK H PARENT 5 19 17 21 14 23
REMARK Flexibility Score: inf
ROOT
ATOM      1  C   UNL     1     164.397 156.215 151.853  1.00  0.00     0.044 C 
ATOM      2  C   UNL     1     165.121 155.017 151.310  1.00  0.00    -0.047 A 
ATOM      3  C   UNL     1     164.477 153.776 151.245  1.00  0.00     0.016 A 
ATOM      4  C   UNL     1     165.136 152.656 150.712  1.00  0.00     0.038 A 
ATOM      5  C   UNL     1     166.460 152.779 150.235  1.00  0.00     0.076 A 
ATOM      6  C   UNL     1     167.075 154.057 150.225  1.00  0.00     0.127 A 
ATOM      7  C   UNL     1     166.408 155.154 150.779  1.00  0.00     0.050 A 
ATOM      8  C   UNL     1     167.174 151.545 149.816  1.00  0.00     0.201 C 
ATOM      9  O   UNL     1     168.426 151.475 149.936  1.00  0.00    -0.288 OA
ATOM     10  C   UNL     1     166.398 150.336 149.438  1.00  0.00     0.076 A 
ATOM     11  C   UNL     1     165.073 150.217 149.915  1.00  0.00     0.041 A 
ATOM     12  C   UNL     1     164.445 151.347 150.641  1.00  0.00     0.194 C 
ATOM     13  O   UNL     1     163.312 151.200 151.178  1.00  0.00    -0.289 OA
ATOM     14  C   UNL     1     164.354 149.030 149.694  1.00  0.00     0.059 A 
ATOM     15  C   UNL     1     164.935 147.969 148.993  1.00  0.00     0.120 A 
ATOM     16  C   UNL     1     166.228 148.098 148.486  1.00  0.00     0.093 A 
ATOM     17  C   UNL     1     166.956 149.277 148.674  1.00  0.00     0.131 A 
ENDROOT
BRANCH   6  18
ATOM     18  O   UNL     1     168.324 154.290 149.645  1.00  0.00    -0.507 OA
ATOM     19  H   UNL     1     168.906 155.084 149.871  1.00  0.00     0.293 HD
ENDBRANCH   6  18
BRANCH  17  20
ATOM     20  O   UNL     1     168.207 149.367 148.060  1.00  0.00    -0.507 OA
ATOM     21  H   UNL     1     168.598 148.640 147.476  1.00  0.00     0.293 HD
ENDBRANCH  17  20
BRANCH  15  22
ATOM     22  O   UNL     1     164.231 146.786 148.784  1.00  0.00    -0.508 OA
ATOM     23  H   UNL     1     164.061 146.129 149.536  1.00  0.00     0.293 HD
ENDBRANCH  15  22
TORSDOF 3
ENDMDL
MODEL 3
REMARK VINA RESULT:    -7.158      1.824      3.697
REMARK INTER + INTRA:          -7.785
REMARK INTER:                  -7.785
REMARK INTRA:                   0.000
REMARK UNBOUND:                 0.000
REMARK SMILES Cc1cc(O)c2c(c1)C(=O)c1cc(O)cc(O)c1C2=O
REMARK SMILES IDX 1 1 2 2 8 3 7 4 6 5 4 6 3 7 19 8 20 9 18 10 11 11 9 12 10 13
REMARK SMILES IDX 12 14 13 15 15 16 16 17 5 18 17 20 14 22
REMARK H PARENT 5 19 17 21 14 23
REMARK Flexibility Score: inf
ROOT
ATOM      1  C   UNL     1     163.416 152.906 151.758  1.00  0.00     0.044 C 
ATOM      2  C   UNL     1     164.755 152.665 151.125  1.00  0.00    -0.047 A 
ATOM      3  C   UNL     1     165.194 151.358 150.884  1.00  0.00     0.016 A 
ATOM      4  C   UNL     1     166.433 151.122 150.265  1.00  0.00     0.038 A 
ATOM      5  C   UNL     1     167.246 152.212 149.879  1.00  0.00     0.076 A 
ATOM      6  C   UNL     1     166.757 153.533 150.049  1.00  0.00     0.127 A 
ATOM      7  C   UNL     1     165.530 153.743 150.686  1.00  0.00     0.050 A 
ATOM      8  C   UNL     1     168.610 151.925 149.364  1.00  0.00     0.201 C 
ATOM      9  O   UNL     1     169.536 152.758 149.545  1.00  0.00    -0.288 OA
ATOM     10  C   UNL     1     168.920 150.582 148.809  1.00  0.00     0.076 A 
ATOM     11  C   UNL     1     168.104 149.494 149.194  1.00  0.00     0.041 A 
ATOM     12  C   UNL     1     166.888 149.736 150.007  1.00  0.00     0.194 C 
ATOM     13  O   UNL     1     166.228 148.760 150.459  1.00  0.00    -0.289 OA
ATOM     14  C   UNL     1     168.446 148.190 148.801  1.00  0.00     0.059 A 
ATOM     15  C   UNL     1     169.581 147.959 148.017  1.00  0.00     0.120 A 
ATOM     16  C   UNL     1     170.365 149.034 147.601  1.00  0.00     0.093 A 
ATOM     17  C   UNL     1     170.035 150.344 147.962  1.00  0.00     0.131 A 
ENDROOT
BRANCH   6  18
ATOM     18  O   UNL     1     167.435 154.656 149.569  1.00  0.00    -0.507 OA
ATOM     19  H   UNL     1     167.951 154.669 148.701  1.00  0.00     0.293 HD
ENDBRANCH   6  18
BRANCH  17  20
ATOM     20  O   UNL     1     170.815 151.375 147.433  1.00  0.00    -0.507 OA
ATOM     21  H   UNL     1     170.964 151.512 146.442  1.00  0.00     0.293 HD
ENDBRANCH  17  20
BRANCH  15  22
ATOM     22  O   UNL     1     169.930 146.666 147.636  1.00  0.00    -0.508 OA
ATOM     23  H   UNL     1     170.699 146.173 148.074  1.00  0.00     0.293 HD
ENDBRANCH  15  22
TORSDOF 3
ENDMDL
MODEL 4
REMARK VINA RESULT:    -7.118      2.067      5.382
REMARK INTER + INTRA:          -7.743
REMARK INTER:                  -7.743
REMARK INTRA:                   0.000
REMARK UNBOUND:                 0.000
REMARK SMILES Cc1cc(O)c2c(c1)C(=O)c1cc(O)cc(O)c1C2=O
REMARK SMILES IDX 1 1 2 2 8 3 7 4 6 5 4 6 3 7 19 8 20 9 18 10 11 11 9 12 10 13
REMARK SMILES IDX 12 14 13 15 15 16 16 17 5 18 17 20 14 22
REMARK H PARENT 5 19 17 21 14 23
REMARK Flexibility Score: inf
ROOT
ATOM      1  C   UNL     1     168.888 150.531 146.241  1.00  0.00     0.044 C 
ATOM      2  C   UNL     1     167.840 150.872 147.259  1.00  0.00    -0.047 A 
ATOM      3  C   UNL     1     168.041 151.936 148.146  1.00  0.00     0.016 A 
ATOM      4  C   UNL     1     167.054 152.282 149.084  1.00  0.00     0.038 A 
ATOM      5  C   UNL     1     165.845 151.552 149.134  1.00  0.00     0.076 A 
ATOM      6  C   UNL     1     165.613 150.531 148.177  1.00  0.00     0.127 A 
ATOM      7  C   UNL     1     166.618 150.191 147.266  1.00  0.00     0.050 A 
ATOM      8  C   UNL     1     164.889 151.850 150.232  1.00  0.00     0.201 C 
ATOM      9  O   UNL     1     164.141 150.939 150.675  1.00  0.00    -0.288 OA
ATOM     10  C   UNL     1     164.951 153.161 150.928  1.00  0.00     0.076 A 
ATOM     11  C   UNL     1     166.161 153.890 150.874  1.00  0.00     0.041 A 
ATOM     12  C   UNL     1     167.271 153.414 150.015  1.00  0.00     0.194 C 
ATOM     13  O   UNL     1     168.394 153.988 150.060  1.00  0.00    -0.289 OA
ATOM     14  C   UNL     1     166.304 155.065 151.630  1.00  0.00     0.059 A 
ATOM     15  C   UNL     1     165.252 155.528 152.427  1.00  0.00     0.120 A 
ATOM     16  C   UNL     1     164.044 154.835 152.451  1.00  0.00     0.093 A 
ATOM     17  C   UNL     1     163.869 153.674 151.691  1.00  0.00     0.131 A 
ENDROOT
BRANCH   6  18
ATOM     18  O   UNL     1     164.393 149.859 148.070  1.00  0.00    -0.507 OA
ATOM     19  H   UNL     1     164.269 149.008 147.540  1.00  0.00     0.293 HD
ENDBRANCH   6  18
BRANCH  17  20
ATOM     20  O   UNL     1     162.602 153.084 151.696  1.00  0.00    -0.507 OA
ATOM     21  H   UNL     1     161.816 153.444 151.171  1.00  0.00     0.293 HD
ENDBRANCH  17  20
BRANCH  15  22
ATOM     22  O   UNL     1     165.395 156.686 153.188  1.00  0.00    -0.508 OA
ATOM     23  H   UNL     1     164.608 157.292 153.386  1.00  0.00     0.293 HD
ENDBRANCH  15  22
TORSDOF 3
ENDMDL
MODEL 5
REMARK VINA RESULT:    -6.822      2.169      6.017
REMARK INTER + INTRA:          -7.420
REMARK INTER:                  -7.420
REMARK INTRA:                   0.000
REMARK UNBOUND:                 0.000
REMARK SMILES Cc1cc(O)c2c(c1)C(=O)c1cc(O)cc(O)c1C2=O
REMARK SMILES IDX 1 1 2 2 8 3 7 4 6 5 4 6 3 7 19 8 20 9 18 10 11 11 9 12 10 13
REMARK SMILES IDX 12 14 13 15 15 16 16 17 5 18 17 20 14 22
REMARK H PARENT 5 19 17 21 14 23
REMARK Flexibility Score: inf
ROOT
ATOM      1  C   UNL     1     163.726 146.897 149.470  1.00  0.00     0.044 C 
ATOM      2  C   UNL     1     164.417 148.224 149.354  1.00  0.00    -0.047 A 
ATOM      3  C   UNL     1     163.889 149.350 149.995  1.00  0.00     0.016 A 
ATOM      4  C   UNL     1     164.545 150.591 149.917  1.00  0.00     0.038 A 
ATOM      5  C   UNL     1     165.748 150.706 149.186  1.00  0.00     0.076 A 
ATOM      6  C   UNL     1     166.321 149.543 148.610  1.00  0.00     0.127 A 
ATOM      7  C   UNL     1     165.641 148.324 148.684  1.00  0.00     0.050 A 
ATOM      8  C   UNL     1     166.333 152.060 149.002  1.00  0.00     0.201 C 
ATOM      9  O   UNL     1     167.001 152.318 147.966  1.00  0.00    -0.288 OA
ATOM     10  C   UNL     1     165.970 153.153 149.940  1.00  0.00     0.076 A 
ATOM     11  C   UNL     1     164.766 153.034 150.672  1.00  0.00     0.041 A 
ATOM     12  C   UNL     1     163.983 151.777 150.604  1.00  0.00     0.194 C 
ATOM     13  O   UNL     1     162.848 151.712 151.152  1.00  0.00    -0.289 OA
ATOM     14  C   UNL     1     164.321 154.105 151.464  1.00  0.00     0.059 A 
ATOM     15  C   UNL     1     165.067 155.284 151.547  1.00  0.00     0.120 A 
ATOM     16  C   UNL     1     166.275 155.390 150.859  1.00  0.00     0.093 A 
ATOM     17  C   UNL     1     166.751 154.331 150.080  1.00  0.00     0.131 A 
ENDROOT
BRANCH   6  18
ATOM     18  O   UNL     1     167.574 149.545 147.993  1.00  0.00    -0.507 OA
ATOM     19  H   UNL     1     168.323 148.915 148.246  1.00  0.00     0.293 HD
ENDBRANCH   6  18
BRANCH  17  20
ATOM     20  O   UNL     1     168.011 154.475 149.494  1.00  0.00    -0.507 OA
ATOM     21  H   UNL     1     168.437 153.773 148.904  1.00  0.00     0.293 HD
ENDBRANCH  17  20
BRANCH  15  22
ATOM     22  O   UNL     1     164.622 156.353 152.321  1.00  0.00    -0.508 OA
ATOM     23  H   UNL     1     164.655 156.325 153.334  1.00  0.00     0.293 HD
ENDBRANCH  15  22
TORSDOF 3
ENDMDL
MODEL 6
REMARK VINA RESULT:    -6.741      1.409      6.456
REMARK INTER + INTRA:          -7.332
REMARK INTER:                  -7.332
REMARK INTRA:                   0.000
REMARK UNBOUND:                 0.000
REMARK SMILES Cc1cc(O)c2c(c1)C(=O)c1cc(O)cc(O)c1C2=O
REMARK SMILES IDX 1 1 2 2 8 3 7 4 6 5 4 6 3 7 19 8 20 9 18 10 11 11 9 12 10 13
REMARK SMILES IDX 12 14 13 15 15 16 16 17 5 18 17 20 14 22
REMARK H PARENT 5 19 17 21 14 23
REMARK Flexibility Score: inf
ROOT
ATOM      1  C   UNL     1     168.227 145.800 149.351  1.00  0.00     0.044 C 
ATOM      2  C   UNL     1     168.058 147.286 149.472  1.00  0.00    -0.047 A 
ATOM      3  C   UNL     1     166.792 147.833 149.705  1.00  0.00     0.016 A 
ATOM      4  C   UNL     1     166.628 149.222 149.847  1.00  0.00     0.038 A 
ATOM      5  C   UNL     1     167.749 150.075 149.757  1.00  0.00     0.076 A 
ATOM      6  C   UNL     1     169.041 149.507 149.606  1.00  0.00     0.127 A 
ATOM      7  C   UNL     1     169.177 148.125 149.446  1.00  0.00     0.050 A 
ATOM      8  C   UNL     1     167.518 151.543 149.765  1.00  0.00     0.201 C 
ATOM      9  O   UNL     1     168.307 152.305 149.146  1.00  0.00    -0.288 OA
ATOM     10  C   UNL     1     166.261 152.089 150.340  1.00  0.00     0.076 A 
ATOM     11  C   UNL     1     165.141 151.231 150.431  1.00  0.00     0.041 A 
ATOM     12  C   UNL     1     165.284 149.793 150.101  1.00  0.00     0.194 C 
ATOM     13  O   UNL     1     164.264 149.051 150.058  1.00  0.00    -0.289 OA
ATOM     14  C   UNL     1     163.899 151.744 150.840  1.00  0.00     0.059 A 
ATOM     15  C   UNL     1     163.765 153.096 151.172  1.00  0.00     0.120 A 
ATOM     16  C   UNL     1     164.876 153.936 151.122  1.00  0.00     0.093 A 
ATOM     17  C   UNL     1     166.128 153.445 150.738  1.00  0.00     0.131 A 
ENDROOT
BRANCH   6  18
ATOM     18  O   UNL     1     170.210 150.270 149.647  1.00  0.00    -0.507 OA
ATOM     19  H   UNL     1     170.439 150.979 148.965  1.00  0.00     0.293 HD
ENDBRANCH   6  18
BRANCH  17  20
ATOM     20  O   UNL     1     167.212 154.324 150.800  1.00  0.00    -0.507 OA
ATOM     21  H   UNL     1     167.116 155.322 150.926  1.00  0.00     0.293 HD
ENDBRANCH  17  20
BRANCH  15  22
ATOM     22  O   UNL     1     162.532 153.611 151.565  1.00  0.00    -0.508 OA
ATOM     23  H   UNL     1     162.114 154.406 151.096  1.00  0.00     0.293 HD
ENDBRANCH  15  22
TORSDOF 3
ENDMDL
MODEL 7
REMARK VINA RESULT:    -6.647      1.660      2.024
REMARK INTER + INTRA:          -7.230
REMARK INTER:                  -7.230
REMARK INTRA:                   0.000
REMARK UNBOUND:                 0.000
REMARK SMILES Cc1cc(O)c2c(c1)C(=O)c1cc(O)cc(O)c1C2=O
REMARK SMILES IDX 1 1 2 2 8 3 7 4 6 5 4 6 3 7 19 8 20 9 18 10 11 11 9 12 10 13
REMARK SMILES IDX 12 14 13 15 15 16 16 17 5 18 17 20 14 22
REMARK H PARENT 5 19 17 21 14 23
REMARK Flexibility Score: inf
ROOT
ATOM      1  C   UNL     1     163.843 154.457 152.167  1.00  0.00     0.044 C 
ATOM      2  C   UNL     1     164.415 153.350 151.331  1.00  0.00    -0.047 A 
ATOM      3  C   UNL     1     165.667 153.500 150.725  1.00  0.00     0.016 A 
ATOM      4  C   UNL     1     166.224 152.458 149.964  1.00  0.00     0.038 A 
ATOM      5  C   UNL     1     165.517 151.245 149.809  1.00  0.00     0.076 A 
ATOM      6  C   UNL     1     164.288 151.068 150.496  1.00  0.00     0.127 A 
ATOM      7  C   UNL     1     163.744 152.127 151.230  1.00  0.00     0.050 A 
ATOM      8  C   UNL     1     166.067 150.224 148.880  1.00  0.00     0.201 C 
ATOM      9  O   UNL     1     165.286 149.446 148.271  1.00  0.00    -0.288 OA
ATOM     10  C   UNL     1     167.510 150.250 148.528  1.00  0.00     0.076 A 
ATOM     11  C   UNL     1     168.215 151.464 148.687  1.00  0.00     0.041 A 
ATOM     12  C   UNL     1     167.553 152.623 149.331  1.00  0.00     0.194 C 
ATOM     13  O   UNL     1     168.133 153.744 149.361  1.00  0.00    -0.289 OA
ATOM     14  C   UNL     1     169.543 151.565 148.237  1.00  0.00     0.059 A 
ATOM     15  C   UNL     1     170.178 150.469 147.647  1.00  0.00     0.120 A 
ATOM     16  C   UNL     1     169.498 149.257 147.525  1.00  0.00     0.093 A 
ATOM     17  C   UNL     1     168.184 149.125 147.983  1.00  0.00     0.131 A 
ENDROOT
BRANCH   6  18
ATOM     18  O   UNL     1     163.597 149.854 150.507  1.00  0.00    -0.507 OA
ATOM     19  H   UNL     1     162.977 149.557 149.767  1.00  0.00     0.293 HD
ENDBRANCH   6  18
BRANCH  17  20
ATOM     20  O   UNL     1     167.600 147.857 147.910  1.00  0.00    -0.507 OA
ATOM     21  H   UNL     1     167.852 147.165 147.218  1.00  0.00     0.293 HD
ENDBRANCH  17  20
BRANCH  15  22
ATOM     22  O   UNL     1     171.489 150.570 147.189  1.00  0.00    -0.508 OA
ATOM     23  H   UNL     1     171.739 150.325 146.238  1.00  0.00     0.293 HD
ENDBRANCH  15  22
TORSDOF 3
ENDMDL
MODEL 8
REMARK VINA RESULT:    -6.609      6.780      9.207
REMARK INTER + INTRA:          -7.189
REMARK INTER:                  -7.189
REMARK INTRA:                   0.000
REMARK UNBOUND:                 0.000
REMARK SMILES Cc1cc(O)c2c(c1)C(=O)c1cc(O)cc(O)c1C2=O
REMARK SMILES IDX 1 1 2 2 8 3 7 4 6 5 4 6 3 7 19 8 20 9 18 10 11 11 9 12 10 13
REMARK SMILES IDX 12 14 13 15 15 16 16 17 5 18 17 20 14 22
REMARK H PARENT 5 19 17 21 14 23
REMARK Flexibility Score: inf
ROOT
ATOM      1  C   UNL     1     167.538 145.419 147.709  1.00  0.00     0.044 C 
ATOM      2  C   UNL     1     168.114 145.060 149.048  1.00  0.00    -0.047 A 
ATOM      3  C   UNL     1     167.892 145.888 150.154  1.00  0.00     0.016 A 
ATOM      4  C   UNL     1     168.402 145.546 151.417  1.00  0.00     0.038 A 
ATOM      5  C   UNL     1     169.145 144.356 151.577  1.00  0.00     0.076 A 
ATOM      6  C   UNL     1     169.294 143.479 150.471  1.00  0.00     0.127 A 
ATOM      7  C   UNL     1     168.794 143.851 149.219  1.00  0.00     0.050 A 
ATOM      8  C   UNL     1     169.793 144.102 152.890  1.00  0.00     0.201 C 
ATOM      9  O   UNL     1     170.864 143.441 152.943  1.00  0.00    -0.288 OA
ATOM     10  C   UNL     1     169.284 144.784 154.108  1.00  0.00     0.076 A 
ATOM     11  C   UNL     1     168.538 145.974 153.944  1.00  0.00     0.041 A 
ATOM     12  C   UNL     1     168.158 146.425 152.585  1.00  0.00     0.194 C 
ATOM     13  O   UNL     1     167.604 147.549 152.425  1.00  0.00    -0.289 OA
ATOM     14  C   UNL     1     168.156 146.720 155.072  1.00  0.00     0.059 A 
ATOM     15  C   UNL     1     168.496 146.287 156.357  1.00  0.00     0.120 A 
ATOM     16  C   UNL     1     169.196 145.093 156.524  1.00  0.00     0.093 A 
ATOM     17  C   UNL     1     169.569 144.321 155.420  1.00  0.00     0.131 A 
ENDROOT
BRANCH   6  18
ATOM     18  O   UNL     1     169.892 142.222 150.579  1.00  0.00    -0.507 OA
ATOM     19  H   UNL     1     170.533 141.847 149.894  1.00  0.00     0.293 HD
ENDBRANCH   6  18
BRANCH  17  20
ATOM     20  O   UNL     1     170.187 143.094 155.669  1.00  0.00    -0.507 OA
ATOM     21  H   UNL     1     170.190 142.643 156.574  1.00  0.00     0.293 HD
ENDBRANCH  17  20
BRANCH  15  22
ATOM     22  O   UNL     1     168.131 147.031 157.477  1.00  0.00    -0.508 OA
ATOM     23  H   UNL     1     168.679 147.013 158.328  1.00  0.00     0.293 HD
ENDBRANCH  15  22
TORSDOF 3
ENDMDL
MODEL 9
REMARK VINA RESULT:    -6.578      1.624      6.521
REMARK INTER + INTRA:          -7.155
REMARK INTER:                  -7.155
REMARK INTRA:                   0.000
REMARK UNBOUND:                 0.000
REMARK SMILES Cc1cc(O)c2c(c1)C(=O)c1cc(O)cc(O)c1C2=O
REMARK SMILES IDX 1 1 2 2 8 3 7 4 6 5 4 6 3 7 19 8 20 9 18 10 11 11 9 12 10 13
REMARK SMILES IDX 12 14 13 15 15 16 16 17 5 18 17 20 14 22
REMARK H PARENT 5 19 17 21 14 23
REMARK Flexibility Score: inf
ROOT
ATOM      1  C   UNL     1     168.462 145.435 150.630  1.00  0.00     0.044 C 
ATOM      2  C   UNL     1     168.640 146.873 150.242  1.00  0.00    -0.047 A 
ATOM      3  C   UNL     1     167.595 147.785 150.422  1.00  0.00     0.016 A 
ATOM      4  C   UNL     1     167.762 149.140 150.088  1.00  0.00     0.038 A 
ATOM      5  C   UNL     1     168.996 149.589 149.568  1.00  0.00     0.076 A 
ATOM      6  C   UNL     1     170.078 148.677 149.468  1.00  0.00     0.127 A 
ATOM      7  C   UNL     1     169.882 147.330 149.787  1.00  0.00     0.050 A 
ATOM      8  C   UNL     1     169.088 150.993 149.089  1.00  0.00     0.201 C 
ATOM      9  O   UNL     1     169.875 151.285 148.150  1.00  0.00    -0.288 OA
ATOM     10  C   UNL     1     168.121 152.006 149.585  1.00  0.00     0.076 A 
ATOM     11  C   UNL     1     166.888 151.553 150.108  1.00  0.00     0.041 A 
ATOM     12  C   UNL     1     166.651 150.101 150.287  1.00  0.00     0.194 C 
ATOM     13  O   UNL     1     165.511 149.686 150.633  1.00  0.00    -0.289 OA
ATOM     14  C   UNL     1     165.894 152.482 150.460  1.00  0.00     0.059 A 
ATOM     15  C   UNL     1     166.121 153.854 150.311  1.00  0.00     0.120 A 
ATOM     16  C   UNL     1     167.350 154.306 149.834  1.00  0.00     0.093 A 
ATOM     17  C   UNL     1     168.363 153.402 149.497  1.00  0.00     0.131 A 
ENDROOT
BRANCH   6  18
ATOM     18  O   UNL     1     171.365 149.071 149.096  1.00  0.00    -0.507 OA
ATOM     19  H   UNL     1     171.933 149.707 149.638  1.00  0.00     0.293 HD
ENDBRANCH   6  18
BRANCH  17  20
ATOM     20  O   UNL     1     169.598 153.932 149.113  1.00  0.00    -0.507 OA
ATOM     21  H   UNL     1     170.423 153.906 149.696  1.00  0.00     0.293 HD
ENDBRANCH  17  20
BRANCH  15  22
ATOM     22  O   UNL     1     165.133 154.777 150.647  1.00  0.00    -0.508 OA
ATOM     23  H   UNL     1     164.276 154.493 151.107  1.00  0.00     0.293 HD
ENDBRANCH  15  22
TORSDOF 3
ENDMDL
