MODEL 1
REMARK VINA RESULT:    -6.859      0.000      0.000
REMARK INTER + INTRA:         -10.671
REMARK INTER:                 -10.067
REMARK INTRA:                  -0.604
REMARK UNBOUND:                -0.604
REMARK SMILES O=c1c(O[C@H]2O[C@H](CO)[C@@H](O)[C@@H](O)[C@@H]2O)c(-c2ccc(O)c(O)c2)oc2cc(O)cc(O)c12
REMARK SMILES IDX 4 1 3 2 16 3 25 4 2 5 26 6 1 7 33 8 27 9 31 10 28 11 30 12
REMARK SMILES IDX 17 13 18 14 19 15 20 16 24 17 22 18 21 19 23 21 32 23 29 25
REMARK SMILES IDX 5 27 14 28 6 29 12 30 7 31 10 32 15 33 13 35 8 37 9 38 11 40
REMARK H PARENT 21 20 23 22 32 24 29 26 15 34 13 36 9 39 11 41
REMARK Flexibility Score: inf
ROOT
ATOM      1  O   UNL     1       4.423  27.039  60.976  1.00  0.00    -0.454 OA
ENDROOT
BRANCH   1   2
ATOM      2  C   UNL     1       5.772  26.881  60.595  1.00  0.00     0.214 A 
ATOM      3  C   UNL     1       6.194  27.476  59.388  1.00  0.00     0.180 A 
ATOM      4  O   UNL     1       7.435  27.299  58.948  1.00  0.00    -0.452 OA
ATOM      5  C   UNL     1       6.720  26.135  61.334  1.00  0.00     0.239 A 
ATOM      6  C   UNL     1       8.347  26.598  59.605  1.00  0.00     0.146 A 
ATOM      7  O   UNL     1       6.398  25.599  62.428  1.00  0.00    -0.285 OA
ATOM      8  C   UNL     1       8.034  25.986  60.840  1.00  0.00     0.111 A 
ATOM      9  C   UNL     1       9.629  26.476  59.061  1.00  0.00     0.094 A 
ATOM     10  C   UNL     1       9.039  25.252  61.517  1.00  0.00     0.134 A 
ATOM     11  C   UNL     1      10.616  25.749  59.734  1.00  0.00     0.123 A 
ATOM     12  C   UNL     1      10.320  25.143  60.956  1.00  0.00     0.093 A 
BRANCH   3  13
ATOM     13  C   UNL     1       5.279  28.293  58.565  1.00  0.00     0.025 A 
ATOM     14  C   UNL     1       5.688  29.528  58.039  1.00  0.00     0.016 A 
ATOM     15  C   UNL     1       4.817  30.282  57.247  1.00  0.00     0.051 A 
ATOM     16  C   UNL     1       3.532  29.803  56.959  1.00  0.00     0.157 A 
ATOM     17  C   UNL     1       4.000  27.804  58.254  1.00  0.00     0.062 A 
ATOM     18  C   UNL     1       3.124  28.556  57.462  1.00  0.00     0.158 A 
BRANCH  16  19
ATOM     19  O   UNL     1       2.664  30.558  56.172  1.00  0.00    -0.504 OA
ATOM     20  H   UNL     1       2.608  30.428  55.168  1.00  0.00     0.293 HD
ENDBRANCH  16  19
BRANCH  18  21
ATOM     21  O   UNL     1       1.855  28.047  57.186  1.00  0.00    -0.504 OA
ATOM     22  H   UNL     1       1.226  28.498  56.533  1.00  0.00     0.293 HD
ENDBRANCH  18  21
ENDBRANCH   3  13
BRANCH  10  23
ATOM     23  O   UNL     1       8.777  24.633  62.740  1.00  0.00    -0.507 OA
ATOM     24  H   UNL     1       8.585  25.168  63.579  1.00  0.00     0.293 HD
ENDBRANCH  10  23
BRANCH  11  25
ATOM     25  O   UNL     1      11.896  25.625  59.197  1.00  0.00    -0.508 OA
ATOM     26  H   UNL     1      12.442  26.437  58.935  1.00  0.00     0.293 HD
ENDBRANCH  11  25
ENDBRANCH   1   2
BRANCH   1  27
ATOM     27  C   UNL     1       3.540  26.028  61.474  1.00  0.00     0.339 C 
ATOM     28  C   UNL     1       2.100  26.271  60.969  1.00  0.00     0.214 C 
ATOM     29  O   UNL     1       3.584  25.948  62.891  1.00  0.00    -0.332 OA
ATOM     30  C   UNL     1       1.443  27.478  61.673  1.00  0.00     0.180 C 
ATOM     31  C   UNL     1       3.166  27.160  63.500  1.00  0.00     0.179 C 
ATOM     32  C   UNL     1       1.670  27.424  63.194  1.00  0.00     0.177 C 
BRANCH  28  33
ATOM     33  O   UNL     1       1.309  25.116  61.120  1.00  0.00    -0.384 OA
ATOM     34  H   UNL     1       0.854  24.937  60.257  1.00  0.00     0.211 HD
ENDBRANCH  28  33
BRANCH  30  35
ATOM     35  O   UNL     1       1.970  28.677  61.162  1.00  0.00    -0.387 OA
ATOM     36  H   UNL     1       1.208  29.303  61.047  1.00  0.00     0.211 HD
ENDBRANCH  30  35
BRANCH  31  37
ATOM     37  C   UNL     1       3.420  27.036  65.009  1.00  0.00     0.191 C 
BRANCH  37  38
ATOM     38  O   UNL     1       3.581  28.304  65.584  1.00  0.00    -0.394 OA
ATOM     39  H   UNL     1       4.321  28.740  65.086  1.00  0.00     0.210 HD
ENDBRANCH  37  38
ENDBRANCH  31  37
BRANCH  32  40
ATOM     40  O   UNL     1       1.257  28.643  63.760  1.00  0.00    -0.387 OA
ATOM     41  H   UNL     1       0.265  28.666  63.717  1.00  0.00     0.211 HD
ENDBRANCH  32  40
ENDBRANCH   1  27
TORSDOF 12
ENDMDL
MODEL 2
REMARK VINA RESULT:    -6.766      2.298      6.819
REMARK INTER + INTRA:         -10.534
REMARK INTER:                  -9.039
REMARK INTRA:                  -1.494
REMARK UNBOUND:                -0.604
REMARK SMILES O=c1c(O[C@H]2O[C@H](CO)[C@@H](O)[C@@H](O)[C@@H]2O)c(-c2ccc(O)c(O)c2)oc2cc(O)cc(O)c12
REMARK SMILES IDX 4 1 3 2 16 3 25 4 2 5 26 6 1 7 33 8 27 9 31 10 28 11 30 12
REMARK SMILES IDX 17 13 18 14 19 15 20 16 24 17 22 18 21 19 23 21 32 23 29 25
REMARK SMILES IDX 5 27 14 28 6 29 12 30 7 31 10 32 15 33 13 35 8 37 9 38 11 40
REMARK H PARENT 21 20 23 22 32 24 29 26 15 34 13 36 9 39 11 41
REMARK Flexibility Score: inf
ROOT
ATOM      1  O   UNL     1       6.642  25.134  61.338  1.00  0.00    -0.454 OA
ENDROOT
BRANCH   1   2
ATOM      2  C   UNL     1       6.247  26.137  60.429  1.00  0.00     0.214 A 
ATOM      3  C   UNL     1       7.253  26.923  59.830  1.00  0.00     0.180 A 
ATOM      4  O   UNL     1       6.931  27.927  59.021  1.00  0.00    -0.452 OA
ATOM      5  C   UNL     1       4.900  26.425  60.106  1.00  0.00     0.239 A 
ATOM      6  C   UNL     1       5.682  28.235  58.704  1.00  0.00     0.146 A 
ATOM      7  O   UNL     1       3.965  25.740  60.600  1.00  0.00    -0.285 OA
ATOM      8  C   UNL     1       4.602  27.489  59.228  1.00  0.00     0.111 A 
ATOM      9  C   UNL     1       5.447  29.307  57.838  1.00  0.00     0.094 A 
ATOM     10  C   UNL     1       3.280  27.843  58.858  1.00  0.00     0.134 A 
ATOM     11  C   UNL     1       4.141  29.651  57.478  1.00  0.00     0.123 A 
ATOM     12  C   UNL     1       3.065  28.921  57.986  1.00  0.00     0.093 A 
BRANCH   3  13
ATOM     13  C   UNL     1       8.686  26.678  60.090  1.00  0.00     0.025 A 
ATOM     14  C   UNL     1       9.320  27.222  61.217  1.00  0.00     0.016 A 
ATOM     15  C   UNL     1      10.672  26.967  61.460  1.00  0.00     0.051 A 
ATOM     16  C   UNL     1      11.404  26.152  60.586  1.00  0.00     0.157 A 
ATOM     17  C   UNL     1       9.416  25.842  59.230  1.00  0.00     0.062 A 
ATOM     18  C   UNL     1      10.771  25.584  59.468  1.00  0.00     0.158 A 
BRANCH  16  19
ATOM     19  O   UNL     1      12.754  25.902  60.827  1.00  0.00    -0.504 OA
ATOM     20  H   UNL     1      13.222  25.091  60.438  1.00  0.00     0.293 HD
ENDBRANCH  16  19
BRANCH  18  21
ATOM     21  O   UNL     1      11.469  24.761  58.584  1.00  0.00    -0.504 OA
ATOM     22  H   UNL     1      12.193  24.127  58.898  1.00  0.00     0.293 HD
ENDBRANCH  18  21
ENDBRANCH   3  13
BRANCH  10  23
ATOM     23  O   UNL     1       2.182  27.135  59.348  1.00  0.00    -0.507 OA
ATOM     24  H   UNL     1       2.117  26.858  60.321  1.00  0.00     0.293 HD
ENDBRANCH  10  23
BRANCH  11  25
ATOM     25  O   UNL     1       3.900  30.718  56.615  1.00  0.00    -0.508 OA
ATOM     26  H   UNL     1       3.055  30.770  56.059  1.00  0.00     0.293 HD
ENDBRANCH  11  25
ENDBRANCH   1   2
BRANCH   1  27
ATOM     27  C   UNL     1       6.495  25.149  62.762  1.00  0.00     0.339 C 
ATOM     28  C   UNL     1       7.879  25.187  63.448  1.00  0.00     0.214 C 
ATOM     29  O   UNL     1       5.722  24.049  63.219  1.00  0.00    -0.332 OA
ATOM     30  C   UNL     1       8.612  23.832  63.334  1.00  0.00     0.180 C 
ATOM     31  C   UNL     1       6.336  22.808  62.907  1.00  0.00     0.179 C 
ATOM     32  C   UNL     1       7.671  22.664  63.679  1.00  0.00     0.177 C 
BRANCH  28  33
ATOM     33  O   UNL     1       7.765  25.579  64.795  1.00  0.00    -0.384 OA
ATOM     34  H   UNL     1       7.308  26.459  64.824  1.00  0.00     0.211 HD
ENDBRANCH  28  33
BRANCH  30  35
ATOM     35  O   UNL     1       9.111  23.664  62.031  1.00  0.00    -0.387 OA
ATOM     36  H   UNL     1       8.802  22.776  61.714  1.00  0.00     0.211 HD
ENDBRANCH  30  35
BRANCH  31  37
ATOM     37  C   UNL     1       5.348  21.693  63.274  1.00  0.00     0.191 C 
BRANCH  37  38
ATOM     38  O   UNL     1       5.843  20.446  62.868  1.00  0.00    -0.394 OA
ATOM     39  H   UNL     1       6.029  19.940  63.701  1.00  0.00     0.210 HD
ENDBRANCH  37  38
ENDBRANCH  31  37
BRANCH  32  40
ATOM     40  O   UNL     1       8.307  21.454  63.346  1.00  0.00    -0.387 OA
ATOM     41  H   UNL     1       8.203  21.326  62.367  1.00  0.00     0.211 HD
ENDBRANCH  32  40
ENDBRANCH   1  27
TORSDOF 12
ENDMDL
MODEL 3
REMARK VINA RESULT:    -6.759      0.978      2.120
REMARK INTER + INTRA:         -10.523
REMARK INTER:                  -9.724
REMARK INTRA:                  -0.799
REMARK UNBOUND:                -0.604
REMARK SMILES O=c1c(O[C@H]2O[C@H](CO)[C@@H](O)[C@@H](O)[C@@H]2O)c(-c2ccc(O)c(O)c2)oc2cc(O)cc(O)c12
REMARK SMILES IDX 4 1 3 2 16 3 25 4 2 5 26 6 1 7 33 8 27 9 31 10 28 11 30 12
REMARK SMILES IDX 17 13 18 14 19 15 20 16 24 17 22 18 21 19 23 21 32 23 29 25
REMARK SMILES IDX 5 27 14 28 6 29 12 30 7 31 10 32 15 33 13 35 8 37 9 38 11 40
REMARK H PARENT 21 20 23 22 32 24 29 26 15 34 13 36 9 39 11 41
REMARK Flexibility Score: inf
ROOT
ATOM      1  O   UNL     1       4.280  26.997  60.947  1.00  0.00    -0.454 OA
ENDROOT
BRANCH   1   2
ATOM      2  C   UNL     1       5.642  26.877  60.598  1.00  0.00     0.214 A 
ATOM      3  C   UNL     1       6.080  27.506  59.414  1.00  0.00     0.180 A 
ATOM      4  O   UNL     1       7.336  27.366  59.003  1.00  0.00    -0.452 OA
ATOM      5  C   UNL     1       6.588  26.138  61.347  1.00  0.00     0.239 A 
ATOM      6  C   UNL     1       8.248  26.673  59.669  1.00  0.00     0.146 A 
ATOM      7  O   UNL     1       6.250  25.573  62.421  1.00  0.00    -0.285 OA
ATOM      8  C   UNL     1       7.917  26.030  60.883  1.00  0.00     0.111 A 
ATOM      9  C   UNL     1       9.545  26.592  59.156  1.00  0.00     0.094 A 
ATOM     10  C   UNL     1       8.922  25.305  61.572  1.00  0.00     0.134 A 
ATOM     11  C   UNL     1      10.531  25.874  59.841  1.00  0.00     0.123 A 
ATOM     12  C   UNL     1      10.219  25.237  61.042  1.00  0.00     0.093 A 
BRANCH   3  13
ATOM     13  C   UNL     1       5.168  28.318  58.584  1.00  0.00     0.025 A 
ATOM     14  C   UNL     1       5.562  29.572  58.092  1.00  0.00     0.016 A 
ATOM     15  C   UNL     1       4.694  30.321  57.292  1.00  0.00     0.051 A 
ATOM     16  C   UNL     1       3.427  29.820  56.962  1.00  0.00     0.157 A 
ATOM     17  C   UNL     1       3.909  27.807  58.231  1.00  0.00     0.062 A 
ATOM     18  C   UNL     1       3.036  28.554  57.431  1.00  0.00     0.158 A 
BRANCH  16  19
ATOM     19  O   UNL     1       2.562  30.571  56.168  1.00  0.00    -0.504 OA
ATOM     20  H   UNL     1       2.311  30.276  55.231  1.00  0.00     0.293 HD
ENDBRANCH  16  19
BRANCH  18  21
ATOM     21  O   UNL     1       1.786  28.023  57.113  1.00  0.00    -0.504 OA
ATOM     22  H   UNL     1       1.041  27.956  57.796  1.00  0.00     0.293 HD
ENDBRANCH  18  21
ENDBRANCH   3  13
BRANCH  10  23
ATOM     23  O   UNL     1       8.643  24.655  62.776  1.00  0.00    -0.507 OA
ATOM     24  H   UNL     1       9.363  24.482  63.468  1.00  0.00     0.293 HD
ENDBRANCH  10  23
BRANCH  11  25
ATOM     25  O   UNL     1      11.827  25.789  59.335  1.00  0.00    -0.508 OA
ATOM     26  H   UNL     1      12.005  25.502  58.379  1.00  0.00     0.293 HD
ENDBRANCH  11  25
ENDBRANCH   1   2
BRANCH   1  27
ATOM     27  C   UNL     1       3.630  28.135  61.524  1.00  0.00     0.339 C 
ATOM     28  C   UNL     1       3.971  28.248  63.027  1.00  0.00     0.214 C 
ATOM     29  O   UNL     1       2.226  28.097  61.313  1.00  0.00    -0.332 OA
ATOM     30  C   UNL     1       3.254  27.161  63.859  1.00  0.00     0.180 C 
ATOM     31  C   UNL     1       1.633  26.962  61.925  1.00  0.00     0.179 C 
ATOM     32  C   UNL     1       1.771  27.052  63.465  1.00  0.00     0.177 C 
BRANCH  28  33
ATOM     33  O   UNL     1       3.669  29.531  63.519  1.00  0.00    -0.384 OA
ATOM     34  H   UNL     1       3.023  29.957  62.898  1.00  0.00     0.211 HD
ENDBRANCH  28  33
BRANCH  30  35
ATOM     35  O   UNL     1       3.884  25.919  63.670  1.00  0.00    -0.387 OA
ATOM     36  H   UNL     1       3.907  25.752  62.691  1.00  0.00     0.211 HD
ENDBRANCH  30  35
BRANCH  31  37
ATOM     37  C   UNL     1       0.161  26.915  61.491  1.00  0.00     0.191 C 
BRANCH  37  38
ATOM     38  O   UNL     1      -0.488  28.110  61.828  1.00  0.00    -0.394 OA
ATOM     39  H   UNL     1      -0.612  28.605  60.977  1.00  0.00     0.210 HD
ENDBRANCH  37  38
ENDBRANCH  31  37
BRANCH  32  40
ATOM     40  O   UNL     1       1.220  25.912  64.078  1.00  0.00    -0.387 OA
ATOM     41  H   UNL     1       0.395  26.201  64.550  1.00  0.00     0.211 HD
ENDBRANCH  32  40
ENDBRANCH   1  27
TORSDOF 12
ENDMDL
MODEL 4
REMARK VINA RESULT:    -6.390      1.392      1.998
REMARK INTER + INTRA:          -9.982
REMARK INTER:                  -9.128
REMARK INTRA:                  -0.854
REMARK UNBOUND:                -0.604
REMARK SMILES O=c1c(O[C@H]2O[C@H](CO)[C@@H](O)[C@@H](O)[C@@H]2O)c(-c2ccc(O)c(O)c2)oc2cc(O)cc(O)c12
REMARK SMILES IDX 4 1 3 2 16 3 25 4 2 5 26 6 1 7 33 8 27 9 31 10 28 11 30 12
REMARK SMILES IDX 17 13 18 14 19 15 20 16 24 17 22 18 21 19 23 21 32 23 29 25
REMARK SMILES IDX 5 27 14 28 6 29 12 30 7 31 10 32 15 33 13 35 8 37 9 38 11 40
REMARK H PARENT 21 20 23 22 32 24 29 26 15 34 13 36 9 39 11 41
REMARK Flexibility Score: inf
ROOT
ATOM      1  O   UNL     1       5.301  26.337  61.323  1.00  0.00    -0.454 OA
ENDROOT
BRANCH   1   2
ATOM      2  C   UNL     1       6.628  26.271  60.849  1.00  0.00     0.214 A 
ATOM      3  C   UNL     1       6.935  26.933  59.643  1.00  0.00     0.180 A 
ATOM      4  O   UNL     1       8.152  26.843  59.116  1.00  0.00    -0.452 OA
ATOM      5  C   UNL     1       7.662  25.552  61.494  1.00  0.00     0.239 A 
ATOM      6  C   UNL     1       9.143  26.171  59.683  1.00  0.00     0.146 A 
ATOM      7  O   UNL     1       7.444  24.959  62.584  1.00  0.00    -0.285 OA
ATOM      8  C   UNL     1       8.946  25.497  60.910  1.00  0.00     0.111 A 
ATOM      9  C   UNL     1      10.390  26.142  59.052  1.00  0.00     0.094 A 
ATOM     10  C   UNL     1      10.033  24.796  61.490  1.00  0.00     0.134 A 
ATOM     11  C   UNL     1      11.457  25.448  59.630  1.00  0.00     0.123 A 
ATOM     12  C   UNL     1      11.277  24.781  60.843  1.00  0.00     0.093 A 
BRANCH   3  13
ATOM     13  C   UNL     1       5.924  27.727  58.915  1.00  0.00     0.025 A 
ATOM     14  C   UNL     1       6.294  28.851  58.161  1.00  0.00     0.016 A 
ATOM     15  C   UNL     1       5.329  29.582  57.463  1.00  0.00     0.051 A 
ATOM     16  C   UNL     1       3.984  29.189  57.497  1.00  0.00     0.157 A 
ATOM     17  C   UNL     1       4.580  27.320  58.927  1.00  0.00     0.062 A 
ATOM     18  C   UNL     1       3.610  28.050  58.230  1.00  0.00     0.158 A 
BRANCH  16  19
ATOM     19  O   UNL     1       3.022  29.922  56.803  1.00  0.00    -0.504 OA
ATOM     20  H   UNL     1       2.893  30.914  56.964  1.00  0.00     0.293 HD
ENDBRANCH  16  19
BRANCH  18  21
ATOM     21  O   UNL     1       2.282  27.627  58.277  1.00  0.00    -0.504 OA
ATOM     22  H   UNL     1       1.510  28.281  58.317  1.00  0.00     0.293 HD
ENDBRANCH  18  21
ENDBRANCH   3  13
BRANCH  10  23
ATOM     23  O   UNL     1       9.887  24.118  62.701  1.00  0.00    -0.507 OA
ATOM     24  H   UNL     1       9.119  23.476  62.864  1.00  0.00     0.293 HD
ENDBRANCH  10  23
BRANCH  11  25
ATOM     25  O   UNL     1      12.703  25.416  59.007  1.00  0.00    -0.508 OA
ATOM     26  H   UNL     1      13.413  24.744  59.275  1.00  0.00     0.293 HD
ENDBRANCH  11  25
ENDBRANCH   1   2
BRANCH   1  27
ATOM     27  C   UNL     1       4.862  26.791  62.609  1.00  0.00     0.339 C 
ATOM     28  C   UNL     1       3.509  26.143  62.978  1.00  0.00     0.214 C 
ATOM     29  O   UNL     1       4.789  28.208  62.664  1.00  0.00    -0.332 OA
ATOM     30  C   UNL     1       2.347  26.731  62.148  1.00  0.00     0.180 C 
ATOM     31  C   UNL     1       3.851  28.724  61.732  1.00  0.00     0.179 C 
ATOM     32  C   UNL     1       2.419  28.267  62.105  1.00  0.00     0.177 C 
BRANCH  28  33
ATOM     33  O   UNL     1       3.248  26.267  64.356  1.00  0.00    -0.384 OA
ATOM     34  H   UNL     1       4.076  26.586  64.800  1.00  0.00     0.211 HD
ENDBRANCH  28  33
BRANCH  30  35
ATOM     35  O   UNL     1       2.388  26.222  60.838  1.00  0.00    -0.387 OA
ATOM     36  H   UNL     1       1.452  26.201  60.506  1.00  0.00     0.211 HD
ENDBRANCH  30  35
BRANCH  31  37
ATOM     37  C   UNL     1       3.977  30.254  61.741  1.00  0.00     0.191 C 
BRANCH  37  38
ATOM     38  O   UNL     1       3.878  30.761  60.439  1.00  0.00    -0.394 OA
ATOM     39  H   UNL     1       4.432  31.585  60.423  1.00  0.00     0.210 HD
ENDBRANCH  37  38
ENDBRANCH  31  37
BRANCH  32  40
ATOM     40  O   UNL     1       1.487  28.741  61.165  1.00  0.00    -0.387 OA
ATOM     41  H   UNL     1       1.587  28.186  60.346  1.00  0.00     0.211 HD
ENDBRANCH  32  40
ENDBRANCH   1  27
TORSDOF 12
ENDMDL
MODEL 5
REMARK VINA RESULT:    -6.294      1.636      3.062
REMARK INTER + INTRA:          -9.842
REMARK INTER:                  -8.178
REMARK INTRA:                  -1.663
REMARK UNBOUND:                -0.604
REMARK SMILES O=c1c(O[C@H]2O[C@H](CO)[C@@H](O)[C@@H](O)[C@@H]2O)c(-c2ccc(O)c(O)c2)oc2cc(O)cc(O)c12
REMARK SMILES IDX 4 1 3 2 16 3 25 4 2 5 26 6 1 7 33 8 27 9 31 10 28 11 30 12
REMARK SMILES IDX 17 13 18 14 19 15 20 16 24 17 22 18 21 19 23 21 32 23 29 25
REMARK SMILES IDX 5 27 14 28 6 29 12 30 7 31 10 32 15 33 13 35 8 37 9 38 11 40
REMARK H PARENT 21 20 23 22 32 24 29 26 15 34 13 36 9 39 11 41
REMARK Flexibility Score: inf
ROOT
ATOM      1  O   UNL     1       6.357  26.979  62.106  1.00  0.00    -0.454 OA
ENDROOT
BRANCH   1   2
ATOM      2  C   UNL     1       7.559  26.662  61.439  1.00  0.00     0.214 A 
ATOM      3  C   UNL     1       7.565  26.699  60.029  1.00  0.00     0.180 A 
ATOM      4  O   UNL     1       8.650  26.341  59.351  1.00  0.00    -0.452 OA
ATOM      5  C   UNL     1       8.750  26.277  62.098  1.00  0.00     0.239 A 
ATOM      6  C   UNL     1       9.780  25.964  59.931  1.00  0.00     0.146 A 
ATOM      7  O   UNL     1       8.802  26.245  63.356  1.00  0.00    -0.285 OA
ATOM      8  C   UNL     1       9.887  25.921  61.340  1.00  0.00     0.111 A 
ATOM      9  C   UNL     1      10.869  25.613  59.128  1.00  0.00     0.094 A 
ATOM     10  C   UNL     1      11.115  25.521  61.923  1.00  0.00     0.134 A 
ATOM     11  C   UNL     1      12.077  25.218  59.711  1.00  0.00     0.123 A 
ATOM     12  C   UNL     1      12.197  25.175  61.101  1.00  0.00     0.093 A 
BRANCH   3  13
ATOM     13  C   UNL     1       6.374  27.113  59.259  1.00  0.00     0.025 A 
ATOM     14  C   UNL     1       5.248  26.281  59.167  1.00  0.00     0.016 A 
ATOM     15  C   UNL     1       4.122  26.693  58.450  1.00  0.00     0.051 A 
ATOM     16  C   UNL     1       4.102  27.949  57.828  1.00  0.00     0.157 A 
ATOM     17  C   UNL     1       6.342  28.380  58.657  1.00  0.00     0.062 A 
ATOM     18  C   UNL     1       5.217  28.798  57.936  1.00  0.00     0.158 A 
BRANCH  16  19
ATOM     19  O   UNL     1       2.979  28.357  57.110  1.00  0.00    -0.504 OA
ATOM     20  H   UNL     1       2.082  27.898  57.221  1.00  0.00     0.293 HD
ENDBRANCH  16  19
BRANCH  18  21
ATOM     21  O   UNL     1       5.225  30.057  57.337  1.00  0.00    -0.504 OA
ATOM     22  H   UNL     1       6.074  30.475  56.976  1.00  0.00     0.293 HD
ENDBRANCH  18  21
ENDBRANCH   3  13
BRANCH  10  23
ATOM     23  O   UNL     1      11.268  25.467  63.310  1.00  0.00    -0.507 OA
ATOM     24  H   UNL     1      10.478  25.323  63.928  1.00  0.00     0.293 HD
ENDBRANCH  10  23
BRANCH  11  25
ATOM     25  O   UNL     1      13.167  24.867  58.916  1.00  0.00    -0.508 OA
ATOM     26  H   UNL     1      13.351  25.330  58.034  1.00  0.00     0.293 HD
ENDBRANCH  11  25
ENDBRANCH   1   2
BRANCH   1  27
ATOM     27  C   UNL     1       6.095  28.127  62.921  1.00  0.00     0.339 C 
ATOM     28  C   UNL     1       5.410  27.708  64.241  1.00  0.00     0.214 C 
ATOM     29  O   UNL     1       5.327  29.097  62.224  1.00  0.00    -0.332 OA
ATOM     30  C   UNL     1       3.943  27.282  64.013  1.00  0.00     0.180 C 
ATOM     31  C   UNL     1       4.055  28.591  61.850  1.00  0.00     0.179 C 
ATOM     32  C   UNL     1       3.208  28.288  63.110  1.00  0.00     0.177 C 
BRANCH  28  33
ATOM     33  O   UNL     1       5.487  28.737  65.198  1.00  0.00    -0.384 OA
ATOM     34  H   UNL     1       4.563  29.025  65.417  1.00  0.00     0.211 HD
ENDBRANCH  28  33
BRANCH  30  35
ATOM     35  O   UNL     1       3.899  26.005  63.427  1.00  0.00    -0.387 OA
ATOM     36  H   UNL     1       3.629  26.131  62.480  1.00  0.00     0.211 HD
ENDBRANCH  30  35
BRANCH  31  37
ATOM     37  C   UNL     1       3.380  29.640  60.955  1.00  0.00     0.191 C 
BRANCH  37  38
ATOM     38  O   UNL     1       2.173  29.145  60.445  1.00  0.00    -0.394 OA
ATOM     39  H   UNL     1       2.414  28.386  59.854  1.00  0.00     0.210 HD
ENDBRANCH  37  38
ENDBRANCH  31  37
BRANCH  32  40
ATOM     40  O   UNL     1       1.960  27.749  62.751  1.00  0.00    -0.387 OA
ATOM     41  H   UNL     1       1.779  26.988  63.363  1.00  0.00     0.211 HD
ENDBRANCH  32  40
ENDBRANCH   1  27
TORSDOF 12
ENDMDL
MODEL 6
REMARK VINA RESULT:    -6.286      2.121      6.767
REMARK INTER + INTRA:          -9.829
REMARK INTER:                  -8.331
REMARK INTRA:                  -1.498
REMARK UNBOUND:                -0.604
REMARK SMILES O=c1c(O[C@H]2O[C@H](CO)[C@@H](O)[C@@H](O)[C@@H]2O)c(-c2ccc(O)c(O)c2)oc2cc(O)cc(O)c12
REMARK SMILES IDX 4 1 3 2 16 3 25 4 2 5 26 6 1 7 33 8 27 9 31 10 28 11 30 12
REMARK SMILES IDX 17 13 18 14 19 15 20 16 24 17 22 18 21 19 23 21 32 23 29 25
REMARK SMILES IDX 5 27 14 28 6 29 12 30 7 31 10 32 15 33 13 35 8 37 9 38 11 40
REMARK H PARENT 21 20 23 22 32 24 29 26 15 34 13 36 9 39 11 41
REMARK Flexibility Score: inf
ROOT
ATOM      1  O   UNL     1       6.617  25.461  62.012  1.00  0.00    -0.454 OA
ENDROOT
BRANCH   1   2
ATOM      2  C   UNL     1       6.203  26.338  60.987  1.00  0.00     0.214 A 
ATOM      3  C   UNL     1       7.198  26.949  60.196  1.00  0.00     0.180 A 
ATOM      4  O   UNL     1       6.866  27.836  59.264  1.00  0.00    -0.452 OA
ATOM      5  C   UNL     1       4.852  26.666  60.726  1.00  0.00     0.239 A 
ATOM      6  C   UNL     1       5.614  28.179  58.998  1.00  0.00     0.146 A 
ATOM      7  O   UNL     1       3.925  26.134  61.392  1.00  0.00    -0.285 OA
ATOM      8  C   UNL     1       4.542  27.601  59.714  1.00  0.00     0.111 A 
ATOM      9  C   UNL     1       5.368  29.119  57.992  1.00  0.00     0.094 A 
ATOM     10  C   UNL     1       3.216  27.987  59.395  1.00  0.00     0.134 A 
ATOM     11  C   UNL     1       4.058  29.495  57.683  1.00  0.00     0.123 A 
ATOM     12  C   UNL     1       2.989  28.929  58.381  1.00  0.00     0.093 A 
BRANCH   3  13
ATOM     13  C   UNL     1       8.631  26.646  60.381  1.00  0.00     0.025 A 
ATOM     14  C   UNL     1       9.355  27.202  61.447  1.00  0.00     0.016 A 
ATOM     15  C   UNL     1      10.707  26.892  61.620  1.00  0.00     0.051 A 
ATOM     16  C   UNL     1      11.348  26.010  60.739  1.00  0.00     0.157 A 
ATOM     17  C   UNL     1       9.269  25.743  59.516  1.00  0.00     0.062 A 
ATOM     18  C   UNL     1      10.623  25.430  59.685  1.00  0.00     0.158 A 
BRANCH  16  19
ATOM     19  O   UNL     1      12.697  25.706  60.912  1.00  0.00    -0.504 OA
ATOM     20  H   UNL     1      13.309  25.539  60.122  1.00  0.00     0.293 HD
ENDBRANCH  16  19
BRANCH  18  21
ATOM     21  O   UNL     1      11.229  24.542  58.797  1.00  0.00    -0.504 OA
ATOM     22  H   UNL     1      11.251  23.544  58.966  1.00  0.00     0.293 HD
ENDBRANCH  18  21
ENDBRANCH   3  13
BRANCH  10  23
ATOM     23  O   UNL     1       2.125  27.441  60.073  1.00  0.00    -0.507 OA
ATOM     24  H   UNL     1       1.989  26.439  60.147  1.00  0.00     0.293 HD
ENDBRANCH  10  23
BRANCH  11  25
ATOM     25  O   UNL     1       3.806  30.430  56.681  1.00  0.00    -0.508 OA
ATOM     26  H   UNL     1       4.188  30.324  55.749  1.00  0.00     0.293 HD
ENDBRANCH  11  25
ENDBRANCH   1   2
BRANCH   1  27
ATOM     27  C   UNL     1       6.442  24.040  62.059  1.00  0.00     0.339 C 
ATOM     28  C   UNL     1       5.753  23.623  63.377  1.00  0.00     0.214 C 
ATOM     29  O   UNL     1       7.674  23.357  61.880  1.00  0.00    -0.332 OA
ATOM     30  C   UNL     1       6.706  23.751  64.586  1.00  0.00     0.180 C 
ATOM     31  C   UNL     1       8.601  23.666  62.910  1.00  0.00     0.179 C 
ATOM     32  C   UNL     1       8.083  23.141  64.272  1.00  0.00     0.177 C 
BRANCH  28  33
ATOM     33  O   UNL     1       5.236  22.317  63.287  1.00  0.00    -0.384 OA
ATOM     34  H   UNL     1       4.807  22.215  62.399  1.00  0.00     0.211 HD
ENDBRANCH  28  33
BRANCH  30  35
ATOM     35  O   UNL     1       6.860  25.104  64.935  1.00  0.00    -0.387 OA
ATOM     36  H   UNL     1       7.641  25.447  64.426  1.00  0.00     0.211 HD
ENDBRANCH  30  35
BRANCH  31  37
ATOM     37  C   UNL     1       9.946  23.030  62.533  1.00  0.00     0.191 C 
BRANCH  37  38
ATOM     38  O   UNL     1       9.756  21.986  61.618  1.00  0.00    -0.394 OA
ATOM     39  H   UNL     1       9.094  22.317  60.957  1.00  0.00     0.210 HD
ENDBRANCH  37  38
ENDBRANCH  31  37
BRANCH  32  40
ATOM     40  O   UNL     1       8.977  23.477  65.304  1.00  0.00    -0.387 OA
ATOM     41  H   UNL     1       9.728  23.981  64.892  1.00  0.00     0.211 HD
ENDBRANCH  32  40
ENDBRANCH   1  27
TORSDOF 12
ENDMDL
MODEL 7
REMARK VINA RESULT:    -6.058      2.093      6.530
REMARK INTER + INTRA:          -9.494
REMARK INTER:                  -7.870
REMARK INTRA:                  -1.624
REMARK UNBOUND:                -0.604
REMARK SMILES O=c1c(O[C@H]2O[C@H](CO)[C@@H](O)[C@@H](O)[C@@H]2O)c(-c2ccc(O)c(O)c2)oc2cc(O)cc(O)c12
REMARK SMILES IDX 4 1 3 2 16 3 25 4 2 5 26 6 1 7 33 8 27 9 31 10 28 11 30 12
REMARK SMILES IDX 17 13 18 14 19 15 20 16 24 17 22 18 21 19 23 21 32 23 29 25
REMARK SMILES IDX 5 27 14 28 6 29 12 30 7 31 10 32 15 33 13 35 8 37 9 38 11 40
REMARK H PARENT 21 20 23 22 32 24 29 26 15 34 13 36 9 39 11 41
REMARK Flexibility Score: inf
ROOT
ATOM      1  O   UNL     1       5.330  25.828  61.131  1.00  0.00    -0.454 OA
ENDROOT
BRANCH   1   2
ATOM      2  C   UNL     1       4.766  26.816  60.295  1.00  0.00     0.214 A 
ATOM      3  C   UNL     1       3.380  27.057  60.396  1.00  0.00     0.180 A 
ATOM      4  O   UNL     1       2.787  27.925  59.585  1.00  0.00    -0.452 OA
ATOM      5  C   UNL     1       5.501  27.556  59.340  1.00  0.00     0.239 A 
ATOM      6  C   UNL     1       3.438  28.629  58.670  1.00  0.00     0.146 A 
ATOM      7  O   UNL     1       6.744  27.391  59.223  1.00  0.00    -0.285 OA
ATOM      8  C   UNL     1       4.834  28.483  58.509  1.00  0.00     0.111 A 
ATOM      9  C   UNL     1       2.723  29.524  57.868  1.00  0.00     0.094 A 
ATOM     10  C   UNL     1       5.497  29.259  57.525  1.00  0.00     0.134 A 
ATOM     11  C   UNL     1       3.383  30.286  56.899  1.00  0.00     0.123 A 
ATOM     12  C   UNL     1       4.763  30.153  56.732  1.00  0.00     0.093 A 
BRANCH   3  13
ATOM     13  C   UNL     1       2.539  26.348  61.383  1.00  0.00     0.025 A 
ATOM     14  C   UNL     1       2.187  26.953  62.599  1.00  0.00     0.016 A 
ATOM     15  C   UNL     1       1.376  26.276  63.514  1.00  0.00     0.051 A 
ATOM     16  C   UNL     1       0.895  24.993  63.219  1.00  0.00     0.157 A 
ATOM     17  C   UNL     1       2.036  25.073  61.078  1.00  0.00     0.062 A 
ATOM     18  C   UNL     1       1.224  24.392  61.993  1.00  0.00     0.158 A 
BRANCH  16  19
ATOM     19  O   UNL     1       0.090  24.319  64.136  1.00  0.00    -0.504 OA
ATOM     20  H   UNL     1      -0.635  24.798  64.659  1.00  0.00     0.293 HD
ENDBRANCH  16  19
BRANCH  18  21
ATOM     21  O   UNL     1       0.755  23.120  61.665  1.00  0.00    -0.504 OA
ATOM     22  H   UNL     1       0.270  22.536  62.335  1.00  0.00     0.293 HD
ENDBRANCH  18  21
ENDBRANCH   3  13
BRANCH  10  23
ATOM     23  O   UNL     1       6.875  29.151  57.332  1.00  0.00    -0.507 OA
ATOM     24  H   UNL     1       7.484  28.758  58.040  1.00  0.00     0.293 HD
ENDBRANCH  10  23
BRANCH  11  25
ATOM     25  O   UNL     1       2.677  31.179  56.097  1.00  0.00    -0.508 OA
ATOM     26  H   UNL     1       2.705  32.178  56.264  1.00  0.00     0.293 HD
ENDBRANCH  11  25
ENDBRANCH   1   2
BRANCH   1  27
ATOM     27  C   UNL     1       5.811  25.997  62.468  1.00  0.00     0.339 C 
ATOM     28  C   UNL     1       7.271  26.503  62.458  1.00  0.00     0.214 C 
ATOM     29  O   UNL     1       5.683  24.802  63.224  1.00  0.00    -0.332 OA
ATOM     30  C   UNL     1       8.257  25.394  62.026  1.00  0.00     0.180 C 
ATOM     31  C   UNL     1       6.449  23.744  62.669  1.00  0.00     0.179 C 
ATOM     32  C   UNL     1       7.960  24.073  62.757  1.00  0.00     0.177 C 
BRANCH  28  33
ATOM     33  O   UNL     1       7.634  27.029  63.712  1.00  0.00    -0.384 OA
ATOM     34  H   UNL     1       8.003  26.291  64.262  1.00  0.00     0.211 HD
ENDBRANCH  28  33
BRANCH  30  35
ATOM     35  O   UNL     1       8.173  25.192  60.637  1.00  0.00    -0.387 OA
ATOM     36  H   UNL     1       7.989  24.227  60.496  1.00  0.00     0.211 HD
ENDBRANCH  30  35
BRANCH  31  37
ATOM     37  C   UNL     1       6.104  22.463  63.442  1.00  0.00     0.191 C 
BRANCH  37  38
ATOM     38  O   UNL     1       6.713  21.351  62.844  1.00  0.00    -0.394 OA
ATOM     39  H   UNL     1       6.504  21.411  61.876  1.00  0.00     0.210 HD
ENDBRANCH  37  38
ENDBRANCH  31  37
BRANCH  32  40
ATOM     40  O   UNL     1       8.725  23.048  62.173  1.00  0.00    -0.387 OA
ATOM     41  H   UNL     1       9.565  23.460  61.841  1.00  0.00     0.211 HD
ENDBRANCH  32  40
ENDBRANCH   1  27
TORSDOF 12
ENDMDL
MODEL 8
REMARK VINA RESULT:    -6.011      1.748      4.838
REMARK INTER + INTRA:          -9.426
REMARK INTER:                  -7.574
REMARK INTRA:                  -1.852
REMARK UNBOUND:                -0.604
REMARK SMILES O=c1c(O[C@H]2O[C@H](CO)[C@@H](O)[C@@H](O)[C@@H]2O)c(-c2ccc(O)c(O)c2)oc2cc(O)cc(O)c12
REMARK SMILES IDX 4 1 3 2 16 3 25 4 2 5 26 6 1 7 33 8 27 9 31 10 28 11 30 12
REMARK SMILES IDX 17 13 18 14 19 15 20 16 24 17 22 18 21 19 23 21 32 23 29 25
REMARK SMILES IDX 5 27 14 28 6 29 12 30 7 31 10 32 15 33 13 35 8 37 9 38 11 40
REMARK H PARENT 21 20 23 22 32 24 29 26 15 34 13 36 9 39 11 41
REMARK Flexibility Score: inf
ROOT
ATOM      1  O   UNL     1       6.176  27.273  60.202  1.00  0.00    -0.454 OA
ENDROOT
BRANCH   1   2
ATOM      2  C   UNL     1       7.283  26.583  60.741  1.00  0.00     0.214 A 
ATOM      3  C   UNL     1       7.142  25.997  62.016  1.00  0.00     0.180 A 
ATOM      4  O   UNL     1       8.175  25.397  62.598  1.00  0.00    -0.452 OA
ATOM      5  C   UNL     1       8.537  26.473  60.094  1.00  0.00     0.239 A 
ATOM      6  C   UNL     1       9.366  25.283  62.031  1.00  0.00     0.146 A 
ATOM      7  O   UNL     1       8.708  26.963  58.946  1.00  0.00    -0.285 OA
ATOM      8  C   UNL     1       9.603  25.811  60.741  1.00  0.00     0.111 A 
ATOM      9  C   UNL     1      10.388  24.627  62.725  1.00  0.00     0.094 A 
ATOM     10  C   UNL     1      10.888  25.662  60.163  1.00  0.00     0.134 A 
ATOM     11  C   UNL     1      11.654  24.485  62.149  1.00  0.00     0.123 A 
ATOM     12  C   UNL     1      11.899  24.998  60.875  1.00  0.00     0.093 A 
BRANCH   3  13
ATOM     13  C   UNL     1       5.863  26.042  62.753  1.00  0.00     0.025 A 
ATOM     14  C   UNL     1       4.990  24.944  62.753  1.00  0.00     0.016 A 
ATOM     15  C   UNL     1       3.791  24.995  63.470  1.00  0.00     0.051 A 
ATOM     16  C   UNL     1       3.458  26.139  64.208  1.00  0.00     0.157 A 
ATOM     17  C   UNL     1       5.539  27.177  63.513  1.00  0.00     0.062 A 
ATOM     18  C   UNL     1       4.339  27.233  64.232  1.00  0.00     0.158 A 
BRANCH  16  19
ATOM     19  O   UNL     1       2.260  26.189  64.919  1.00  0.00    -0.504 OA
ATOM     20  H   UNL     1       2.141  26.805  65.715  1.00  0.00     0.293 HD
ENDBRANCH  16  19
BRANCH  18  21
ATOM     21  O   UNL     1       4.042  28.383  64.965  1.00  0.00    -0.504 OA
ATOM     22  H   UNL     1       3.800  28.347  65.947  1.00  0.00     0.293 HD
ENDBRANCH  18  21
ENDBRANCH   3  13
BRANCH  10  23
ATOM     23  O   UNL     1      11.168  26.164  58.891  1.00  0.00    -0.507 OA
ATOM     24  H   UNL     1      11.570  25.583  58.165  1.00  0.00     0.293 HD
ENDBRANCH  10  23
BRANCH  11  25
ATOM     25  O   UNL     1      12.676  23.832  62.835  1.00  0.00    -0.508 OA
ATOM     26  H   UNL     1      13.051  22.948  62.512  1.00  0.00     0.293 HD
ENDBRANCH  11  25
ENDBRANCH   1   2
BRANCH   1  27
ATOM     27  C   UNL     1       5.207  26.766  59.278  1.00  0.00     0.339 C 
ATOM     28  C   UNL     1       5.104  27.687  58.042  1.00  0.00     0.214 C 
ATOM     29  O   UNL     1       3.941  26.587  59.897  1.00  0.00    -0.332 OA
ATOM     30  C   UNL     1       4.390  29.016  58.377  1.00  0.00     0.180 C 
ATOM     31  C   UNL     1       3.412  27.813  60.378  1.00  0.00     0.179 C 
ATOM     32  C   UNL     1       3.111  28.766  59.195  1.00  0.00     0.177 C 
BRANCH  28  33
ATOM     33  O   UNL     1       4.460  27.032  56.976  1.00  0.00    -0.384 OA
ATOM     34  H   UNL     1       3.939  27.706  56.468  1.00  0.00     0.211 HD
ENDBRANCH  28  33
BRANCH  30  35
ATOM     35  O   UNL     1       5.255  29.855  59.100  1.00  0.00    -0.387 OA
ATOM     36  H   UNL     1       5.673  30.473  58.445  1.00  0.00     0.211 HD
ENDBRANCH  30  35
BRANCH  31  37
ATOM     37  C   UNL     1       2.144  27.491  61.181  1.00  0.00     0.191 C 
BRANCH  37  38
ATOM     38  O   UNL     1       1.873  28.515  62.099  1.00  0.00    -0.394 OA
ATOM     39  H   UNL     1       1.045  28.958  61.779  1.00  0.00     0.210 HD
ENDBRANCH  37  38
ENDBRANCH  31  37
BRANCH  32  40
ATOM     40  O   UNL     1       2.624  29.999  59.665  1.00  0.00    -0.387 OA
ATOM     41  H   UNL     1       2.399  29.881  60.625  1.00  0.00     0.211 HD
ENDBRANCH  32  40
ENDBRANCH   1  27
TORSDOF 12
ENDMDL
MODEL 9
REMARK VINA RESULT:    -5.949      1.585      2.922
REMARK INTER + INTRA:          -9.335
REMARK INTER:                  -7.707
REMARK INTRA:                  -1.628
REMARK UNBOUND:                -0.604
REMARK SMILES O=c1c(O[C@H]2O[C@H](CO)[C@@H](O)[C@@H](O)[C@@H]2O)c(-c2ccc(O)c(O)c2)oc2cc(O)cc(O)c12
REMARK SMILES IDX 4 1 3 2 16 3 25 4 2 5 26 6 1 7 33 8 27 9 31 10 28 11 30 12
REMARK SMILES IDX 17 13 18 14 19 15 20 16 24 17 22 18 21 19 23 21 32 23 29 25
REMARK SMILES IDX 5 27 14 28 6 29 12 30 7 31 10 32 15 33 13 35 8 37 9 38 11 40
REMARK H PARENT 21 20 23 22 32 24 29 26 15 34 13 36 9 39 11 41
REMARK Flexibility Score: inf
ROOT
ATOM      1  O   UNL     1       4.681  25.622  61.337  1.00  0.00    -0.454 OA
ENDROOT
BRANCH   1   2
ATOM      2  C   UNL     1       6.073  25.752  61.139  1.00  0.00     0.214 A 
ATOM      3  C   UNL     1       6.521  26.674  60.170  1.00  0.00     0.180 A 
ATOM      4  O   UNL     1       7.816  26.784  59.895  1.00  0.00    -0.452 OA
ATOM      5  C   UNL     1       7.043  24.991  61.831  1.00  0.00     0.239 A 
ATOM      6  C   UNL     1       8.754  26.081  60.512  1.00  0.00     0.146 A 
ATOM      7  O   UNL     1       6.695  24.168  62.719  1.00  0.00    -0.285 OA
ATOM      8  C   UNL     1       8.411  25.152  61.520  1.00  0.00     0.111 A 
ATOM      9  C   UNL     1      10.092  26.275  60.154  1.00  0.00     0.094 A 
ATOM     10  C   UNL     1       9.444  24.425  62.164  1.00  0.00     0.134 A 
ATOM     11  C   UNL     1      11.105  25.554  60.793  1.00  0.00     0.123 A 
ATOM     12  C   UNL     1      10.780  24.636  61.793  1.00  0.00     0.093 A 
BRANCH   3  13
ATOM     13  C   UNL     1       5.579  27.527  59.418  1.00  0.00     0.025 A 
ATOM     14  C   UNL     1       5.008  27.087  58.214  1.00  0.00     0.016 A 
ATOM     15  C   UNL     1       4.105  27.899  57.522  1.00  0.00     0.051 A 
ATOM     16  C   UNL     1       3.750  29.155  58.033  1.00  0.00     0.157 A 
ATOM     17  C   UNL     1       5.203  28.775  59.940  1.00  0.00     0.062 A 
ATOM     18  C   UNL     1       4.299  29.592  59.250  1.00  0.00     0.158 A 
BRANCH  16  19
ATOM     19  O   UNL     1       2.853  29.965  57.339  1.00  0.00    -0.504 OA
ATOM     20  H   UNL     1       3.142  30.512  56.537  1.00  0.00     0.293 HD
ENDBRANCH  16  19
BRANCH  18  21
ATOM     21  O   UNL     1       3.960  30.833  59.790  1.00  0.00    -0.504 OA
ATOM     22  H   UNL     1       3.413  30.918  60.638  1.00  0.00     0.293 HD
ENDBRANCH  18  21
ENDBRANCH   3  13
BRANCH  10  23
ATOM     23  O   UNL     1       9.154  23.499  63.167  1.00  0.00    -0.507 OA
ATOM     24  H   UNL     1       8.249  23.045  63.229  1.00  0.00     0.293 HD
ENDBRANCH  10  23
BRANCH  11  25
ATOM     25  O   UNL     1      12.440  25.743  60.441  1.00  0.00    -0.508 OA
ATOM     26  H   UNL     1      12.730  25.797  59.472  1.00  0.00     0.293 HD
ENDBRANCH  11  25
ENDBRANCH   1   2
BRANCH   1  27
ATOM     27  C   UNL     1       3.856  26.393  62.218  1.00  0.00     0.339 C 
ATOM     28  C   UNL     1       3.895  25.807  63.646  1.00  0.00     0.214 C 
ATOM     29  O   UNL     1       2.525  26.490  61.733  1.00  0.00    -0.332 OA
ATOM     30  C   UNL     1       3.109  24.480  63.741  1.00  0.00     0.180 C 
ATOM     31  C   UNL     1       1.905  25.216  61.640  1.00  0.00     0.179 C 
ATOM     32  C   UNL     1       1.739  24.597  63.050  1.00  0.00     0.177 C 
BRANCH  28  33
ATOM     33  O   UNL     1       3.416  26.737  64.588  1.00  0.00    -0.384 OA
ATOM     34  H   UNL     1       2.764  26.274  65.176  1.00  0.00     0.211 HD
ENDBRANCH  28  33
BRANCH  30  35
ATOM     35  O   UNL     1       3.848  23.442  63.149  1.00  0.00    -0.387 OA
ATOM     36  H   UNL     1       4.793  23.564  63.426  1.00  0.00     0.211 HD
ENDBRANCH  30  35
BRANCH  31  37
ATOM     37  C   UNL     1       0.551  25.406  60.944  1.00  0.00     0.191 C 
BRANCH  37  38
ATOM     38  O   UNL     1       0.046  24.174  60.509  1.00  0.00    -0.394 OA
ATOM     39  H   UNL     1       0.116  23.559  61.285  1.00  0.00     0.210 HD
ENDBRANCH  37  38
ENDBRANCH  31  37
BRANCH  32  40
ATOM     40  O   UNL     1       1.162  23.318  62.964  1.00  0.00    -0.387 OA
ATOM     41  H   UNL     1       0.419  23.373  62.307  1.00  0.00     0.211 HD
ENDBRANCH  32  40
ENDBRANCH   1  27
TORSDOF 12
ENDMDL
