MODEL 1
REMARK VINA RESULT:    12.481      0.000      0.000
REMARK INTER + INTRA:          14.514
REMARK INTER:                  14.670
REMARK INTRA:                  -0.156
REMARK UNBOUND:                -0.156
REMARK SMILES CCCC[C@@H]1OC(=O)C2=C1CCC=C2
REMARK SMILES IDX 3 1 2 2 1 3 4 4 5 5 10 6 6 7 9 8 11 9 7 10 14 11 12 12 8 13
REMARK SMILES IDX 13 14
REMARK H PARENT
REMARK Flexibility Score: inf
ROOT
ATOM      1  C   UNL     1      11.613  14.881  25.481  1.00  0.00     0.004 C 
ENDROOT
BRANCH   1   2
ATOM      2  C   UNL     1      10.336  15.023  24.641  1.00  0.00    -0.003 C 
ATOM      3  C   UNL     1      10.326  16.343  23.875  1.00  0.00     0.004 C 
ENDBRANCH   1   2
BRANCH   1   4
ATOM      4  C   UNL     1      11.542  13.725  26.493  1.00  0.00     0.050 C 
BRANCH   4   5
ATOM      5  C   UNL     1      12.084  14.103  27.882  1.00  0.00     0.204 C 
ATOM      6  C   UNL     1      11.746  13.053  28.916  1.00  0.00    -0.015 C 
ATOM      7  O   UNL     1      13.516  14.097  27.886  1.00  0.00    -0.454 OA
ATOM      8  C   UNL     1      12.844  12.506  29.411  1.00  0.00     0.062 C 
ATOM      9  C   UNL     1      10.379  12.540  29.285  1.00  0.00     0.040 C 
ATOM     10  C   UNL     1      13.969  13.145  28.783  1.00  0.00     0.338 C 
ATOM     11  C   UNL     1      12.816  11.427  30.405  1.00  0.00     0.011 C 
ATOM     12  C   UNL     1      10.391  11.898  30.693  1.00  0.00     0.032 C 
ATOM     13  O   UNL     1      15.182  12.894  29.000  1.00  0.00    -0.246 OA
ATOM     14  C   UNL     1      11.644  11.087  30.957  1.00  0.00    -0.026 C 
ENDBRANCH   4   5
ENDBRANCH   1   4
TORSDOF 3
ENDMDL
MODEL 2
REMARK VINA RESULT:    12.928      1.063      1.455
REMARK INTER + INTRA:          15.039
REMARK INTER:                  14.667
REMARK INTRA:                   0.372
REMARK UNBOUND:                -0.156
REMARK SMILES CCCC[C@@H]1OC(=O)C2=C1CCC=C2
REMARK SMILES IDX 3 1 2 2 1 3 4 4 5 5 10 6 6 7 9 8 11 9 7 10 14 11 12 12 8 13
REMARK SMILES IDX 13 14
REMARK H PARENT
REMARK Flexibility Score: inf
ROOT
ATOM      1  C   UNL     1      11.906  14.110  26.885  1.00  0.00     0.004 C 
ENDROOT
BRANCH   1   2
ATOM      2  C   UNL     1      11.665  14.493  25.418  1.00  0.00    -0.003 C 
ATOM      3  C   UNL     1      10.174  14.504  25.091  1.00  0.00     0.004 C 
ENDBRANCH   1   2
BRANCH   1   4
ATOM      4  C   UNL     1      13.195  14.719  27.461  1.00  0.00     0.050 C 
BRANCH   4   5
ATOM      5  C   UNL     1      13.562  14.159  28.847  1.00  0.00     0.204 C 
ATOM      6  C   UNL     1      12.559  13.128  29.312  1.00  0.00    -0.015 C 
ATOM      7  O   UNL     1      14.779  13.409  28.785  1.00  0.00    -0.454 OA
ATOM      8  C   UNL     1      13.133  11.945  29.460  1.00  0.00     0.062 C 
ATOM      9  C   UNL     1      11.073  13.303  29.470  1.00  0.00     0.040 C 
ATOM     10  C   UNL     1      14.527  12.095  29.138  1.00  0.00     0.338 C 
ATOM     11  C   UNL     1      12.391  10.746  29.864  1.00  0.00     0.011 C 
ATOM     12  C   UNL     1      10.491  12.245  30.439  1.00  0.00     0.032 C 
ATOM     13  O   UNL     1      15.397  11.187  29.166  1.00  0.00    -0.246 OA
ATOM     14  C   UNL     1      11.116  10.876  30.256  1.00  0.00    -0.026 C 
ENDBRANCH   4   5
ENDBRANCH   1   4
TORSDOF 3
ENDMDL
MODEL 3
REMARK VINA RESULT:    13.200      2.298      4.301
REMARK INTER + INTRA:          15.358
REMARK INTER:                  15.181
REMARK INTRA:                   0.177
REMARK UNBOUND:                -0.156
REMARK SMILES CCCC[C@@H]1OC(=O)C2=C1CCC=C2
REMARK SMILES IDX 3 1 2 2 1 3 4 4 5 5 10 6 6 7 9 8 11 9 7 10 14 11 12 12 8 13
REMARK SMILES IDX 13 14
REMARK H PARENT
REMARK Flexibility Score: inf
ROOT
ATOM      1  C   UNL     1      13.256  15.354  30.808  1.00  0.00     0.004 C 
ENDROOT
BRANCH   1   2
ATOM      2  C   UNL     1      13.549  16.715  31.454  1.00  0.00    -0.003 C 
ATOM      3  C   UNL     1      13.218  16.699  32.944  1.00  0.00     0.004 C 
ENDBRANCH   1   2
BRANCH   1   4
ATOM      4  C   UNL     1      14.270  14.976  29.715  1.00  0.00     0.050 C 
BRANCH   4   5
ATOM      5  C   UNL     1      13.828  13.768  28.872  1.00  0.00     0.204 C 
ATOM      6  C   UNL     1      12.703  13.007  29.537  1.00  0.00    -0.015 C 
ATOM      7  O   UNL     1      13.233  14.197  27.642  1.00  0.00    -0.454 OA
ATOM      8  C   UNL     1      11.610  13.035  28.793  1.00  0.00     0.062 C 
ATOM      9  C   UNL     1      12.700  12.398  30.914  1.00  0.00     0.040 C 
ATOM     10  C   UNL     1      11.916  13.773  27.598  1.00  0.00     0.338 C 
ATOM     11  C   UNL     1      10.349  12.412  29.210  1.00  0.00     0.011 C 
ATOM     12  C   UNL     1      11.626  11.290  31.025  1.00  0.00     0.032 C 
ATOM     13  O   UNL     1      11.126  14.009  26.647  1.00  0.00    -0.246 OA
ATOM     14  C   UNL     1      10.338  11.646  30.310  1.00  0.00    -0.026 C 
ENDBRANCH   4   5
ENDBRANCH   1   4
TORSDOF 3
ENDMDL
MODEL 4
REMARK VINA RESULT:    15.316      2.849      4.655
REMARK INTER + INTRA:          17.845
REMARK INTER:                  18.034
REMARK INTRA:                  -0.188
REMARK UNBOUND:                -0.156
REMARK SMILES CCCC[C@@H]1OC(=O)C2=C1CCC=C2
REMARK SMILES IDX 3 1 2 2 1 3 4 4 5 5 10 6 6 7 9 8 11 9 7 10 14 11 12 12 8 13
REMARK SMILES IDX 13 14
REMARK H PARENT
REMARK Flexibility Score: inf
ROOT
ATOM      1  C   UNL     1      13.900  16.607  31.263  1.00  0.00     0.004 C 
ENDROOT
BRANCH   1   2
ATOM      2  C   UNL     1      14.260  17.125  32.663  1.00  0.00    -0.003 C 
ATOM      3  C   UNL     1      13.050  17.083  33.593  1.00  0.00     0.004 C 
ENDBRANCH   1   2
BRANCH   1   4
ATOM      4  C   UNL     1      12.953  15.395  31.296  1.00  0.00     0.050 C 
BRANCH   4   5
ATOM      5  C   UNL     1      13.414  14.244  30.385  1.00  0.00     0.204 C 
ATOM      6  C   UNL     1      12.389  13.134  30.331  1.00  0.00    -0.015 C 
ATOM      7  O   UNL     1      13.485  14.673  29.021  1.00  0.00    -0.454 OA
ATOM      8  C   UNL     1      11.921  12.983  29.103  1.00  0.00     0.062 C 
ATOM      9  C   UNL     1      11.819  12.358  31.488  1.00  0.00     0.040 C 
ATOM     10  C   UNL     1      12.594  13.935  28.261  1.00  0.00     0.338 C 
ATOM     11  C   UNL     1      10.883  12.004  28.762  1.00  0.00     0.011 C 
ATOM     12  C   UNL     1      11.235  11.006  31.013  1.00  0.00     0.032 C 
ATOM     13  O   UNL     1      12.417  14.090  27.026  1.00  0.00    -0.246 OA
ATOM     14  C   UNL     1      10.503  11.115  29.690  1.00  0.00    -0.026 C 
ENDBRANCH   4   5
ENDBRANCH   1   4
TORSDOF 3
ENDMDL
