MODEL 1
REMARK VINA RESULT:    -4.018      0.000      0.000
REMARK INTER + INTRA:          -4.943
REMARK INTER:                  -4.840
REMARK INTRA:                  -0.103
REMARK UNBOUND:                -0.103
REMARK SMILES NC(=O)C[C@@H]([NH3+])C(=O)[O-]
REMARK SMILES IDX 4 1 5 2 6 3 7 7 8 8 9 9 2 10 3 11 1 12
REMARK H PARENT 6 4 6 5 6 6 1 13 1 14
REMARK Flexibility Score: inf
ROOT
ATOM      1  C   UNL     1     110.877 135.092 123.208  1.00  0.00     0.171 C 
ENDROOT
BRANCH   1   2
ATOM      2  C   UNL     1     109.970 135.257 121.973  1.00  0.00     0.237 C 
BRANCH   2   3
ATOM      3  N   UNL     1     110.758 135.370 120.738  1.00  0.00    -0.350 N 
ATOM      4  H   UNL     1     111.768 135.173 120.924  1.00  0.00     0.345 HD
ATOM      5  H   UNL     1     110.402 134.690 120.027  1.00  0.00     0.345 HD
ATOM      6  H   UNL     1     110.662 136.330 120.338  1.00  0.00     0.345 HD
ENDBRANCH   2   3
BRANCH   2   7
ATOM      7  C   UNL     1     109.026 134.088 121.878  1.00  0.00     0.100 C 
ATOM      8  O   UNL     1     108.104 134.085 121.020  1.00  0.00    -0.544 OA
ATOM      9  O   UNL     1     109.156 133.010 122.748  1.00  0.00    -0.544 OA
ENDBRANCH   2   7
ENDBRANCH   1   2
BRANCH   1  10
ATOM     10  C   UNL     1     110.717 136.231 124.171  1.00  0.00     0.223 C 
ATOM     11  O   UNL     1     110.898 136.038 125.403  1.00  0.00    -0.275 OA
ATOM     12  N   UNL     1     110.328 137.524 123.707  1.00  0.00    -0.369 N 
ATOM     13  H   UNL     1     110.207 138.312 124.383  1.00  0.00     0.159 HD
ATOM     14  H   UNL     1     110.150 137.696 122.694  1.00  0.00     0.159 HD
ENDBRANCH   1  10
TORSDOF 4
ENDMDL
MODEL 2
REMARK VINA RESULT:    -3.984      1.939      2.077
REMARK INTER + INTRA:          -4.902
REMARK INTER:                  -4.796
REMARK INTRA:                  -0.106
REMARK UNBOUND:                -0.103
REMARK SMILES NC(=O)C[C@@H]([NH3+])C(=O)[O-]
REMARK SMILES IDX 4 1 5 2 6 3 7 7 8 8 9 9 2 10 3 11 1 12
REMARK H PARENT 6 4 6 5 6 6 1 13 1 14
REMARK Flexibility Score: inf
ROOT
ATOM      1  C   UNL     1     109.893 135.625 121.482  1.00  0.00     0.171 C 
ENDROOT
BRANCH   1   2
ATOM      2  C   UNL     1     108.910 134.561 122.012  1.00  0.00     0.237 C 
BRANCH   2   3
ATOM      3  N   UNL     1     107.959 134.143 120.973  1.00  0.00    -0.350 N 
ATOM      4  H   UNL     1     108.319 134.385 120.022  1.00  0.00     0.345 HD
ATOM      5  H   UNL     1     107.805 133.110 121.029  1.00  0.00     0.345 HD
ATOM      6  H   UNL     1     107.037 134.612 121.122  1.00  0.00     0.345 HD
ENDBRANCH   2   3
BRANCH   2   7
ATOM      7  C   UNL     1     109.680 133.370 122.517  1.00  0.00     0.100 C 
ATOM      8  O   UNL     1     110.939 133.362 122.470  1.00  0.00    -0.544 OA
ATOM      9  O   UNL     1     109.007 132.264 123.024  1.00  0.00    -0.544 OA
ENDBRANCH   2   7
ENDBRANCH   1   2
BRANCH   1  10
ATOM     10  C   UNL     1     110.041 136.770 122.441  1.00  0.00     0.223 C 
ATOM     11  O   UNL     1     110.482 136.559 123.603  1.00  0.00    -0.275 OA
ATOM     12  N   UNL     1     109.656 138.091 122.060  1.00  0.00    -0.369 N 
ATOM     13  H   UNL     1     109.751 138.882 122.735  1.00  0.00     0.159 HD
ATOM     14  H   UNL     1     109.266 138.280 121.111  1.00  0.00     0.159 HD
ENDBRANCH   1  10
TORSDOF 4
ENDMDL
MODEL 3
REMARK VINA RESULT:    -3.974      1.732      3.730
REMARK INTER + INTRA:          -4.891
REMARK INTER:                  -4.480
REMARK INTRA:                  -0.411
REMARK UNBOUND:                -0.103
REMARK SMILES NC(=O)C[C@@H]([NH3+])C(=O)[O-]
REMARK SMILES IDX 4 1 5 2 6 3 7 7 8 8 9 9 2 10 3 11 1 12
REMARK H PARENT 6 4 6 5 6 6 1 13 1 14
REMARK Flexibility Score: inf
ROOT
ATOM      1  C   UNL     1     110.395 134.928 121.449  1.00  0.00     0.171 C 
ENDROOT
BRANCH   1   2
ATOM      2  C   UNL     1     110.234 136.369 121.973  1.00  0.00     0.237 C 
BRANCH   2   3
ATOM      3  N   UNL     1     108.838 136.819 121.887  1.00  0.00    -0.350 N 
ATOM      4  H   UNL     1     108.748 137.622 121.222  1.00  0.00     0.345 HD
ATOM      5  H   UNL     1     108.231 136.033 121.558  1.00  0.00     0.345 HD
ATOM      6  H   UNL     1     108.497 137.114 122.830  1.00  0.00     0.345 HD
ENDBRANCH   2   3
BRANCH   2   7
ATOM      7  C   UNL     1     110.713 136.445 123.398  1.00  0.00     0.100 C 
ATOM      8  O   UNL     1     110.786 137.558 123.984  1.00  0.00    -0.544 OA
ATOM      9  O   UNL     1     111.095 135.290 124.072  1.00  0.00    -0.544 OA
ENDBRANCH   2   7
ENDBRANCH   1   2
BRANCH   1  10
ATOM     10  C   UNL     1     109.180 134.095 121.732  1.00  0.00     0.223 C 
ATOM     11  O   UNL     1     108.144 134.242 121.030  1.00  0.00    -0.275 OA
ATOM     12  N   UNL     1     109.175 133.161 122.812  1.00  0.00    -0.369 N 
ATOM     13  H   UNL     1     108.322 132.591 123.011  1.00  0.00     0.159 HD
ATOM     14  H   UNL     1     110.015 133.043 123.419  1.00  0.00     0.159 HD
ENDBRANCH   1  10
TORSDOF 4
ENDMDL
MODEL 4
REMARK VINA RESULT:    -3.937      1.782      3.722
REMARK INTER + INTRA:          -4.846
REMARK INTER:                  -4.626
REMARK INTRA:                  -0.220
REMARK UNBOUND:                -0.103
REMARK SMILES NC(=O)C[C@@H]([NH3+])C(=O)[O-]
REMARK SMILES IDX 4 1 5 2 6 3 7 7 8 8 9 9 2 10 3 11 1 12
REMARK H PARENT 6 4 6 5 6 6 1 13 1 14
REMARK Flexibility Score: inf
ROOT
ATOM      1  C   UNL     1     109.506 133.831 122.512  1.00  0.00     0.171 C 
ENDROOT
BRANCH   1   2
ATOM      2  C   UNL     1     110.840 134.601 122.436  1.00  0.00     0.237 C 
BRANCH   2   3
ATOM      3  N   UNL     1     111.005 135.263 121.136  1.00  0.00    -0.350 N 
ATOM      4  H   UNL     1     111.952 135.699 121.059  1.00  0.00     0.345 HD
ATOM      5  H   UNL     1     110.885 134.566 120.365  1.00  0.00     0.345 HD
ATOM      6  H   UNL     1     110.275 136.002 121.014  1.00  0.00     0.345 HD
ENDBRANCH   2   3
BRANCH   2   7
ATOM      7  C   UNL     1     110.900 135.617 123.545  1.00  0.00     0.100 C 
ATOM      8  O   UNL     1     111.111 135.249 124.731  1.00  0.00    -0.544 OA
ATOM      9  O   UNL     1     110.705 136.966 123.271  1.00  0.00    -0.544 OA
ENDBRANCH   2   7
ENDBRANCH   1   2
BRANCH   1  10
ATOM     10  C   UNL     1     108.476 134.413 121.590  1.00  0.00     0.223 C 
ATOM     11  O   UNL     1     108.269 135.656 121.588  1.00  0.00    -0.275 OA
ATOM     12  N   UNL     1     107.703 133.566 120.737  1.00  0.00    -0.369 N 
ATOM     13  H   UNL     1     106.979 133.976 120.105  1.00  0.00     0.159 HD
ATOM     14  H   UNL     1     107.843 132.533 120.743  1.00  0.00     0.159 HD
ENDBRANCH   1  10
TORSDOF 4
ENDMDL
MODEL 5
REMARK VINA RESULT:    -3.619      6.510      7.718
REMARK INTER + INTRA:          -4.463
REMARK INTER:                  -4.329
REMARK INTRA:                  -0.134
REMARK UNBOUND:                -0.103
REMARK SMILES NC(=O)C[C@@H]([NH3+])C(=O)[O-]
REMARK SMILES IDX 4 1 5 2 6 3 7 7 8 8 9 9 2 10 3 11 1 12
REMARK H PARENT 6 4 6 5 6 6 1 13 1 14
REMARK Flexibility Score: inf
ROOT
ATOM      1  C   UNL     1     106.506 129.056 121.628  1.00  0.00     0.171 C 
ENDROOT
BRANCH   1   2
ATOM      2  C   UNL     1     105.213 128.825 122.435  1.00  0.00     0.237 C 
BRANCH   2   3
ATOM      3  N   UNL     1     104.074 128.533 121.554  1.00  0.00    -0.350 N 
ATOM      4  H   UNL     1     103.457 127.801 121.975  1.00  0.00     0.345 HD
ATOM      5  H   UNL     1     103.515 129.404 121.398  1.00  0.00     0.345 HD
ATOM      6  H   UNL     1     104.417 128.202 120.624  1.00  0.00     0.345 HD
ENDBRANCH   2   3
BRANCH   2   7
ATOM      7  C   UNL     1     105.419 127.692 123.405  1.00  0.00     0.100 C 
ATOM      8  O   UNL     1     104.719 127.617 124.449  1.00  0.00    -0.544 OA
ATOM      9  O   UNL     1     106.394 126.730 123.163  1.00  0.00    -0.544 OA
ENDBRANCH   2   7
ENDBRANCH   1   2
BRANCH   1  10
ATOM     10  C   UNL     1     107.354 130.135 122.235  1.00  0.00     0.223 C 
ATOM     11  O   UNL     1     108.347 129.825 122.944  1.00  0.00    -0.275 OA
ATOM     12  N   UNL     1     107.023 131.512 122.043  1.00  0.00    -0.369 N 
ATOM     13  H   UNL     1     107.611 132.259 122.477  1.00  0.00     0.159 HD
ATOM     14  H   UNL     1     106.190 131.787 121.479  1.00  0.00     0.159 HD
ENDBRANCH   1  10
TORSDOF 4
ENDMDL
MODEL 6
REMARK VINA RESULT:    -3.489      8.627      9.106
REMARK INTER + INTRA:          -4.306
REMARK INTER:                  -3.966
REMARK INTRA:                  -0.340
REMARK UNBOUND:                -0.103
REMARK SMILES NC(=O)C[C@@H]([NH3+])C(=O)[O-]
REMARK SMILES IDX 4 1 5 2 6 3 7 7 8 8 9 9 2 10 3 11 1 12
REMARK H PARENT 6 4 6 5 6 6 1 13 1 14
REMARK Flexibility Score: inf
ROOT
ATOM      1  C   UNL     1     106.011 127.328 123.776  1.00  0.00     0.171 C 
ENDROOT
BRANCH   1   2
ATOM      2  C   UNL     1     105.561 128.345 122.708  1.00  0.00     0.237 C 
BRANCH   2   3
ATOM      3  N   UNL     1     106.674 128.728 121.828  1.00  0.00    -0.350 N 
ATOM      4  H   UNL     1     107.200 127.884 121.506  1.00  0.00     0.345 HD
ATOM      5  H   UNL     1     106.306 129.241 120.994  1.00  0.00     0.345 HD
ATOM      6  H   UNL     1     107.327 129.368 122.335  1.00  0.00     0.345 HD
ENDBRANCH   2   3
BRANCH   2   7
ATOM      7  C   UNL     1     104.437 127.760 121.894  1.00  0.00     0.100 C 
ATOM      8  O   UNL     1     103.339 127.477 122.443  1.00  0.00    -0.544 OA
ATOM      9  O   UNL     1     104.609 127.512 120.537  1.00  0.00    -0.544 OA
ENDBRANCH   2   7
ENDBRANCH   1   2
BRANCH   1  10
ATOM     10  C   UNL     1     107.292 126.649 123.391  1.00  0.00     0.223 C 
ATOM     11  O   UNL     1     107.316 125.876 122.397  1.00  0.00    -0.275 OA
ATOM     12  N   UNL     1     108.478 126.844 124.164  1.00  0.00    -0.369 N 
ATOM     13  H   UNL     1     109.365 126.360 123.898  1.00  0.00     0.159 HD
ATOM     14  H   UNL     1     108.470 127.461 125.005  1.00  0.00     0.159 HD
ENDBRANCH   1  10
TORSDOF 4
ENDMDL
MODEL 7
REMARK VINA RESULT:    -3.474      8.220      9.193
REMARK INTER + INTRA:          -4.288
REMARK INTER:                  -4.082
REMARK INTRA:                  -0.205
REMARK UNBOUND:                -0.103
REMARK SMILES NC(=O)C[C@@H]([NH3+])C(=O)[O-]
REMARK SMILES IDX 4 1 5 2 6 3 7 7 8 8 9 9 2 10 3 11 1 12
REMARK H PARENT 6 4 6 5 6 6 1 13 1 14
REMARK Flexibility Score: inf
ROOT
ATOM      1  C   UNL     1     106.429 128.174 122.404  1.00  0.00     0.171 C 
ENDROOT
BRANCH   1   2
ATOM      2  C   UNL     1     106.796 126.823 123.049  1.00  0.00     0.237 C 
BRANCH   2   3
ATOM      3  N   UNL     1     107.316 125.875 122.055  1.00  0.00    -0.350 N 
ATOM      4  H   UNL     1     107.384 124.913 122.458  1.00  0.00     0.345 HD
ATOM      5  H   UNL     1     106.683 125.853 121.222  1.00  0.00     0.345 HD
ATOM      6  H   UNL     1     108.261 126.180 121.729  1.00  0.00     0.345 HD
ENDBRANCH   2   3
BRANCH   2   7
ATOM      7  C   UNL     1     107.815 127.042 124.136  1.00  0.00     0.100 C 
ATOM      8  O   UNL     1     108.463 128.121 124.188  1.00  0.00    -0.544 OA
ATOM      9  O   UNL     1     108.059 126.050 125.079  1.00  0.00    -0.544 OA
ENDBRANCH   2   7
ENDBRANCH   1   2
BRANCH   1  10
ATOM     10  C   UNL     1     105.026 128.173 121.873  1.00  0.00     0.223 C 
ATOM     11  O   UNL     1     104.756 127.538 120.819  1.00  0.00    -0.275 OA
ATOM     12  N   UNL     1     103.999 128.913 122.535  1.00  0.00    -0.369 N 
ATOM     13  H   UNL     1     103.026 128.918 122.155  1.00  0.00     0.159 HD
ATOM     14  H   UNL     1     104.209 129.465 123.395  1.00  0.00     0.159 HD
ENDBRANCH   1  10
TORSDOF 4
ENDMDL
MODEL 8
REMARK VINA RESULT:    -3.378      2.241      2.714
REMARK INTER + INTRA:          -4.172
REMARK INTER:                  -3.932
REMARK INTRA:                  -0.240
REMARK UNBOUND:                -0.103
REMARK SMILES NC(=O)C[C@@H]([NH3+])C(=O)[O-]
REMARK SMILES IDX 4 1 5 2 6 3 7 7 8 8 9 9 2 10 3 11 1 12
REMARK H PARENT 6 4 6 5 6 6 1 13 1 14
REMARK Flexibility Score: inf
ROOT
ATOM      1  C   UNL     1     110.070 133.802 122.319  1.00  0.00     0.171 C 
ENDROOT
BRANCH   1   2
ATOM      2  C   UNL     1     108.551 133.536 122.312  1.00  0.00     0.237 C 
BRANCH   2   3
ATOM      3  N   UNL     1     107.955 133.855 121.008  1.00  0.00    -0.350 N 
ATOM      4  H   UNL     1     108.487 134.620 120.534  1.00  0.00     0.345 HD
ATOM      5  H   UNL     1     107.962 133.004 120.398  1.00  0.00     0.345 HD
ATOM      6  H   UNL     1     106.961 134.151 121.131  1.00  0.00     0.345 HD
ENDBRANCH   2   3
BRANCH   2   7
ATOM      7  C   UNL     1     108.290 132.095 122.662  1.00  0.00     0.100 C 
ATOM      8  O   UNL     1     109.055 131.487 123.456  1.00  0.00    -0.544 OA
ATOM      9  O   UNL     1     107.212 131.422 122.099  1.00  0.00    -0.544 OA
ENDBRANCH   2   7
ENDBRANCH   1   2
BRANCH   1  10
ATOM     10  C   UNL     1     110.379 135.256 122.527  1.00  0.00     0.223 C 
ATOM     11  O   UNL     1     110.199 136.074 121.586  1.00  0.00    -0.275 OA
ATOM     12  N   UNL     1     110.907 135.714 123.772  1.00  0.00    -0.369 N 
ATOM     13  H   UNL     1     111.130 136.726 123.909  1.00  0.00     0.159 HD
ATOM     14  H   UNL     1     111.085 135.047 124.554  1.00  0.00     0.159 HD
ENDBRANCH   1  10
TORSDOF 4
ENDMDL
MODEL 9
REMARK VINA RESULT:    -3.269      5.340      6.367
REMARK INTER + INTRA:          -4.041
REMARK INTER:                  -3.658
REMARK INTRA:                  -0.383
REMARK UNBOUND:                -0.103
REMARK SMILES NC(=O)C[C@@H]([NH3+])C(=O)[O-]
REMARK SMILES IDX 4 1 5 2 6 3 7 7 8 8 9 9 2 10 3 11 1 12
REMARK H PARENT 6 4 6 5 6 6 1 13 1 14
REMARK Flexibility Score: inf
ROOT
ATOM      1  C   UNL     1     109.487 134.687 129.673  1.00  0.00     0.171 C 
ENDROOT
BRANCH   1   2
ATOM      2  C   UNL     1     110.539 134.306 128.612  1.00  0.00     0.237 C 
BRANCH   2   3
ATOM      3  N   UNL     1     110.116 133.135 127.832  1.00  0.00    -0.350 N 
ATOM      4  H   UNL     1     110.619 133.098 126.916  1.00  0.00     0.345 HD
ATOM      5  H   UNL     1     110.318 132.260 128.369  1.00  0.00     0.345 HD
ATOM      6  H   UNL     1     109.086 133.174 127.658  1.00  0.00     0.345 HD
ENDBRANCH   2   3
BRANCH   2   7
ATOM      7  C   UNL     1     110.782 135.476 127.697  1.00  0.00     0.100 C 
ATOM      8  O   UNL     1     110.874 135.299 126.453  1.00  0.00    -0.544 OA
ATOM      9  O   UNL     1     110.924 136.757 128.219  1.00  0.00    -0.544 OA
ENDBRANCH   2   7
ENDBRANCH   1   2
BRANCH   1  10
ATOM     10  C   UNL     1     108.124 134.853 129.068  1.00  0.00     0.223 C 
ATOM     11  O   UNL     1     107.374 133.850 128.931  1.00  0.00    -0.275 OA
ATOM     12  N   UNL     1     107.682 136.133 128.613  1.00  0.00    -0.369 N 
ATOM     13  H   UNL     1     106.737 136.241 128.182  1.00  0.00     0.159 HD
ATOM     14  H   UNL     1     108.299 136.970 128.695  1.00  0.00     0.159 HD
ENDBRANCH   1  10
TORSDOF 4
ENDMDL
