MODEL 1
REMARK VINA RESULT:    16.455      0.000      0.000
REMARK INTER + INTRA:          28.195
REMARK INTER:                  25.113
REMARK INTRA:                   3.082
REMARK UNBOUND:                 3.082
REMARK SMILES CC1=CCC[C@H](C)C(=O)C[C@H](C(C)C)C(=O)C1
REMARK SMILES IDX 8 1 9 2 6 3 7 4 5 5 4 6 3 7 2 8 1 9 10 11 11 12 15 13 16 14
REMARK SMILES IDX 17 15 12 17 13 18 14 19
REMARK H PARENT
REMARK Flexibility Score: 70.00
ROOT
ATOM      1  C   UNL     1      33.022  11.835  42.474  1.00  0.00     0.136 C 
ATOM      2  O   UNL     1      32.909  11.212  43.520  1.00  0.00    -0.299 OA
ENDROOT
BRANCH   1   3
ATOM      3  C   UNL     1      32.370  11.254  41.223  1.00  0.00     0.053 C 
ATOM      4  C   UNL     1      32.594  12.063  39.935  1.00  0.00     0.016 C 
BRANCH   3   5
ATOM      5  C   UNL     1      32.717   9.756  41.016  1.00  0.00     0.015 C 
BRANCH   5   6
ATOM      6  C   UNL     1      33.339   9.405  39.649  1.00  0.00     0.028 C 
BRANCH   6   7
ATOM      7  C   UNL     1      34.849   9.400  39.718  1.00  0.00    -0.028 C 
ATOM      8  C   UNL     1      35.629  10.481  39.943  1.00  0.00    -0.070 CG0
ATOM      9  C   UNL     1      37.125  10.280  39.970  1.00  0.00     0.039 C 
ATOM     10  G   UNL     1      35.071  11.874  40.163  1.00  0.00     0.000 G0
ENDBRANCH   6   7
ENDBRANCH   5   6
ENDBRANCH   3   5
ENDBRANCH   1   3
BRANCH   1  11
ATOM     11  C   UNL     1      33.738  13.173  42.527  1.00  0.00     0.087 C 
BRANCH  11  12
ATOM     12  C   UNL     1      35.280  13.009  42.516  1.00  0.00     0.066 C 
BRANCH  12  13
ATOM     13  C   UNL     1      35.785  12.789  41.099  1.00  0.00     0.140 C 
ATOM     14  O   UNL     1      36.843  13.289  40.748  1.00  0.00    -0.299 OA
BRANCH  13  15
ATOM     15  C   UNL     1      35.048  11.906  40.123  1.00  0.00     0.106 CG0
ATOM     16  G   UNL     1      35.658  10.522  40.005  1.00  0.00     0.000 G0
ENDBRANCH  13  15
ENDBRANCH  12  13
BRANCH  12  17
ATOM     17  C   UNL     1      36.041  14.189  43.200  1.00  0.00    -0.006 C 
ATOM     18  C   UNL     1      35.143  15.378  43.585  1.00  0.00     0.008 C 
ATOM     19  C   UNL     1      36.832  13.714  44.430  1.00  0.00     0.008 C 
ENDBRANCH  12  17
ENDBRANCH  11  12
ENDBRANCH   1  11
TORSDOF 1
ENDMDL
MODEL 2
REMARK VINA RESULT:    16.947      1.851      3.287
REMARK INTER + INTRA:          28.945
REMARK INTER:                  25.740
REMARK INTRA:                   3.204
REMARK UNBOUND:                 3.082
REMARK SMILES CC1=CCC[C@H](C)C(=O)C[C@H](C(C)C)C(=O)C1
REMARK SMILES IDX 8 1 9 2 6 3 7 4 5 5 4 6 3 7 2 8 1 9 10 11 11 12 15 13 16 14
REMARK SMILES IDX 17 15 12 17 13 18 14 19
REMARK H PARENT
REMARK Flexibility Score: 70.00
ROOT
ATOM      1  C   UNL     1      35.444  10.217  40.254  1.00  0.00     0.136 C 
ATOM      2  O   UNL     1      36.590  10.313  39.838  1.00  0.00    -0.299 OA
ENDROOT
BRANCH   1   3
ATOM      3  C   UNL     1      34.503   9.252  39.537  1.00  0.00     0.053 C 
ATOM      4  C   UNL     1      34.379   7.862  40.182  1.00  0.00     0.016 C 
BRANCH   3   5
ATOM      5  C   UNL     1      33.109   9.875  39.267  1.00  0.00     0.015 C 
BRANCH   5   6
ATOM      6  C   UNL     1      31.989   9.429  40.229  1.00  0.00     0.028 C 
BRANCH   6   7
ATOM      7  C   UNL     1      31.935  10.311  41.455  1.00  0.00    -0.028 C 
ATOM      8  C   UNL     1      32.308  11.608  41.508  1.00  0.00    -0.070 CG0
ATOM      9  C   UNL     1      32.187  12.327  42.829  1.00  0.00     0.039 C 
ATOM     10  G   UNL     1      32.841  12.366  40.306  1.00  0.00     0.000 G0
ENDBRANCH   6   7
ENDBRANCH   5   6
ENDBRANCH   3   5
ENDBRANCH   1   3
BRANCH   1  11
ATOM     11  C   UNL     1      35.077  11.011  41.494  1.00  0.00     0.087 C 
BRANCH  11  12
ATOM     12  C   UNL     1      35.279  12.534  41.293  1.00  0.00     0.066 C 
BRANCH  12  13
ATOM     13  C   UNL     1      34.137  13.123  40.481  1.00  0.00     0.140 C 
ATOM     14  O   UNL     1      34.277  14.207  39.934  1.00  0.00    -0.299 OA
BRANCH  13  15
ATOM     15  C   UNL     1      32.845  12.372  40.268  1.00  0.00     0.106 CG0
ATOM     16  G   UNL     1      32.374  11.648  41.516  1.00  0.00     0.000 G0
ENDBRANCH  13  15
ENDBRANCH  12  13
BRANCH  12  17
ATOM     17  C   UNL     1      35.478  13.324  42.625  1.00  0.00    -0.006 C 
ATOM     18  C   UNL     1      36.943  13.419  43.088  1.00  0.00     0.008 C 
ATOM     19  C   UNL     1      34.865  14.731  42.545  1.00  0.00     0.008 C 
ENDBRANCH  12  17
ENDBRANCH  11  12
ENDBRANCH   1  11
TORSDOF 1
ENDMDL
MODEL 3
REMARK VINA RESULT:    17.306      1.694      3.123
REMARK INTER + INTRA:          29.494
REMARK INTER:                  26.591
REMARK INTRA:                   2.903
REMARK UNBOUND:                 3.082
REMARK SMILES CC1=CCC[C@H](C)C(=O)C[C@H](C(C)C)C(=O)C1
REMARK SMILES IDX 8 1 9 2 6 3 7 4 5 5 4 6 3 7 2 8 1 9 10 11 11 12 15 13 16 14
REMARK SMILES IDX 17 15 12 17 13 18 14 19
REMARK H PARENT
REMARK Flexibility Score: 70.00
ROOT
ATOM      1  C   UNL     1      34.429  12.175  39.950  1.00  0.00     0.136 C 
ATOM      2  O   UNL     1      33.428  12.811  39.652  1.00  0.00    -0.299 OA
ENDROOT
BRANCH   1   3
ATOM      3  C   UNL     1      34.541  10.740  39.440  1.00  0.00     0.053 C 
ATOM      4  C   UNL     1      35.514   9.844  40.224  1.00  0.00     0.016 C 
BRANCH   3   5
ATOM      5  C   UNL     1      33.157  10.061  39.275  1.00  0.00     0.015 C 
BRANCH   5   6
ATOM      6  C   UNL     1      32.513   9.547  40.579  1.00  0.00     0.028 C 
BRANCH   6   7
ATOM      7  C   UNL     1      31.950  10.685  41.400  1.00  0.00    -0.028 C 
ATOM      8  C   UNL     1      32.605  11.348  42.378  1.00  0.00    -0.070 CG0
ATOM      9  C   UNL     1      31.874  12.457  43.094  1.00  0.00     0.039 C 
ATOM     10  G   UNL     1      34.031  11.025  42.786  1.00  0.00     0.000 G0
ENDBRANCH   6   7
ENDBRANCH   5   6
ENDBRANCH   3   5
ENDBRANCH   1   3
BRANCH   1  11
ATOM     11  C   UNL     1      35.509  12.892  40.739  1.00  0.00     0.087 C 
BRANCH  11  12
ATOM     12  C   UNL     1      34.991  13.397  42.110  1.00  0.00     0.066 C 
BRANCH  12  13
ATOM     13  C   UNL     1      34.875  12.245  43.095  1.00  0.00     0.140 C 
ATOM     14  O   UNL     1      35.434  12.314  44.179  1.00  0.00    -0.299 OA
BRANCH  13  15
ATOM     15  C   UNL     1      34.024  11.033  42.801  1.00  0.00     0.106 CG0
ATOM     16  G   UNL     1      32.611  11.394  42.382  1.00  0.00     0.000 G0
ENDBRANCH  13  15
ENDBRANCH  12  13
BRANCH  12  17
ATOM     17  C   UNL     1      35.841  14.559  42.714  1.00  0.00    -0.006 C 
ATOM     18  C   UNL     1      35.069  15.458  43.697  1.00  0.00     0.008 C 
ATOM     19  C   UNL     1      37.121  14.034  43.384  1.00  0.00     0.008 C 
ENDBRANCH  12  17
ENDBRANCH  11  12
ENDBRANCH   1  11
TORSDOF 1
ENDMDL
MODEL 4
REMARK VINA RESULT:    18.900      1.715      3.918
REMARK INTER + INTRA:          31.926
REMARK INTER:                  29.623
REMARK INTRA:                   2.303
REMARK UNBOUND:                 3.082
REMARK SMILES CC1=CCC[C@H](C)C(=O)C[C@H](C(C)C)C(=O)C1
REMARK SMILES IDX 8 1 9 2 6 3 7 4 5 5 4 6 3 7 2 8 1 9 10 11 11 12 15 13 16 14
REMARK SMILES IDX 17 15 12 17 13 18 14 19
REMARK H PARENT
REMARK Flexibility Score: 70.00
ROOT
ATOM      1  C   UNL     1      34.764  13.242  40.409  1.00  0.00     0.136 C 
ATOM      2  O   UNL     1      34.052  14.234  40.361  1.00  0.00    -0.299 OA
ENDROOT
BRANCH   1   3
ATOM      3  C   UNL     1      36.024  13.309  41.268  1.00  0.00     0.053 C 
ATOM      4  C   UNL     1      35.786  13.622  42.754  1.00  0.00     0.016 C 
BRANCH   3   5
ATOM      5  C   UNL     1      36.927  12.060  41.092  1.00  0.00     0.015 C 
BRANCH   5   6
ATOM      6  C   UNL     1      36.456  11.049  40.027  1.00  0.00     0.028 C 
BRANCH   6   7
ATOM      7  C   UNL     1      36.272   9.671  40.620  1.00  0.00    -0.028 C 
ATOM      8  C   UNL     1      35.239   8.837  40.365  1.00  0.00    -0.070 CG0
ATOM      9  C   UNL     1      35.223   7.498  41.059  1.00  0.00     0.039 C 
ATOM     10  G   UNL     1      34.104   9.189  39.422  1.00  0.00     0.000 G0
ENDBRANCH   6   7
ENDBRANCH   5   6
ENDBRANCH   3   5
ENDBRANCH   1   3
BRANCH   1  11
ATOM     11  C   UNL     1      34.294  12.002  39.670  1.00  0.00     0.087 C 
BRANCH  11  12
ATOM     12  C   UNL     1      33.020  11.392  40.307  1.00  0.00     0.066 C 
BRANCH  12  13
ATOM     13  C   UNL     1      32.960   9.894  40.053  1.00  0.00     0.140 C 
ATOM     14  O   UNL     1      31.943   9.273  40.323  1.00  0.00    -0.299 OA
BRANCH  13  15
ATOM     15  C   UNL     1      34.104   9.152  39.406  1.00  0.00     0.106 CG0
ATOM     16  G   UNL     1      35.225   8.837  40.378  1.00  0.00     0.000 G0
ENDBRANCH  13  15
ENDBRANCH  12  13
BRANCH  12  17
ATOM     17  C   UNL     1      32.867  11.703  41.829  1.00  0.00    -0.006 C 
ATOM     18  C   UNL     1      31.413  11.675  42.334  1.00  0.00     0.008 C 
ATOM     19  C   UNL     1      33.734  10.768  42.687  1.00  0.00     0.008 C 
ENDBRANCH  12  17
ENDBRANCH  11  12
ENDBRANCH   1  11
TORSDOF 1
ENDMDL
