MODEL 1
REMARK VINA RESULT:    -3.645      0.000      0.000
REMARK INTER + INTRA:          -6.353
REMARK INTER:                  -5.243
REMARK INTRA:                  -1.109
REMARK UNBOUND:                -1.109
REMARK SMILES CC(C)=CCCC(C)=CCCC(C)=CCO
REMARK SMILES IDX 10 1 9 2 7 3 8 4 6 5 5 6 4 7 1 8 2 9 3 10 11 11 12 12 14 13
REMARK SMILES IDX 13 14 15 15 16 16
REMARK H PARENT 16 17
REMARK Flexibility Score: inf
ROOT
ATOM      1  C   UNL     1      11.876  38.707  66.251  1.00  0.00     0.032 C 
ENDROOT
BRANCH   1   2
ATOM      2  C   UNL     1      10.841  39.595  66.894  1.00  0.00    -0.028 C 
ATOM      3  C   UNL     1      10.971  40.159  68.118  1.00  0.00    -0.077 C 
ATOM      4  C   UNL     1      12.167  39.881  68.998  1.00  0.00     0.039 C 
BRANCH   3   5
ATOM      5  C   UNL     1       9.875  41.070  68.624  1.00  0.00     0.034 C 
BRANCH   5   6
ATOM      6  C   UNL     1      10.458  42.395  69.125  1.00  0.00     0.032 C 
BRANCH   6   7
ATOM      7  C   UNL     1      10.283  43.481  68.092  1.00  0.00    -0.028 C 
ATOM      8  C   UNL     1      12.500  43.035  67.015  1.00  0.00     0.039 C 
ATOM      9  C   UNL     1      11.181  43.763  67.122  1.00  0.00    -0.080 C 
ATOM     10  C   UNL     1      10.853  44.853  66.135  1.00  0.00     0.039 C 
ENDBRANCH   6   7
ENDBRANCH   5   6
ENDBRANCH   3   5
ENDBRANCH   1   2
BRANCH   1  11
ATOM     11  C   UNL     1      11.473  37.233  66.367  1.00  0.00     0.034 C 
BRANCH  11  12
ATOM     12  C   UNL     1      12.114  36.593  67.580  1.00  0.00    -0.075 C 
ATOM     13  C   UNL     1      13.419  36.832  67.836  1.00  0.00    -0.000 C 
ATOM     14  C   UNL     1      11.286  35.688  68.462  1.00  0.00     0.039 C 
BRANCH  13  15
ATOM     15  C   UNL     1      14.167  36.248  69.007  1.00  0.00     0.183 C 
BRANCH  15  16
ATOM     16  O   UNL     1      14.527  34.918  68.750  1.00  0.00    -0.392 OA
ATOM     17  H   UNL     1      15.440  34.795  69.118  1.00  0.00     0.210 HD
ENDBRANCH  15  16
ENDBRANCH  13  15
ENDBRANCH  11  12
ENDBRANCH   1  11
TORSDOF 8
ENDMDL
MODEL 2
REMARK VINA RESULT:    -3.243      1.659      2.321
REMARK INTER + INTRA:          -5.774
REMARK INTER:                  -4.780
REMARK INTRA:                  -0.994
REMARK UNBOUND:                -1.109
REMARK SMILES CC(C)=CCCC(C)=CCCC(C)=CCO
REMARK SMILES IDX 10 1 9 2 7 3 8 4 6 5 5 6 4 7 1 8 2 9 3 10 11 11 12 12 14 13
REMARK SMILES IDX 13 14 15 15 16 16
REMARK H PARENT 16 17
REMARK Flexibility Score: inf
ROOT
ATOM      1  C   UNL     1      12.601  37.812  67.286  1.00  0.00     0.032 C 
ENDROOT
BRANCH   1   2
ATOM      2  C   UNL     1      11.763  38.727  68.142  1.00  0.00    -0.028 C 
ATOM      3  C   UNL     1      10.651  39.369  67.714  1.00  0.00    -0.077 C 
ATOM      4  C   UNL     1      10.182  39.278  66.281  1.00  0.00     0.039 C 
BRANCH   3   5
ATOM      5  C   UNL     1       9.875  40.221  68.694  1.00  0.00     0.034 C 
BRANCH   5   6
ATOM      6  C   UNL     1      10.675  41.470  69.081  1.00  0.00     0.032 C 
BRANCH   6   7
ATOM      7  C   UNL     1      10.407  42.597  68.115  1.00  0.00    -0.028 C 
ATOM      8  C   UNL     1      12.727  42.551  67.171  1.00  0.00     0.039 C 
ATOM      9  C   UNL     1      11.313  43.077  67.233  1.00  0.00    -0.080 C 
ATOM     10  C   UNL     1      10.891  44.184  66.302  1.00  0.00     0.039 C 
ENDBRANCH   6   7
ENDBRANCH   5   6
ENDBRANCH   3   5
ENDBRANCH   1   2
BRANCH   1  11
ATOM     11  C   UNL     1      13.528  36.956  68.156  1.00  0.00     0.034 C 
BRANCH  11  12
ATOM     12  C   UNL     1      13.000  35.543  68.278  1.00  0.00    -0.075 C 
ATOM     13  C   UNL     1      11.759  35.264  67.822  1.00  0.00    -0.000 C 
ATOM     14  C   UNL     1      13.864  34.484  68.923  1.00  0.00     0.039 C 
BRANCH  13  15
ATOM     15  C   UNL     1      11.124  33.898  67.893  1.00  0.00     0.183 C 
BRANCH  15  16
ATOM     16  O   UNL     1       9.877  33.901  67.254  1.00  0.00    -0.392 OA
ATOM     17  H   UNL     1       9.728  34.825  66.924  1.00  0.00     0.210 HD
ENDBRANCH  15  16
ENDBRANCH  13  15
ENDBRANCH  11  12
ENDBRANCH   1  11
TORSDOF 8
ENDMDL
MODEL 3
REMARK VINA RESULT:    -2.821      2.473      6.537
REMARK INTER + INTRA:          -5.167
REMARK INTER:                  -4.645
REMARK INTRA:                  -0.523
REMARK UNBOUND:                -1.109
REMARK SMILES CC(C)=CCCC(C)=CCCC(C)=CCO
REMARK SMILES IDX 10 1 9 2 7 3 8 4 6 5 5 6 4 7 1 8 2 9 3 10 11 11 12 12 14 13
REMARK SMILES IDX 13 14 15 15 16 16
REMARK H PARENT 16 17
REMARK Flexibility Score: inf
ROOT
ATOM      1  C   UNL     1      11.335  40.263  66.787  1.00  0.00     0.032 C 
ENDROOT
BRANCH   1   2
ATOM      2  C   UNL     1      10.672  39.123  67.518  1.00  0.00    -0.028 C 
ATOM      3  C   UNL     1      10.516  37.878  67.012  1.00  0.00    -0.077 C 
ATOM      4  C   UNL     1      10.940  37.533  65.604  1.00  0.00     0.039 C 
BRANCH   3   5
ATOM      5  C   UNL     1       9.875  36.813  67.874  1.00  0.00     0.034 C 
BRANCH   5   6
ATOM      6  C   UNL     1      10.907  35.761  68.296  1.00  0.00     0.032 C 
BRANCH   6   7
ATOM      7  C   UNL     1      12.224  36.412  68.639  1.00  0.00    -0.028 C 
ATOM      8  C   UNL     1      13.454  34.233  68.744  1.00  0.00     0.039 C 
ATOM      9  C   UNL     1      13.382  35.740  68.819  1.00  0.00    -0.080 C 
ATOM     10  C   UNL     1      14.630  36.528  69.122  1.00  0.00     0.039 C 
ENDBRANCH   6   7
ENDBRANCH   5   6
ENDBRANCH   3   5
ENDBRANCH   1   2
BRANCH   1  11
ATOM     11  C   UNL     1      10.413  41.486  66.741  1.00  0.00     0.034 C 
BRANCH  11  12
ATOM     12  C   UNL     1      11.089  42.694  67.353  1.00  0.00    -0.075 C 
ATOM     13  C   UNL     1      12.110  42.508  68.218  1.00  0.00    -0.000 C 
ATOM     14  C   UNL     1      10.594  44.077  66.998  1.00  0.00     0.039 C 
BRANCH  13  15
ATOM     15  C   UNL     1      12.856  43.630  68.894  1.00  0.00     0.183 C 
BRANCH  15  16
ATOM     16  O   UNL     1      14.204  43.289  69.072  1.00  0.00    -0.392 OA
ATOM     17  H   UNL     1      14.512  43.767  69.886  1.00  0.00     0.210 HD
ENDBRANCH  15  16
ENDBRANCH  13  15
ENDBRANCH  11  12
ENDBRANCH   1  11
TORSDOF 8
ENDMDL
MODEL 4
REMARK VINA RESULT:    -2.770      3.204      7.221
REMARK INTER + INTRA:          -5.093
REMARK INTER:                  -4.426
REMARK INTRA:                  -0.667
REMARK UNBOUND:                -1.109
REMARK SMILES CC(C)=CCCC(C)=CCCC(C)=CCO
REMARK SMILES IDX 10 1 9 2 7 3 8 4 6 5 5 6 4 7 1 8 2 9 3 10 11 11 12 12 14 13
REMARK SMILES IDX 13 14 15 15 16 16
REMARK H PARENT 16 17
REMARK Flexibility Score: inf
ROOT
ATOM      1  C   UNL     1      11.704  40.880  68.589  1.00  0.00     0.032 C 
ENDROOT
BRANCH   1   2
ATOM      2  C   UNL     1      10.836  39.658  68.427  1.00  0.00    -0.028 C 
ATOM      3  C   UNL     1      10.953  38.767  67.415  1.00  0.00    -0.077 C 
ATOM      4  C   UNL     1      11.943  38.965  66.291  1.00  0.00     0.039 C 
BRANCH   3   5
ATOM      5  C   UNL     1      10.048  37.556  67.399  1.00  0.00     0.034 C 
BRANCH   5   6
ATOM      6  C   UNL     1       9.980  36.910  68.787  1.00  0.00     0.032 C 
BRANCH   6   7
ATOM      7  C   UNL     1      11.232  36.117  69.069  1.00  0.00    -0.028 C 
ATOM      8  C   UNL     1      10.585  34.246  67.534  1.00  0.00     0.039 C 
ATOM      9  C   UNL     1      11.528  34.930  68.495  1.00  0.00    -0.080 C 
ATOM     10  C   UNL     1      12.836  34.269  68.847  1.00  0.00     0.039 C 
ENDBRANCH   6   7
ENDBRANCH   5   6
ENDBRANCH   3   5
ENDBRANCH   1   2
BRANCH   1  11
ATOM     11  C   UNL     1      10.870  42.077  69.058  1.00  0.00     0.034 C 
BRANCH  11  12
ATOM     12  C   UNL     1      11.285  43.340  68.334  1.00  0.00    -0.075 C 
ATOM     13  C   UNL     1      11.128  43.410  66.994  1.00  0.00    -0.000 C 
ATOM     14  C   UNL     1      11.881  44.483  69.123  1.00  0.00     0.039 C 
BRANCH  13  15
ATOM     15  C   UNL     1      11.508  44.610  66.163  1.00  0.00     0.183 C 
BRANCH  15  16
ATOM     16  O   UNL     1      10.414  45.472  66.012  1.00  0.00    -0.392 OA
ATOM     17  H   UNL     1      10.772  46.323  65.647  1.00  0.00     0.210 HD
ENDBRANCH  15  16
ENDBRANCH  13  15
ENDBRANCH  11  12
ENDBRANCH   1  11
TORSDOF 8
ENDMDL
MODEL 5
REMARK VINA RESULT:    -2.638      3.370      7.384
REMARK INTER + INTRA:          -4.904
REMARK INTER:                  -4.321
REMARK INTRA:                  -0.583
REMARK UNBOUND:                -1.109
REMARK SMILES CC(C)=CCCC(C)=CCCC(C)=CCO
REMARK SMILES IDX 10 1 9 2 7 3 8 4 6 5 5 6 4 7 1 8 2 9 3 10 11 11 12 12 14 13
REMARK SMILES IDX 13 14 15 15 16 16
REMARK H PARENT 16 17
REMARK Flexibility Score: inf
ROOT
ATOM      1  C   UNL     1      10.991  41.112  67.379  1.00  0.00     0.032 C 
ENDROOT
BRANCH   1   2
ATOM      2  C   UNL     1      10.582  39.771  67.933  1.00  0.00    -0.028 C 
ATOM      3  C   UNL     1      10.474  38.640  67.198  1.00  0.00    -0.077 C 
ATOM      4  C   UNL     1      10.691  38.640  65.703  1.00  0.00     0.039 C 
BRANCH   3   5
ATOM      5  C   UNL     1      10.100  37.349  67.891  1.00  0.00     0.034 C 
BRANCH   5   6
ATOM      6  C   UNL     1      11.072  36.227  67.511  1.00  0.00     0.032 C 
BRANCH   6   7
ATOM      7  C   UNL     1      12.456  36.517  68.035  1.00  0.00    -0.028 C 
ATOM      8  C   UNL     1      12.739  34.229  69.013  1.00  0.00     0.039 C 
ATOM      9  C   UNL     1      13.227  35.621  68.691  1.00  0.00    -0.080 C 
ATOM     10  C   UNL     1      14.607  36.042  69.125  1.00  0.00     0.039 C 
ENDBRANCH   6   7
ENDBRANCH   5   6
ENDBRANCH   3   5
ENDBRANCH   1   2
BRANCH   1  11
ATOM     11  C   UNL     1       9.963  42.187  67.748  1.00  0.00     0.034 C 
BRANCH  11  12
ATOM     12  C   UNL     1      10.556  43.572  67.606  1.00  0.00    -0.075 C 
ATOM     13  C   UNL     1      10.510  44.186  66.403  1.00  0.00    -0.000 C 
ATOM     14  C   UNL     1      11.202  44.226  68.805  1.00  0.00     0.039 C 
BRANCH  13  15
ATOM     15  C   UNL     1      11.071  45.560  66.138  1.00  0.00     0.183 C 
BRANCH  15  16
ATOM     16  O   UNL     1      10.244  46.269  65.256  1.00  0.00    -0.392 OA
ATOM     17  H   UNL     1       9.316  46.162  65.589  1.00  0.00     0.210 HD
ENDBRANCH  15  16
ENDBRANCH  13  15
ENDBRANCH  11  12
ENDBRANCH   1  11
TORSDOF 8
ENDMDL
MODEL 6
REMARK VINA RESULT:    -2.548      1.490      2.048
REMARK INTER + INTRA:          -4.775
REMARK INTER:                  -5.638
REMARK INTRA:                   0.863
REMARK UNBOUND:                -1.109
REMARK SMILES CC(C)=CCCC(C)=CCCC(C)=CCO
REMARK SMILES IDX 10 1 9 2 7 3 8 4 6 5 5 6 4 7 1 8 2 9 3 10 11 11 12 12 14 13
REMARK SMILES IDX 13 14 15 15 16 16
REMARK H PARENT 16 17
REMARK Flexibility Score: inf
ROOT
ATOM      1  C   UNL     1      11.547  37.512  67.048  1.00  0.00     0.032 C 
ENDROOT
BRANCH   1   2
ATOM      2  C   UNL     1      10.749  38.702  66.579  1.00  0.00    -0.028 C 
ATOM      3  C   UNL     1      10.682  39.883  67.235  1.00  0.00    -0.077 C 
ATOM      4  C   UNL     1      11.361  40.093  68.568  1.00  0.00     0.039 C 
BRANCH   3   5
ATOM      5  C   UNL     1       9.882  41.013  66.627  1.00  0.00     0.034 C 
BRANCH   5   6
ATOM      6  C   UNL     1      10.246  42.351  67.281  1.00  0.00     0.032 C 
BRANCH   6   7
ATOM      7  C   UNL     1      11.705  42.379  67.664  1.00  0.00    -0.028 C 
ATOM      8  C   UNL     1      11.448  44.403  69.117  1.00  0.00     0.039 C 
ATOM      9  C   UNL     1      12.254  43.280  68.508  1.00  0.00    -0.080 C 
ATOM     10  C   UNL     1      13.722  43.162  68.829  1.00  0.00     0.039 C 
ENDBRANCH   6   7
ENDBRANCH   5   6
ENDBRANCH   3   5
ENDBRANCH   1   2
BRANCH   1  11
ATOM     11  C   UNL     1      10.619  36.417  67.587  1.00  0.00     0.034 C 
BRANCH  11  12
ATOM     12  C   UNL     1      11.378  35.125  67.801  1.00  0.00    -0.075 C 
ATOM     13  C   UNL     1      12.445  35.119  68.629  1.00  0.00    -0.000 C 
ATOM     14  C   UNL     1      10.936  33.879  67.069  1.00  0.00     0.039 C 
BRANCH  13  15
ATOM     15  C   UNL     1      13.280  33.897  68.917  1.00  0.00     0.183 C 
BRANCH  15  16
ATOM     16  O   UNL     1      14.645  34.194  68.801  1.00  0.00    -0.392 OA
ATOM     17  H   UNL     1      14.858  34.837  69.526  1.00  0.00     0.210 HD
ENDBRANCH  15  16
ENDBRANCH  13  15
ENDBRANCH  11  12
ENDBRANCH   1  11
TORSDOF 8
ENDMDL
MODEL 7
REMARK VINA RESULT:    -2.514      2.855      7.030
REMARK INTER + INTRA:          -4.726
REMARK INTER:                  -3.824
REMARK INTRA:                  -0.902
REMARK UNBOUND:                -1.109
REMARK SMILES CC(C)=CCCC(C)=CCCC(C)=CCO
REMARK SMILES IDX 10 1 9 2 7 3 8 4 6 5 5 6 4 7 1 8 2 9 3 10 11 11 12 12 14 13
REMARK SMILES IDX 13 14 15 15 16 16
REMARK H PARENT 16 17
REMARK Flexibility Score: inf
ROOT
ATOM      1  C   UNL     1      11.955  41.188  66.633  1.00  0.00     0.032 C 
ENDROOT
BRANCH   1   2
ATOM      2  C   UNL     1      11.462  39.835  66.186  1.00  0.00    -0.028 C 
ATOM      3  C   UNL     1      11.080  38.845  67.026  1.00  0.00    -0.077 C 
ATOM      4  C   UNL     1      11.185  38.989  68.526  1.00  0.00     0.039 C 
BRANCH   3   5
ATOM      5  C   UNL     1      10.557  37.552  66.442  1.00  0.00     0.034 C 
BRANCH   5   6
ATOM      6  C   UNL     1      11.691  36.535  66.272  1.00  0.00     0.032 C 
BRANCH   6   7
ATOM      7  C   UNL     1      11.477  35.340  67.167  1.00  0.00    -0.028 C 
ATOM      8  C   UNL     1      13.260  36.031  68.784  1.00  0.00     0.039 C 
ATOM      9  C   UNL     1      12.158  35.113  68.312  1.00  0.00    -0.080 C 
ATOM     10  C   UNL     1      11.809  33.893  69.125  1.00  0.00     0.039 C 
ENDBRANCH   6   7
ENDBRANCH   5   6
ENDBRANCH   3   5
ENDBRANCH   1   2
BRANCH   1  11
ATOM     11  C   UNL     1      10.999  42.293  66.171  1.00  0.00     0.034 C 
BRANCH  11  12
ATOM     12  C   UNL     1      11.171  43.541  67.010  1.00  0.00    -0.075 C 
ATOM     13  C   UNL     1      11.804  43.450  68.201  1.00  0.00    -0.000 C 
ATOM     14  C   UNL     1      10.615  44.852  66.507  1.00  0.00     0.039 C 
BRANCH  13  15
ATOM     15  C   UNL     1      12.030  44.619  69.125  1.00  0.00     0.183 C 
BRANCH  15  16
ATOM     16  O   UNL     1      13.369  45.030  69.083  1.00  0.00    -0.392 OA
ATOM     17  H   UNL     1      13.917  44.233  69.305  1.00  0.00     0.210 HD
ENDBRANCH  15  16
ENDBRANCH  13  15
ENDBRANCH  11  12
ENDBRANCH   1  11
TORSDOF 8
ENDMDL
MODEL 8
REMARK VINA RESULT:    -1.550      2.879      6.506
REMARK INTER + INTRA:          -3.339
REMARK INTER:                  -4.564
REMARK INTRA:                   1.226
REMARK UNBOUND:                -1.109
REMARK SMILES CC(C)=CCCC(C)=CCCC(C)=CCO
REMARK SMILES IDX 10 1 9 2 7 3 8 4 6 5 5 6 4 7 1 8 2 9 3 10 11 11 12 12 14 13
REMARK SMILES IDX 13 14 15 15 16 16
REMARK H PARENT 16 17
REMARK Flexibility Score: inf
ROOT
ATOM      1  C   UNL     1      12.247  40.909  69.124  1.00  0.00     0.032 C 
ENDROOT
BRANCH   1   2
ATOM      2  C   UNL     1      11.578  40.408  67.870  1.00  0.00    -0.028 C 
ATOM      3  C   UNL     1      10.543  39.536  67.852  1.00  0.00    -0.077 C 
ATOM      4  C   UNL     1      10.002  38.918  69.119  1.00  0.00     0.039 C 
BRANCH   3   5
ATOM      5  C   UNL     1       9.932  39.153  66.522  1.00  0.00     0.034 C 
BRANCH   5   6
ATOM      6  C   UNL     1      10.750  38.047  65.847  1.00  0.00     0.032 C 
BRANCH   6   7
ATOM      7  C   UNL     1      12.026  37.784  66.609  1.00  0.00    -0.028 C 
ATOM      8  C   UNL     1      11.253  35.552  67.444  1.00  0.00     0.039 C 
ATOM      9  C   UNL     1      12.275  36.656  67.311  1.00  0.00    -0.080 C 
ATOM     10  C   UNL     1      13.611  36.516  67.993  1.00  0.00     0.039 C 
ENDBRANCH   6   7
ENDBRANCH   5   6
ENDBRANCH   3   5
ENDBRANCH   1   2
BRANCH   1  11
ATOM     11  C   UNL     1      12.990  42.222  68.853  1.00  0.00     0.034 C 
BRANCH  11  12
ATOM     12  C   UNL     1      12.255  43.055  67.825  1.00  0.00    -0.075 C 
ATOM     13  C   UNL     1      11.469  44.071  68.244  1.00  0.00    -0.000 C 
ATOM     14  C   UNL     1      12.402  42.719  66.360  1.00  0.00     0.039 C 
BRANCH  13  15
ATOM     15  C   UNL     1      10.685  44.966  67.317  1.00  0.00     0.183 C 
BRANCH  15  16
ATOM     16  O   UNL     1      10.538  44.365  66.059  1.00  0.00    -0.392 OA
ATOM     17  H   UNL     1       9.779  43.730  66.136  1.00  0.00     0.210 HD
ENDBRANCH  15  16
ENDBRANCH  13  15
ENDBRANCH  11  12
ENDBRANCH   1  11
TORSDOF 8
ENDMDL
