MODEL 1
REMARK VINA RESULT:    -4.349      0.000      0.000
REMARK INTER + INTRA:          -4.824
REMARK INTER:                  -4.985
REMARK INTRA:                   0.161
REMARK UNBOUND:                 0.161
REMARK SMILES CC(C)[C@@H]([NH3+])C(=O)[O-]
REMARK SMILES IDX 4 1 5 2 6 6 7 7 8 8 2 9 1 10 3 11
REMARK H PARENT 5 3 5 4 5 5
REMARK Flexibility Score: inf
ROOT
ATOM      1  C   UNL     1     202.257 203.047 243.176  1.00  0.00     0.230 C 
ENDROOT
BRANCH   1   2
ATOM      2  N   UNL     1     201.489 204.055 242.428  1.00  0.00    -0.350 N 
ATOM      3  H   UNL     1     200.553 203.669 242.162  1.00  0.00     0.345 HD
ATOM      4  H   UNL     1     201.999 204.339 241.560  1.00  0.00     0.345 HD
ATOM      5  H   UNL     1     201.317 204.895 243.025  1.00  0.00     0.345 HD
ENDBRANCH   1   2
BRANCH   1   6
ATOM      6  C   UNL     1     202.636 201.920 242.245  1.00  0.00     0.099 C 
ATOM      7  O   UNL     1     202.515 200.724 242.619  1.00  0.00    -0.544 OA
ATOM      8  O   UNL     1     203.123 202.197 240.974  1.00  0.00    -0.544 OA
ENDBRANCH   1   6
BRANCH   1   9
ATOM      9  C   UNL     1     203.526 203.661 243.842  1.00  0.00     0.047 C 
ATOM     10  C   UNL     1     204.327 204.509 242.839  1.00  0.00     0.014 C 
ATOM     11  C   UNL     1     204.445 202.579 244.432  1.00  0.00     0.014 C 
ENDBRANCH   1   9
TORSDOF 3
ENDMDL
MODEL 2
REMARK VINA RESULT:    -4.280      2.346      3.168
REMARK INTER + INTRA:          -4.744
REMARK INTER:                  -4.898
REMARK INTRA:                   0.153
REMARK UNBOUND:                 0.161
REMARK SMILES CC(C)[C@@H]([NH3+])C(=O)[O-]
REMARK SMILES IDX 4 1 5 2 6 6 7 7 8 8 2 9 1 10 3 11
REMARK H PARENT 5 3 5 4 5 5
REMARK Flexibility Score: inf
ROOT
ATOM      1  C   UNL     1     204.707 202.495 243.155  1.00  0.00     0.230 C 
ENDROOT
BRANCH   1   2
ATOM      2  N   UNL     1     205.511 201.555 242.357  1.00  0.00    -0.350 N 
ATOM      3  H   UNL     1     205.131 201.493 241.384  1.00  0.00     0.345 HD
ATOM      4  H   UNL     1     205.501 200.602 242.788  1.00  0.00     0.345 HD
ATOM      5  H   UNL     1     206.496 201.895 242.281  1.00  0.00     0.345 HD
ENDBRANCH   1   2
BRANCH   1   6
ATOM      6  C   UNL     1     204.350 203.690 242.304  1.00  0.00     0.099 C 
ATOM      7  O   UNL     1     204.492 204.855 242.759  1.00  0.00    -0.544 OA
ATOM      8  O   UNL     1     203.859 203.510 241.017  1.00  0.00    -0.544 OA
ENDBRANCH   1   6
BRANCH   1   9
ATOM      9  C   UNL     1     203.423 201.820 243.726  1.00  0.00     0.047 C 
ATOM     10  C   UNL     1     202.671 201.040 242.634  1.00  0.00     0.014 C 
ATOM     11  C   UNL     1     202.468 202.848 244.357  1.00  0.00     0.014 C 
ENDBRANCH   1   9
TORSDOF 3
ENDMDL
MODEL 3
REMARK VINA RESULT:    -4.223      2.605      3.136
REMARK INTER + INTRA:          -4.680
REMARK INTER:                  -4.603
REMARK INTRA:                  -0.077
REMARK UNBOUND:                 0.161
REMARK SMILES CC(C)[C@@H]([NH3+])C(=O)[O-]
REMARK SMILES IDX 4 1 5 2 6 6 7 7 8 8 2 9 1 10 3 11
REMARK H PARENT 5 3 5 4 5 5
REMARK Flexibility Score: inf
ROOT
ATOM      1  C   UNL     1     204.043 202.053 242.932  1.00  0.00     0.230 C 
ENDROOT
BRANCH   1   2
ATOM      2  N   UNL     1     205.464 201.723 242.735  1.00  0.00    -0.350 N 
ATOM      3  H   UNL     1     205.719 201.820 241.725  1.00  0.00     0.345 HD
ATOM      4  H   UNL     1     205.662 200.744 243.044  1.00  0.00     0.345 HD
ATOM      5  H   UNL     1     206.067 202.388 243.269  1.00  0.00     0.345 HD
ENDBRANCH   1   2
BRANCH   1   6
ATOM      6  C   UNL     1     203.780 202.254 244.405  1.00  0.00     0.099 C 
ATOM      7  O   UNL     1     204.703 202.078 245.243  1.00  0.00    -0.544 OA
ATOM      8  O   UNL     1     202.516 202.629 244.844  1.00  0.00    -0.544 OA
ENDBRANCH   1   6
BRANCH   1   9
ATOM      9  C   UNL     1     203.623 203.316 242.120  1.00  0.00     0.047 C 
ATOM     10  C   UNL     1     203.769 203.079 240.606  1.00  0.00     0.014 C 
ATOM     11  C   UNL     1     204.445 204.553 242.517  1.00  0.00     0.014 C 
ENDBRANCH   1   9
TORSDOF 3
ENDMDL
MODEL 4
REMARK VINA RESULT:    -4.184      2.186      3.175
REMARK INTER + INTRA:          -4.635
REMARK INTER:                  -4.586
REMARK INTRA:                  -0.049
REMARK UNBOUND:                 0.161
REMARK SMILES CC(C)[C@@H]([NH3+])C(=O)[O-]
REMARK SMILES IDX 4 1 5 2 6 6 7 7 8 8 2 9 1 10 3 11
REMARK H PARENT 5 3 5 4 5 5
REMARK Flexibility Score: inf
ROOT
ATOM      1  C   UNL     1     202.864 203.687 242.095  1.00  0.00     0.230 C 
ENDROOT
BRANCH   1   2
ATOM      2  N   UNL     1     201.542 203.652 242.738  1.00  0.00    -0.350 N 
ATOM      3  H   UNL     1     200.922 202.965 242.249  1.00  0.00     0.345 HD
ATOM      4  H   UNL     1     201.091 204.596 242.711  1.00  0.00     0.345 HD
ATOM      5  H   UNL     1     201.630 203.334 243.729  1.00  0.00     0.345 HD
ENDBRANCH   1   2
BRANCH   1   6
ATOM      6  C   UNL     1     203.869 204.275 243.057  1.00  0.00     0.099 C 
ATOM      7  O   UNL     1     204.739 205.086 242.645  1.00  0.00    -0.544 OA
ATOM      8  O   UNL     1     203.841 203.920 244.400  1.00  0.00    -0.544 OA
ENDBRANCH   1   6
BRANCH   1   9
ATOM      9  C   UNL     1     203.317 202.273 241.620  1.00  0.00     0.047 C 
ATOM     10  C   UNL     1     203.110 202.101 240.105  1.00  0.00     0.014 C 
ATOM     11  C   UNL     1     202.567 201.153 242.360  1.00  0.00     0.014 C 
ENDBRANCH   1   9
TORSDOF 3
ENDMDL
MODEL 5
REMARK VINA RESULT:    -4.133      2.333      2.825
REMARK INTER + INTRA:          -4.576
REMARK INTER:                  -4.519
REMARK INTRA:                  -0.058
REMARK UNBOUND:                 0.161
REMARK SMILES CC(C)[C@@H]([NH3+])C(=O)[O-]
REMARK SMILES IDX 4 1 5 2 6 6 7 7 8 8 2 9 1 10 3 11
REMARK H PARENT 5 3 5 4 5 5
REMARK Flexibility Score: inf
ROOT
ATOM      1  C   UNL     1     203.521 203.221 241.360  1.00  0.00     0.230 C 
ENDROOT
BRANCH   1   2
ATOM      2  N   UNL     1     204.389 204.381 241.616  1.00  0.00    -0.350 N 
ATOM      3  H   UNL     1     205.096 204.146 242.349  1.00  0.00     0.345 HD
ATOM      4  H   UNL     1     203.824 205.201 241.938  1.00  0.00     0.345 HD
ATOM      5  H   UNL     1     204.916 204.636 240.751  1.00  0.00     0.345 HD
ENDBRANCH   1   2
BRANCH   1   6
ATOM      6  C   UNL     1     203.556 202.889 239.888  1.00  0.00     0.099 C 
ATOM      7  O   UNL     1     204.511 202.221 239.412  1.00  0.00    -0.544 OA
ATOM      8  O   UNL     1     202.537 203.323 239.048  1.00  0.00    -0.544 OA
ENDBRANCH   1   6
BRANCH   1   9
ATOM      9  C   UNL     1     203.937 201.985 242.214  1.00  0.00     0.047 C 
ATOM     10  C   UNL     1     202.710 201.156 242.630  1.00  0.00     0.014 C 
ATOM     11  C   UNL     1     204.717 202.395 243.474  1.00  0.00     0.014 C 
ENDBRANCH   1   9
TORSDOF 3
ENDMDL
MODEL 6
REMARK VINA RESULT:    -4.130      2.316      2.617
REMARK INTER + INTRA:          -4.573
REMARK INTER:                  -4.517
REMARK INTRA:                  -0.055
REMARK UNBOUND:                 0.161
REMARK SMILES CC(C)[C@@H]([NH3+])C(=O)[O-]
REMARK SMILES IDX 4 1 5 2 6 6 7 7 8 8 2 9 1 10 3 11
REMARK H PARENT 5 3 5 4 5 5
REMARK Flexibility Score: inf
ROOT
ATOM      1  C   UNL     1     203.522 202.267 241.366  1.00  0.00     0.230 C 
ENDROOT
BRANCH   1   2
ATOM      2  N   UNL     1     202.615 201.122 241.548  1.00  0.00    -0.350 N 
ATOM      3  H   UNL     1     201.744 201.428 242.040  1.00  0.00     0.345 HD
ATOM      4  H   UNL     1     203.077 200.370 242.111  1.00  0.00     0.345 HD
ATOM      5  H   UNL     1     202.325 200.739 240.621  1.00  0.00     0.345 HD
ENDBRANCH   1   2
BRANCH   1   6
ATOM      6  C   UNL     1     203.586 202.621 239.900  1.00  0.00     0.099 C 
ATOM      7  O   UNL     1     204.564 202.245 239.201  1.00  0.00    -0.544 OA
ATOM      8  O   UNL     1     202.570 203.367 239.316  1.00  0.00    -0.544 OA
ENDBRANCH   1   6
BRANCH   1   9
ATOM      9  C   UNL     1     203.079 203.499 242.213  1.00  0.00     0.047 C 
ATOM     10  C   UNL     1     204.295 204.299 242.710  1.00  0.00     0.014 C 
ATOM     11  C   UNL     1     202.221 203.086 243.420  1.00  0.00     0.014 C 
ENDBRANCH   1   9
TORSDOF 3
ENDMDL
MODEL 7
REMARK VINA RESULT:    -4.075      1.867      2.215
REMARK INTER + INTRA:          -4.509
REMARK INTER:                  -4.687
REMARK INTRA:                   0.178
REMARK UNBOUND:                 0.161
REMARK SMILES CC(C)[C@@H]([NH3+])C(=O)[O-]
REMARK SMILES IDX 4 1 5 2 6 6 7 7 8 8 2 9 1 10 3 11
REMARK H PARENT 5 3 5 4 5 5
REMARK Flexibility Score: inf
ROOT
ATOM      1  C   UNL     1     203.795 204.040 243.232  1.00  0.00     0.230 C 
ENDROOT
BRANCH   1   2
ATOM      2  N   UNL     1     204.745 204.828 242.431  1.00  0.00    -0.350 N 
ATOM      3  H   UNL     1     204.522 205.848 242.508  1.00  0.00     0.345 HD
ATOM      4  H   UNL     1     204.703 204.547 241.424  1.00  0.00     0.345 HD
ATOM      5  H   UNL     1     205.717 204.698 242.792  1.00  0.00     0.345 HD
ENDBRANCH   1   2
BRANCH   1   6
ATOM      6  C   UNL     1     202.629 203.635 242.363  1.00  0.00     0.099 C 
ATOM      7  O   UNL     1     201.451 203.750 242.791  1.00  0.00    -0.544 OA
ATOM      8  O   UNL     1     202.850 203.130 241.087  1.00  0.00    -0.544 OA
ENDBRANCH   1   6
BRANCH   1   9
ATOM      9  C   UNL     1     204.471 202.787 243.867  1.00  0.00     0.047 C 
ATOM     10  C   UNL     1     205.213 201.956 242.805  1.00  0.00     0.014 C 
ATOM     11  C   UNL     1     203.452 201.889 244.587  1.00  0.00     0.014 C 
ENDBRANCH   1   9
TORSDOF 3
ENDMDL
MODEL 8
REMARK VINA RESULT:    -4.059      2.487      3.429
REMARK INTER + INTRA:          -4.492
REMARK INTER:                  -4.437
REMARK INTRA:                  -0.055
REMARK UNBOUND:                 0.161
REMARK SMILES CC(C)[C@@H]([NH3+])C(=O)[O-]
REMARK SMILES IDX 4 1 5 2 6 6 7 7 8 8 2 9 1 10 3 11
REMARK H PARENT 5 3 5 4 5 5
REMARK Flexibility Score: inf
ROOT
ATOM      1  C   UNL     1     204.448 203.055 242.891  1.00  0.00     0.230 C 
ENDROOT
BRANCH   1   2
ATOM      2  N   UNL     1     204.869 204.422 242.549  1.00  0.00    -0.350 N 
ATOM      3  H   UNL     1     205.706 204.693 243.115  1.00  0.00     0.345 HD
ATOM      4  H   UNL     1     204.097 205.104 242.736  1.00  0.00     0.345 HD
ATOM      5  H   UNL     1     205.147 204.475 241.544  1.00  0.00     0.345 HD
ENDBRANCH   1   2
BRANCH   1   6
ATOM      6  C   UNL     1     204.199 202.968 244.377  1.00  0.00     0.099 C 
ATOM      7  O   UNL     1     203.428 203.790 244.939  1.00  0.00    -0.544 OA
ATOM      8  O   UNL     1     204.822 201.983 245.134  1.00  0.00    -0.544 OA
ENDBRANCH   1   6
BRANCH   1   9
ATOM      9  C   UNL     1     203.180 202.621 242.093  1.00  0.00     0.047 C 
ATOM     10  C   UNL     1     202.699 201.225 242.527  1.00  0.00     0.014 C 
ATOM     11  C   UNL     1     203.432 202.617 240.576  1.00  0.00     0.014 C 
ENDBRANCH   1   9
TORSDOF 3
ENDMDL
MODEL 9
REMARK VINA RESULT:    -3.972      3.090      3.841
REMARK INTER + INTRA:          -4.392
REMARK INTER:                  -4.342
REMARK INTRA:                  -0.051
REMARK UNBOUND:                 0.161
REMARK SMILES CC(C)[C@@H]([NH3+])C(=O)[O-]
REMARK SMILES IDX 4 1 5 2 6 6 7 7 8 8 2 9 1 10 3 11
REMARK H PARENT 5 3 5 4 5 5
REMARK Flexibility Score: inf
ROOT
ATOM      1  C   UNL     1     203.242 202.510 240.586  1.00  0.00     0.230 C 
ENDROOT
BRANCH   1   2
ATOM      2  N   UNL     1     202.569 201.221 240.812  1.00  0.00    -0.350 N 
ATOM      3  H   UNL     1     203.232 200.540 241.250  1.00  0.00     0.345 HD
ATOM      4  H   UNL     1     202.220 200.823 239.910  1.00  0.00     0.345 HD
ATOM      5  H   UNL     1     201.771 201.341 241.475  1.00  0.00     0.345 HD
ENDBRANCH   1   2
BRANCH   1   6
ATOM      6  C   UNL     1     204.173 202.793 241.740  1.00  0.00     0.099 C 
ATOM      7  O   UNL     1     204.795 201.851 242.297  1.00  0.00    -0.544 OA
ATOM      8  O   UNL     1     204.344 204.095 242.196  1.00  0.00    -0.544 OA
ENDBRANCH   1   6
BRANCH   1   9
ATOM      9  C   UNL     1     204.018 202.530 239.234  1.00  0.00     0.047 C 
ATOM     10  C   UNL     1     204.051 203.945 238.632  1.00  0.00     0.014 C 
ATOM     11  C   UNL     1     203.407 201.561 238.208  1.00  0.00     0.014 C 
ENDBRANCH   1   9
TORSDOF 3
ENDMDL
