MODEL 1
REMARK VINA RESULT:    -8.546      0.000      0.000
REMARK INTER + INTRA:         -10.186
REMARK INTER:                 -10.295
REMARK INTRA:                   0.108
REMARK UNBOUND:                 0.108
REMARK SMILES O=c1c(O)c(-c2ccc(O)c(O)c2)oc2cc(O)cc(O)c12
REMARK SMILES IDX 5 1 3 2 2 3 1 4 22 5 20 6 19 7 17 8 16 9 15 10 14 11 6 12
REMARK SMILES IDX 7 13 8 14 9 15 13 16 11 17 10 18 12 20 4 22 21 24 18 26
REMARK H PARENT 10 19 12 21 4 23 21 25 18 27
REMARK Flexibility Score: inf
ROOT
ATOM      1  C   UNL     1     129.235 125.627 127.139  1.00  0.00     0.180 A 
ATOM      2  C   UNL     1     130.408 126.404 127.071  1.00  0.00     0.208 A 
ATOM      3  C   UNL     1     130.594 127.255 125.971  1.00  0.00     0.238 A 
ATOM      4  O   UNL     1     131.636 127.964 125.903  1.00  0.00    -0.285 OA
ATOM      5  C   UNL     1     129.619 127.304 124.953  1.00  0.00     0.111 A 
ATOM      6  C   UNL     1     129.733 128.134 123.811  1.00  0.00     0.134 A 
ATOM      7  C   UNL     1     128.722 128.118 122.837  1.00  0.00     0.093 A 
ATOM      8  C   UNL     1     127.603 127.289 122.984  1.00  0.00     0.123 A 
ATOM      9  C   UNL     1     127.488 126.471 124.109  1.00  0.00     0.094 A 
ATOM     10  C   UNL     1     128.482 126.473 125.091  1.00  0.00     0.146 A 
ATOM     11  O   UNL     1     128.344 125.688 126.154  1.00  0.00    -0.452 OA
ENDROOT
BRANCH   1  12
ATOM     12  C   UNL     1     128.957 124.719 128.275  1.00  0.00     0.025 A 
ATOM     13  C   UNL     1     128.501 123.406 128.067  1.00  0.00     0.016 A 
ATOM     14  C   UNL     1     128.268 122.560 129.154  1.00  0.00     0.051 A 
ATOM     15  C   UNL     1     128.500 123.006 130.462  1.00  0.00     0.157 A 
ATOM     16  C   UNL     1     129.208 125.156 129.586  1.00  0.00     0.062 A 
ATOM     17  C   UNL     1     128.976 124.310 130.677  1.00  0.00     0.158 A 
BRANCH  15  18
ATOM     18  O   UNL     1     128.265 122.161 131.544  1.00  0.00    -0.504 OA
ATOM     19  H   UNL     1     127.498 121.499 131.543  1.00  0.00     0.293 HD
ENDBRANCH  15  18
BRANCH  17  20
ATOM     20  O   UNL     1     129.224 124.784 131.965  1.00  0.00    -0.504 OA
ATOM     21  H   UNL     1     129.652 124.206 132.678  1.00  0.00     0.293 HD
ENDBRANCH  17  20
ENDBRANCH   1  12
BRANCH   2  22
ATOM     22  O   UNL     1     131.383 126.300 128.066  1.00  0.00    -0.502 OA
ATOM     23  H   UNL     1     131.154 126.311 129.053  1.00  0.00     0.293 HD
ENDBRANCH   2  22
BRANCH   6  24
ATOM     24  O   UNL     1     130.836 128.969 123.638  1.00  0.00    -0.507 OA
ATOM     25  H   UNL     1     131.779 128.601 123.574  1.00  0.00     0.293 HD
ENDBRANCH   6  24
BRANCH   8  26
ATOM     26  O   UNL     1     126.601 127.273 122.017  1.00  0.00    -0.508 OA
ATOM     27  H   UNL     1     125.634 127.462 122.252  1.00  0.00     0.293 HD
ENDBRANCH   8  26
TORSDOF 6
ENDMDL
MODEL 2
REMARK VINA RESULT:    -6.824      9.932     11.388
REMARK INTER + INTRA:          -8.112
REMARK INTER:                  -7.945
REMARK INTRA:                  -0.167
REMARK UNBOUND:                 0.108
REMARK SMILES O=c1c(O)c(-c2ccc(O)c(O)c2)oc2cc(O)cc(O)c12
REMARK SMILES IDX 5 1 3 2 2 3 1 4 22 5 20 6 19 7 17 8 16 9 15 10 14 11 6 12
REMARK SMILES IDX 7 13 8 14 9 15 13 16 11 17 10 18 12 20 4 22 21 24 18 26
REMARK H PARENT 10 19 12 21 4 23 21 25 18 27
REMARK Flexibility Score: inf
ROOT
ATOM      1  C   UNL     1     119.810 126.269 133.260  1.00  0.00     0.180 A 
ATOM      2  C   UNL     1     120.588 127.075 134.113  1.00  0.00     0.208 A 
ATOM      3  C   UNL     1     121.483 127.996 133.545  1.00  0.00     0.238 A 
ATOM      4  O   UNL     1     122.177 128.732 134.299  1.00  0.00    -0.285 OA
ATOM      5  C   UNL     1     121.597 128.084 132.143  1.00  0.00     0.111 A 
ATOM      6  C   UNL     1     122.476 128.984 131.493  1.00  0.00     0.134 A 
ATOM      7  C   UNL     1     122.539 129.004 130.091  1.00  0.00     0.093 A 
ATOM      8  C   UNL     1     121.741 128.142 129.329  1.00  0.00     0.123 A 
ATOM      9  C   UNL     1     120.874 127.254 129.967  1.00  0.00     0.094 A 
ATOM     10  C   UNL     1     120.795 127.220 131.361  1.00  0.00     0.146 A 
ATOM     11  O   UNL     1     119.956 126.369 131.942  1.00  0.00    -0.452 OA
ENDROOT
BRANCH   1  12
ATOM     12  C   UNL     1     118.832 125.287 133.781  1.00  0.00     0.025 A 
ATOM     13  C   UNL     1     119.243 124.174 134.535  1.00  0.00     0.016 A 
ATOM     14  C   UNL     1     118.299 123.274 135.037  1.00  0.00     0.051 A 
ATOM     15  C   UNL     1     116.933 123.478 134.804  1.00  0.00     0.157 A 
ATOM     16  C   UNL     1     117.460 125.499 133.568  1.00  0.00     0.062 A 
ATOM     17  C   UNL     1     116.512 124.599 134.069  1.00  0.00     0.158 A 
BRANCH  15  18
ATOM     18  O   UNL     1     115.994 122.578 135.304  1.00  0.00    -0.504 OA
ATOM     19  H   UNL     1     116.123 122.118 136.197  1.00  0.00     0.293 HD
ENDBRANCH  15  18
BRANCH  17  20
ATOM     20  O   UNL     1     115.160 124.835 133.826  1.00  0.00    -0.504 OA
ATOM     21  H   UNL     1     114.620 124.263 133.188  1.00  0.00     0.293 HD
ENDBRANCH  17  20
ENDBRANCH   1  12
BRANCH   2  22
ATOM     22  O   UNL     1     120.493 126.934 135.500  1.00  0.00    -0.502 OA
ATOM     23  H   UNL     1     120.090 126.114 135.935  1.00  0.00     0.293 HD
ENDBRANCH   2  22
BRANCH   6  24
ATOM     24  O   UNL     1     123.284 129.854 132.225  1.00  0.00    -0.507 OA
ATOM     25  H   UNL     1     124.272 129.961 132.024  1.00  0.00     0.293 HD
ENDBRANCH   6  24
BRANCH   8  26
ATOM     26  O   UNL     1     121.805 128.160 127.938  1.00  0.00    -0.508 OA
ATOM     27  H   UNL     1     122.394 128.821 127.443  1.00  0.00     0.293 HD
ENDBRANCH   8  26
TORSDOF 6
ENDMDL
MODEL 3
REMARK VINA RESULT:    -6.782     11.785     14.037
REMARK INTER + INTRA:          -8.061
REMARK INTER:                  -7.803
REMARK INTRA:                  -0.258
REMARK UNBOUND:                 0.108
REMARK SMILES O=c1c(O)c(-c2ccc(O)c(O)c2)oc2cc(O)cc(O)c12
REMARK SMILES IDX 5 1 3 2 2 3 1 4 22 5 20 6 19 7 17 8 16 9 15 10 14 11 6 12
REMARK SMILES IDX 7 13 8 14 9 15 13 16 11 17 10 18 12 20 4 22 21 24 18 26
REMARK H PARENT 10 19 12 21 4 23 21 25 18 27
REMARK Flexibility Score: inf
ROOT
ATOM      1  C   UNL     1     117.159 128.265 130.096  1.00  0.00     0.180 A 
ATOM      2  C   UNL     1     116.454 127.242 130.759  1.00  0.00     0.208 A 
ATOM      3  C   UNL     1     117.170 126.319 131.537  1.00  0.00     0.238 A 
ATOM      4  O   UNL     1     116.548 125.405 132.144  1.00  0.00    -0.285 OA
ATOM      5  C   UNL     1     118.574 126.422 131.625  1.00  0.00     0.111 A 
ATOM      6  C   UNL     1     119.369 125.530 132.386  1.00  0.00     0.134 A 
ATOM      7  C   UNL     1     120.762 125.694 132.415  1.00  0.00     0.093 A 
ATOM      8  C   UNL     1     121.374 126.730 131.699  1.00  0.00     0.123 A 
ATOM      9  C   UNL     1     120.593 127.610 130.949  1.00  0.00     0.094 A 
ATOM     10  C   UNL     1     119.204 127.466 130.908  1.00  0.00     0.146 A 
ATOM     11  O   UNL     1     118.484 128.322 130.190  1.00  0.00    -0.452 OA
ENDROOT
BRANCH   1  12
ATOM     12  C   UNL     1     116.474 129.287 129.271  1.00  0.00     0.025 A 
ATOM     13  C   UNL     1     116.498 129.229 127.867  1.00  0.00     0.016 A 
ATOM     14  C   UNL     1     115.824 130.192 127.111  1.00  0.00     0.051 A 
ATOM     15  C   UNL     1     115.107 131.216 127.744  1.00  0.00     0.157 A 
ATOM     16  C   UNL     1     115.737 130.303 129.902  1.00  0.00     0.062 A 
ATOM     17  C   UNL     1     115.062 131.268 129.147  1.00  0.00     0.158 A 
BRANCH  15  18
ATOM     18  O   UNL     1     114.438 132.175 126.987  1.00  0.00    -0.504 OA
ATOM     19  H   UNL     1     114.863 133.068 126.765  1.00  0.00     0.293 HD
ENDBRANCH  15  18
BRANCH  17  20
ATOM     20  O   UNL     1     114.352 132.270 129.808  1.00  0.00    -0.504 OA
ATOM     21  H   UNL     1     113.650 132.059 130.508  1.00  0.00     0.293 HD
ENDBRANCH  17  20
ENDBRANCH   1  12
BRANCH   2  22
ATOM     22  O   UNL     1     115.069 127.132 130.615  1.00  0.00    -0.502 OA
ATOM     23  H   UNL     1     114.475 127.933 130.444  1.00  0.00     0.293 HD
ENDBRANCH   2  22
BRANCH   6  24
ATOM     24  O   UNL     1     118.788 124.489 133.109  1.00  0.00    -0.507 OA
ATOM     25  H   UNL     1     117.781 124.386 133.181  1.00  0.00     0.293 HD
ENDBRANCH   6  24
BRANCH   8  26
ATOM     26  O   UNL     1     122.757 126.891 131.727  1.00  0.00    -0.508 OA
ATOM     27  H   UNL     1     123.198 127.585 132.320  1.00  0.00     0.293 HD
ENDBRANCH   8  26
TORSDOF 6
ENDMDL
MODEL 4
REMARK VINA RESULT:    -6.746     12.371     13.271
REMARK INTER + INTRA:          -8.018
REMARK INTER:                  -7.772
REMARK INTRA:                  -0.246
REMARK UNBOUND:                 0.108
REMARK SMILES O=c1c(O)c(-c2ccc(O)c(O)c2)oc2cc(O)cc(O)c12
REMARK SMILES IDX 5 1 3 2 2 3 1 4 22 5 20 6 19 7 17 8 16 9 15 10 14 11 6 12
REMARK SMILES IDX 7 13 8 14 9 15 13 16 11 17 10 18 12 20 4 22 21 24 18 26
REMARK H PARENT 10 19 12 21 4 23 21 25 18 27
REMARK Flexibility Score: inf
ROOT
ATOM      1  C   UNL     1     117.163 128.616 130.464  1.00  0.00     0.180 A 
ATOM      2  C   UNL     1     116.401 129.321 131.416  1.00  0.00     0.208 A 
ATOM      3  C   UNL     1     115.546 130.344 130.978  1.00  0.00     0.238 A 
ATOM      4  O   UNL     1     114.851 130.975 131.820  1.00  0.00    -0.285 OA
ATOM      5  C   UNL     1     115.479 130.657 129.605  1.00  0.00     0.111 A 
ATOM      6  C   UNL     1     114.645 131.675 129.083  1.00  0.00     0.134 A 
ATOM      7  C   UNL     1     114.642 131.932 127.703  1.00  0.00     0.093 A 
ATOM      8  C   UNL     1     115.457 131.191 126.838  1.00  0.00     0.123 A 
ATOM      9  C   UNL     1     116.280 130.187 127.350  1.00  0.00     0.094 A 
ATOM     10  C   UNL     1     116.296 129.914 128.720  1.00  0.00     0.146 A 
ATOM     11  O   UNL     1     117.085 128.948 129.179  1.00  0.00    -0.452 OA
ENDROOT
BRANCH   1  12
ATOM     12  C   UNL     1     118.073 127.512 130.845  1.00  0.00     0.025 A 
ATOM     13  C   UNL     1     117.577 126.274 131.287  1.00  0.00     0.016 A 
ATOM     14  C   UNL     1     118.456 125.239 131.618  1.00  0.00     0.051 A 
ATOM     15  C   UNL     1     119.840 125.421 131.501  1.00  0.00     0.157 A 
ATOM     16  C   UNL     1     119.461 127.683 130.709  1.00  0.00     0.062 A 
ATOM     17  C   UNL     1     120.343 126.649 131.040  1.00  0.00     0.158 A 
BRANCH  15  18
ATOM     18  O   UNL     1     120.714 124.388 131.834  1.00  0.00    -0.504 OA
ATOM     19  H   UNL     1     120.386 123.439 131.969  1.00  0.00     0.293 HD
ENDBRANCH  15  18
BRANCH  17  20
ATOM     20  O   UNL     1     121.715 126.861 130.905  1.00  0.00    -0.504 OA
ATOM     21  H   UNL     1     122.378 126.095 130.879  1.00  0.00     0.293 HD
ENDBRANCH  17  20
ENDBRANCH   1  12
BRANCH   2  22
ATOM     22  O   UNL     1     116.523 129.026 132.777  1.00  0.00    -0.502 OA
ATOM     23  H   UNL     1     117.336 129.288 133.319  1.00  0.00     0.293 HD
ENDBRANCH   2  22
BRANCH   6  24
ATOM     24  O   UNL     1     113.823 132.429 129.919  1.00  0.00    -0.507 OA
ATOM     25  H   UNL     1     113.219 133.160 129.557  1.00  0.00     0.293 HD
ENDBRANCH   6  24
BRANCH   8  26
ATOM     26  O   UNL     1     115.455 131.447 125.469  1.00  0.00    -0.508 OA
ATOM     27  H   UNL     1     116.089 132.121 125.055  1.00  0.00     0.293 HD
ENDBRANCH   8  26
TORSDOF 6
ENDMDL
MODEL 5
REMARK VINA RESULT:    -6.702     12.100     14.375
REMARK INTER + INTRA:          -7.965
REMARK INTER:                  -7.914
REMARK INTRA:                  -0.051
REMARK UNBOUND:                 0.108
REMARK SMILES O=c1c(O)c(-c2ccc(O)c(O)c2)oc2cc(O)cc(O)c12
REMARK SMILES IDX 5 1 3 2 2 3 1 4 22 5 20 6 19 7 17 8 16 9 15 10 14 11 6 12
REMARK SMILES IDX 7 13 8 14 9 15 13 16 11 17 10 18 12 20 4 22 21 24 18 26
REMARK H PARENT 10 19 12 21 4 23 21 25 18 27
REMARK Flexibility Score: inf
ROOT
ATOM      1  C   UNL     1     117.403 127.396 131.298  1.00  0.00     0.180 A 
ATOM      2  C   UNL     1     118.723 127.008 130.996  1.00  0.00     0.208 A 
ATOM      3  C   UNL     1     119.244 125.850 131.596  1.00  0.00     0.238 A 
ATOM      4  O   UNL     1     120.421 125.487 131.325  1.00  0.00    -0.285 OA
ATOM      5  C   UNL     1     118.448 125.113 132.497  1.00  0.00     0.111 A 
ATOM      6  C   UNL     1     118.899 123.938 133.145  1.00  0.00     0.134 A 
ATOM      7  C   UNL     1     118.048 123.265 134.036  1.00  0.00     0.093 A 
ATOM      8  C   UNL     1     116.759 123.747 134.291  1.00  0.00     0.123 A 
ATOM      9  C   UNL     1     116.311 124.905 133.654  1.00  0.00     0.094 A 
ATOM     10  C   UNL     1     117.142 125.588 132.761  1.00  0.00     0.146 A 
ATOM     11  O   UNL     1     116.687 126.684 132.164  1.00  0.00    -0.452 OA
ENDROOT
BRANCH   1  12
ATOM     12  C   UNL     1     116.777 128.593 130.693  1.00  0.00     0.025 A 
ATOM     13  C   UNL     1     116.769 128.790 129.301  1.00  0.00     0.016 A 
ATOM     14  C   UNL     1     116.151 129.916 128.751  1.00  0.00     0.051 A 
ATOM     15  C   UNL     1     115.520 130.853 129.580  1.00  0.00     0.157 A 
ATOM     16  C   UNL     1     116.125 129.524 131.518  1.00  0.00     0.062 A 
ATOM     17  C   UNL     1     115.505 130.653 130.970  1.00  0.00     0.158 A 
BRANCH  15  18
ATOM     18  O   UNL     1     114.906 131.976 129.029  1.00  0.00    -0.504 OA
ATOM     19  H   UNL     1     114.000 132.297 129.351  1.00  0.00     0.293 HD
ENDBRANCH  15  18
BRANCH  17  20
ATOM     20  O   UNL     1     114.880 131.562 131.823  1.00  0.00    -0.504 OA
ATOM     21  H   UNL     1     114.925 131.473 132.831  1.00  0.00     0.293 HD
ENDBRANCH  17  20
ENDBRANCH   1  12
BRANCH   2  22
ATOM     22  O   UNL     1     119.509 127.783 130.139  1.00  0.00    -0.502 OA
ATOM     23  H   UNL     1     120.258 127.389 129.585  1.00  0.00     0.293 HD
ENDBRANCH   2  22
BRANCH   6  24
ATOM     24  O   UNL     1     120.179 123.435 132.911  1.00  0.00    -0.507 OA
ATOM     25  H   UNL     1     120.326 122.533 132.471  1.00  0.00     0.293 HD
ENDBRANCH   6  24
BRANCH   8  26
ATOM     26  O   UNL     1     115.915 123.080 135.177  1.00  0.00    -0.508 OA
ATOM     27  H   UNL     1     115.896 122.068 135.231  1.00  0.00     0.293 HD
ENDBRANCH   8  26
TORSDOF 6
ENDMDL
MODEL 6
REMARK VINA RESULT:    -6.600     12.230     14.592
REMARK INTER + INTRA:          -7.843
REMARK INTER:                  -7.633
REMARK INTRA:                  -0.210
REMARK UNBOUND:                 0.108
REMARK SMILES O=c1c(O)c(-c2ccc(O)c(O)c2)oc2cc(O)cc(O)c12
REMARK SMILES IDX 5 1 3 2 2 3 1 4 22 5 20 6 19 7 17 8 16 9 15 10 14 11 6 12
REMARK SMILES IDX 7 13 8 14 9 15 13 16 11 17 10 18 12 20 4 22 21 24 18 26
REMARK H PARENT 10 19 12 21 4 23 21 25 18 27
REMARK Flexibility Score: inf
ROOT
ATOM      1  C   UNL     1     116.583 128.517 130.570  1.00  0.00     0.180 A 
ATOM      2  C   UNL     1     116.339 128.967 131.882  1.00  0.00     0.208 A 
ATOM      3  C   UNL     1     117.010 128.347 132.947  1.00  0.00     0.238 A 
ATOM      4  O   UNL     1     116.808 128.748 134.126  1.00  0.00    -0.285 OA
ATOM      5  C   UNL     1     117.896 127.280 132.688  1.00  0.00     0.111 A 
ATOM      6  C   UNL     1     118.608 126.601 133.705  1.00  0.00     0.134 A 
ATOM      7  C   UNL     1     119.465 125.542 133.366  1.00  0.00     0.093 A 
ATOM      8  C   UNL     1     119.620 125.151 132.030  1.00  0.00     0.123 A 
ATOM      9  C   UNL     1     118.919 125.819 131.025  1.00  0.00     0.094 A 
ATOM     10  C   UNL     1     118.063 126.877 131.342  1.00  0.00     0.146 A 
ATOM     11  O   UNL     1     117.413 127.499 130.365  1.00  0.00    -0.452 OA
ENDROOT
BRANCH   1  12
ATOM     12  C   UNL     1     115.928 129.132 129.393  1.00  0.00     0.025 A 
ATOM     13  C   UNL     1     114.548 128.989 129.166  1.00  0.00     0.016 A 
ATOM     14  C   UNL     1     113.949 129.598 128.060  1.00  0.00     0.051 A 
ATOM     15  C   UNL     1     114.714 130.369 127.174  1.00  0.00     0.157 A 
ATOM     16  C   UNL     1     116.687 129.922 128.514  1.00  0.00     0.062 A 
ATOM     17  C   UNL     1     116.089 130.533 127.406  1.00  0.00     0.158 A 
BRANCH  15  18
ATOM     18  O   UNL     1     114.114 130.973 126.072  1.00  0.00    -0.504 OA
ATOM     19  H   UNL     1     114.612 131.641 125.496  1.00  0.00     0.293 HD
ENDBRANCH  15  18
BRANCH  17  20
ATOM     20  O   UNL     1     116.878 131.299 126.548  1.00  0.00    -0.504 OA
ATOM     21  H   UNL     1     117.404 130.886 125.788  1.00  0.00     0.293 HD
ENDBRANCH  17  20
ENDBRANCH   1  12
BRANCH   2  22
ATOM     22  O   UNL     1     115.419 129.992 132.118  1.00  0.00    -0.502 OA
ATOM     23  H   UNL     1     115.638 130.967 131.953  1.00  0.00     0.293 HD
ENDBRANCH   2  22
BRANCH   6  24
ATOM     24  O   UNL     1     118.473 126.967 135.044  1.00  0.00    -0.507 OA
ATOM     25  H   UNL     1     117.885 127.744 135.328  1.00  0.00     0.293 HD
ENDBRANCH   6  24
BRANCH   8  26
ATOM     26  O   UNL     1     120.469 124.099 131.693  1.00  0.00    -0.508 OA
ATOM     27  H   UNL     1     120.558 123.775 130.737  1.00  0.00     0.293 HD
ENDBRANCH   8  26
TORSDOF 6
ENDMDL
MODEL 7
REMARK VINA RESULT:    -6.525     10.575     13.214
REMARK INTER + INTRA:          -7.752
REMARK INTER:                  -7.563
REMARK INTRA:                  -0.189
REMARK UNBOUND:                 0.108
REMARK SMILES O=c1c(O)c(-c2ccc(O)c(O)c2)oc2cc(O)cc(O)c12
REMARK SMILES IDX 5 1 3 2 2 3 1 4 22 5 20 6 19 7 17 8 16 9 15 10 14 11 6 12
REMARK SMILES IDX 7 13 8 14 9 15 13 16 11 17 10 18 12 20 4 22 21 24 18 26
REMARK H PARENT 10 19 12 21 4 23 21 25 18 27
REMARK Flexibility Score: inf
ROOT
ATOM      1  C   UNL     1     119.711 126.738 132.640  1.00  0.00     0.180 A 
ATOM      2  C   UNL     1     119.947 125.350 132.636  1.00  0.00     0.208 A 
ATOM      3  C   UNL     1     118.960 124.493 133.147  1.00  0.00     0.238 A 
ATOM      4  O   UNL     1     119.155 123.246 133.139  1.00  0.00    -0.285 OA
ATOM      5  C   UNL     1     117.767 125.035 133.668  1.00  0.00     0.111 A 
ATOM      6  C   UNL     1     116.725 124.240 134.203  1.00  0.00     0.134 A 
ATOM      7  C   UNL     1     115.571 124.857 134.712  1.00  0.00     0.093 A 
ATOM      8  C   UNL     1     115.442 126.251 134.695  1.00  0.00     0.123 A 
ATOM      9  C   UNL     1     116.467 127.037 134.167  1.00  0.00     0.094 A 
ATOM     10  C   UNL     1     117.623 126.442 133.654  1.00  0.00     0.146 A 
ATOM     11  O   UNL     1     118.580 127.214 133.152  1.00  0.00    -0.452 OA
ENDROOT
BRANCH   1  12
ATOM     12  C   UNL     1     120.694 127.705 132.102  1.00  0.00     0.025 A 
ATOM     13  C   UNL     1     121.391 128.587 132.947  1.00  0.00     0.016 A 
ATOM     14  C   UNL     1     122.332 129.475 132.419  1.00  0.00     0.051 A 
ATOM     15  C   UNL     1     122.601 129.486 131.043  1.00  0.00     0.157 A 
ATOM     16  C   UNL     1     120.982 127.706 130.727  1.00  0.00     0.062 A 
ATOM     17  C   UNL     1     121.924 128.594 130.195  1.00  0.00     0.158 A 
BRANCH  15  18
ATOM     18  O   UNL     1     123.538 130.374 130.519  1.00  0.00    -0.504 OA
ATOM     19  H   UNL     1     124.052 131.014 131.113  1.00  0.00     0.293 HD
ENDBRANCH  15  18
BRANCH  17  20
ATOM     20  O   UNL     1     122.173 128.575 128.823  1.00  0.00    -0.504 OA
ATOM     21  H   UNL     1     123.111 128.634 128.446  1.00  0.00     0.293 HD
ENDBRANCH  17  20
ENDBRANCH   1  12
BRANCH   2  22
ATOM     22  O   UNL     1     121.158 124.841 132.160  1.00  0.00    -0.502 OA
ATOM     23  H   UNL     1     121.203 124.134 131.436  1.00  0.00     0.293 HD
ENDBRANCH   2  22
BRANCH   6  24
ATOM     24  O   UNL     1     116.826 122.849 134.235  1.00  0.00    -0.507 OA
ATOM     25  H   UNL     1     116.650 122.283 133.412  1.00  0.00     0.293 HD
ENDBRANCH   6  24
BRANCH   8  26
ATOM     26  O   UNL     1     114.297 126.863 135.201  1.00  0.00    -0.508 OA
ATOM     27  H   UNL     1     113.477 127.012 134.624  1.00  0.00     0.293 HD
ENDBRANCH   8  26
TORSDOF 6
ENDMDL
MODEL 8
REMARK VINA RESULT:    -6.486     11.877     14.292
REMARK INTER + INTRA:          -7.704
REMARK INTER:                  -7.399
REMARK INTRA:                  -0.305
REMARK UNBOUND:                 0.108
REMARK SMILES O=c1c(O)c(-c2ccc(O)c(O)c2)oc2cc(O)cc(O)c12
REMARK SMILES IDX 5 1 3 2 2 3 1 4 22 5 20 6 19 7 17 8 16 9 15 10 14 11 6 12
REMARK SMILES IDX 7 13 8 14 9 15 13 16 11 17 10 18 12 20 4 22 21 24 18 26
REMARK H PARENT 10 19 12 21 4 23 21 25 18 27
REMARK Flexibility Score: inf
ROOT
ATOM      1  C   UNL     1     117.415 128.062 131.523  1.00  0.00     0.180 A 
ATOM      2  C   UNL     1     117.256 126.666 131.617  1.00  0.00     0.208 A 
ATOM      3  C   UNL     1     118.044 125.954 132.535  1.00  0.00     0.238 A 
ATOM      4  O   UNL     1     117.902 124.705 132.635  1.00  0.00    -0.285 OA
ATOM      5  C   UNL     1     118.986 126.642 133.326  1.00  0.00     0.111 A 
ATOM      6  C   UNL     1     119.820 125.998 134.272  1.00  0.00     0.134 A 
ATOM      7  C   UNL     1     120.741 126.753 135.015  1.00  0.00     0.093 A 
ATOM      8  C   UNL     1     120.843 128.137 134.829  1.00  0.00     0.123 A 
ATOM      9  C   UNL     1     120.022 128.775 133.898  1.00  0.00     0.094 A 
ATOM     10  C   UNL     1     119.098 128.041 133.150  1.00  0.00     0.146 A 
ATOM     11  O   UNL     1     118.324 128.675 132.275  1.00  0.00    -0.452 OA
ENDROOT
BRANCH   1  12
ATOM     12  C   UNL     1     116.609 128.886 130.593  1.00  0.00     0.025 A 
ATOM     13  C   UNL     1     115.485 129.603 131.038  1.00  0.00     0.016 A 
ATOM     14  C   UNL     1     114.753 130.392 130.146  1.00  0.00     0.051 A 
ATOM     15  C   UNL     1     115.141 130.488 128.803  1.00  0.00     0.157 A 
ATOM     16  C   UNL     1     117.006 129.001 129.250  1.00  0.00     0.062 A 
ATOM     17  C   UNL     1     116.275 129.790 128.355  1.00  0.00     0.158 A 
BRANCH  15  18
ATOM     18  O   UNL     1     114.408 131.274 127.916  1.00  0.00    -0.504 OA
ATOM     19  H   UNL     1     114.775 132.145 127.552  1.00  0.00     0.293 HD
ENDBRANCH  15  18
BRANCH  17  20
ATOM     20  O   UNL     1     116.691 129.869 127.027  1.00  0.00    -0.504 OA
ATOM     21  H   UNL     1     117.221 130.657 126.675  1.00  0.00     0.293 HD
ENDBRANCH  17  20
ENDBRANCH   1  12
BRANCH   2  22
ATOM     22  O   UNL     1     116.350 126.001 130.786  1.00  0.00    -0.502 OA
ATOM     23  H   UNL     1     115.699 125.310 131.136  1.00  0.00     0.293 HD
ENDBRANCH   2  22
BRANCH   6  24
ATOM     24  O   UNL     1     119.742 124.621 134.478  1.00  0.00    -0.507 OA
ATOM     25  H   UNL     1     120.552 124.019 134.375  1.00  0.00     0.293 HD
ENDBRANCH   6  24
BRANCH   8  26
ATOM     26  O   UNL     1     121.757 128.886 135.566  1.00  0.00    -0.508 OA
ATOM     27  H   UNL     1     121.541 129.219 136.499  1.00  0.00     0.293 HD
ENDBRANCH   8  26
TORSDOF 6
ENDMDL
MODEL 9
REMARK VINA RESULT:    -6.235     12.204     13.235
REMARK INTER + INTRA:          -7.402
REMARK INTER:                  -7.090
REMARK INTRA:                  -0.313
REMARK UNBOUND:                 0.108
REMARK SMILES O=c1c(O)c(-c2ccc(O)c(O)c2)oc2cc(O)cc(O)c12
REMARK SMILES IDX 5 1 3 2 2 3 1 4 22 5 20 6 19 7 17 8 16 9 15 10 14 11 6 12
REMARK SMILES IDX 7 13 8 14 9 15 13 16 11 17 10 18 12 20 4 22 21 24 18 26
REMARK H PARENT 10 19 12 21 4 23 21 25 18 27
REMARK Flexibility Score: inf
ROOT
ATOM      1  C   UNL     1     119.187 127.350 134.578  1.00  0.00     0.180 A 
ATOM      2  C   UNL     1     119.285 126.209 133.757  1.00  0.00     0.208 A 
ATOM      3  C   UNL     1     118.475 126.125 132.614  1.00  0.00     0.238 A 
ATOM      4  O   UNL     1     118.561 125.113 131.866  1.00  0.00    -0.285 OA
ATOM      5  C   UNL     1     117.574 127.168 132.320  1.00  0.00     0.111 A 
ATOM      6  C   UNL     1     116.721 127.159 131.189  1.00  0.00     0.134 A 
ATOM      7  C   UNL     1     115.844 128.233 130.970  1.00  0.00     0.093 A 
ATOM      8  C   UNL     1     115.803 129.312 131.861  1.00  0.00     0.123 A 
ATOM      9  C   UNL     1     116.642 129.324 132.976  1.00  0.00     0.094 A 
ATOM     10  C   UNL     1     117.524 128.266 133.210  1.00  0.00     0.146 A 
ATOM     11  O   UNL     1     118.315 128.307 134.277  1.00  0.00    -0.452 OA
ENDROOT
BRANCH   1  12
ATOM     12  C   UNL     1     120.020 127.520 135.790  1.00  0.00     0.025 A 
ATOM     13  C   UNL     1     119.653 126.940 137.017  1.00  0.00     0.016 A 
ATOM     14  C   UNL     1     120.467 127.095 138.142  1.00  0.00     0.051 A 
ATOM     15  C   UNL     1     121.664 127.820 138.056  1.00  0.00     0.157 A 
ATOM     16  C   UNL     1     121.230 128.228 135.704  1.00  0.00     0.062 A 
ATOM     17  C   UNL     1     122.047 128.385 136.829  1.00  0.00     0.158 A 
BRANCH  15  18
ATOM     18  O   UNL     1     122.472 127.975 139.180  1.00  0.00    -0.504 OA
ATOM     19  H   UNL     1     122.598 128.878 139.623  1.00  0.00     0.293 HD
ENDBRANCH  15  18
BRANCH  17  20
ATOM     20  O   UNL     1     123.235 129.106 136.707  1.00  0.00    -0.504 OA
ATOM     21  H   UNL     1     124.091 128.680 136.374  1.00  0.00     0.293 HD
ENDBRANCH  17  20
ENDBRANCH   1  12
BRANCH   2  22
ATOM     22  O   UNL     1     120.150 125.166 134.098  1.00  0.00    -0.502 OA
ATOM     23  H   UNL     1     121.134 125.177 133.859  1.00  0.00     0.293 HD
ENDBRANCH   2  22
BRANCH   6  24
ATOM     24  O   UNL     1     116.739 126.097 130.285  1.00  0.00    -0.507 OA
ATOM     25  H   UNL     1     116.788 125.133 130.595  1.00  0.00     0.293 HD
ENDBRANCH   6  24
BRANCH   8  26
ATOM     26  O   UNL     1     114.931 130.377 131.645  1.00  0.00    -0.508 OA
ATOM     27  H   UNL     1     115.038 130.996 130.850  1.00  0.00     0.293 HD
ENDBRANCH   8  26
TORSDOF 6
ENDMDL
