MODEL 1
REMARK VINA RESULT:     0.075      0.000      0.000
REMARK INTER + INTRA:          -0.584
REMARK INTER:                   0.114
REMARK INTRA:                  -0.699
REMARK UNBOUND:                -0.699
REMARK SMILES OC[C@@H]1O[C@@](CO)(O[C@@H]2O[C@H](CO)[C@@H](O)[C@H](O)[C@@H]2O)[C@H](O)[C@H]1O
REMARK SMILES IDX 8 1 9 2 11 3 14 4 10 5 16 6 18 7 12 8 13 9 15 11 17 13 19 15
REMARK SMILES IDX 5 17 20 18 4 19 22 20 3 21 6 22 7 23 21 25 23 27 2 29 1 30
REMARK H PARENT 13 10 15 12 17 14 19 16 7 24 21 26 23 28 1 31
REMARK Flexibility Score: inf
ROOT
ATOM      1  O   UNL     1     -13.276  -4.135 -21.530  1.00  0.00    -0.313 OA
ENDROOT
BRANCH   1   2
ATOM      2  C   UNL     1     -13.439  -2.745 -21.272  1.00  0.00     0.285 C 
ATOM      3  C   UNL     1     -11.343  -2.439 -20.145  1.00  0.00     0.178 C 
ATOM      4  C   UNL     1     -12.040  -2.283 -18.771  1.00  0.00     0.177 C 
ATOM      5  O   UNL     1     -12.175  -2.094 -21.250  1.00  0.00    -0.341 OA
ATOM      6  C   UNL     1     -13.418  -2.963 -18.745  1.00  0.00     0.179 C 
ATOM      7  C   UNL     1     -14.231  -2.524 -19.971  1.00  0.00     0.202 C 
BRANCH   3   8
ATOM      8  C   UNL     1     -10.618  -3.790 -20.328  1.00  0.00     0.191 C 
BRANCH   8   9
ATOM      9  O   UNL     1     -10.050  -3.871 -21.607  1.00  0.00    -0.394 OA
ATOM     10  H   UNL     1      -9.081  -4.058 -21.482  1.00  0.00     0.210 HD
ENDBRANCH   8   9
ENDBRANCH   3   8
BRANCH   4  11
ATOM     11  O   UNL     1     -12.184  -0.910 -18.501  1.00  0.00    -0.387 OA
ATOM     12  H   UNL     1     -13.040  -0.797 -18.007  1.00  0.00     0.211 HD
ENDBRANCH   4  11
BRANCH   6  13
ATOM     13  O   UNL     1     -13.263  -4.361 -18.716  1.00  0.00    -0.387 OA
ATOM     14  H   UNL     1     -13.675  -4.683 -17.872  1.00  0.00     0.211 HD
ENDBRANCH   6  13
BRANCH   7  15
ATOM     15  O   UNL     1     -15.448  -3.224 -20.028  1.00  0.00    -0.385 OA
ATOM     16  H   UNL     1     -15.753  -3.196 -20.971  1.00  0.00     0.211 HD
ENDBRANCH   7  15
ENDBRANCH   1   2
BRANCH   1  17
ATOM     17  C   UNL     1     -13.374  -4.502 -22.904  1.00  0.00     0.224 C 
ATOM     18  C   UNL     1     -14.869  -4.761 -23.206  1.00  0.00     0.208 C 
ATOM     19  O   UNL     1     -12.941  -3.439 -23.744  1.00  0.00    -0.337 OA
ATOM     20  C   UNL     1     -15.076  -4.093 -24.539  1.00  0.00     0.180 C 
ATOM     21  C   UNL     1     -14.054  -2.973 -24.472  1.00  0.00     0.179 C 
BRANCH  17  22
ATOM     22  C   UNL     1     -12.495  -5.745 -23.202  1.00  0.00     0.225 C 
BRANCH  22  23
ATOM     23  O   UNL     1     -11.655  -6.025 -22.113  1.00  0.00    -0.391 OA
ATOM     24  H   UNL     1     -11.607  -5.205 -21.555  1.00  0.00     0.210 HD
ENDBRANCH  22  23
ENDBRANCH  17  22
BRANCH  18  25
ATOM     25  O   UNL     1     -15.202  -6.125 -23.256  1.00  0.00    -0.385 OA
ATOM     26  H   UNL     1     -15.078  -6.486 -22.341  1.00  0.00     0.211 HD
ENDBRANCH  18  25
BRANCH  20  27
ATOM     27  O   UNL     1     -16.375  -3.573 -24.661  1.00  0.00    -0.387 OA
ATOM     28  H   UNL     1     -16.959  -4.135 -24.090  1.00  0.00     0.211 HD
ENDBRANCH  20  27
BRANCH  21  29
ATOM     29  C   UNL     1     -13.619  -2.513 -25.870  1.00  0.00     0.191 C 
BRANCH  29  30
ATOM     30  O   UNL     1     -14.373  -1.404 -26.276  1.00  0.00    -0.394 OA
ATOM     31  H   UNL     1     -13.728  -0.666 -26.434  1.00  0.00     0.210 HD
ENDBRANCH  29  30
ENDBRANCH  21  29
ENDBRANCH   1  17
TORSDOF 13
ENDMDL
MODEL 2
REMARK VINA RESULT:     1.890      1.518      5.693
REMARK INTER + INTRA:           2.186
REMARK INTER:                   2.928
REMARK INTRA:                  -0.741
REMARK UNBOUND:                -0.699
REMARK SMILES OC[C@@H]1O[C@@](CO)(O[C@@H]2O[C@H](CO)[C@@H](O)[C@H](O)[C@@H]2O)[C@H](O)[C@H]1O
REMARK SMILES IDX 8 1 9 2 11 3 14 4 10 5 16 6 18 7 12 8 13 9 15 11 17 13 19 15
REMARK SMILES IDX 5 17 20 18 4 19 22 20 3 21 6 22 7 23 21 25 23 27 2 29 1 30
REMARK H PARENT 13 10 15 12 17 14 19 16 7 24 21 26 23 28 1 31
REMARK Flexibility Score: inf
ROOT
ATOM      1  O   UNL     1     -12.816  -4.199 -21.462  1.00  0.00    -0.313 OA
ENDROOT
BRANCH   1   2
ATOM      2  C   UNL     1     -13.117  -3.052 -22.249  1.00  0.00     0.285 C 
ATOM      3  C   UNL     1     -15.008  -3.999 -23.381  1.00  0.00     0.178 C 
ATOM      4  C   UNL     1     -14.228  -4.110 -24.713  1.00  0.00     0.177 C 
ATOM      5  O   UNL     1     -14.513  -2.983 -22.511  1.00  0.00    -0.341 OA
ATOM      6  C   UNL     1     -12.709  -4.178 -24.485  1.00  0.00     0.179 C 
ATOM      7  C   UNL     1     -12.280  -3.046 -23.542  1.00  0.00     0.202 C 
BRANCH   3   8
ATOM      8  C   UNL     1     -15.232  -5.352 -22.672  1.00  0.00     0.191 C 
BRANCH   8   9
ATOM      9  O   UNL     1     -16.320  -6.030 -23.242  1.00  0.00    -0.394 OA
ATOM     10  H   UNL     1     -16.766  -6.528 -22.507  1.00  0.00     0.210 HD
ENDBRANCH   8   9
ENDBRANCH   3   8
BRANCH   4  11
ATOM     11  O   UNL     1     -14.538  -2.990 -25.505  1.00  0.00    -0.387 OA
ATOM     12  H   UNL     1     -15.325  -3.234 -26.063  1.00  0.00     0.211 HD
ENDBRANCH   4  11
BRANCH   6  13
ATOM     13  O   UNL     1     -12.359  -5.435 -23.958  1.00  0.00    -0.387 OA
ATOM     14  H   UNL     1     -11.706  -5.273 -23.227  1.00  0.00     0.211 HD
ENDBRANCH   6  13
BRANCH   7  15
ATOM     15  O   UNL     1     -10.916  -3.161 -23.227  1.00  0.00    -0.385 OA
ATOM     16  H   UNL     1     -10.835  -3.048 -22.245  1.00  0.00     0.211 HD
ENDBRANCH   7  15
ENDBRANCH   1   2
BRANCH   1  17
ATOM     17  C   UNL     1     -12.295  -3.913 -20.167  1.00  0.00     0.224 C 
ATOM     18  C   UNL     1     -11.232  -2.800 -20.333  1.00  0.00     0.208 C 
ATOM     19  O   UNL     1     -13.313  -3.411 -19.310  1.00  0.00    -0.337 OA
ATOM     20  C   UNL     1     -11.516  -1.872 -19.184  1.00  0.00     0.180 C 
ATOM     21  C   UNL     1     -13.009  -2.070 -19.004  1.00  0.00     0.179 C 
BRANCH  17  22
ATOM     22  C   UNL     1     -11.703  -5.192 -19.521  1.00  0.00     0.225 C 
BRANCH  22  23
ATOM     23  O   UNL     1     -10.829  -5.833 -20.412  1.00  0.00    -0.391 OA
ATOM     24  H   UNL     1     -10.599  -6.717 -20.020  1.00  0.00     0.210 HD
ENDBRANCH  22  23
ENDBRANCH  17  22
BRANCH  18  25
ATOM     25  O   UNL     1      -9.911  -3.278 -20.296  1.00  0.00    -0.385 OA
ATOM     26  H   UNL     1      -9.481  -3.007 -21.147  1.00  0.00     0.211 HD
ENDBRANCH  18  25
BRANCH  20  27
ATOM     27  O   UNL     1     -11.228  -0.537 -19.514  1.00  0.00    -0.387 OA
ATOM     28  H   UNL     1     -11.442   0.006 -18.712  1.00  0.00     0.211 HD
ENDBRANCH  20  27
BRANCH  21  29
ATOM     29  C   UNL     1     -13.462  -1.736 -17.576  1.00  0.00     0.191 C 
BRANCH  29  30
ATOM     30  O   UNL     1     -12.403  -1.177 -16.846  1.00  0.00    -0.394 OA
ATOM     31  H   UNL     1     -11.816  -1.931 -16.578  1.00  0.00     0.210 HD
ENDBRANCH  29  30
ENDBRANCH  21  29
ENDBRANCH   1  17
TORSDOF 13
ENDMDL
MODEL 3
REMARK VINA RESULT:     2.418     15.409     18.376
REMARK INTER + INTRA:           2.992
REMARK INTER:                   3.731
REMARK INTRA:                  -0.739
REMARK UNBOUND:                -0.699
REMARK SMILES OC[C@@H]1O[C@@](CO)(O[C@@H]2O[C@H](CO)[C@@H](O)[C@H](O)[C@@H]2O)[C@H](O)[C@H]1O
REMARK SMILES IDX 8 1 9 2 11 3 14 4 10 5 16 6 18 7 12 8 13 9 15 11 17 13 19 15
REMARK SMILES IDX 5 17 20 18 4 19 22 20 3 21 6 22 7 23 21 25 23 27 2 29 1 30
REMARK H PARENT 13 10 15 12 17 14 19 16 7 24 21 26 23 28 1 31
REMARK Flexibility Score: inf
ROOT
ATOM      1  O   UNL     1     -17.234  11.630 -14.053  1.00  0.00    -0.313 OA
ENDROOT
BRANCH   1   2
ATOM      2  C   UNL     1     -16.265  12.336 -14.821  1.00  0.00     0.285 C 
ATOM      3  C   UNL     1     -16.189  10.780 -16.644  1.00  0.00     0.178 C 
ATOM      4  C   UNL     1     -14.786  10.275 -16.231  1.00  0.00     0.177 C 
ATOM      5  O   UNL     1     -16.471  12.108 -16.209  1.00  0.00    -0.341 OA
ATOM      6  C   UNL     1     -14.509  10.508 -14.737  1.00  0.00     0.179 C 
ATOM      7  C   UNL     1     -14.840  11.962 -14.373  1.00  0.00     0.202 C 
BRANCH   3   8
ATOM      8  C   UNL     1     -17.328   9.783 -16.335  1.00  0.00     0.191 C 
BRANCH   8   9
ATOM      9  O   UNL     1     -18.554  10.457 -16.238  1.00  0.00    -0.394 OA
ATOM     10  H   UNL     1     -18.890  10.580 -17.165  1.00  0.00     0.210 HD
ENDBRANCH   8   9
ENDBRANCH   3   8
BRANCH   4  11
ATOM     11  O   UNL     1     -13.825  10.954 -17.002  1.00  0.00    -0.387 OA
ATOM     12  H   UNL     1     -13.236  11.447 -16.369  1.00  0.00     0.211 HD
ENDBRANCH   4  11
BRANCH   6  13
ATOM     13  O   UNL     1     -15.264   9.609 -13.963  1.00  0.00    -0.387 OA
ATOM     14  H   UNL     1     -14.953   9.699 -13.023  1.00  0.00     0.211 HD
ENDBRANCH   6  13
BRANCH   7  15
ATOM     15  O   UNL     1     -14.706  12.164 -12.989  1.00  0.00    -0.385 OA
ATOM     16  H   UNL     1     -15.465  11.698 -12.554  1.00  0.00     0.211 HD
ENDBRANCH   7  15
ENDBRANCH   1   2
BRANCH   1  17
ATOM     17  C   UNL     1     -18.054  12.452 -13.226  1.00  0.00     0.224 C 
ATOM     18  C   UNL     1     -19.386  12.681 -13.980  1.00  0.00     0.208 C 
ATOM     19  O   UNL     1     -18.358  11.796 -12.002  1.00  0.00    -0.337 OA
ATOM     20  C   UNL     1     -20.426  12.517 -12.906  1.00  0.00     0.180 C 
ATOM     21  C   UNL     1     -19.741  11.532 -11.976  1.00  0.00     0.179 C 
BRANCH  17  22
ATOM     22  C   UNL     1     -17.334  13.786 -12.896  1.00  0.00     0.225 C 
BRANCH  22  23
ATOM     23  O   UNL     1     -16.572  13.656 -11.725  1.00  0.00    -0.391 OA
ATOM     24  H   UNL     1     -16.629  14.518 -11.235  1.00  0.00     0.210 HD
ENDBRANCH  22  23
ENDBRANCH  17  22
BRANCH  18  25
ATOM     25  O   UNL     1     -19.472  13.942 -14.593  1.00  0.00    -0.385 OA
ATOM     26  H   UNL     1     -19.138  13.836 -15.520  1.00  0.00     0.211 HD
ENDBRANCH  18  25
BRANCH  20  27
ATOM     27  O   UNL     1     -21.615  11.972 -13.418  1.00  0.00    -0.387 OA
ATOM     28  H   UNL     1     -21.361  11.149 -13.909  1.00  0.00     0.211 HD
ENDBRANCH  20  27
BRANCH  21  29
ATOM     29  C   UNL     1     -20.275  11.635 -10.542  1.00  0.00     0.191 C 
BRANCH  29  30
ATOM     30  O   UNL     1     -20.974  10.470 -10.195  1.00  0.00    -0.394 OA
ATOM     31  H   UNL     1     -21.187  10.545  -9.228  1.00  0.00     0.210 HD
ENDBRANCH  29  30
ENDBRANCH  21  29
ENDBRANCH   1  17
TORSDOF 13
ENDMDL
