MODEL 1
REMARK VINA RESULT:    -4.561      0.000      0.000
REMARK INTER + INTRA:          -5.338
REMARK INTER:                  -5.094
REMARK INTRA:                  -0.244
REMARK UNBOUND:                -0.244
REMARK SMILES CC=C(C)C=CC=C(C)C
REMARK SMILES IDX 5 1 6 2 3 3 1 4 2 5 4 6 7 7 8 8 9 9 10 10
REMARK H PARENT
REMARK Flexibility Score: inf
ROOT
ATOM      1  C   UNL     1     -53.033 -46.720  23.533  1.00  0.00     0.003 C 
ATOM      2  C   UNL     1     -53.772 -47.331  22.600  1.00  0.00     0.000 C 
ENDROOT
BRANCH   1   3
ATOM      3  C   UNL     1     -51.960 -47.402  24.303  1.00  0.00    -0.055 C 
ATOM      4  C   UNL     1     -50.748 -49.546  24.810  1.00  0.00     0.036 C 
ATOM      5  C   UNL     1     -51.819 -48.733  24.148  1.00  0.00    -0.027 C 
ATOM      6  C   UNL     1     -51.020 -46.603  25.179  1.00  0.00     0.044 C 
ENDBRANCH   1   3
BRANCH   2   7
ATOM      7  C   UNL     1     -54.832 -46.595  21.876  1.00  0.00    -0.001 C 
ATOM      8  C   UNL     1     -55.888 -47.186  21.287  1.00  0.00    -0.076 C 
ATOM      9  C   UNL     1     -56.085 -48.680  21.317  1.00  0.00     0.039 C 
ATOM     10  C   UNL     1     -56.895 -46.319  20.580  1.00  0.00     0.039 C 
ENDBRANCH   2   7
TORSDOF 2
ENDMDL
MODEL 2
REMARK VINA RESULT:    -4.503      1.143      1.770
REMARK INTER + INTRA:          -5.273
REMARK INTER:                  -4.999
REMARK INTRA:                  -0.274
REMARK UNBOUND:                -0.244
REMARK SMILES CC=C(C)C=CC=C(C)C
REMARK SMILES IDX 5 1 6 2 3 3 1 4 2 5 4 6 7 7 8 8 9 9 10 10
REMARK H PARENT
REMARK Flexibility Score: inf
ROOT
ATOM      1  C   UNL     1     -52.640 -47.875  21.913  1.00  0.00     0.003 C 
ATOM      2  C   UNL     1     -53.802 -47.548  22.493  1.00  0.00     0.000 C 
ENDROOT
BRANCH   1   3
ATOM      3  C   UNL     1     -51.631 -48.762  22.547  1.00  0.00    -0.055 C 
ATOM      4  C   UNL     1     -50.602 -49.627  24.672  1.00  0.00     0.036 C 
ATOM      5  C   UNL     1     -51.530 -48.747  23.890  1.00  0.00    -0.027 C 
ATOM      6  C   UNL     1     -50.796 -49.698  21.701  1.00  0.00     0.044 C 
ENDBRANCH   1   3
BRANCH   2   7
ATOM      7  C   UNL     1     -54.760 -46.651  21.810  1.00  0.00    -0.001 C 
ATOM      8  C   UNL     1     -55.893 -47.073  21.220  1.00  0.00    -0.076 C 
ATOM      9  C   UNL     1     -56.292 -48.528  21.206  1.00  0.00     0.039 C 
ATOM     10  C   UNL     1     -56.781 -46.055  20.557  1.00  0.00     0.039 C 
ENDBRANCH   2   7
TORSDOF 2
ENDMDL
MODEL 3
REMARK VINA RESULT:    -4.466     11.452     15.068
REMARK INTER + INTRA:          -5.231
REMARK INTER:                  -4.955
REMARK INTRA:                  -0.277
REMARK UNBOUND:                -0.244
REMARK SMILES CC=C(C)C=CC=C(C)C
REMARK SMILES IDX 5 1 6 2 3 3 1 4 2 5 4 6 7 7 8 8 9 9 10 10
REMARK H PARENT
REMARK Flexibility Score: inf
ROOT
ATOM      1  C   UNL     1     -40.894 -47.397  27.342  1.00  0.00     0.003 C 
ATOM      2  C   UNL     1     -40.351 -47.510  28.560  1.00  0.00     0.000 C 
ENDROOT
BRANCH   1   3
ATOM      3  C   UNL     1     -41.954 -48.305  26.831  1.00  0.00    -0.055 C 
ATOM      4  C   UNL     1     -43.728 -50.006  27.362  1.00  0.00     0.036 C 
ATOM      5  C   UNL     1     -42.600 -49.086  27.719  1.00  0.00    -0.027 C 
ATOM      6  C   UNL     1     -42.332 -48.292  25.366  1.00  0.00     0.044 C 
ENDBRANCH   1   3
BRANCH   2   7
ATOM      7  C   UNL     1     -39.292 -46.577  29.004  1.00  0.00    -0.001 C 
ATOM      8  C   UNL     1     -37.999 -46.923  29.148  1.00  0.00    -0.076 C 
ATOM      9  C   UNL     1     -37.510 -48.320  28.862  1.00  0.00     0.039 C 
ATOM     10  C   UNL     1     -37.022 -45.875  29.608  1.00  0.00     0.039 C 
ENDBRANCH   2   7
TORSDOF 2
ENDMDL
MODEL 4
REMARK VINA RESULT:    -4.427      1.412      5.613
REMARK INTER + INTRA:          -5.188
REMARK INTER:                  -4.925
REMARK INTRA:                  -0.263
REMARK UNBOUND:                -0.244
REMARK SMILES CC=C(C)C=CC=C(C)C
REMARK SMILES IDX 5 1 6 2 3 3 1 4 2 5 4 6 7 7 8 8 9 9 10 10
REMARK H PARENT
REMARK Flexibility Score: inf
ROOT
ATOM      1  C   UNL     1     -53.869 -48.814  21.643  1.00  0.00     0.003 C 
ATOM      2  C   UNL     1     -52.666 -48.225  21.638  1.00  0.00     0.000 C 
ENDROOT
BRANCH   1   3
ATOM      3  C   UNL     1     -55.138 -48.083  21.391  1.00  0.00    -0.055 C 
ATOM      4  C   UNL     1     -56.270 -45.876  20.980  1.00  0.00     0.036 C 
ATOM      5  C   UNL     1     -55.086 -46.741  21.290  1.00  0.00    -0.027 C 
ATOM      6  C   UNL     1     -56.431 -48.843  21.191  1.00  0.00     0.044 C 
ENDBRANCH   1   3
BRANCH   2   7
ATOM      7  C   UNL     1     -51.441 -49.010  21.906  1.00  0.00    -0.001 C 
ATOM      8  C   UNL     1     -50.906 -49.172  23.129  1.00  0.00    -0.076 C 
ATOM      9  C   UNL     1     -51.523 -48.554  24.359  1.00  0.00     0.039 C 
ATOM     10  C   UNL     1     -49.653 -49.996  23.263  1.00  0.00     0.039 C 
ENDBRANCH   2   7
TORSDOF 2
ENDMDL
MODEL 5
REMARK VINA RESULT:    -4.394      5.966      7.099
REMARK INTER + INTRA:          -5.152
REMARK INTER:                  -4.907
REMARK INTRA:                  -0.245
REMARK UNBOUND:                -0.244
REMARK SMILES CC=C(C)C=CC=C(C)C
REMARK SMILES IDX 5 1 6 2 3 3 1 4 2 5 4 6 7 7 8 8 9 9 10 10
REMARK H PARENT
REMARK Flexibility Score: inf
ROOT
ATOM      1  C   UNL     1     -51.036 -49.671  19.129  1.00  0.00     0.003 C 
ATOM      2  C   UNL     1     -49.977 -50.457  18.900  1.00  0.00     0.000 C 
ENDROOT
BRANCH   1   3
ATOM      3  C   UNL     1     -51.634 -49.475  20.476  1.00  0.00    -0.055 C 
ATOM      4  C   UNL     1     -53.696 -48.993  21.831  1.00  0.00     0.036 C 
ATOM      5  C   UNL     1     -52.943 -49.163  20.546  1.00  0.00    -0.027 C 
ATOM      6  C   UNL     1     -50.802 -49.689  21.721  1.00  0.00     0.044 C 
ENDBRANCH   1   3
BRANCH   2   7
ATOM      7  C   UNL     1     -49.436 -50.615  17.532  1.00  0.00    -0.001 C 
ATOM      8  C   UNL     1     -48.212 -50.199  17.157  1.00  0.00    -0.076 C 
ATOM      9  C   UNL     1     -47.268 -49.525  18.120  1.00  0.00     0.039 C 
ATOM     10  C   UNL     1     -47.784 -50.420  15.731  1.00  0.00     0.039 C 
ENDBRANCH   2   7
TORSDOF 2
ENDMDL
MODEL 6
REMARK VINA RESULT:    -4.384      3.557      5.455
REMARK INTER + INTRA:          -5.140
REMARK INTER:                  -4.851
REMARK INTRA:                  -0.289
REMARK UNBOUND:                -0.244
REMARK SMILES CC=C(C)C=CC=C(C)C
REMARK SMILES IDX 5 1 6 2 3 3 1 4 2 5 4 6 7 7 8 8 9 9 10 10
REMARK H PARENT
REMARK Flexibility Score: inf
ROOT
ATOM      1  C   UNL     1     -52.911 -48.267  21.114  1.00  0.00     0.003 C 
ATOM      2  C   UNL     1     -52.653 -49.551  20.840  1.00  0.00     0.000 C 
ENDROOT
BRANCH   1   3
ATOM      3  C   UNL     1     -54.263 -47.760  21.465  1.00  0.00    -0.055 C 
ATOM      4  C   UNL     1     -56.754 -48.031  21.244  1.00  0.00     0.036 C 
ATOM      5  C   UNL     1     -55.331 -48.389  20.936  1.00  0.00    -0.027 C 
ATOM      6  C   UNL     1     -54.422 -46.616  22.441  1.00  0.00     0.044 C 
ENDBRANCH   1   3
BRANCH   2   7
ATOM      7  C   UNL     1     -51.284 -49.987  20.488  1.00  0.00    -0.001 C 
ATOM      8  C   UNL     1     -50.923 -50.414  19.264  1.00  0.00    -0.076 C 
ATOM      9  C   UNL     1     -51.905 -50.485  18.122  1.00  0.00     0.039 C 
ATOM     10  C   UNL     1     -49.495 -50.832  19.040  1.00  0.00     0.039 C 
ENDBRANCH   2   7
TORSDOF 2
ENDMDL
MODEL 7
REMARK VINA RESULT:    -4.365     10.283     13.065
REMARK INTER + INTRA:          -5.119
REMARK INTER:                  -4.877
REMARK INTRA:                  -0.242
REMARK UNBOUND:                -0.244
REMARK SMILES CC=C(C)C=CC=C(C)C
REMARK SMILES IDX 5 1 6 2 3 3 1 4 2 5 4 6 7 7 8 8 9 9 10 10
REMARK H PARENT
REMARK Flexibility Score: inf
ROOT
ATOM      1  C   UNL     1     -40.795 -48.823  27.419  1.00  0.00     0.003 C 
ATOM      2  C   UNL     1     -41.765 -48.194  26.744  1.00  0.00     0.000 C 
ENDROOT
BRANCH   1   3
ATOM      3  C   UNL     1     -40.034 -48.197  28.532  1.00  0.00    -0.055 C 
ATOM      4  C   UNL     1     -38.640 -46.259  29.323  1.00  0.00     0.036 C 
ATOM      5  C   UNL     1     -39.397 -47.036  28.287  1.00  0.00    -0.027 C 
ATOM      6  C   UNL     1     -40.040 -48.823  29.909  1.00  0.00     0.044 C 
ENDBRANCH   1   3
BRANCH   2   7
ATOM      7  C   UNL     1     -42.478 -48.873  25.640  1.00  0.00    -0.001 C 
ATOM      8  C   UNL     1     -43.613 -49.578  25.800  1.00  0.00    -0.076 C 
ATOM      9  C   UNL     1     -44.270 -49.737  27.149  1.00  0.00     0.039 C 
ATOM     10  C   UNL     1     -44.237 -50.221  24.592  1.00  0.00     0.039 C 
ENDBRANCH   2   7
TORSDOF 2
ENDMDL
MODEL 8
REMARK VINA RESULT:    -4.362      1.173      5.668
REMARK INTER + INTRA:          -5.116
REMARK INTER:                  -4.907
REMARK INTRA:                  -0.209
REMARK UNBOUND:                -0.244
REMARK SMILES CC=C(C)C=CC=C(C)C
REMARK SMILES IDX 5 1 6 2 3 3 1 4 2 5 4 6 7 7 8 8 9 9 10 10
REMARK H PARENT
REMARK Flexibility Score: inf
ROOT
ATOM      1  C   UNL     1     -53.366 -47.488  22.891  1.00  0.00     0.003 C 
ATOM      2  C   UNL     1     -52.598 -48.533  23.224  1.00  0.00     0.000 C 
ENDROOT
BRANCH   1   3
ATOM      3  C   UNL     1     -54.329 -47.507  21.759  1.00  0.00    -0.055 C 
ATOM      4  C   UNL     1     -56.326 -46.450  20.655  1.00  0.00     0.036 C 
ATOM      5  C   UNL     1     -55.318 -46.592  21.756  1.00  0.00    -0.027 C 
ATOM      6  C   UNL     1     -54.151 -48.486  20.620  1.00  0.00     0.044 C 
ENDBRANCH   1   3
BRANCH   2   7
ATOM      7  C   UNL     1     -51.653 -48.444  24.359  1.00  0.00    -0.001 C 
ATOM      8  C   UNL     1     -50.471 -49.086  24.403  1.00  0.00    -0.076 C 
ATOM      9  C   UNL     1     -49.999 -49.968  23.274  1.00  0.00     0.039 C 
ATOM     10  C   UNL     1     -49.603 -48.910  25.619  1.00  0.00     0.039 C 
ENDBRANCH   2   7
TORSDOF 2
ENDMDL
MODEL 9
REMARK VINA RESULT:    -4.327     12.382     14.359
REMARK INTER + INTRA:          -5.076
REMARK INTER:                  -4.842
REMARK INTRA:                  -0.234
REMARK UNBOUND:                -0.244
REMARK SMILES CC=C(C)C=CC=C(C)C
REMARK SMILES IDX 5 1 6 2 3 3 1 4 2 5 4 6 7 7 8 8 9 9 10 10
REMARK H PARENT
REMARK Flexibility Score: inf
ROOT
ATOM      1  C   UNL     1     -41.003 -49.254  28.922  1.00  0.00     0.003 C 
ATOM      2  C   UNL     1     -41.353 -49.555  30.178  1.00  0.00     0.000 C 
ENDROOT
BRANCH   1   3
ATOM      3  C   UNL     1     -39.982 -48.229  28.580  1.00  0.00    -0.055 C 
ATOM      4  C   UNL     1     -37.581 -47.495  28.726  1.00  0.00     0.036 C 
ATOM      5  C   UNL     1     -38.727 -48.410  29.037  1.00  0.00    -0.027 C 
ATOM      6  C   UNL     1     -40.340 -47.060  27.690  1.00  0.00     0.044 C 
ENDBRANCH   1   3
BRANCH   2   7
ATOM      7  C   UNL     1     -42.384 -50.581  30.448  1.00  0.00    -0.001 C 
ATOM      8  C   UNL     1     -43.698 -50.312  30.565  1.00  0.00    -0.076 C 
ATOM      9  C   UNL     1     -44.242 -48.913  30.426  1.00  0.00     0.039 C 
ATOM     10  C   UNL     1     -44.643 -51.450  30.842  1.00  0.00     0.039 C 
ENDBRANCH   2   7
TORSDOF 2
ENDMDL
