MODEL 1
REMARK VINA RESULT:     1.109      0.000      0.000
REMARK INTER + INTRA:           1.205
REMARK INTER:                   1.563
REMARK INTRA:                  -0.358
REMARK UNBOUND:                -0.358
REMARK SMILES CCCCCCCCC(=O)[O-]
REMARK SMILES IDX 6 1 7 2 8 3 9 4 10 5 11 6 5 7 4 8 3 9 2 10 1 11
REMARK H PARENT
REMARK Flexibility Score: inf
ROOT
ATOM      1  C   UNL     1      18.678  17.482 -11.437  1.00  0.00     0.000 C 
ENDROOT
BRANCH   1   2
ATOM      2  C   UNL     1      18.231  18.918 -11.135  1.00  0.00     0.006 C 
BRANCH   2   3
ATOM      3  C   UNL     1      18.350  19.803 -12.378  1.00  0.00     0.053 C 
BRANCH   3   4
ATOM      4  C   UNL     1      19.562  20.675 -12.286  1.00  0.00     0.041 C 
ATOM      5  O   UNL     1      19.440  21.928 -12.252  1.00  0.00    -0.550 OA
ATOM      6  O   UNL     1      20.829  20.107 -12.289  1.00  0.00    -0.550 OA
ENDBRANCH   3   4
ENDBRANCH   2   3
ENDBRANCH   1   2
BRANCH   1   7
ATOM      7  C   UNL     1      18.237  17.052 -12.844  1.00  0.00     0.000 C 
BRANCH   7   8
ATOM      8  C   UNL     1      17.115  16.000 -12.823  1.00  0.00    -0.000 C 
BRANCH   8   9
ATOM      9  C   UNL     1      17.536  14.585 -13.270  1.00  0.00    -0.000 C 
BRANCH   9  10
ATOM     10  C   UNL     1      19.054  14.343 -13.315  1.00  0.00    -0.003 C 
ATOM     11  C   UNL     1      19.438  12.897 -13.006  1.00  0.00     0.004 C 
ENDBRANCH   9  10
ENDBRANCH   8   9
ENDBRANCH   7   8
ENDBRANCH   1   7
TORSDOF 7
ENDMDL
MODEL 2
REMARK VINA RESULT:     2.059      3.223      5.561
REMARK INTER + INTRA:           2.543
REMARK INTER:                   2.849
REMARK INTRA:                  -0.306
REMARK UNBOUND:                -0.358
REMARK SMILES CCCCCCCCC(=O)[O-]
REMARK SMILES IDX 6 1 7 2 8 3 9 4 10 5 11 6 5 7 4 8 3 9 2 10 1 11
REMARK H PARENT
REMARK Flexibility Score: inf
ROOT
ATOM      1  C   UNL     1      18.295  17.443 -11.262  1.00  0.00     0.000 C 
ENDROOT
BRANCH   1   2
ATOM      2  C   UNL     1      18.221  16.978 -12.721  1.00  0.00     0.006 C 
BRANCH   2   3
ATOM      3  C   UNL     1      17.420  15.678 -12.844  1.00  0.00     0.053 C 
BRANCH   3   4
ATOM      4  C   UNL     1      18.188  14.662 -13.629  1.00  0.00     0.041 C 
ATOM      5  O   UNL     1      18.048  14.590 -14.879  1.00  0.00    -0.550 OA
ATOM      6  O   UNL     1      19.019  13.761 -12.977  1.00  0.00    -0.550 OA
ENDBRANCH   3   4
ENDBRANCH   2   3
ENDBRANCH   1   2
BRANCH   1   7
ATOM      7  C   UNL     1      18.130  18.967 -11.161  1.00  0.00     0.000 C 
BRANCH   7   8
ATOM      8  C   UNL     1      18.389  19.687 -12.495  1.00  0.00    -0.000 C 
BRANCH   8   9
ATOM      9  C   UNL     1      18.953  21.117 -12.369  1.00  0.00    -0.000 C 
BRANCH   9  10
ATOM     10  C   UNL     1      20.489  21.210 -12.348  1.00  0.00    -0.003 C 
ATOM     11  C   UNL     1      21.169  19.842 -12.401  1.00  0.00     0.004 C 
ENDBRANCH   9  10
ENDBRANCH   8   9
ENDBRANCH   7   8
ENDBRANCH   1   7
TORSDOF 7
ENDMDL
MODEL 3
REMARK VINA RESULT:     2.124      2.844      5.676
REMARK INTER + INTRA:           2.635
REMARK INTER:                   2.848
REMARK INTRA:                  -0.213
REMARK UNBOUND:                -0.358
REMARK SMILES CCCCCCCCC(=O)[O-]
REMARK SMILES IDX 6 1 7 2 8 3 9 4 10 5 11 6 5 7 4 8 3 9 2 10 1 11
REMARK H PARENT
REMARK Flexibility Score: inf
ROOT
ATOM      1  C   UNL     1      18.330  17.203 -12.748  1.00  0.00     0.000 C 
ENDROOT
BRANCH   1   2
ATOM      2  C   UNL     1      17.437  15.962 -12.869  1.00  0.00     0.006 C 
BRANCH   2   3
ATOM      3  C   UNL     1      18.070  14.919 -13.796  1.00  0.00     0.053 C 
BRANCH   3   4
ATOM      4  C   UNL     1      19.083  14.106 -13.055  1.00  0.00     0.041 C 
ATOM      5  O   UNL     1      18.891  12.875 -12.866  1.00  0.00    -0.550 OA
ATOM      6  O   UNL     1      20.214  14.715 -12.528  1.00  0.00    -0.550 OA
ENDBRANCH   3   4
ENDBRANCH   2   3
ENDBRANCH   1   2
BRANCH   1   7
ATOM      7  C   UNL     1      18.433  17.667 -11.287  1.00  0.00     0.000 C 
BRANCH   7   8
ATOM      8  C   UNL     1      18.229  19.183 -11.124  1.00  0.00    -0.000 C 
BRANCH   8   9
ATOM      9  C   UNL     1      18.354  20.004 -12.424  1.00  0.00    -0.000 C 
BRANCH   9  10
ATOM     10  C   UNL     1      19.370  21.157 -12.369  1.00  0.00    -0.003 C 
ATOM     11  C   UNL     1      20.819  20.679 -12.457  1.00  0.00     0.004 C 
ENDBRANCH   9  10
ENDBRANCH   8   9
ENDBRANCH   7   8
ENDBRANCH   1   7
TORSDOF 7
ENDMDL
MODEL 4
REMARK VINA RESULT:     2.154      1.084      1.720
REMARK INTER + INTRA:           2.678
REMARK INTER:                   2.995
REMARK INTRA:                  -0.317
REMARK UNBOUND:                -0.358
REMARK SMILES CCCCCCCCC(=O)[O-]
REMARK SMILES IDX 6 1 7 2 8 3 9 4 10 5 11 6 5 7 4 8 3 9 2 10 1 11
REMARK H PARENT
REMARK Flexibility Score: inf
ROOT
ATOM      1  C   UNL     1      18.312  17.429 -11.313  1.00  0.00     0.000 C 
ENDROOT
BRANCH   1   2
ATOM      2  C   UNL     1      18.329  18.951 -11.125  1.00  0.00     0.006 C 
BRANCH   2   3
ATOM      3  C   UNL     1      18.529  19.668 -12.464  1.00  0.00     0.053 C 
BRANCH   3   4
ATOM      4  C   UNL     1      19.557  20.746 -12.331  1.00  0.00     0.041 C 
ATOM      5  O   UNL     1      19.205  21.955 -12.282  1.00  0.00    -0.550 OA
ATOM      6  O   UNL     1      20.907  20.422 -12.313  1.00  0.00    -0.550 OA
ENDBRANCH   3   4
ENDBRANCH   2   3
ENDBRANCH   1   2
BRANCH   1   7
ATOM      7  C   UNL     1      18.074  17.059 -12.785  1.00  0.00     0.000 C 
BRANCH   7   8
ATOM      8  C   UNL     1      18.312  15.566 -13.072  1.00  0.00    -0.000 C 
BRANCH   8   9
ATOM      9  C   UNL     1      17.063  14.779 -13.519  1.00  0.00    -0.000 C 
BRANCH   9  10
ATOM     10  C   UNL     1      15.828  14.955 -12.618  1.00  0.00    -0.003 C 
ATOM     11  C   UNL     1      15.250  13.627 -12.132  1.00  0.00     0.004 C 
ENDBRANCH   9  10
ENDBRANCH   8   9
ENDBRANCH   7   8
ENDBRANCH   1   7
TORSDOF 7
ENDMDL
MODEL 5
REMARK VINA RESULT:     2.204     15.276     16.314
REMARK INTER + INTRA:           2.748
REMARK INTER:                   3.097
REMARK INTRA:                  -0.349
REMARK UNBOUND:                -0.358
REMARK SMILES CCCCCCCCC(=O)[O-]
REMARK SMILES IDX 6 1 7 2 8 3 9 4 10 5 11 6 5 7 4 8 3 9 2 10 1 11
REMARK H PARENT
REMARK Flexibility Score: inf
ROOT
ATOM      1  C   UNL     1      12.186  13.557   1.435  1.00  0.00     0.000 C 
ENDROOT
BRANCH   1   2
ATOM      2  C   UNL     1      12.390  13.055  -0.001  1.00  0.00     0.006 C 
BRANCH   2   3
ATOM      3  C   UNL     1      12.057  14.150  -1.018  1.00  0.00     0.053 C 
BRANCH   3   4
ATOM      4  C   UNL     1      10.779  13.834  -1.728  1.00  0.00     0.041 C 
ATOM      5  O   UNL     1      10.760  13.733  -2.984  1.00  0.00    -0.550 OA
ATOM      6  O   UNL     1       9.598  13.700  -1.009  1.00  0.00    -0.550 OA
ENDBRANCH   3   4
ENDBRANCH   2   3
ENDBRANCH   1   2
BRANCH   1   7
ATOM      7  C   UNL     1      10.799  13.165   1.963  1.00  0.00     0.000 C 
BRANCH   7   8
ATOM      8  C   UNL     1       9.856  14.370   2.121  1.00  0.00    -0.000 C 
BRANCH   8   9
ATOM      9  C   UNL     1      10.527  15.750   1.970  1.00  0.00    -0.000 C 
BRANCH   9  10
ATOM     10  C   UNL     1       9.561  16.948   1.997  1.00  0.00    -0.003 C 
ATOM     11  C   UNL     1       8.097  16.530   2.125  1.00  0.00     0.004 C 
ENDBRANCH   9  10
ENDBRANCH   8   9
ENDBRANCH   7   8
ENDBRANCH   1   7
TORSDOF 7
ENDMDL
MODEL 6
REMARK VINA RESULT:     3.457      3.538      6.055
REMARK INTER + INTRA:           4.513
REMARK INTER:                   4.376
REMARK INTRA:                   0.137
REMARK UNBOUND:                -0.358
REMARK SMILES CCCCCCCCC(=O)[O-]
REMARK SMILES IDX 6 1 7 2 8 3 9 4 10 5 11 6 5 7 4 8 3 9 2 10 1 11
REMARK H PARENT
REMARK Flexibility Score: inf
ROOT
ATOM      1  C   UNL     1      17.788  16.641 -12.165  1.00  0.00     0.000 C 
ENDROOT
BRANCH   1   2
ATOM      2  C   UNL     1      18.025  15.730 -13.376  1.00  0.00     0.006 C 
BRANCH   2   3
ATOM      3  C   UNL     1      17.470  14.325 -13.125  1.00  0.00     0.053 C 
BRANCH   3   4
ATOM      4  C   UNL     1      16.002  14.385 -12.845  1.00  0.00     0.041 C 
ATOM      5  O   UNL     1      15.329  15.388 -13.204  1.00  0.00    -0.550 OA
ATOM      6  O   UNL     1      15.384  13.357 -12.145  1.00  0.00    -0.550 OA
ENDBRANCH   3   4
ENDBRANCH   2   3
ENDBRANCH   1   2
BRANCH   1   7
ATOM      7  C   UNL     1      18.855  17.744 -12.088  1.00  0.00     0.000 C 
BRANCH   7   8
ATOM      8  C   UNL     1      18.387  19.073 -12.705  1.00  0.00    -0.000 C 
BRANCH   8   9
ATOM      9  C   UNL     1      18.566  20.312 -11.804  1.00  0.00    -0.000 C 
BRANCH   9  10
ATOM     10  C   UNL     1      19.525  21.381 -12.355  1.00  0.00    -0.003 C 
ATOM     11  C   UNL     1      20.982  20.923 -12.373  1.00  0.00     0.004 C 
ENDBRANCH   9  10
ENDBRANCH   8   9
ENDBRANCH   7   8
ENDBRANCH   1   7
TORSDOF 7
ENDMDL
