MODEL 1
REMARK VINA RESULT:    -3.301      0.000      0.000
REMARK INTER + INTRA:          -4.624
REMARK INTER:                  -4.459
REMARK INTRA:                  -0.166
REMARK UNBOUND:                -0.166
REMARK SMILES CCCCCCCC(=O)[O-]
REMARK SMILES IDX 5 1 6 2 7 3 8 4 9 5 10 6 4 7 3 8 2 9 1 10
REMARK H PARENT
REMARK Flexibility Score: inf
ROOT
ATOM      1  C   UNL     1      24.125  40.528   1.962  1.00  0.00     0.000 C 
ENDROOT
BRANCH   1   2
ATOM      2  C   UNL     1      24.547  40.980   3.370  1.00  0.00     0.006 C 
BRANCH   2   3
ATOM      3  C   UNL     1      25.816  41.843   3.344  1.00  0.00     0.053 C 
BRANCH   3   4
ATOM      4  C   UNL     1      25.727  42.996   4.299  1.00  0.00     0.041 C 
ATOM      5  O   UNL     1      26.554  43.942   4.228  1.00  0.00    -0.550 OA
ATOM      6  O   UNL     1      24.712  43.036   5.247  1.00  0.00    -0.550 OA
ENDBRANCH   3   4
ENDBRANCH   2   3
ENDBRANCH   1   2
BRANCH   1   7
ATOM      7  C   UNL     1      25.309  40.039   1.109  1.00  0.00     0.000 C 
BRANCH   7   8
ATOM      8  C   UNL     1      24.927  39.458  -0.265  1.00  0.00    -0.000 C 
BRANCH   8   9
ATOM      9  C   UNL     1      25.837  39.953  -1.399  1.00  0.00    -0.003 C 
ATOM     10  C   UNL     1      27.227  39.331  -1.301  1.00  0.00     0.004 C 
ENDBRANCH   8   9
ENDBRANCH   7   8
ENDBRANCH   1   7
TORSDOF 6
ENDMDL
MODEL 2
REMARK VINA RESULT:    -3.271     18.741     19.888
REMARK INTER + INTRA:          -4.584
REMARK INTER:                  -4.373
REMARK INTRA:                  -0.211
REMARK UNBOUND:                -0.166
REMARK SMILES CCCCCCCC(=O)[O-]
REMARK SMILES IDX 5 1 6 2 7 3 8 4 9 5 10 6 4 7 3 8 2 9 1 10
REMARK H PARENT
REMARK Flexibility Score: inf
ROOT
ATOM      1  C   UNL     1      43.815  31.807   2.494  1.00  0.00     0.000 C 
ENDROOT
BRANCH   1   2
ATOM      2  C   UNL     1      42.515  31.285   3.130  1.00  0.00     0.006 C 
BRANCH   2   3
ATOM      3  C   UNL     1      42.779  30.480   4.411  1.00  0.00     0.053 C 
BRANCH   3   4
ATOM      4  C   UNL     1      41.723  29.444   4.646  1.00  0.00     0.041 C 
ATOM      5  O   UNL     1      40.566  29.600   4.175  1.00  0.00    -0.550 OA
ATOM      6  O   UNL     1      42.024  28.293   5.363  1.00  0.00    -0.550 OA
ENDBRANCH   3   4
ENDBRANCH   2   3
ENDBRANCH   1   2
BRANCH   1   7
ATOM      7  C   UNL     1      43.573  32.575   1.182  1.00  0.00     0.000 C 
BRANCH   7   8
ATOM      8  C   UNL     1      42.094  32.809   0.826  1.00  0.00    -0.000 C 
BRANCH   8   9
ATOM      9  C   UNL     1      41.897  33.335  -0.603  1.00  0.00    -0.003 C 
ATOM     10  C   UNL     1      41.887  32.193  -1.614  1.00  0.00     0.004 C 
ENDBRANCH   8   9
ENDBRANCH   7   8
ENDBRANCH   1   7
TORSDOF 6
ENDMDL
MODEL 3
REMARK VINA RESULT:    -3.223     18.345     19.813
REMARK INTER + INTRA:          -4.519
REMARK INTER:                  -4.328
REMARK INTRA:                  -0.191
REMARK UNBOUND:                -0.166
REMARK SMILES CCCCCCCC(=O)[O-]
REMARK SMILES IDX 5 1 6 2 7 3 8 4 9 5 10 6 4 7 3 8 2 9 1 10
REMARK H PARENT
REMARK Flexibility Score: inf
ROOT
ATOM      1  C   UNL     1      43.692  33.059   1.824  1.00  0.00     0.000 C 
ENDROOT
BRANCH   1   2
ATOM      2  C   UNL     1      43.740  31.764   2.651  1.00  0.00     0.006 C 
BRANCH   2   3
ATOM      3  C   UNL     1      42.357  31.366   3.186  1.00  0.00     0.053 C 
BRANCH   3   4
ATOM      4  C   UNL     1      42.451  30.307   4.242  1.00  0.00     0.041 C 
ATOM      5  O   UNL     1      43.368  30.351   5.104  1.00  0.00    -0.550 OA
ATOM      6  O   UNL     1      41.510  29.286   4.290  1.00  0.00    -0.550 OA
ENDBRANCH   3   4
ENDBRANCH   2   3
ENDBRANCH   1   2
BRANCH   1   7
ATOM      7  C   UNL     1      43.653  32.800   0.306  1.00  0.00     0.000 C 
BRANCH   7   8
ATOM      8  C   UNL     1      42.395  33.321  -0.412  1.00  0.00    -0.000 C 
BRANCH   8   9
ATOM      9  C   UNL     1      41.931  32.401  -1.551  1.00  0.00    -0.003 C 
ATOM     10  C   UNL     1      40.451  32.611  -1.859  1.00  0.00     0.004 C 
ENDBRANCH   8   9
ENDBRANCH   7   8
ENDBRANCH   1   7
TORSDOF 6
ENDMDL
MODEL 4
REMARK VINA RESULT:    -3.209      1.035      1.622
REMARK INTER + INTRA:          -4.500
REMARK INTER:                  -4.312
REMARK INTRA:                  -0.188
REMARK UNBOUND:                -0.166
REMARK SMILES CCCCCCCC(=O)[O-]
REMARK SMILES IDX 5 1 6 2 7 3 8 4 9 5 10 6 4 7 3 8 2 9 1 10
REMARK H PARENT
REMARK Flexibility Score: inf
ROOT
ATOM      1  C   UNL     1      25.331  40.956   2.499  1.00  0.00     0.000 C 
ENDROOT
BRANCH   1   2
ATOM      2  C   UNL     1      25.078  41.827   3.742  1.00  0.00     0.006 C 
BRANCH   2   3
ATOM      3  C   UNL     1      26.072  42.991   3.845  1.00  0.00     0.053 C 
BRANCH   3   4
ATOM      4  C   UNL     1      25.846  43.810   5.080  1.00  0.00     0.041 C 
ATOM      5  O   UNL     1      25.470  43.257   6.147  1.00  0.00    -0.550 OA
ATOM      6  O   UNL     1      26.078  45.179   5.060  1.00  0.00    -0.550 OA
ENDBRANCH   3   4
ENDBRANCH   2   3
ENDBRANCH   1   2
BRANCH   1   7
ATOM      7  C   UNL     1      24.031  40.457   1.843  1.00  0.00     0.000 C 
BRANCH   7   8
ATOM      8  C   UNL     1      24.227  39.570   0.599  1.00  0.00    -0.000 C 
BRANCH   8   9
ATOM      9  C   UNL     1      25.676  39.568   0.088  1.00  0.00    -0.003 C 
ATOM     10  C   UNL     1      25.729  39.832  -1.414  1.00  0.00     0.004 C 
ENDBRANCH   8   9
ENDBRANCH   7   8
ENDBRANCH   1   7
TORSDOF 6
ENDMDL
MODEL 5
REMARK VINA RESULT:    -3.195      3.342      5.599
REMARK INTER + INTRA:          -4.482
REMARK INTER:                  -4.263
REMARK INTRA:                  -0.218
REMARK UNBOUND:                -0.166
REMARK SMILES CCCCCCCC(=O)[O-]
REMARK SMILES IDX 5 1 6 2 7 3 8 4 9 5 10 6 4 7 3 8 2 9 1 10
REMARK H PARENT
REMARK Flexibility Score: inf
ROOT
ATOM      1  C   UNL     1      24.218  40.490   2.317  1.00  0.00     0.000 C 
ENDROOT
BRANCH   1   2
ATOM      2  C   UNL     1      25.329  40.282   1.274  1.00  0.00     0.006 C 
BRANCH   2   3
ATOM      3  C   UNL     1      24.811  39.584   0.008  1.00  0.00     0.053 C 
BRANCH   3   4
ATOM      4  C   UNL     1      25.806  39.647  -1.111  1.00  0.00     0.041 C 
ATOM      5  O   UNL     1      25.775  40.600  -1.933  1.00  0.00    -0.550 OA
ATOM      6  O   UNL     1      26.784  38.668  -1.228  1.00  0.00    -0.550 OA
ENDBRANCH   3   4
ENDBRANCH   2   3
ENDBRANCH   1   2
BRANCH   1   7
ATOM      7  C   UNL     1      24.634  41.444   3.452  1.00  0.00     0.000 C 
BRANCH   7   8
ATOM      8  C   UNL     1      26.060  42.012   3.337  1.00  0.00    -0.000 C 
BRANCH   8   9
ATOM      9  C   UNL     1      26.276  43.269   4.193  1.00  0.00    -0.003 C 
ATOM     10  C   UNL     1      25.258  43.344   5.327  1.00  0.00     0.004 C 
ENDBRANCH   8   9
ENDBRANCH   7   8
ENDBRANCH   1   7
TORSDOF 6
ENDMDL
MODEL 6
REMARK VINA RESULT:    -3.177     19.055     20.088
REMARK INTER + INTRA:          -4.457
REMARK INTER:                  -4.223
REMARK INTRA:                  -0.233
REMARK UNBOUND:                -0.166
REMARK SMILES CCCCCCCC(=O)[O-]
REMARK SMILES IDX 5 1 6 2 7 3 8 4 9 5 10 6 4 7 3 8 2 9 1 10
REMARK H PARENT
REMARK Flexibility Score: inf
ROOT
ATOM      1  C   UNL     1      43.078  32.079   2.205  1.00  0.00     0.000 C 
ENDROOT
BRANCH   1   2
ATOM      2  C   UNL     1      43.627  32.278   3.628  1.00  0.00     0.006 C 
BRANCH   2   3
ATOM      3  C   UNL     1      43.845  30.944   4.357  1.00  0.00     0.053 C 
BRANCH   3   4
ATOM      4  C   UNL     1      42.560  30.378   4.880  1.00  0.00     0.041 C 
ATOM      5  O   UNL     1      42.008  29.411   4.293  1.00  0.00    -0.550 OA
ATOM      6  O   UNL     1      41.988  30.901   6.033  1.00  0.00    -0.550 OA
ENDBRANCH   3   4
ENDBRANCH   2   3
ENDBRANCH   1   2
BRANCH   1   7
ATOM      7  C   UNL     1      44.125  32.365   1.113  1.00  0.00     0.000 C 
BRANCH   7   8
ATOM      8  C   UNL     1      43.593  33.121  -0.118  1.00  0.00    -0.000 C 
BRANCH   8   9
ATOM      9  C   UNL     1      42.090  32.902  -0.352  1.00  0.00    -0.003 C 
ATOM     10  C   UNL     1      41.837  32.211  -1.689  1.00  0.00     0.004 C 
ENDBRANCH   8   9
ENDBRANCH   7   8
ENDBRANCH   1   7
TORSDOF 6
ENDMDL
MODEL 7
REMARK VINA RESULT:    -3.145      1.689      2.239
REMARK INTER + INTRA:          -4.413
REMARK INTER:                  -4.115
REMARK INTRA:                  -0.298
REMARK UNBOUND:                -0.166
REMARK SMILES CCCCCCCC(=O)[O-]
REMARK SMILES IDX 5 1 6 2 7 3 8 4 9 5 10 6 4 7 3 8 2 9 1 10
REMARK H PARENT
REMARK Flexibility Score: inf
ROOT
ATOM      1  C   UNL     1      25.495  40.665   2.490  1.00  0.00     0.000 C 
ENDROOT
BRANCH   1   2
ATOM      2  C   UNL     1      25.317  41.805   3.507  1.00  0.00     0.006 C 
BRANCH   2   3
ATOM      3  C   UNL     1      23.974  41.719   4.245  1.00  0.00     0.053 C 
BRANCH   3   4
ATOM      4  C   UNL     1      24.119  41.087   5.596  1.00  0.00     0.041 C 
ATOM      5  O   UNL     1      24.190  41.806   6.627  1.00  0.00    -0.550 OA
ATOM      6  O   UNL     1      24.147  39.704   5.718  1.00  0.00    -0.550 OA
ENDBRANCH   3   4
ENDBRANCH   2   3
ENDBRANCH   1   2
BRANCH   1   7
ATOM      7  C   UNL     1      24.185  40.295   1.770  1.00  0.00     0.000 C 
BRANCH   7   8
ATOM      8  C   UNL     1      24.363  39.535   0.443  1.00  0.00    -0.000 C 
BRANCH   8   9
ATOM      9  C   UNL     1      25.791  39.628  -0.114  1.00  0.00    -0.003 C 
ATOM     10  C   UNL     1      25.782  39.999  -1.594  1.00  0.00     0.004 C 
ENDBRANCH   8   9
ENDBRANCH   7   8
ENDBRANCH   1   7
TORSDOF 6
ENDMDL
MODEL 8
REMARK VINA RESULT:    -3.108     18.106     19.742
REMARK INTER + INTRA:          -4.364
REMARK INTER:                  -4.142
REMARK INTRA:                  -0.222
REMARK UNBOUND:                -0.166
REMARK SMILES CCCCCCCC(=O)[O-]
REMARK SMILES IDX 5 1 6 2 7 3 8 4 9 5 10 6 4 7 3 8 2 9 1 10
REMARK H PARENT
REMARK Flexibility Score: inf
ROOT
ATOM      1  C   UNL     1      42.613  32.114   1.508  1.00  0.00     0.000 C 
ENDROOT
BRANCH   1   2
ATOM      2  C   UNL     1      42.945  33.013   0.305  1.00  0.00     0.006 C 
BRANCH   2   3
ATOM      3  C   UNL     1      41.691  33.664  -0.295  1.00  0.00     0.053 C 
BRANCH   3   4
ATOM      4  C   UNL     1      41.174  32.897  -1.475  1.00  0.00     0.041 C 
ATOM      5  O   UNL     1      40.093  33.233  -2.025  1.00  0.00    -0.550 OA
ATOM      6  O   UNL     1      41.902  31.828  -1.982  1.00  0.00    -0.550 OA
ENDBRANCH   3   4
ENDBRANCH   2   3
ENDBRANCH   1   2
BRANCH   1   7
ATOM      7  C   UNL     1      43.790  31.966   2.489  1.00  0.00     0.000 C 
BRANCH   7   8
ATOM      8  C   UNL     1      43.478  31.163   3.765  1.00  0.00    -0.000 C 
BRANCH   8   9
ATOM      9  C   UNL     1      41.995  30.783   3.887  1.00  0.00    -0.003 C 
ATOM     10  C   UNL     1      41.827  29.447   4.605  1.00  0.00     0.004 C 
ENDBRANCH   8   9
ENDBRANCH   7   8
ENDBRANCH   1   7
TORSDOF 6
ENDMDL
MODEL 9
REMARK VINA RESULT:    -3.074     20.118     20.771
REMARK INTER + INTRA:          -4.318
REMARK INTER:                  -4.033
REMARK INTRA:                  -0.286
REMARK UNBOUND:                -0.166
REMARK SMILES CCCCCCCC(=O)[O-]
REMARK SMILES IDX 5 1 6 2 7 3 8 4 9 5 10 6 4 7 3 8 2 9 1 10
REMARK H PARENT
REMARK Flexibility Score: inf
ROOT
ATOM      1  C   UNL     1      41.930  31.009   3.898  1.00  0.00     0.000 C 
ENDROOT
BRANCH   1   2
ATOM      2  C   UNL     1      41.551  29.535   4.123  1.00  0.00     0.006 C 
BRANCH   2   3
ATOM      3  C   UNL     1      41.378  29.202   5.612  1.00  0.00     0.053 C 
BRANCH   3   4
ATOM      4  C   UNL     1      42.443  28.268   6.102  1.00  0.00     0.041 C 
ATOM      5  O   UNL     1      42.190  27.045   6.258  1.00  0.00    -0.550 OA
ATOM      6  O   UNL     1      43.722  28.745   6.360  1.00  0.00    -0.550 OA
ENDBRANCH   3   4
ENDBRANCH   2   3
ENDBRANCH   1   2
BRANCH   1   7
ATOM      7  C   UNL     1      43.440  31.212   3.675  1.00  0.00     0.000 C 
BRANCH   7   8
ATOM      8  C   UNL     1      43.816  31.888   2.344  1.00  0.00    -0.000 C 
BRANCH   8   9
ATOM      9  C   UNL     1      42.592  32.344   1.536  1.00  0.00    -0.003 C 
ATOM     10  C   UNL     1      42.999  32.821   0.145  1.00  0.00     0.004 C 
ENDBRANCH   8   9
ENDBRANCH   7   8
ENDBRANCH   1   7
TORSDOF 6
ENDMDL
