MODEL 1
REMARK VINA RESULT:    -5.205      0.000      0.000
REMARK INTER + INTRA:          -8.984
REMARK INTER:                  -7.943
REMARK INTRA:                  -1.041
REMARK UNBOUND:                -1.041
REMARK SMILES CCCCCCCCCCC(=O)[O-]
REMARK SMILES IDX 7 1 8 2 9 3 10 4 11 5 12 6 13 7 6 8 5 9 4 10 3 11 2 12 1 13
REMARK H PARENT
REMARK Flexibility Score: inf
ROOT
ATOM      1  C   UNL     1      15.404   0.799  15.435  1.00  0.00     0.000 C 
ENDROOT
BRANCH   1   2
ATOM      2  C   UNL     1      16.883   0.360  15.450  1.00  0.00     0.000 C 
BRANCH   2   3
ATOM      3  C   UNL     1      17.310  -0.534  14.271  1.00  0.00     0.006 C 
BRANCH   3   4
ATOM      4  C   UNL     1      18.792  -0.375  13.911  1.00  0.00     0.053 C 
BRANCH   4   5
ATOM      5  C   UNL     1      19.654  -0.752  15.074  1.00  0.00     0.041 C 
ATOM      6  O   UNL     1      19.756  -1.957  15.424  1.00  0.00    -0.550 OA
ATOM      7  O   UNL     1      20.385   0.223  15.743  1.00  0.00    -0.550 OA
ENDBRANCH   4   5
ENDBRANCH   3   4
ENDBRANCH   2   3
ENDBRANCH   1   2
BRANCH   1   8
ATOM      8  C   UNL     1      14.848   1.171  14.049  1.00  0.00     0.000 C 
BRANCH   8   9
ATOM      9  C   UNL     1      14.837   2.685  13.796  1.00  0.00    -0.000 C 
BRANCH   9  10
ATOM     10  C   UNL     1      15.498   3.022  12.451  1.00  0.00    -0.000 C 
BRANCH  10  11
ATOM     11  C   UNL     1      15.963   1.773  11.682  1.00  0.00    -0.000 C 
BRANCH  11  12
ATOM     12  C   UNL     1      17.397   1.851  11.129  1.00  0.00    -0.003 C 
ATOM     13  C   UNL     1      17.722   0.724  10.148  1.00  0.00     0.004 C 
ENDBRANCH  11  12
ENDBRANCH  10  11
ENDBRANCH   9  10
ENDBRANCH   8   9
ENDBRANCH   1   8
TORSDOF 9
ENDMDL
MODEL 2
REMARK VINA RESULT:    -5.089      3.326      4.347
REMARK INTER + INTRA:          -8.807
REMARK INTER:                  -8.106
REMARK INTRA:                  -0.701
REMARK UNBOUND:                -1.041
REMARK SMILES CCCCCCCCCCC(=O)[O-]
REMARK SMILES IDX 7 1 8 2 9 3 10 4 11 5 12 6 13 7 6 8 5 9 4 10 3 11 2 12 1 13
REMARK H PARENT
REMARK Flexibility Score: inf
ROOT
ATOM      1  C   UNL     1      13.092   3.289  16.700  1.00  0.00     0.000 C 
ENDROOT
BRANCH   1   2
ATOM      2  C   UNL     1      14.236   3.505  17.712  1.00  0.00     0.000 C 
BRANCH   2   3
ATOM      3  C   UNL     1      14.241   2.535  18.907  1.00  0.00     0.006 C 
BRANCH   3   4
ATOM      4  C   UNL     1      15.304   1.437  18.777  1.00  0.00     0.053 C 
BRANCH   4   5
ATOM      5  C   UNL     1      14.745   0.253  18.052  1.00  0.00     0.041 C 
ATOM      6  O   UNL     1      15.374  -0.253  17.085  1.00  0.00    -0.550 OA
ATOM      7  O   UNL     1      13.553  -0.322  18.474  1.00  0.00    -0.550 OA
ENDBRANCH   4   5
ENDBRANCH   3   4
ENDBRANCH   2   3
ENDBRANCH   1   2
BRANCH   1   8
ATOM      8  C   UNL     1      13.509   2.630  15.373  1.00  0.00     0.000 C 
BRANCH   8   9
ATOM      9  C   UNL     1      15.030   2.631  15.158  1.00  0.00    -0.000 C 
BRANCH   9  10
ATOM     10  C   UNL     1      15.408   1.815  13.913  1.00  0.00    -0.000 C 
BRANCH  10  11
ATOM     11  C   UNL     1      15.502   2.673  12.639  1.00  0.00    -0.000 C 
BRANCH  11  12
ATOM     12  C   UNL     1      15.906   1.902  11.370  1.00  0.00    -0.003 C 
ATOM     13  C   UNL     1      17.418   1.868  11.147  1.00  0.00     0.004 C 
ENDBRANCH  11  12
ENDBRANCH  10  11
ENDBRANCH   9  10
ENDBRANCH   8   9
ENDBRANCH   1   8
TORSDOF 9
ENDMDL
MODEL 3
REMARK VINA RESULT:    -5.069     12.214     14.380
REMARK INTER + INTRA:          -8.777
REMARK INTER:                  -7.662
REMARK INTRA:                  -1.115
REMARK UNBOUND:                -1.041
REMARK SMILES CCCCCCCCCCC(=O)[O-]
REMARK SMILES IDX 7 1 8 2 9 3 10 4 11 5 12 6 13 7 6 8 5 9 4 10 3 11 2 12 1 13
REMARK H PARENT
REMARK Flexibility Score: inf
ROOT
ATOM      1  C   UNL     1      31.490  -1.727   8.561  1.00  0.00     0.000 C 
ENDROOT
BRANCH   1   2
ATOM      2  C   UNL     1      31.422  -0.316   7.939  1.00  0.00     0.000 C 
BRANCH   2   3
ATOM      3  C   UNL     1      30.037   0.353   7.990  1.00  0.00     0.006 C 
BRANCH   3   4
ATOM      4  C   UNL     1      29.078  -0.338   8.967  1.00  0.00     0.053 C 
BRANCH   4   5
ATOM      5  C   UNL     1      29.028   0.406  10.264  1.00  0.00     0.041 C 
ATOM      6  O   UNL     1      29.086  -0.218  11.356  1.00  0.00    -0.550 OA
ATOM      7  O   UNL     1      28.968   1.794  10.267  1.00  0.00    -0.550 OA
ENDBRANCH   4   5
ENDBRANCH   3   4
ENDBRANCH   2   3
ENDBRANCH   1   2
BRANCH   1   8
ATOM      8  C   UNL     1      31.890  -2.850   7.588  1.00  0.00     0.000 C 
BRANCH   8   9
ATOM      9  C   UNL     1      31.220  -2.716   6.213  1.00  0.00    -0.000 C 
BRANCH   9  10
ATOM     10  C   UNL     1      29.867  -3.443   6.187  1.00  0.00    -0.000 C 
BRANCH  10  11
ATOM     11  C   UNL     1      28.731  -2.576   5.617  1.00  0.00    -0.000 C 
BRANCH  11  12
ATOM     12  C   UNL     1      27.439  -2.573   6.453  1.00  0.00    -0.003 C 
ATOM     13  C   UNL     1      26.619  -1.294   6.282  1.00  0.00     0.004 C 
ENDBRANCH  11  12
ENDBRANCH  10  11
ENDBRANCH   9  10
ENDBRANCH   8   9
ENDBRANCH   1   8
TORSDOF 9
ENDMDL
MODEL 4
REMARK VINA RESULT:    -5.041     12.718     14.436
REMARK INTER + INTRA:          -8.734
REMARK INTER:                  -7.801
REMARK INTRA:                  -0.933
REMARK UNBOUND:                -1.041
REMARK SMILES CCCCCCCCCCC(=O)[O-]
REMARK SMILES IDX 7 1 8 2 9 3 10 4 11 5 12 6 13 7 6 8 5 9 4 10 3 11 2 12 1 13
REMARK H PARENT
REMARK Flexibility Score: inf
ROOT
ATOM      1  C   UNL     1      28.306   0.154   8.738  1.00  0.00     0.000 C 
ENDROOT
BRANCH   1   2
ATOM      2  C   UNL     1      29.752   0.286   9.259  1.00  0.00     0.000 C 
BRANCH   2   3
ATOM      3  C   UNL     1      30.849   0.002   8.218  1.00  0.00     0.006 C 
BRANCH   3   4
ATOM      4  C   UNL     1      32.264   0.097   8.803  1.00  0.00     0.053 C 
BRANCH   4   5
ATOM      5  C   UNL     1      32.448  -0.916   9.888  1.00  0.00     0.041 C 
ATOM      6  O   UNL     1      32.457  -2.145   9.612  1.00  0.00    -0.550 OA
ATOM      7  O   UNL     1      32.659  -0.504  11.198  1.00  0.00    -0.550 OA
ENDBRANCH   4   5
ENDBRANCH   3   4
ENDBRANCH   2   3
ENDBRANCH   1   2
BRANCH   1   8
ATOM      8  C   UNL     1      28.179  -0.335   7.284  1.00  0.00     0.000 C 
BRANCH   8   9
ATOM      9  C   UNL     1      27.101  -1.413   7.108  1.00  0.00    -0.000 C 
BRANCH   9  10
ATOM     10  C   UNL     1      27.606  -2.554   6.211  1.00  0.00    -0.000 C 
BRANCH  10  11
ATOM     11  C   UNL     1      29.055  -2.345   5.735  1.00  0.00    -0.000 C 
BRANCH  11  12
ATOM     12  C   UNL     1      30.054  -3.412   6.217  1.00  0.00    -0.003 C 
ATOM     13  C   UNL     1      31.494  -2.902   6.272  1.00  0.00     0.004 C 
ENDBRANCH  11  12
ENDBRANCH  10  11
ENDBRANCH   9  10
ENDBRANCH   8   9
ENDBRANCH   1   8
TORSDOF 9
ENDMDL
MODEL 5
REMARK VINA RESULT:    -5.040      3.287      5.144
REMARK INTER + INTRA:          -8.733
REMARK INTER:                  -7.683
REMARK INTRA:                  -1.049
REMARK UNBOUND:                -1.041
REMARK SMILES CCCCCCCCCCC(=O)[O-]
REMARK SMILES IDX 7 1 8 2 9 3 10 4 11 5 12 6 13 7 6 8 5 9 4 10 3 11 2 12 1 13
REMARK H PARENT
REMARK Flexibility Score: inf
ROOT
ATOM      1  C   UNL     1      15.493   1.595  12.356  1.00  0.00     0.000 C 
ENDROOT
BRANCH   1   2
ATOM      2  C   UNL     1      15.246   2.650  13.454  1.00  0.00     0.000 C 
BRANCH   2   3
ATOM      3  C   UNL     1      14.269   2.220  14.563  1.00  0.00     0.006 C 
BRANCH   3   4
ATOM      4  C   UNL     1      14.738   2.637  15.963  1.00  0.00     0.053 C 
BRANCH   4   5
ATOM      5  C   UNL     1      13.692   2.309  16.982  1.00  0.00     0.041 C 
ATOM      6  O   UNL     1      13.579   1.133  17.417  1.00  0.00    -0.550 OA
ATOM      7  O   UNL     1      12.875   3.312  17.488  1.00  0.00    -0.550 OA
ENDBRANCH   4   5
ENDBRANCH   3   4
ENDBRANCH   2   3
ENDBRANCH   1   2
BRANCH   1   8
ATOM      8  C   UNL     1      16.677   1.894  11.419  1.00  0.00     0.000 C 
BRANCH   8   9
ATOM      9  C   UNL     1      17.766   0.812  11.468  1.00  0.00    -0.000 C 
BRANCH   9  10
ATOM     10  C   UNL     1      17.404  -0.285  12.481  1.00  0.00    -0.000 C 
BRANCH  10  11
ATOM     11  C   UNL     1      18.358  -0.325  13.688  1.00  0.00    -0.000 C 
BRANCH  11  12
ATOM     12  C   UNL     1      17.723   0.088  15.027  1.00  0.00    -0.003 C 
ATOM     13  C   UNL     1      16.441  -0.681  15.344  1.00  0.00     0.004 C 
ENDBRANCH  11  12
ENDBRANCH  10  11
ENDBRANCH   9  10
ENDBRANCH   8   9
ENDBRANCH   1   8
TORSDOF 9
ENDMDL
MODEL 6
REMARK VINA RESULT:    -5.037     12.663     14.670
REMARK INTER + INTRA:          -8.728
REMARK INTER:                  -7.604
REMARK INTRA:                  -1.124
REMARK UNBOUND:                -1.041
REMARK SMILES CCCCCCCCCCC(=O)[O-]
REMARK SMILES IDX 7 1 8 2 9 3 10 4 11 5 12 6 13 7 6 8 5 9 4 10 3 11 2 12 1 13
REMARK H PARENT
REMARK Flexibility Score: inf
ROOT
ATOM      1  C   UNL     1      30.405  -3.272   6.683  1.00  0.00     0.000 C 
ENDROOT
BRANCH   1   2
ATOM      2  C   UNL     1      31.467  -2.246   6.236  1.00  0.00     0.000 C 
BRANCH   2   3
ATOM      3  C   UNL     1      32.040  -1.369   7.364  1.00  0.00     0.006 C 
BRANCH   3   4
ATOM      4  C   UNL     1      31.601  -1.831   8.759  1.00  0.00     0.053 C 
BRANCH   4   5
ATOM      5  C   UNL     1      31.910  -0.781   9.778  1.00  0.00     0.041 C 
ATOM      6  O   UNL     1      31.924  -1.070  11.003  1.00  0.00    -0.550 OA
ATOM      7  O   UNL     1      32.232   0.509   9.372  1.00  0.00    -0.550 OA
ENDBRANCH   4   5
ENDBRANCH   3   4
ENDBRANCH   2   3
ENDBRANCH   1   2
BRANCH   1   8
ATOM      8  C   UNL     1      29.166  -3.366   5.773  1.00  0.00     0.000 C 
BRANCH   8   9
ATOM      9  C   UNL     1      28.622  -1.991   5.361  1.00  0.00    -0.000 C 
BRANCH   9  10
ATOM     10  C   UNL     1      27.273  -1.708   6.039  1.00  0.00    -0.000 C 
BRANCH  10  11
ATOM     11  C   UNL     1      27.422  -1.229   7.494  1.00  0.00    -0.000 C 
BRANCH  11  12
ATOM     12  C   UNL     1      28.372  -0.034   7.687  1.00  0.00    -0.003 C 
ATOM     13  C   UNL     1      28.463   0.431   9.140  1.00  0.00     0.004 C 
ENDBRANCH  11  12
ENDBRANCH  10  11
ENDBRANCH   9  10
ENDBRANCH   8   9
ENDBRANCH   1   8
TORSDOF 9
ENDMDL
MODEL 7
REMARK VINA RESULT:    -5.004      3.573      5.724
REMARK INTER + INTRA:          -8.677
REMARK INTER:                  -7.790
REMARK INTRA:                  -0.887
REMARK UNBOUND:                -1.041
REMARK SMILES CCCCCCCCCCC(=O)[O-]
REMARK SMILES IDX 7 1 8 2 9 3 10 4 11 5 12 6 13 7 6 8 5 9 4 10 3 11 2 12 1 13
REMARK H PARENT
REMARK Flexibility Score: inf
ROOT
ATOM      1  C   UNL     1      16.618  -1.144  19.316  1.00  0.00     0.000 C 
ENDROOT
BRANCH   1   2
ATOM      2  C   UNL     1      17.732  -1.602  18.353  1.00  0.00     0.000 C 
BRANCH   2   3
ATOM      3  C   UNL     1      17.239  -2.189  17.018  1.00  0.00     0.006 C 
BRANCH   3   4
ATOM      4  C   UNL     1      16.225  -1.283  16.308  1.00  0.00     0.053 C 
BRANCH   4   5
ATOM      5  C   UNL     1      16.918  -0.110  15.689  1.00  0.00     0.041 C 
ATOM      6  O   UNL     1      16.533   1.061  15.944  1.00  0.00    -0.550 OA
ATOM      7  O   UNL     1      18.022  -0.308  14.868  1.00  0.00    -0.550 OA
ENDBRANCH   4   5
ENDBRANCH   3   4
ENDBRANCH   2   3
ENDBRANCH   1   2
BRANCH   1   8
ATOM      8  C   UNL     1      16.562   0.372  19.576  1.00  0.00     0.000 C 
BRANCH   8   9
ATOM      9  C   UNL     1      15.224   0.826  20.176  1.00  0.00    -0.000 C 
BRANCH   9  10
ATOM     10  C   UNL     1      14.045   0.342  19.318  1.00  0.00    -0.000 C 
BRANCH  10  11
ATOM     11  C   UNL     1      13.744   1.274  18.131  1.00  0.00    -0.000 C 
BRANCH  11  12
ATOM     12  C   UNL     1      13.863   2.776  18.442  1.00  0.00    -0.003 C 
ATOM     13  C   UNL     1      12.971   3.644  17.556  1.00  0.00     0.004 C 
ENDBRANCH  11  12
ENDBRANCH  10  11
ENDBRANCH   9  10
ENDBRANCH   8   9
ENDBRANCH   1   8
TORSDOF 9
ENDMDL
MODEL 8
REMARK VINA RESULT:    -4.998      2.772      4.167
REMARK INTER + INTRA:          -8.669
REMARK INTER:                  -8.049
REMARK INTRA:                  -0.620
REMARK UNBOUND:                -1.041
REMARK SMILES CCCCCCCCCCC(=O)[O-]
REMARK SMILES IDX 7 1 8 2 9 3 10 4 11 5 12 6 13 7 6 8 5 9 4 10 3 11 2 12 1 13
REMARK H PARENT
REMARK Flexibility Score: inf
ROOT
ATOM      1  C   UNL     1      15.252   2.552  14.414  1.00  0.00     0.000 C 
ENDROOT
BRANCH   1   2
ATOM      2  C   UNL     1      13.789   2.548  14.904  1.00  0.00     0.000 C 
BRANCH   2   3
ATOM      3  C   UNL     1      13.612   2.633  16.430  1.00  0.00     0.006 C 
BRANCH   3   4
ATOM      4  C   UNL     1      14.948   2.702  17.180  1.00  0.00     0.053 C 
BRANCH   4   5
ATOM      5  C   UNL     1      15.152   1.466  17.998  1.00  0.00     0.041 C 
ATOM      6  O   UNL     1      15.130   0.332  17.450  1.00  0.00    -0.550 OA
ATOM      7  O   UNL     1      15.415   1.567  19.359  1.00  0.00    -0.550 OA
ENDBRANCH   4   5
ENDBRANCH   3   4
ENDBRANCH   2   3
ENDBRANCH   1   2
BRANCH   1   8
ATOM      8  C   UNL     1      15.447   2.972  12.946  1.00  0.00     0.000 C 
BRANCH   8   9
ATOM      9  C   UNL     1      15.604   1.774  11.998  1.00  0.00    -0.000 C 
BRANCH   9  10
ATOM     10  C   UNL     1      16.883   1.904  11.157  1.00  0.00    -0.000 C 
BRANCH  10  11
ATOM     11  C   UNL     1      17.936   0.835  11.499  1.00  0.00    -0.000 C 
BRANCH  11  12
ATOM     12  C   UNL     1      17.520  -0.153  12.603  1.00  0.00    -0.003 C 
ATOM     13  C   UNL     1      18.625  -0.407  13.627  1.00  0.00     0.004 C 
ENDBRANCH  11  12
ENDBRANCH  10  11
ENDBRANCH   9  10
ENDBRANCH   8   9
ENDBRANCH   1   8
TORSDOF 9
ENDMDL
MODEL 9
REMARK VINA RESULT:    -4.906      3.730      6.033
REMARK INTER + INTRA:          -8.529
REMARK INTER:                  -7.578
REMARK INTRA:                  -0.951
REMARK UNBOUND:                -1.041
REMARK SMILES CCCCCCCCCCC(=O)[O-]
REMARK SMILES IDX 7 1 8 2 9 3 10 4 11 5 12 6 13 7 6 8 5 9 4 10 3 11 2 12 1 13
REMARK H PARENT
REMARK Flexibility Score: inf
ROOT
ATOM      1  C   UNL     1      17.683   0.266  18.953  1.00  0.00     0.000 C 
ENDROOT
BRANCH   1   2
ATOM      2  C   UNL     1      17.540   1.114  17.672  1.00  0.00     0.000 C 
BRANCH   2   3
ATOM      3  C   UNL     1      17.361   0.309  16.373  1.00  0.00     0.006 C 
BRANCH   3   4
ATOM      4  C   UNL     1      15.936   0.394  15.812  1.00  0.00     0.053 C 
BRANCH   4   5
ATOM      5  C   UNL     1      15.885   1.350  14.662  1.00  0.00     0.041 C 
ATOM      6  O   UNL     1      15.483   2.531  14.837  1.00  0.00    -0.550 OA
ATOM      7  O   UNL     1      16.328   0.953  13.407  1.00  0.00    -0.550 OA
ENDBRANCH   4   5
ENDBRANCH   3   4
ENDBRANCH   2   3
ENDBRANCH   1   2
BRANCH   1   8
ATOM      8  C   UNL     1      16.474  -0.627  19.283  1.00  0.00     0.000 C 
BRANCH   8   9
ATOM      9  C   UNL     1      15.547  -0.012  20.341  1.00  0.00    -0.000 C 
BRANCH   9  10
ATOM     10  C   UNL     1      14.222   0.444  19.711  1.00  0.00    -0.000 C 
BRANCH  10  11
ATOM     11  C   UNL     1      14.275   1.888  19.180  1.00  0.00    -0.000 C 
BRANCH  11  12
ATOM     12  C   UNL     1      13.513   2.120  17.864  1.00  0.00    -0.003 C 
ATOM     13  C   UNL     1      13.006   3.554  17.711  1.00  0.00     0.004 C 
ENDBRANCH  11  12
ENDBRANCH  10  11
ENDBRANCH   9  10
ENDBRANCH   8   9
ENDBRANCH   1   8
TORSDOF 9
ENDMDL
