MODEL 1
REMARK VINA RESULT:    -4.212      0.000      0.000
REMARK INTER + INTRA:          -5.537
REMARK INTER:                  -5.936
REMARK INTRA:                   0.398
REMARK UNBOUND:                 0.398
REMARK SMILES CC1=CCC(=C(C)C)C(=O)CC(C)=CCC1
REMARK SMILES IDX 12 1 14 2 13 3 15 4 16 5 2 6 1 7 3 8 11 10 9 11 10 12 5 13
REMARK SMILES IDX 6 14 7 15 8 16 4 17
REMARK H PARENT
REMARK Flexibility Score: 60.00
ROOT
ATOM      1  C   UNL     1     100.982 118.182 125.455  1.00  0.00    -0.070 C 
ATOM      2  C   UNL     1     101.777 117.525 126.333  1.00  0.00    -0.027 C 
ATOM      3  C   UNL     1     100.637 119.617 125.767  1.00  0.00     0.039 C 
ENDROOT
BRANCH   2   4
ATOM      4  C   UNL     1     102.158 116.065 126.275  1.00  0.00     0.032 C 
BRANCH   4   5
ATOM      5  C   UNL     1     103.299 115.790 125.276  1.00  0.00     0.034 C 
BRANCH   5   6
ATOM      6  C   UNL     1     102.900 114.779 124.218  1.00  0.00    -0.077 C 
ATOM      7  C   UNL     1     102.621 113.363 124.651  1.00  0.00     0.039 C 
ATOM      8  C   UNL     1     102.756 115.081 122.908  1.00  0.00    -0.023 CG0
ATOM      9  G   UNL     1     102.955 116.444 122.289  1.00  0.00     0.000 G0
ENDBRANCH   5   6
ENDBRANCH   4   5
ENDBRANCH   2   4
BRANCH   1  10
ATOM     10  C   UNL     1     100.372 117.535 124.222  1.00  0.00     0.111 C 
BRANCH  10  11
ATOM     11  C   UNL     1     101.035 118.020 122.956  1.00  0.00     0.163 C 
ATOM     12  O   UNL     1     101.140 119.264 122.780  1.00  0.00    -0.294 OA
BRANCH  11  13
ATOM     13  C   UNL     1     101.606 117.073 121.948  1.00  0.00    -0.002 C 
ATOM     14  C   UNL     1     100.922 116.729 120.816  1.00  0.00    -0.069 C 
ATOM     15  C   UNL     1     101.523 115.801 119.783  1.00  0.00     0.039 C 
ATOM     16  C   UNL     1      99.519 117.231 120.554  1.00  0.00     0.039 C 
BRANCH  13  17
ATOM     17  C   UNL     1     102.950 116.448 122.274  1.00  0.00     0.066 CG0
ATOM     18  G   UNL     1     102.746 115.094 122.910  1.00  0.00     0.000 G0
ENDBRANCH  13  17
ENDBRANCH  11  13
ENDBRANCH  10  11
ENDBRANCH   1  10
TORSDOF 0
ENDMDL
MODEL 2
REMARK VINA RESULT:    -4.169      1.681      3.678
REMARK INTER + INTRA:          -5.476
REMARK INTER:                  -6.122
REMARK INTRA:                   0.646
REMARK UNBOUND:                 0.398
REMARK SMILES CC1=CCC(=C(C)C)C(=O)CC(C)=CCC1
REMARK SMILES IDX 12 1 14 2 13 3 15 4 16 5 2 6 1 7 3 8 11 10 9 11 10 12 5 13
REMARK SMILES IDX 6 14 7 15 8 16 4 17
REMARK H PARENT
REMARK Flexibility Score: 60.00
ROOT
ATOM      1  C   UNL     1     100.551 118.065 124.612  1.00  0.00    -0.070 C 
ATOM      2  C   UNL     1     100.540 119.218 123.902  1.00  0.00    -0.027 C 
ATOM      3  C   UNL     1     100.756 118.167 126.103  1.00  0.00     0.039 C 
ENDROOT
BRANCH   2   4
ATOM      4  C   UNL     1     100.456 119.342 122.400  1.00  0.00     0.032 C 
BRANCH   4   5
ATOM      5  C   UNL     1     101.673 118.722 121.686  1.00  0.00     0.034 C 
BRANCH   5   6
ATOM      6  C   UNL     1     101.263 117.736 120.609  1.00  0.00    -0.077 C 
ATOM      7  C   UNL     1     100.261 118.181 119.574  1.00  0.00     0.039 C 
ATOM      8  C   UNL     1     101.763 116.483 120.508  1.00  0.00    -0.023 CG0
ATOM      9  G   UNL     1     102.796 115.870 121.422  1.00  0.00     0.000 G0
ENDBRANCH   5   6
ENDBRANCH   4   5
ENDBRANCH   2   4
BRANCH   1  10
ATOM     10  C   UNL     1     100.438 116.685 123.983  1.00  0.00     0.111 C 
BRANCH  10  11
ATOM     11  C   UNL     1     101.793 116.051 123.789  1.00  0.00     0.163 C 
ATOM     12  O   UNL     1     102.661 116.219 124.687  1.00  0.00    -0.294 OA
BRANCH  11  13
ATOM     13  C   UNL     1     102.105 115.198 122.599  1.00  0.00    -0.002 C 
ATOM     14  C   UNL     1     101.845 113.856 122.589  1.00  0.00    -0.069 C 
ATOM     15  C   UNL     1     102.129 113.008 121.368  1.00  0.00     0.039 C 
ATOM     16  C   UNL     1     101.296 113.145 123.806  1.00  0.00     0.039 C 
BRANCH  13  17
ATOM     17  C   UNL     1     102.794 115.874 121.428  1.00  0.00     0.066 CG0
ATOM     18  G   UNL     1     101.763 116.489 120.512  1.00  0.00     0.000 G0
ENDBRANCH  13  17
ENDBRANCH  11  13
ENDBRANCH  10  11
ENDBRANCH   1  10
TORSDOF 0
ENDMDL
MODEL 3
REMARK VINA RESULT:    -4.080      1.135      1.276
REMARK INTER + INTRA:          -5.351
REMARK INTER:                  -5.716
REMARK INTRA:                   0.365
REMARK UNBOUND:                 0.398
REMARK SMILES CC1=CCC(=C(C)C)C(=O)CC(C)=CCC1
REMARK SMILES IDX 12 1 14 2 13 3 15 4 16 5 2 6 1 7 3 8 11 10 9 11 10 12 5 13
REMARK SMILES IDX 6 14 7 15 8 16 4 17
REMARK H PARENT
REMARK Flexibility Score: 60.00
ROOT
ATOM      1  C   UNL     1     100.983 117.925 125.255  1.00  0.00    -0.070 C 
ATOM      2  C   UNL     1     101.801 116.960 125.739  1.00  0.00    -0.027 C 
ATOM      3  C   UNL     1     100.682 119.098 126.155  1.00  0.00     0.039 C 
ENDROOT
BRANCH   2   4
ATOM      4  C   UNL     1     102.149 115.659 125.058  1.00  0.00     0.032 C 
BRANCH   4   5
ATOM      5  C   UNL     1     103.317 115.804 124.063  1.00  0.00     0.034 C 
BRANCH   5   6
ATOM      6  C   UNL     1     102.983 115.228 122.701  1.00  0.00    -0.077 C 
ATOM      7  C   UNL     1     102.813 113.735 122.577  1.00  0.00     0.039 C 
ATOM      8  C   UNL     1     102.802 115.980 121.592  1.00  0.00    -0.023 CG0
ATOM      9  G   UNL     1     102.893 117.485 121.521  1.00  0.00     0.000 G0
ENDBRANCH   5   6
ENDBRANCH   4   5
ENDBRANCH   2   4
BRANCH   1  10
ATOM     10  C   UNL     1     100.308 117.855 123.896  1.00  0.00     0.111 C 
BRANCH  10  11
ATOM     11  C   UNL     1     101.043 118.679 122.868  1.00  0.00     0.163 C 
ATOM     12  O   UNL     1     101.316 119.877 123.153  1.00  0.00    -0.294 OA
BRANCH  11  13
ATOM     13  C   UNL     1     101.492 118.102 121.562  1.00  0.00    -0.002 C 
ATOM     14  C   UNL     1     100.665 118.054 120.475  1.00  0.00    -0.069 C 
ATOM     15  C   UNL     1     101.141 117.503 119.148  1.00  0.00     0.039 C 
ATOM     16  C   UNL     1      99.227 118.515 120.551  1.00  0.00     0.039 C 
BRANCH  13  17
ATOM     17  C   UNL     1     102.885 117.501 121.518  1.00  0.00     0.066 CG0
ATOM     18  G   UNL     1     102.797 115.996 121.586  1.00  0.00     0.000 G0
ENDBRANCH  13  17
ENDBRANCH  11  13
ENDBRANCH  10  11
ENDBRANCH   1  10
TORSDOF 0
ENDMDL
MODEL 4
REMARK VINA RESULT:    -4.063      1.680      4.281
REMARK INTER + INTRA:          -5.327
REMARK INTER:                  -5.977
REMARK INTRA:                   0.649
REMARK UNBOUND:                 0.398
REMARK SMILES CC1=CCC(=C(C)C)C(=O)CC(C)=CCC1
REMARK SMILES IDX 12 1 14 2 13 3 15 4 16 5 2 6 1 7 3 8 11 10 9 11 10 12 5 13
REMARK SMILES IDX 6 14 7 15 8 16 4 17
REMARK H PARENT
REMARK Flexibility Score: 60.00
ROOT
ATOM      1  C   UNL     1     100.182 117.052 119.830  1.00  0.00    -0.070 C 
ATOM      2  C   UNL     1     100.783 115.846 119.701  1.00  0.00    -0.027 C 
ATOM      3  C   UNL     1      98.902 117.277 119.064  1.00  0.00     0.039 C 
ENDROOT
BRANCH   2   4
ATOM      4  C   UNL     1     102.115 115.444 120.287  1.00  0.00     0.032 C 
BRANCH   4   5
ATOM      5  C   UNL     1     101.969 114.648 121.598  1.00  0.00     0.034 C 
BRANCH   5   6
ATOM      6  C   UNL     1     102.521 115.405 122.791  1.00  0.00    -0.077 C 
ATOM      7  C   UNL     1     103.983 115.248 123.124  1.00  0.00     0.039 C 
ATOM      8  C   UNL     1     101.782 116.235 123.561  1.00  0.00    -0.023 CG0
ATOM      9  G   UNL     1     100.318 116.550 123.366  1.00  0.00     0.000 G0
ENDBRANCH   5   6
ENDBRANCH   4   5
ENDBRANCH   2   4
BRANCH   1  10
ATOM     10  C   UNL     1     100.757 118.200 120.643  1.00  0.00     0.111 C 
BRANCH  10  11
ATOM     11  C   UNL     1      99.863 118.560 121.804  1.00  0.00     0.163 C 
ATOM     12  O   UNL     1      98.841 119.261 121.571  1.00  0.00    -0.294 OA
BRANCH  11  13
ATOM     13  C   UNL     1     100.130 118.069 123.192  1.00  0.00    -0.002 C 
ATOM     14  C   UNL     1     100.276 118.930 124.244  1.00  0.00    -0.069 C 
ATOM     15  C   UNL     1     100.507 118.423 125.651  1.00  0.00     0.039 C 
ATOM     16  C   UNL     1     100.247 120.430 124.051  1.00  0.00     0.039 C 
BRANCH  13  17
ATOM     17  C   UNL     1     100.309 116.573 123.371  1.00  0.00     0.066 CG0
ATOM     18  G   UNL     1     101.772 116.249 123.556  1.00  0.00     0.000 G0
ENDBRANCH  13  17
ENDBRANCH  11  13
ENDBRANCH  10  11
ENDBRANCH   1  10
TORSDOF 0
ENDMDL
MODEL 5
REMARK VINA RESULT:    -4.026      1.789      3.562
REMARK INTER + INTRA:          -5.275
REMARK INTER:                  -5.686
REMARK INTRA:                   0.411
REMARK UNBOUND:                 0.398
REMARK SMILES CC1=CCC(=C(C)C)C(=O)CC(C)=CCC1
REMARK SMILES IDX 12 1 14 2 13 3 15 4 16 5 2 6 1 7 3 8 11 10 9 11 10 12 5 13
REMARK SMILES IDX 6 14 7 15 8 16 4 17
REMARK H PARENT
REMARK Flexibility Score: 60.00
ROOT
ATOM      1  C   UNL     1     102.093 116.342 125.468  1.00  0.00    -0.070 C 
ATOM      2  C   UNL     1     101.555 117.545 125.778  1.00  0.00    -0.027 C 
ATOM      3  C   UNL     1     103.140 115.787 126.403  1.00  0.00     0.039 C 
ENDROOT
BRANCH   2   4
ATOM      4  C   UNL     1     100.578 118.330 124.936  1.00  0.00     0.032 C 
BRANCH   4   5
ATOM      5  C   UNL     1     101.262 119.075 123.774  1.00  0.00     0.034 C 
BRANCH   5   6
ATOM      6  C   UNL     1     100.499 118.927 122.472  1.00  0.00    -0.077 C 
ATOM      7  C   UNL     1      99.132 119.554 122.368  1.00  0.00     0.039 C 
ATOM      8  C   UNL     1     100.985 118.284 121.386  1.00  0.00    -0.023 CG0
ATOM      9  G   UNL     1     102.340 117.627 121.282  1.00  0.00     0.000 G0
ENDBRANCH   5   6
ENDBRANCH   4   5
ENDBRANCH   2   4
BRANCH   1  10
ATOM     10  C   UNL     1     101.752 115.563 124.209  1.00  0.00     0.111 C 
BRANCH  10  11
ATOM     11  C   UNL     1     102.726 115.855 123.094  1.00  0.00     0.163 C 
ATOM     12  O   UNL     1     103.958 115.772 123.346  1.00  0.00    -0.294 OA
BRANCH  11  13
ATOM     13  C   UNL     1     102.269 116.184 121.708  1.00  0.00    -0.002 C 
ATOM     14  C   UNL     1     101.860 115.213 120.836  1.00  0.00    -0.069 C 
ATOM     15  C   UNL     1     101.362 115.558 119.449  1.00  0.00     0.039 C 
ATOM     16  C   UNL     1     101.917 113.746 121.200  1.00  0.00     0.039 C 
BRANCH  13  17
ATOM     17  C   UNL     1     102.349 117.638 121.283  1.00  0.00     0.066 CG0
ATOM     18  G   UNL     1     100.981 118.272 121.364  1.00  0.00     0.000 G0
ENDBRANCH  13  17
ENDBRANCH  11  13
ENDBRANCH  10  11
ENDBRANCH   1  10
TORSDOF 0
ENDMDL
MODEL 6
REMARK VINA RESULT:    -3.865      1.690      2.396
REMARK INTER + INTRA:          -5.049
REMARK INTER:                  -5.478
REMARK INTRA:                   0.429
REMARK UNBOUND:                 0.398
REMARK SMILES CC1=CCC(=C(C)C)C(=O)CC(C)=CCC1
REMARK SMILES IDX 12 1 14 2 13 3 15 4 16 5 2 6 1 7 3 8 11 10 9 11 10 12 5 13
REMARK SMILES IDX 6 14 7 15 8 16 4 17
REMARK H PARENT
REMARK Flexibility Score: 60.00
ROOT
ATOM      1  C   UNL     1     100.183 119.773 123.637  1.00  0.00    -0.070 C 
ATOM      2  C   UNL     1      99.972 119.246 124.866  1.00  0.00    -0.027 C 
ATOM      3  C   UNL     1      99.100 120.649 123.059  1.00  0.00     0.039 C 
ENDROOT
BRANCH   2   4
ATOM      4  C   UNL     1     100.868 118.266 125.584  1.00  0.00     0.032 C 
BRANCH   4   5
ATOM      5  C   UNL     1     100.826 116.857 124.960  1.00  0.00     0.034 C 
BRANCH   5   6
ATOM      6  C   UNL     1     102.211 116.261 124.802  1.00  0.00    -0.077 C 
ATOM      7  C   UNL     1     103.056 116.077 126.037  1.00  0.00     0.039 C 
ATOM      8  C   UNL     1     102.724 115.859 123.617  1.00  0.00    -0.023 CG0
ATOM      9  G   UNL     1     102.022 115.927 122.283  1.00  0.00     0.000 G0
ENDBRANCH   5   6
ENDBRANCH   4   5
ENDBRANCH   2   4
BRANCH   1  10
ATOM     10  C   UNL     1     101.411 119.477 122.791  1.00  0.00     0.111 C 
BRANCH  10  11
ATOM     11  C   UNL     1     101.176 118.314 121.860  1.00  0.00     0.163 C 
ATOM     12  O   UNL     1     100.077 118.258 121.246  1.00  0.00    -0.294 OA
BRANCH  11  13
ATOM     13  C   UNL     1     102.222 117.272 121.613  1.00  0.00    -0.002 C 
ATOM     14  C   UNL     1     103.283 117.501 120.782  1.00  0.00    -0.069 C 
ATOM     15  C   UNL     1     104.356 116.455 120.569  1.00  0.00     0.039 C 
ATOM     16  C   UNL     1     103.420 118.793 120.008  1.00  0.00     0.039 C 
BRANCH  13  17
ATOM     17  C   UNL     1     102.015 115.919 122.269  1.00  0.00     0.066 CG0
ATOM     18  G   UNL     1     102.718 115.883 123.604  1.00  0.00     0.000 G0
ENDBRANCH  13  17
ENDBRANCH  11  13
ENDBRANCH  10  11
ENDBRANCH   1  10
TORSDOF 0
ENDMDL
MODEL 7
REMARK VINA RESULT:    -3.837      1.493      4.187
REMARK INTER + INTRA:          -5.008
REMARK INTER:                  -5.632
REMARK INTRA:                   0.624
REMARK UNBOUND:                 0.398
REMARK SMILES CC1=CCC(=C(C)C)C(=O)CC(C)=CCC1
REMARK SMILES IDX 12 1 14 2 13 3 15 4 16 5 2 6 1 7 3 8 11 10 9 11 10 12 5 13
REMARK SMILES IDX 6 14 7 15 8 16 4 17
REMARK H PARENT
REMARK Flexibility Score: 60.00
ROOT
ATOM      1  C   UNL     1     101.227 117.651 120.806  1.00  0.00    -0.070 C 
ATOM      2  C   UNL     1     102.148 117.040 120.023  1.00  0.00    -0.027 C 
ATOM      3  C   UNL     1      99.870 117.919 120.204  1.00  0.00     0.039 C 
ENDROOT
BRANCH   2   4
ATOM      4  C   UNL     1     103.590 116.772 120.381  1.00  0.00     0.032 C 
BRANCH   4   5
ATOM      5  C   UNL     1     103.906 115.267 120.479  1.00  0.00     0.034 C 
BRANCH   5   6
ATOM      6  C   UNL     1     102.790 114.492 121.151  1.00  0.00    -0.077 C 
ATOM      7  C   UNL     1     102.008 113.503 120.325  1.00  0.00     0.039 C 
ATOM      8  C   UNL     1     102.471 114.617 122.459  1.00  0.00    -0.023 CG0
ATOM      9  G   UNL     1     103.158 115.522 123.453  1.00  0.00     0.000 G0
ENDBRANCH   5   6
ENDBRANCH   4   5
ENDBRANCH   2   4
BRANCH   1  10
ATOM     10  C   UNL     1     101.508 118.134 122.219  1.00  0.00     0.111 C 
BRANCH  10  11
ATOM     11  C   UNL     1     101.117 117.100 123.247  1.00  0.00     0.163 C 
ATOM     12  O   UNL     1      99.905 116.761 123.315  1.00  0.00    -0.294 OA
BRANCH  11  13
ATOM     13  C   UNL     1     102.127 116.443 124.134  1.00  0.00    -0.002 C 
ATOM     14  C   UNL     1     102.175 116.693 125.477  1.00  0.00    -0.069 C 
ATOM     15  C   UNL     1     103.175 115.995 126.373  1.00  0.00     0.039 C 
ATOM     16  C   UNL     1     101.258 117.703 126.129  1.00  0.00     0.039 C 
BRANCH  13  17
ATOM     17  C   UNL     1     103.148 115.541 123.465  1.00  0.00     0.066 CG0
ATOM     18  G   UNL     1     102.458 114.628 122.480  1.00  0.00     0.000 G0
ENDBRANCH  13  17
ENDBRANCH  11  13
ENDBRANCH  10  11
ENDBRANCH   1  10
TORSDOF 0
ENDMDL
MODEL 8
REMARK VINA RESULT:    -3.714      1.511      3.912
REMARK INTER + INTRA:          -4.835
REMARK INTER:                  -5.600
REMARK INTRA:                   0.765
REMARK UNBOUND:                 0.398
REMARK SMILES CC1=CCC(=C(C)C)C(=O)CC(C)=CCC1
REMARK SMILES IDX 12 1 14 2 13 3 15 4 16 5 2 6 1 7 3 8 11 10 9 11 10 12 5 13
REMARK SMILES IDX 6 14 7 15 8 16 4 17
REMARK H PARENT
REMARK Flexibility Score: 60.00
ROOT
ATOM      1  C   UNL     1     102.060 116.342 120.700  1.00  0.00    -0.070 C 
ATOM      2  C   UNL     1     102.942 115.351 120.969  1.00  0.00    -0.027 C 
ATOM      3  C   UNL     1     101.200 116.193 119.469  1.00  0.00     0.039 C 
ENDROOT
BRANCH   2   4
ATOM      4  C   UNL     1     103.966 115.343 122.079  1.00  0.00     0.032 C 
BRANCH   4   5
ATOM      5  C   UNL     1     103.710 114.230 123.113  1.00  0.00     0.034 C 
BRANCH   5   6
ATOM      6  C   UNL     1     102.235 114.072 123.429  1.00  0.00    -0.077 C 
ATOM      7  C   UNL     1     101.561 112.773 123.068  1.00  0.00     0.039 C 
ATOM      8  C   UNL     1     101.493 115.022 124.041  1.00  0.00    -0.023 CG0
ATOM      9  G   UNL     1     101.993 116.367 124.511  1.00  0.00     0.000 G0
ENDBRANCH   5   6
ENDBRANCH   4   5
ENDBRANCH   2   4
BRANCH   1  10
ATOM     10  C   UNL     1     101.940 117.613 121.524  1.00  0.00     0.111 C 
BRANCH  10  11
ATOM     11  C   UNL     1     100.813 117.522 122.523  1.00  0.00     0.163 C 
ATOM     12  O   UNL     1      99.634 117.446 122.082  1.00  0.00    -0.294 OA
BRANCH  11  13
ATOM     13  C   UNL     1     101.063 117.467 123.998  1.00  0.00    -0.002 C 
ATOM     14  C   UNL     1     100.541 118.400 124.850  1.00  0.00    -0.069 C 
ATOM     15  C   UNL     1     100.767 118.315 126.344  1.00  0.00     0.039 C 
ATOM     16  C   UNL     1      99.743 119.580 124.343  1.00  0.00     0.039 C 
BRANCH  13  17
ATOM     17  C   UNL     1     101.985 116.372 124.500  1.00  0.00     0.066 CG0
ATOM     18  G   UNL     1     101.483 115.026 124.035  1.00  0.00     0.000 G0
ENDBRANCH  13  17
ENDBRANCH  11  13
ENDBRANCH  10  11
ENDBRANCH   1  10
TORSDOF 0
ENDMDL
MODEL 9
REMARK VINA RESULT:    -3.612      8.095     10.986
REMARK INTER + INTRA:          -4.692
REMARK INTER:                  -5.083
REMARK INTRA:                   0.392
REMARK UNBOUND:                 0.398
REMARK SMILES CC1=CCC(=C(C)C)C(=O)CC(C)=CCC1
REMARK SMILES IDX 12 1 14 2 13 3 15 4 16 5 2 6 1 7 3 8 11 10 9 11 10 12 5 13
REMARK SMILES IDX 6 14 7 15 8 16 4 17
REMARK H PARENT
REMARK Flexibility Score: 60.00
ROOT
ATOM      1  C   UNL     1     100.675 106.598 116.796  1.00  0.00    -0.070 C 
ATOM      2  C   UNL     1     100.179 106.828 115.558  1.00  0.00    -0.027 C 
ATOM      3  C   UNL     1     101.212 105.219 117.086  1.00  0.00     0.039 C 
ENDROOT
BRANCH   2   4
ATOM      4  C   UNL     1      99.500 108.092 115.087  1.00  0.00     0.032 C 
BRANCH   4   5
ATOM      5  C   UNL     1     100.504 109.170 114.636  1.00  0.00     0.034 C 
BRANCH   5   6
ATOM      6  C   UNL     1     100.302 110.481 115.371  1.00  0.00    -0.077 C 
ATOM      7  C   UNL     1      99.046 111.269 115.098  1.00  0.00     0.039 C 
ATOM      8  C   UNL     1     101.174 110.975 116.278  1.00  0.00    -0.023 CG0
ATOM      9  G   UNL     1     102.463 110.319 116.712  1.00  0.00     0.000 G0
ENDBRANCH   5   6
ENDBRANCH   4   5
ENDBRANCH   2   4
BRANCH   1  10
ATOM     10  C   UNL     1     100.659 107.626 117.916  1.00  0.00     0.111 C 
BRANCH  10  11
ATOM     11  C   UNL     1     102.027 108.220 118.144  1.00  0.00     0.163 C 
ATOM     12  O   UNL     1     102.993 107.432 118.330  1.00  0.00    -0.294 OA
BRANCH  11  13
ATOM     13  C   UNL     1     102.267 109.697 118.102  1.00  0.00    -0.002 C 
ATOM     14  C   UNL     1     102.246 110.461 119.235  1.00  0.00    -0.069 C 
ATOM     15  C   UNL     1     102.527 111.947 119.187  1.00  0.00     0.039 C 
ATOM     16  C   UNL     1     101.907 109.869 120.585  1.00  0.00     0.039 C 
BRANCH  13  17
ATOM     17  C   UNL     1     102.461 110.324 116.733  1.00  0.00     0.066 CG0
ATOM     18  G   UNL     1     101.176 110.976 116.282  1.00  0.00     0.000 G0
ENDBRANCH  13  17
ENDBRANCH  11  13
ENDBRANCH  10  11
ENDBRANCH   1  10
TORSDOF 0
ENDMDL
