MODEL 1
REMARK VINA RESULT:    -7.752      0.000      0.000
REMARK INTER + INTRA:          -9.399
REMARK INTER:                  -9.111
REMARK INTRA:                  -0.288
REMARK UNBOUND:                -0.288
REMARK SMILES O=c1cc(-c2ccc(O)c(O)c2)oc2cc(O)cc(O)c12
REMARK SMILES IDX 4 1 3 2 2 3 1 4 21 5 19 6 18 7 16 8 15 9 14 10 13 11 5 12
REMARK SMILES IDX 6 13 7 14 8 15 12 16 10 17 9 18 11 20 20 22 17 24
REMARK H PARENT 9 19 11 21 20 23 17 25
REMARK Flexibility Score: inf
ROOT
ATOM      1  C   UNL     1      42.065  -9.129  11.827  1.00  0.00     0.138 A 
ATOM      2  C   UNL     1      41.621 -10.451  11.955  1.00  0.00     0.100 A 
ATOM      3  C   UNL     1      41.782 -11.119  13.171  1.00  0.00     0.197 A 
ATOM      4  O   UNL     1      41.429 -12.325  13.236  1.00  0.00    -0.289 OA
ATOM      5  C   UNL     1      42.361 -10.446  14.272  1.00  0.00     0.107 A 
ATOM      6  C   UNL     1      42.538 -11.013  15.570  1.00  0.00     0.134 A 
ATOM      7  C   UNL     1      43.230 -10.290  16.549  1.00  0.00     0.093 A 
ATOM      8  C   UNL     1      43.699  -8.998  16.296  1.00  0.00     0.123 A 
ATOM      9  C   UNL     1      43.485  -8.417  15.050  1.00  0.00     0.094 A 
ATOM     10  C   UNL     1      42.827  -9.124  14.041  1.00  0.00     0.146 A 
ATOM     11  O   UNL     1      42.656  -8.537  12.860  1.00  0.00    -0.456 OA
ENDROOT
BRANCH   1  12
ATOM     12  C   UNL     1      41.919  -8.371  10.559  1.00  0.00     0.021 A 
ATOM     13  C   UNL     1      41.876  -6.964  10.538  1.00  0.00     0.016 A 
ATOM     14  C   UNL     1      41.748  -6.277   9.329  1.00  0.00     0.051 A 
ATOM     15  C   UNL     1      41.668  -6.979   8.120  1.00  0.00     0.157 A 
ATOM     16  C   UNL     1      41.851  -9.068   9.339  1.00  0.00     0.062 A 
ATOM     17  C   UNL     1      41.721  -8.381   8.126  1.00  0.00     0.158 A 
BRANCH  15  18
ATOM     18  O   UNL     1      41.538  -6.289   6.916  1.00  0.00    -0.504 OA
ATOM     19  H   UNL     1      40.762  -5.662   6.744  1.00  0.00     0.293 HD
ENDBRANCH  15  18
BRANCH  17  20
ATOM     20  O   UNL     1      41.649  -9.111   6.940  1.00  0.00    -0.504 OA
ATOM     21  H   UNL     1      42.427  -9.664   6.600  1.00  0.00     0.293 HD
ENDBRANCH  17  20
ENDBRANCH   1  12
BRANCH   6  22
ATOM     22  O   UNL     1      42.034 -12.259  15.952  1.00  0.00    -0.507 OA
ATOM     23  H   UNL     1      42.590 -13.089  16.089  1.00  0.00     0.293 HD
ENDBRANCH   6  22
BRANCH   8  24
ATOM     24  O   UNL     1      44.374  -8.282  17.282  1.00  0.00    -0.508 OA
ATOM     25  H   UNL     1      45.381  -8.165  17.258  1.00  0.00     0.293 HD
ENDBRANCH   8  24
TORSDOF 5
ENDMDL
MODEL 2
REMARK VINA RESULT:    -7.275      1.012      2.687
REMARK INTER + INTRA:          -8.839
REMARK INTER:                  -8.536
REMARK INTRA:                  -0.303
REMARK UNBOUND:                -0.288
REMARK SMILES O=c1cc(-c2ccc(O)c(O)c2)oc2cc(O)cc(O)c12
REMARK SMILES IDX 4 1 3 2 2 3 1 4 21 5 19 6 18 7 16 8 15 9 14 10 13 11 5 12
REMARK SMILES IDX 6 13 7 14 8 15 12 16 10 17 9 18 11 20 20 22 17 24
REMARK H PARENT 9 19 11 21 20 23 17 25
REMARK Flexibility Score: inf
ROOT
ATOM      1  C   UNL     1      42.437  -7.967  12.221  1.00  0.00     0.138 A 
ATOM      2  C   UNL     1      43.121  -7.109  13.092  1.00  0.00     0.100 A 
ATOM      3  C   UNL     1      43.422  -7.537  14.387  1.00  0.00     0.197 A 
ATOM      4  O   UNL     1      43.981  -6.722  15.166  1.00  0.00    -0.289 OA
ATOM      5  C   UNL     1      43.062  -8.842  14.798  1.00  0.00     0.107 A 
ATOM      6  C   UNL     1      43.352  -9.400  16.079  1.00  0.00     0.134 A 
ATOM      7  C   UNL     1      42.845 -10.661  16.413  1.00  0.00     0.093 A 
ATOM      8  C   UNL     1      42.107 -11.409  15.491  1.00  0.00     0.123 A 
ATOM      9  C   UNL     1      41.864 -10.896  14.221  1.00  0.00     0.094 A 
ATOM     10  C   UNL     1      42.329  -9.626  13.868  1.00  0.00     0.146 A 
ATOM     11  O   UNL     1      42.062  -9.167  12.649  1.00  0.00    -0.456 OA
ENDROOT
BRANCH   1  12
ATOM     12  C   UNL     1      42.093  -7.564  10.834  1.00  0.00     0.021 A 
ATOM     13  C   UNL     1      41.796  -6.227  10.503  1.00  0.00     0.016 A 
ATOM     14  C   UNL     1      41.486  -5.875   9.188  1.00  0.00     0.051 A 
ATOM     15  C   UNL     1      41.474  -6.845   8.179  1.00  0.00     0.157 A 
ATOM     16  C   UNL     1      42.091  -8.530   9.812  1.00  0.00     0.062 A 
ATOM     17  C   UNL     1      41.780  -8.179   8.493  1.00  0.00     0.158 A 
BRANCH  15  18
ATOM     18  O   UNL     1      41.161  -6.490   6.868  1.00  0.00    -0.504 OA
ATOM     19  H   UNL     1      41.692  -6.844   6.081  1.00  0.00     0.293 HD
ENDBRANCH  15  18
BRANCH  17  20
ATOM     20  O   UNL     1      41.781  -9.169   7.511  1.00  0.00    -0.504 OA
ATOM     21  H   UNL     1      40.948  -9.698   7.280  1.00  0.00     0.293 HD
ENDBRANCH  17  20
ENDBRANCH   1  12
BRANCH   6  22
ATOM     22  O   UNL     1      44.150  -8.773  17.041  1.00  0.00    -0.507 OA
ATOM     23  H   UNL     1      43.986  -8.803  18.035  1.00  0.00     0.293 HD
ENDBRANCH   6  22
BRANCH   8  24
ATOM     24  O   UNL     1      41.619 -12.669  15.828  1.00  0.00    -0.508 OA
ATOM     25  H   UNL     1      42.184 -13.504  15.720  1.00  0.00     0.293 HD
ENDBRANCH   8  24
TORSDOF 5
ENDMDL
MODEL 3
REMARK VINA RESULT:    -7.055     20.807     22.553
REMARK INTER + INTRA:          -8.580
REMARK INTER:                  -8.268
REMARK INTRA:                  -0.312
REMARK UNBOUND:                -0.288
REMARK SMILES O=c1cc(-c2ccc(O)c(O)c2)oc2cc(O)cc(O)c12
REMARK SMILES IDX 4 1 3 2 2 3 1 4 21 5 19 6 18 7 16 8 15 9 14 10 13 11 5 12
REMARK SMILES IDX 6 13 7 14 8 15 12 16 10 17 9 18 11 20 20 22 17 24
REMARK H PARENT 9 19 11 21 20 23 17 25
REMARK Flexibility Score: inf
ROOT
ATOM      1  C   UNL     1      58.073 -24.128  10.283  1.00  0.00     0.138 A 
ATOM      2  C   UNL     1      58.568 -25.232   9.577  1.00  0.00     0.100 A 
ATOM      3  C   UNL     1      58.893 -25.100   8.225  1.00  0.00     0.197 A 
ATOM      4  O   UNL     1      59.276 -26.125   7.604  1.00  0.00    -0.289 OA
ATOM      5  C   UNL     1      58.751 -23.845   7.588  1.00  0.00     0.107 A 
ATOM      6  C   UNL     1      59.089 -23.582   6.226  1.00  0.00     0.134 A 
ATOM      7  C   UNL     1      58.796 -22.330   5.673  1.00  0.00     0.093 A 
ATOM      8  C   UNL     1      58.231 -21.313   6.447  1.00  0.00     0.123 A 
ATOM      9  C   UNL     1      57.947 -21.543   7.790  1.00  0.00     0.094 A 
ATOM     10  C   UNL     1      58.197 -22.792   8.364  1.00  0.00     0.146 A 
ATOM     11  O   UNL     1      57.897 -22.975   9.646  1.00  0.00    -0.456 OA
ENDROOT
BRANCH   1  12
ATOM     12  C   UNL     1      57.713 -24.212  11.720  1.00  0.00     0.021 A 
ATOM     13  C   UNL     1      58.260 -25.200  12.563  1.00  0.00     0.016 A 
ATOM     14  C   UNL     1      57.911 -25.250  13.915  1.00  0.00     0.051 A 
ATOM     15  C   UNL     1      57.019 -24.313  14.451  1.00  0.00     0.157 A 
ATOM     16  C   UNL     1      56.828 -23.268  12.270  1.00  0.00     0.062 A 
ATOM     17  C   UNL     1      56.476 -23.317  13.624  1.00  0.00     0.158 A 
BRANCH  15  18
ATOM     18  O   UNL     1      56.671 -24.368  15.800  1.00  0.00    -0.504 OA
ATOM     19  H   UNL     1      56.411 -23.535  16.315  1.00  0.00     0.293 HD
ENDBRANCH  15  18
BRANCH  17  20
ATOM     20  O   UNL     1      55.588 -22.367  14.127  1.00  0.00    -0.504 OA
ATOM     21  H   UNL     1      55.865 -21.406  14.290  1.00  0.00     0.293 HD
ENDBRANCH  17  20
ENDBRANCH   1  12
BRANCH   6  22
ATOM     22  O   UNL     1      59.732 -24.499   5.391  1.00  0.00    -0.507 OA
ATOM     23  H   UNL     1      60.179 -24.269   4.517  1.00  0.00     0.293 HD
ENDBRANCH   6  22
BRANCH   8  24
ATOM     24  O   UNL     1      57.957 -20.066   5.891  1.00  0.00    -0.508 OA
ATOM     25  H   UNL     1      57.016 -19.688   5.873  1.00  0.00     0.293 HD
ENDBRANCH   8  24
TORSDOF 5
ENDMDL
MODEL 4
REMARK VINA RESULT:    -6.892     18.745     19.600
REMARK INTER + INTRA:          -8.389
REMARK INTER:                  -8.124
REMARK INTRA:                  -0.265
REMARK UNBOUND:                -0.288
REMARK SMILES O=c1cc(-c2ccc(O)c(O)c2)oc2cc(O)cc(O)c12
REMARK SMILES IDX 4 1 3 2 2 3 1 4 21 5 19 6 18 7 16 8 15 9 14 10 13 11 5 12
REMARK SMILES IDX 6 13 7 14 8 15 12 16 10 17 9 18 11 20 20 22 17 24
REMARK H PARENT 9 19 11 21 20 23 17 25
REMARK Flexibility Score: inf
ROOT
ATOM      1  C   UNL     1      57.181 -21.218  10.892  1.00  0.00     0.138 A 
ATOM      2  C   UNL     1      58.235 -21.931  10.305  1.00  0.00     0.100 A 
ATOM      3  C   UNL     1      58.730 -23.075  10.934  1.00  0.00     0.197 A 
ATOM      4  O   UNL     1      59.717 -23.657  10.415  1.00  0.00    -0.289 OA
ATOM      5  C   UNL     1      58.143 -23.523  12.141  1.00  0.00     0.107 A 
ATOM      6  C   UNL     1      58.538 -24.698  12.849  1.00  0.00     0.134 A 
ATOM      7  C   UNL     1      57.962 -24.979  14.094  1.00  0.00     0.093 A 
ATOM      8  C   UNL     1      56.964 -24.160  14.629  1.00  0.00     0.123 A 
ATOM      9  C   UNL     1      56.535 -23.041  13.920  1.00  0.00     0.094 A 
ATOM     10  C   UNL     1      57.113 -22.715  12.691  1.00  0.00     0.146 A 
ATOM     11  O   UNL     1      56.684 -21.629  12.054  1.00  0.00    -0.456 OA
ENDROOT
BRANCH   1  12
ATOM     12  C   UNL     1      56.616 -19.996  10.267  1.00  0.00     0.021 A 
ATOM     13  C   UNL     1      55.256 -19.908   9.913  1.00  0.00     0.016 A 
ATOM     14  C   UNL     1      54.749 -18.742   9.335  1.00  0.00     0.051 A 
ATOM     15  C   UNL     1      55.585 -17.643   9.107  1.00  0.00     0.157 A 
ATOM     16  C   UNL     1      57.447 -18.883  10.046  1.00  0.00     0.062 A 
ATOM     17  C   UNL     1      56.940 -17.714   9.466  1.00  0.00     0.158 A 
BRANCH  15  18
ATOM     18  O   UNL     1      55.076 -16.481   8.528  1.00  0.00    -0.504 OA
ATOM     19  H   UNL     1      54.564 -16.504   7.654  1.00  0.00     0.293 HD
ENDBRANCH  15  18
BRANCH  17  20
ATOM     20  O   UNL     1      57.800 -16.635   9.257  1.00  0.00    -0.504 OA
ATOM     21  H   UNL     1      58.039 -16.311   8.327  1.00  0.00     0.293 HD
ENDBRANCH  17  20
ENDBRANCH   1  12
BRANCH   6  22
ATOM     22  O   UNL     1      59.463 -25.627  12.365  1.00  0.00    -0.507 OA
ATOM     23  H   UNL     1      60.396 -25.405  12.056  1.00  0.00     0.293 HD
ENDBRANCH   6  22
BRANCH   8  24
ATOM     24  O   UNL     1      56.387 -24.456  15.861  1.00  0.00    -0.508 OA
ATOM     25  H   UNL     1      56.392 -25.398  16.237  1.00  0.00     0.293 HD
ENDBRANCH   8  24
TORSDOF 5
ENDMDL
MODEL 5
REMARK VINA RESULT:    -6.831      3.271      4.631
REMARK INTER + INTRA:          -8.317
REMARK INTER:                  -8.050
REMARK INTRA:                  -0.267
REMARK UNBOUND:                -0.288
REMARK SMILES O=c1cc(-c2ccc(O)c(O)c2)oc2cc(O)cc(O)c12
REMARK SMILES IDX 4 1 3 2 2 3 1 4 21 5 19 6 18 7 16 8 15 9 14 10 13 11 5 12
REMARK SMILES IDX 6 13 7 14 8 15 12 16 10 17 9 18 11 20 20 22 17 24
REMARK H PARENT 9 19 11 21 20 23 17 25
REMARK Flexibility Score: inf
ROOT
ATOM      1  C   UNL     1      43.581 -10.729  11.771  1.00  0.00     0.138 A 
ATOM      2  C   UNL     1      42.563  -9.858  11.359  1.00  0.00     0.100 A 
ATOM      3  C   UNL     1      42.073  -8.900  12.248  1.00  0.00     0.197 A 
ATOM      4  O   UNL     1      41.117  -8.174  11.870  1.00  0.00    -0.289 OA
ATOM      5  C   UNL     1      42.629  -8.793  13.544  1.00  0.00     0.107 A 
ATOM      6  C   UNL     1      42.236  -7.828  14.520  1.00  0.00     0.134 A 
ATOM      7  C   UNL     1      42.776  -7.893  15.810  1.00  0.00     0.093 A 
ATOM      8  C   UNL     1      43.738  -8.852  16.142  1.00  0.00     0.123 A 
ATOM      9  C   UNL     1      44.166  -9.764  15.182  1.00  0.00     0.094 A 
ATOM     10  C   UNL     1      43.622  -9.746  13.895  1.00  0.00     0.146 A 
ATOM     11  O   UNL     1      44.048 -10.644  13.012  1.00  0.00    -0.456 OA
ENDROOT
BRANCH   1  12
ATOM     12  C   UNL     1      44.139 -11.766  10.867  1.00  0.00     0.021 A 
ATOM     13  C   UNL     1      45.500 -11.775  10.504  1.00  0.00     0.016 A 
ATOM     14  C   UNL     1      46.001 -12.769   9.660  1.00  0.00     0.051 A 
ATOM     15  C   UNL     1      45.158 -13.773   9.170  1.00  0.00     0.157 A 
ATOM     16  C   UNL     1      43.302 -12.786  10.381  1.00  0.00     0.062 A 
ATOM     17  C   UNL     1      43.802 -13.782   9.534  1.00  0.00     0.158 A 
BRANCH  15  18
ATOM     18  O   UNL     1      45.661 -14.762   8.326  1.00  0.00    -0.504 OA
ATOM     19  H   UNL     1      45.748 -15.725   8.629  1.00  0.00     0.293 HD
ENDBRANCH  15  18
BRANCH  17  20
ATOM     20  O   UNL     1      42.936 -14.770   9.068  1.00  0.00    -0.504 OA
ATOM     21  H   UNL     1      42.817 -14.958   8.079  1.00  0.00     0.293 HD
ENDBRANCH  17  20
ENDBRANCH   1  12
BRANCH   6  22
ATOM     22  O   UNL     1      41.349  -6.779  14.267  1.00  0.00    -0.507 OA
ATOM     23  H   UNL     1      40.404  -6.890  13.932  1.00  0.00     0.293 HD
ENDBRANCH   6  22
BRANCH   8  24
ATOM     24  O   UNL     1      44.280  -8.899  17.425  1.00  0.00    -0.508 OA
ATOM     25  H   UNL     1      44.349  -9.770  17.940  1.00  0.00     0.293 HD
ENDBRANCH   8  24
TORSDOF 5
ENDMDL
MODEL 6
REMARK VINA RESULT:    -6.826     20.204     20.940
REMARK INTER + INTRA:          -8.311
REMARK INTER:                  -8.002
REMARK INTRA:                  -0.309
REMARK UNBOUND:                -0.288
REMARK SMILES O=c1cc(-c2ccc(O)c(O)c2)oc2cc(O)cc(O)c12
REMARK SMILES IDX 4 1 3 2 2 3 1 4 21 5 19 6 18 7 16 8 15 9 14 10 13 11 5 12
REMARK SMILES IDX 6 13 7 14 8 15 12 16 10 17 9 18 11 20 20 22 17 24
REMARK H PARENT 9 19 11 21 20 23 17 25
REMARK Flexibility Score: inf
ROOT
ATOM      1  C   UNL     1      57.696 -22.121   9.536  1.00  0.00     0.138 A 
ATOM      2  C   UNL     1      56.602 -21.626  10.258  1.00  0.00     0.100 A 
ATOM      3  C   UNL     1      56.406 -22.032  11.580  1.00  0.00     0.197 A 
ATOM      4  O   UNL     1      55.381 -21.619  12.181  1.00  0.00    -0.289 OA
ATOM      5  C   UNL     1      57.331 -22.912  12.189  1.00  0.00     0.107 A 
ATOM      6  C   UNL     1      57.255 -23.361  13.542  1.00  0.00     0.134 A 
ATOM      7  C   UNL     1      58.162 -24.323  14.001  1.00  0.00     0.093 A 
ATOM      8  C   UNL     1      59.179 -24.809  13.174  1.00  0.00     0.123 A 
ATOM      9  C   UNL     1      59.293 -24.338  11.869  1.00  0.00     0.094 A 
ATOM     10  C   UNL     1      58.383 -23.402  11.371  1.00  0.00     0.146 A 
ATOM     11  O   UNL     1      58.519 -22.989  10.114  1.00  0.00    -0.456 OA
ENDROOT
BRANCH   1  12
ATOM     12  C   UNL     1      57.952 -21.723   8.129  1.00  0.00     0.021 A 
ATOM     13  C   UNL     1      57.527 -20.479   7.623  1.00  0.00     0.016 A 
ATOM     14  C   UNL     1      57.790 -20.126   6.298  1.00  0.00     0.051 A 
ATOM     15  C   UNL     1      58.487 -21.002   5.457  1.00  0.00     0.157 A 
ATOM     16  C   UNL     1      58.662 -22.591   7.281  1.00  0.00     0.062 A 
ATOM     17  C   UNL     1      58.926 -22.240   5.952  1.00  0.00     0.158 A 
BRANCH  15  18
ATOM     18  O   UNL     1      58.746 -20.647   4.134  1.00  0.00    -0.504 OA
ATOM     19  H   UNL     1      59.617 -20.894   3.678  1.00  0.00     0.293 HD
ENDBRANCH  15  18
BRANCH  17  20
ATOM     20  O   UNL     1      59.627 -23.133   5.143  1.00  0.00    -0.504 OA
ATOM     21  H   UNL     1      60.000 -22.862   4.241  1.00  0.00     0.293 HD
ENDBRANCH  17  20
ENDBRANCH   1  12
BRANCH   6  22
ATOM     22  O   UNL     1      56.333 -22.877  14.475  1.00  0.00    -0.507 OA
ATOM     23  H   UNL     1      55.685 -23.447  14.995  1.00  0.00     0.293 HD
ENDBRANCH   6  22
BRANCH   8  24
ATOM     24  O   UNL     1      60.086 -25.756  13.644  1.00  0.00    -0.508 OA
ATOM     25  H   UNL     1      59.783 -26.672  13.956  1.00  0.00     0.293 HD
ENDBRANCH   8  24
TORSDOF 5
ENDMDL
MODEL 7
REMARK VINA RESULT:    -6.773      2.122      7.257
REMARK INTER + INTRA:          -8.248
REMARK INTER:                  -7.941
REMARK INTRA:                  -0.307
REMARK UNBOUND:                -0.288
REMARK SMILES O=c1cc(-c2ccc(O)c(O)c2)oc2cc(O)cc(O)c12
REMARK SMILES IDX 4 1 3 2 2 3 1 4 21 5 19 6 18 7 16 8 15 9 14 10 13 11 5 12
REMARK SMILES IDX 6 13 7 14 8 15 12 16 10 17 9 18 11 20 20 22 17 24
REMARK H PARENT 9 19 11 21 20 23 17 25
REMARK Flexibility Score: inf
ROOT
ATOM      1  C   UNL     1      42.916  -7.608  11.929  1.00  0.00     0.138 A 
ATOM      2  C   UNL     1      41.804  -6.844  11.551  1.00  0.00     0.100 A 
ATOM      3  C   UNL     1      41.549  -6.616  10.197  1.00  0.00     0.197 A 
ATOM      4  O   UNL     1      40.579  -5.875   9.892  1.00  0.00    -0.289 OA
ATOM      5  C   UNL     1      42.396  -7.186   9.217  1.00  0.00     0.107 A 
ATOM      6  C   UNL     1      42.211  -7.055   7.808  1.00  0.00     0.134 A 
ATOM      7  C   UNL     1      43.179  -7.565   6.936  1.00  0.00     0.093 A 
ATOM      8  C   UNL     1      44.296  -8.253   7.419  1.00  0.00     0.123 A 
ATOM      9  C   UNL     1      44.458  -8.431   8.790  1.00  0.00     0.094 A 
ATOM     10  C   UNL     1      43.527  -7.905   9.688  1.00  0.00     0.146 A 
ATOM     11  O   UNL     1      43.727  -8.085  10.990  1.00  0.00    -0.456 OA
ENDROOT
BRANCH   1  12
ATOM     12  C   UNL     1      43.233  -7.881  13.353  1.00  0.00     0.021 A 
ATOM     13  C   UNL     1      42.837  -7.003  14.381  1.00  0.00     0.016 A 
ATOM     14  C   UNL     1      43.140  -7.290  15.714  1.00  0.00     0.051 A 
ATOM     15  C   UNL     1      43.836  -8.459  16.046  1.00  0.00     0.157 A 
ATOM     16  C   UNL     1      43.920  -9.059  13.696  1.00  0.00     0.062 A 
ATOM     17  C   UNL     1      44.226  -9.348  15.032  1.00  0.00     0.158 A 
BRANCH  15  18
ATOM     18  O   UNL     1      44.138  -8.741  17.377  1.00  0.00    -0.504 OA
ATOM     19  H   UNL     1      43.752  -8.193  18.137  1.00  0.00     0.293 HD
ENDBRANCH  15  18
BRANCH  17  20
ATOM     20  O   UNL     1      44.916 -10.523  15.328  1.00  0.00    -0.504 OA
ATOM     21  H   UNL     1      45.875 -10.670  15.039  1.00  0.00     0.293 HD
ENDBRANCH  17  20
ENDBRANCH   1  12
BRANCH   6  22
ATOM     22  O   UNL     1      41.090  -6.463   7.220  1.00  0.00    -0.507 OA
ATOM     23  H   UNL     1      40.707  -6.717   6.323  1.00  0.00     0.293 HD
ENDBRANCH   6  22
BRANCH   8  24
ATOM     24  O   UNL     1      45.247  -8.769   6.542  1.00  0.00    -0.508 OA
ATOM     25  H   UNL     1      45.314  -9.764   6.357  1.00  0.00     0.293 HD
ENDBRANCH   8  24
TORSDOF 5
ENDMDL
MODEL 8
REMARK VINA RESULT:    -6.770     21.122     21.623
REMARK INTER + INTRA:          -8.245
REMARK INTER:                  -7.966
REMARK INTRA:                  -0.279
REMARK UNBOUND:                -0.288
REMARK SMILES O=c1cc(-c2ccc(O)c(O)c2)oc2cc(O)cc(O)c12
REMARK SMILES IDX 4 1 3 2 2 3 1 4 21 5 19 6 18 7 16 8 15 9 14 10 13 11 5 12
REMARK SMILES IDX 6 13 7 14 8 15 12 16 10 17 9 18 11 20 20 22 17 24
REMARK H PARENT 9 19 11 21 20 23 17 25
REMARK Flexibility Score: inf
ROOT
ATOM      1  C   UNL     1      58.780 -22.275   7.153  1.00  0.00     0.138 A 
ATOM      2  C   UNL     1      58.970 -23.653   7.318  1.00  0.00     0.100 A 
ATOM      3  C   UNL     1      59.108 -24.183   8.603  1.00  0.00     0.197 A 
ATOM      4  O   UNL     1      59.340 -25.415   8.715  1.00  0.00    -0.289 OA
ATOM      5  C   UNL     1      59.021 -23.330   9.728  1.00  0.00     0.107 A 
ATOM      6  C   UNL     1      59.106 -23.763  11.085  1.00  0.00     0.134 A 
ATOM      7  C   UNL     1      59.123 -22.813  12.113  1.00  0.00     0.093 A 
ATOM      8  C   UNL     1      58.999 -21.448  11.836  1.00  0.00     0.123 A 
ATOM      9  C   UNL     1      58.863 -21.020  10.519  1.00  0.00     0.094 A 
ATOM     10  C   UNL     1      58.875 -21.941   9.469  1.00  0.00     0.146 A 
ATOM     11  O   UNL     1      58.757 -21.488   8.224  1.00  0.00    -0.456 OA
ENDROOT
BRANCH   1  12
ATOM     12  C   UNL     1      58.627 -21.660   5.811  1.00  0.00     0.021 A 
ATOM     13  C   UNL     1      57.716 -20.611   5.577  1.00  0.00     0.016 A 
ATOM     14  C   UNL     1      57.601 -20.044   4.306  1.00  0.00     0.051 A 
ATOM     15  C   UNL     1      58.395 -20.505   3.250  1.00  0.00     0.157 A 
ATOM     16  C   UNL     1      59.430 -22.108   4.748  1.00  0.00     0.062 A 
ATOM     17  C   UNL     1      59.315 -21.541   3.473  1.00  0.00     0.158 A 
BRANCH  15  18
ATOM     18  O   UNL     1      58.275 -19.937   1.983  1.00  0.00    -0.504 OA
ATOM     19  H   UNL     1      57.385 -19.899   1.500  1.00  0.00     0.293 HD
ENDBRANCH  15  18
BRANCH  17  20
ATOM     20  O   UNL     1      60.125 -22.021   2.443  1.00  0.00    -0.504 OA
ATOM     21  H   UNL     1      61.128 -22.113   2.548  1.00  0.00     0.293 HD
ENDBRANCH  17  20
ENDBRANCH   1  12
BRANCH   6  22
ATOM     22  O   UNL     1      59.147 -25.105  11.475  1.00  0.00    -0.507 OA
ATOM     23  H   UNL     1      59.989 -25.625  11.665  1.00  0.00     0.293 HD
ENDBRANCH   6  22
BRANCH   8  24
ATOM     24  O   UNL     1      59.002 -20.512  12.867  1.00  0.00    -0.508 OA
ATOM     25  H   UNL     1      58.360 -19.727  12.873  1.00  0.00     0.293 HD
ENDBRANCH   8  24
TORSDOF 5
ENDMDL
MODEL 9
REMARK VINA RESULT:    -6.173      1.047      1.525
REMARK INTER + INTRA:          -7.543
REMARK INTER:                  -7.229
REMARK INTRA:                  -0.314
REMARK UNBOUND:                -0.288
REMARK SMILES O=c1cc(-c2ccc(O)c(O)c2)oc2cc(O)cc(O)c12
REMARK SMILES IDX 4 1 3 2 2 3 1 4 21 5 19 6 18 7 16 8 15 9 14 10 13 11 5 12
REMARK SMILES IDX 6 13 7 14 8 15 12 16 10 17 9 18 11 20 20 22 17 24
REMARK H PARENT 9 19 11 21 20 23 17 25
REMARK Flexibility Score: inf
ROOT
ATOM      1  C   UNL     1      42.485  -9.366  11.647  1.00  0.00     0.138 A 
ATOM      2  C   UNL     1      41.888 -10.626  11.788  1.00  0.00     0.100 A 
ATOM      3  C   UNL     1      41.868 -11.245  13.040  1.00  0.00     0.197 A 
ATOM      4  O   UNL     1      41.380 -12.401  13.122  1.00  0.00    -0.289 OA
ATOM      5  C   UNL     1      42.420 -10.581  14.161  1.00  0.00     0.107 A 
ATOM      6  C   UNL     1      42.419 -11.097  15.492  1.00  0.00     0.134 A 
ATOM      7  C   UNL     1      43.099 -10.403  16.500  1.00  0.00     0.093 A 
ATOM      8  C   UNL     1      43.728  -9.183  16.239  1.00  0.00     0.123 A 
ATOM      9  C   UNL     1      43.689  -8.646  14.955  1.00  0.00     0.094 A 
ATOM     10  C   UNL     1      43.047  -9.330  13.920  1.00  0.00     0.146 A 
ATOM     11  O   UNL     1      43.046  -8.789  12.705  1.00  0.00    -0.456 OA
ENDROOT
BRANCH   1  12
ATOM     12  C   UNL     1      42.534  -8.664  10.341  1.00  0.00     0.021 A 
ATOM     13  C   UNL     1      41.674  -9.011   9.281  1.00  0.00     0.016 A 
ATOM     14  C   UNL     1      41.735  -8.326   8.065  1.00  0.00     0.051 A 
ATOM     15  C   UNL     1      42.648  -7.279   7.888  1.00  0.00     0.157 A 
ATOM     16  C   UNL     1      43.439  -7.603  10.158  1.00  0.00     0.062 A 
ATOM     17  C   UNL     1      43.503  -6.916   8.940  1.00  0.00     0.158 A 
BRANCH  15  18
ATOM     18  O   UNL     1      42.707  -6.599   6.672  1.00  0.00    -0.504 OA
ATOM     19  H   UNL     1      43.534  -6.628   6.087  1.00  0.00     0.293 HD
ENDBRANCH  15  18
BRANCH  17  20
ATOM     20  O   UNL     1      44.421  -5.875   8.797  1.00  0.00    -0.504 OA
ATOM     21  H   UNL     1      44.656  -5.487   7.892  1.00  0.00     0.293 HD
ENDBRANCH  17  20
ENDBRANCH   1  12
BRANCH   6  22
ATOM     22  O   UNL     1      41.750 -12.261  15.878  1.00  0.00    -0.507 OA
ATOM     23  H   UNL     1      41.130 -12.793  15.287  1.00  0.00     0.293 HD
ENDBRANCH   6  22
BRANCH   8  24
ATOM     24  O   UNL     1      44.389  -8.493  17.252  1.00  0.00    -0.508 OA
ATOM     25  H   UNL     1      43.882  -7.948  17.941  1.00  0.00     0.293 HD
ENDBRANCH   8  24
TORSDOF 5
ENDMDL
