MODEL 1
REMARK VINA RESULT:    -3.367      0.000      0.000
REMARK INTER + INTRA:          -4.470
REMARK INTER:                  -4.055
REMARK INTRA:                  -0.414
REMARK UNBOUND:                -0.414
REMARK SMILES NC(=O)C[C@@H]([NH3+])C(=O)[O-]
REMARK SMILES IDX 4 1 5 2 6 3 7 7 8 8 9 9 2 10 3 11 1 12
REMARK H PARENT 6 4 6 5 6 6 1 13 1 14
REMARK Flexibility Score: inf
ROOT
ATOM      1  C   UNL     1      45.713  18.967  77.079  1.00  0.00     0.171 C 
ENDROOT
BRANCH   1   2
ATOM      2  C   UNL     1      46.891  19.450  77.948  1.00  0.00     0.237 C 
BRANCH   2   3
ATOM      3  N   UNL     1      47.627  18.320  78.531  1.00  0.00    -0.350 N 
ATOM      4  H   UNL     1      47.551  18.348  79.574  1.00  0.00     0.345 HD
ATOM      5  H   UNL     1      48.636  18.355  78.260  1.00  0.00     0.345 HD
ATOM      6  H   UNL     1      47.214  17.417  78.204  1.00  0.00     0.345 HD
ENDBRANCH   2   3
BRANCH   2   7
ATOM      7  C   UNL     1      47.819  20.297  77.118  1.00  0.00     0.100 C 
ATOM      8  O   UNL     1      47.407  20.831  76.055  1.00  0.00    -0.544 OA
ATOM      9  O   UNL     1      49.140  20.478  77.508  1.00  0.00    -0.544 OA
ENDBRANCH   2   7
ENDBRANCH   1   2
BRANCH   1  10
ATOM     10  C   UNL     1      46.104  17.812  76.205  1.00  0.00     0.223 C 
ATOM     11  O   UNL     1      46.107  16.642  76.675  1.00  0.00    -0.275 OA
ATOM     12  N   UNL     1      46.445  18.026  74.836  1.00  0.00    -0.369 N 
ATOM     13  H   UNL     1      46.437  18.988  74.430  1.00  0.00     0.159 HD
ATOM     14  H   UNL     1      46.706  17.220  74.226  1.00  0.00     0.159 HD
ENDBRANCH   1  10
TORSDOF 4
ENDMDL
MODEL 2
REMARK VINA RESULT:    -3.299      1.934      2.908
REMARK INTER + INTRA:          -4.388
REMARK INTER:                  -4.202
REMARK INTRA:                  -0.186
REMARK UNBOUND:                -0.414
REMARK SMILES NC(=O)C[C@@H]([NH3+])C(=O)[O-]
REMARK SMILES IDX 4 1 5 2 6 3 7 7 8 8 9 9 2 10 3 11 1 12
REMARK H PARENT 6 4 6 5 6 6 1 13 1 14
REMARK Flexibility Score: inf
ROOT
ATOM      1  C   UNL     1      45.832  17.916  76.538  1.00  0.00     0.171 C 
ENDROOT
BRANCH   1   2
ATOM      2  C   UNL     1      46.540  18.927  75.614  1.00  0.00     0.237 C 
BRANCH   2   3
ATOM      3  N   UNL     1      46.512  18.485  74.214  1.00  0.00    -0.350 N 
ATOM      4  H   UNL     1      45.522  18.441  73.876  1.00  0.00     0.345 HD
ATOM      5  H   UNL     1      46.950  17.540  74.113  1.00  0.00     0.345 HD
ATOM      6  H   UNL     1      47.025  19.168  73.611  1.00  0.00     0.345 HD
ENDBRANCH   2   3
BRANCH   2   7
ATOM      7  C   UNL     1      45.885  20.276  75.743  1.00  0.00     0.100 C 
ATOM      8  O   UNL     1      46.294  21.099  76.604  1.00  0.00    -0.544 OA
ATOM      9  O   UNL     1      44.814  20.616  74.926  1.00  0.00    -0.544 OA
ENDBRANCH   2   7
ENDBRANCH   1   2
BRANCH   1  10
ATOM     10  C   UNL     1      46.427  16.544  76.419  1.00  0.00     0.223 C 
ATOM     11  O   UNL     1      46.398  15.941  75.313  1.00  0.00    -0.275 OA
ATOM     12  N   UNL     1      47.052  15.928  77.545  1.00  0.00    -0.369 N 
ATOM     13  H   UNL     1      47.094  16.419  78.465  1.00  0.00     0.159 HD
ATOM     14  H   UNL     1      47.477  14.978  77.457  1.00  0.00     0.159 HD
ENDBRANCH   1  10
TORSDOF 4
ENDMDL
MODEL 3
REMARK VINA RESULT:    -3.266      1.177      3.696
REMARK INTER + INTRA:          -4.348
REMARK INTER:                  -3.870
REMARK INTRA:                  -0.478
REMARK UNBOUND:                -0.414
REMARK SMILES NC(=O)C[C@@H]([NH3+])C(=O)[O-]
REMARK SMILES IDX 4 1 5 2 6 3 7 7 8 8 9 9 2 10 3 11 1 12
REMARK H PARENT 6 4 6 5 6 6 1 13 1 14
REMARK Flexibility Score: inf
ROOT
ATOM      1  C   UNL     1      45.818  18.881  77.429  1.00  0.00     0.171 C 
ENDROOT
BRANCH   1   2
ATOM      2  C   UNL     1      46.019  18.483  75.953  1.00  0.00     0.237 C 
BRANCH   2   3
ATOM      3  N   UNL     1      47.124  19.233  75.340  1.00  0.00    -0.350 N 
ATOM      4  H   UNL     1      47.029  19.216  74.298  1.00  0.00     0.345 HD
ATOM      5  H   UNL     1      48.047  18.820  75.608  1.00  0.00     0.345 HD
ATOM      6  H   UNL     1      47.092  20.232  75.647  1.00  0.00     0.345 HD
ENDBRANCH   2   3
BRANCH   2   7
ATOM      7  C   UNL     1      46.286  17.004  75.859  1.00  0.00     0.100 C 
ATOM      8  O   UNL     1      46.358  16.444  74.733  1.00  0.00    -0.544 OA
ATOM      9  O   UNL     1      46.434  16.245  77.013  1.00  0.00    -0.544 OA
ENDBRANCH   2   7
ENDBRANCH   1   2
BRANCH   1  10
ATOM     10  C   UNL     1      47.099  19.345  78.058  1.00  0.00     0.223 C 
ATOM     11  O   UNL     1      47.451  20.551  77.947  1.00  0.00    -0.275 OA
ATOM     12  N   UNL     1      47.907  18.437  78.805  1.00  0.00    -0.369 N 
ATOM     13  H   UNL     1      47.623  17.439  78.915  1.00  0.00     0.159 HD
ATOM     14  H   UNL     1      48.792  18.765  79.253  1.00  0.00     0.159 HD
ENDBRANCH   1  10
TORSDOF 4
ENDMDL
MODEL 4
REMARK VINA RESULT:    -3.226      2.228      2.666
REMARK INTER + INTRA:          -4.301
REMARK INTER:                  -4.069
REMARK INTRA:                  -0.232
REMARK UNBOUND:                -0.414
REMARK SMILES NC(=O)C[C@@H]([NH3+])C(=O)[O-]
REMARK SMILES IDX 4 1 5 2 6 3 7 7 8 8 9 9 2 10 3 11 1 12
REMARK H PARENT 6 4 6 5 6 6 1 13 1 14
REMARK Flexibility Score: inf
ROOT
ATOM      1  C   UNL     1      46.373  18.622  75.264  1.00  0.00     0.171 C 
ENDROOT
BRANCH   1   2
ATOM      2  C   UNL     1      46.985  20.013  75.527  1.00  0.00     0.237 C 
BRANCH   2   3
ATOM      3  N   UNL     1      47.871  19.996  76.699  1.00  0.00    -0.350 N 
ATOM      4  H   UNL     1      47.860  19.047  77.139  1.00  0.00     0.345 HD
ATOM      5  H   UNL     1      47.566  20.704  77.405  1.00  0.00     0.345 HD
ATOM      6  H   UNL     1      48.854  20.202  76.408  1.00  0.00     0.345 HD
ENDBRANCH   2   3
BRANCH   2   7
ATOM      7  C   UNL     1      47.746  20.469  74.311  1.00  0.00     0.100 C 
ATOM      8  O   UNL     1      48.844  21.073  74.441  1.00  0.00    -0.544 OA
ATOM      9  O   UNL     1      47.234  20.245  73.040  1.00  0.00    -0.544 OA
ENDBRANCH   2   7
ENDBRANCH   1   2
BRANCH   1  10
ATOM     10  C   UNL     1      45.852  17.997  76.525  1.00  0.00     0.223 C 
ATOM     11  O   UNL     1      45.499  18.729  77.489  1.00  0.00    -0.275 OA
ATOM     12  N   UNL     1      45.726  16.580  76.630  1.00  0.00    -0.369 N 
ATOM     13  H   UNL     1      46.004  15.961  75.837  1.00  0.00     0.159 HD
ATOM     14  H   UNL     1      45.352  16.147  77.504  1.00  0.00     0.159 HD
ENDBRANCH   1  10
TORSDOF 4
ENDMDL
MODEL 5
REMARK VINA RESULT:    -3.151      1.709      3.484
REMARK INTER + INTRA:          -4.210
REMARK INTER:                  -4.089
REMARK INTRA:                  -0.121
REMARK UNBOUND:                -0.414
REMARK SMILES NC(=O)C[C@@H]([NH3+])C(=O)[O-]
REMARK SMILES IDX 4 1 5 2 6 3 7 7 8 8 9 9 2 10 3 11 1 12
REMARK H PARENT 6 4 6 5 6 6 1 13 1 14
REMARK Flexibility Score: inf
ROOT
ATOM      1  C   UNL     1      45.996  18.924  77.414  1.00  0.00     0.171 C 
ENDROOT
BRANCH   1   2
ATOM      2  C   UNL     1      46.375  17.889  76.336  1.00  0.00     0.237 C 
BRANCH   2   3
ATOM      3  N   UNL     1      45.609  16.645  76.495  1.00  0.00    -0.350 N 
ATOM      4  H   UNL     1      46.196  15.828  76.206  1.00  0.00     0.345 HD
ATOM      5  H   UNL     1      44.741  16.667  75.912  1.00  0.00     0.345 HD
ATOM      6  H   UNL     1      45.347  16.511  77.498  1.00  0.00     0.345 HD
ENDBRANCH   2   3
BRANCH   2   7
ATOM      7  C   UNL     1      46.136  18.471  74.969  1.00  0.00     0.100 C 
ATOM      8  O   UNL     1      45.691  19.643  74.848  1.00  0.00    -0.544 OA
ATOM      9  O   UNL     1      46.387  17.713  73.832  1.00  0.00    -0.544 OA
ENDBRANCH   2   7
ENDBRANCH   1   2
BRANCH   1  10
ATOM     10  C   UNL     1      47.208  19.601  77.984  1.00  0.00     0.223 C 
ATOM     11  O   UNL     1      47.431  20.814  77.723  1.00  0.00    -0.275 OA
ATOM     12  N   UNL     1      48.096  18.887  78.844  1.00  0.00    -0.369 N 
ATOM     13  H   UNL     1      47.919  17.885  79.078  1.00  0.00     0.159 HD
ATOM     14  H   UNL     1      48.933  19.363  79.249  1.00  0.00     0.159 HD
ENDBRANCH   1  10
TORSDOF 4
ENDMDL
MODEL 6
REMARK VINA RESULT:    -3.095     18.823     19.730
REMARK INTER + INTRA:          -4.142
REMARK INTER:                  -3.651
REMARK INTRA:                  -0.492
REMARK UNBOUND:                -0.414
REMARK SMILES NC(=O)C[C@@H]([NH3+])C(=O)[O-]
REMARK SMILES IDX 4 1 5 2 6 3 7 7 8 8 9 9 2 10 3 11 1 12
REMARK H PARENT 6 4 6 5 6 6 1 13 1 14
REMARK Flexibility Score: inf
ROOT
ATOM      1  C   UNL     1      52.690  33.773  87.653  1.00  0.00     0.171 C 
ENDROOT
BRANCH   1   2
ATOM      2  C   UNL     1      51.629  34.737  87.086  1.00  0.00     0.237 C 
BRANCH   2   3
ATOM      3  N   UNL     1      51.891  36.124  87.493  1.00  0.00    -0.350 N 
ATOM      4  H   UNL     1      52.694  36.150  88.164  1.00  0.00     0.345 HD
ATOM      5  H   UNL     1      51.049  36.542  87.950  1.00  0.00     0.345 HD
ATOM      6  H   UNL     1      52.152  36.699  86.660  1.00  0.00     0.345 HD
ENDBRANCH   2   3
BRANCH   2   7
ATOM      7  C   UNL     1      51.603  34.636  85.584  1.00  0.00     0.100 C 
ATOM      8  O   UNL     1      50.506  34.532  84.975  1.00  0.00    -0.544 OA
ATOM      9  O   UNL     1      52.790  34.637  84.862  1.00  0.00    -0.544 OA
ENDBRANCH   2   7
ENDBRANCH   1   2
BRANCH   1  10
ATOM     10  C   UNL     1      53.960  34.491  88.006  1.00  0.00     0.223 C 
ATOM     11  O   UNL     1      54.131  34.923  89.178  1.00  0.00    -0.275 OA
ATOM     12  N   UNL     1      54.988  34.661  87.031  1.00  0.00    -0.369 N 
ATOM     13  H   UNL     1      54.865  34.299  86.059  1.00  0.00     0.159 HD
ATOM     14  H   UNL     1      55.876  35.151  87.282  1.00  0.00     0.159 HD
ENDBRANCH   1  10
TORSDOF 4
ENDMDL
MODEL 7
REMARK VINA RESULT:    -2.956     18.636     19.773
REMARK INTER + INTRA:          -3.975
REMARK INTER:                  -3.628
REMARK INTRA:                  -0.347
REMARK UNBOUND:                -0.414
REMARK SMILES NC(=O)C[C@@H]([NH3+])C(=O)[O-]
REMARK SMILES IDX 4 1 5 2 6 3 7 7 8 8 9 9 2 10 3 11 1 12
REMARK H PARENT 6 4 6 5 6 6 1 13 1 14
REMARK Flexibility Score: inf
ROOT
ATOM      1  C   UNL     1      52.803  34.957  85.939  1.00  0.00     0.171 C 
ENDROOT
BRANCH   1   2
ATOM      2  C   UNL     1      51.562  34.194  86.444  1.00  0.00     0.237 C 
BRANCH   2   3
ATOM      3  N   UNL     1      51.728  33.764  87.839  1.00  0.00    -0.350 N 
ATOM      4  H   UNL     1      52.731  33.856  88.121  1.00  0.00     0.345 HD
ATOM      5  H   UNL     1      51.428  32.769  87.959  1.00  0.00     0.345 HD
ATOM      6  H   UNL     1      51.160  34.372  88.472  1.00  0.00     0.345 HD
ENDBRANCH   2   3
BRANCH   2   7
ATOM      7  C   UNL     1      50.343  35.068  86.315  1.00  0.00     0.100 C 
ATOM      8  O   UNL     1      49.506  34.855  85.399  1.00  0.00    -0.544 OA
ATOM      9  O   UNL     1      50.142  36.125  87.194  1.00  0.00    -0.544 OA
ENDBRANCH   2   7
ENDBRANCH   1   2
BRANCH   1  10
ATOM     10  C   UNL     1      53.739  35.299  87.061  1.00  0.00     0.223 C 
ATOM     11  O   UNL     1      53.383  36.124  87.945  1.00  0.00    -0.275 OA
ATOM     12  N   UNL     1      55.019  34.674  87.149  1.00  0.00    -0.369 N 
ATOM     13  H   UNL     1      55.323  33.981  86.431  1.00  0.00     0.159 HD
ATOM     14  H   UNL     1      55.664  34.905  87.937  1.00  0.00     0.159 HD
ENDBRANCH   1  10
TORSDOF 4
ENDMDL
