MODEL 1
REMARK VINA RESULT:    -4.310      0.000      0.000
REMARK INTER + INTRA:          -8.270
REMARK INTER:                  -7.333
REMARK INTRA:                  -0.937
REMARK UNBOUND:                -0.937
REMARK SMILES CCCCCCCCCCCCCC(=O)[O-]
REMARK SMILES IDX 8 1 9 2 10 3 11 4 12 5 13 6 14 7 15 8 16 9 7 10 6 11 5 12
REMARK SMILES IDX 4 13 3 14 2 15 1 16
REMARK H PARENT
REMARK Flexibility Score: inf
ROOT
ATOM      1  C   UNL     1      23.223  -4.875  53.960  1.00  0.00     0.000 C 
ENDROOT
BRANCH   1   2
ATOM      2  C   UNL     1      24.159  -5.342  52.832  1.00  0.00     0.000 C 
BRANCH   2   3
ATOM      3  C   UNL     1      25.278  -6.270  53.333  1.00  0.00     0.000 C 
BRANCH   3   4
ATOM      4  C   UNL     1      26.449  -5.499  53.964  1.00  0.00     0.000 C 
BRANCH   4   5
ATOM      5  C   UNL     1      27.772  -6.282  53.906  1.00  0.00     0.006 C 
BRANCH   5   6
ATOM      6  C   UNL     1      28.550  -6.009  52.612  1.00  0.00     0.053 C 
BRANCH   6   7
ATOM      7  C   UNL     1      29.646  -7.008  52.400  1.00  0.00     0.041 C 
ATOM      8  O   UNL     1      30.451  -7.274  53.332  1.00  0.00    -0.550 OA
ATOM      9  O   UNL     1      29.760  -7.666  51.183  1.00  0.00    -0.550 OA
ENDBRANCH   6   7
ENDBRANCH   5   6
ENDBRANCH   4   5
ENDBRANCH   3   4
ENDBRANCH   2   3
ENDBRANCH   1   2
BRANCH   1  10
ATOM     10  C   UNL     1      22.270  -3.737  53.539  1.00  0.00     0.000 C 
BRANCH  10  11
ATOM     11  C   UNL     1      22.943  -2.355  53.619  1.00  0.00    -0.000 C 
BRANCH  11  12
ATOM     12  C   UNL     1      22.233  -1.404  54.595  1.00  0.00    -0.000 C 
BRANCH  12  13
ATOM     13  C   UNL     1      22.816  -1.467  56.015  1.00  0.00    -0.000 C 
BRANCH  13  14
ATOM     14  C   UNL     1      24.173  -2.186  56.019  1.00  0.00    -0.000 C 
BRANCH  14  15
ATOM     15  C   UNL     1      24.288  -3.225  57.144  1.00  0.00    -0.003 C 
ATOM     16  C   UNL     1      22.927  -3.672  57.679  1.00  0.00     0.004 C 
ENDBRANCH  14  15
ENDBRANCH  13  14
ENDBRANCH  12  13
ENDBRANCH  11  12
ENDBRANCH  10  11
ENDBRANCH   1  10
TORSDOF 12
ENDMDL
MODEL 2
REMARK VINA RESULT:    -3.967     15.376     17.144
REMARK INTER + INTRA:          -7.687
REMARK INTER:                  -6.066
REMARK INTRA:                  -1.621
REMARK UNBOUND:                -0.937
REMARK SMILES CCCCCCCCCCCCCC(=O)[O-]
REMARK SMILES IDX 8 1 9 2 10 3 11 4 12 5 13 6 14 7 15 8 16 9 7 10 6 11 5 12
REMARK SMILES IDX 4 13 3 14 2 15 1 16
REMARK H PARENT
REMARK Flexibility Score: inf
ROOT
ATOM      1  C   UNL     1      23.335   5.232  42.137  1.00  0.00     0.000 C 
ENDROOT
BRANCH   1   2
ATOM      2  C   UNL     1      23.214   3.921  42.933  1.00  0.00     0.000 C 
BRANCH   2   3
ATOM      3  C   UNL     1      22.011   3.068  42.494  1.00  0.00     0.000 C 
BRANCH   3   4
ATOM      4  C   UNL     1      21.407   3.538  41.162  1.00  0.00     0.000 C 
BRANCH   4   5
ATOM      5  C   UNL     1      19.874   3.403  41.129  1.00  0.00     0.006 C 
BRANCH   5   6
ATOM      6  C   UNL     1      19.232   3.766  42.475  1.00  0.00     0.053 C 
BRANCH   6   7
ATOM      7  C   UNL     1      17.886   4.400  42.297  1.00  0.00     0.041 C 
ATOM      8  O   UNL     1      17.606   5.474  42.893  1.00  0.00    -0.550 OA
ATOM      9  O   UNL     1      16.952   3.820  41.449  1.00  0.00    -0.550 OA
ENDBRANCH   6   7
ENDBRANCH   5   6
ENDBRANCH   4   5
ENDBRANCH   3   4
ENDBRANCH   2   3
ENDBRANCH   1   2
BRANCH   1  10
ATOM     10  C   UNL     1      24.677   5.377  41.388  1.00  0.00     0.000 C 
BRANCH  10  11
ATOM     11  C   UNL     1      25.519   4.090  41.451  1.00  0.00    -0.000 C 
BRANCH  11  12
ATOM     12  C   UNL     1      25.947   3.593  40.061  1.00  0.00    -0.000 C 
BRANCH  12  13
ATOM     13  C   UNL     1      24.820   2.855  39.322  1.00  0.00    -0.000 C 
BRANCH  13  14
ATOM     14  C   UNL     1      24.370   1.614  40.106  1.00  0.00    -0.000 C 
BRANCH  14  15
ATOM     15  C   UNL     1      23.354   0.763  39.332  1.00  0.00    -0.003 C 
ATOM     16  C   UNL     1      22.528   1.582  38.339  1.00  0.00     0.004 C 
ENDBRANCH  14  15
ENDBRANCH  13  14
ENDBRANCH  12  13
ENDBRANCH  11  12
ENDBRANCH  10  11
ENDBRANCH   1  10
TORSDOF 12
ENDMDL
MODEL 3
REMARK VINA RESULT:    -3.943     14.459     15.781
REMARK INTER + INTRA:          -7.647
REMARK INTER:                  -5.674
REMARK INTRA:                  -1.973
REMARK UNBOUND:                -0.937
REMARK SMILES CCCCCCCCCCCCCC(=O)[O-]
REMARK SMILES IDX 8 1 9 2 10 3 11 4 12 5 13 6 14 7 15 8 16 9 7 10 6 11 5 12
REMARK SMILES IDX 4 13 3 14 2 15 1 16
REMARK H PARENT
REMARK Flexibility Score: inf
ROOT
ATOM      1  C   UNL     1      29.438   6.921  44.156  1.00  0.00     0.000 C 
ENDROOT
BRANCH   1   2
ATOM      2  C   UNL     1      29.773   8.271  44.813  1.00  0.00     0.000 C 
BRANCH   2   3
ATOM      3  C   UNL     1      30.065   8.144  46.318  1.00  0.00     0.000 C 
BRANCH   3   4
ATOM      4  C   UNL     1      30.053   6.686  46.802  1.00  0.00     0.000 C 
BRANCH   4   5
ATOM      5  C   UNL     1      31.237   6.361  47.730  1.00  0.00     0.006 C 
BRANCH   5   6
ATOM      6  C   UNL     1      31.547   4.859  47.769  1.00  0.00     0.053 C 
BRANCH   6   7
ATOM      7  C   UNL     1      31.772   4.373  49.168  1.00  0.00     0.041 C 
ATOM      8  O   UNL     1      31.613   5.153  50.144  1.00  0.00    -0.550 OA
ATOM      9  O   UNL     1      32.129   3.050  49.395  1.00  0.00    -0.550 OA
ENDBRANCH   6   7
ENDBRANCH   5   6
ENDBRANCH   4   5
ENDBRANCH   3   4
ENDBRANCH   2   3
ENDBRANCH   1   2
BRANCH   1  10
ATOM     10  C   UNL     1      29.732   6.882  42.642  1.00  0.00     0.000 C 
BRANCH  10  11
ATOM     11  C   UNL     1      30.537   5.634  42.237  1.00  0.00    -0.000 C 
BRANCH  11  12
ATOM     12  C   UNL     1      31.452   5.128  43.363  1.00  0.00    -0.000 C 
BRANCH  12  13
ATOM     13  C   UNL     1      32.837   5.791  43.345  1.00  0.00    -0.000 C 
BRANCH  13  14
ATOM     14  C   UNL     1      33.222   6.297  44.743  1.00  0.00    -0.000 C 
BRANCH  14  15
ATOM     15  C   UNL     1      33.507   7.805  44.769  1.00  0.00    -0.003 C 
ATOM     16  C   UNL     1      33.873   8.315  46.163  1.00  0.00     0.004 C 
ENDBRANCH  14  15
ENDBRANCH  13  14
ENDBRANCH  12  13
ENDBRANCH  11  12
ENDBRANCH  10  11
ENDBRANCH   1  10
TORSDOF 12
ENDMDL
MODEL 4
REMARK VINA RESULT:    -3.906      4.381      7.284
REMARK INTER + INTRA:          -7.584
REMARK INTER:                  -6.660
REMARK INTRA:                  -0.924
REMARK UNBOUND:                -0.937
REMARK SMILES CCCCCCCCCCCCCC(=O)[O-]
REMARK SMILES IDX 8 1 9 2 10 3 11 4 12 5 13 6 14 7 15 8 16 9 7 10 6 11 5 12
REMARK SMILES IDX 4 13 3 14 2 15 1 16
REMARK H PARENT
REMARK Flexibility Score: inf
ROOT
ATOM      1  C   UNL     1      23.308  -3.536  51.884  1.00  0.00     0.000 C 
ENDROOT
BRANCH   1   2
ATOM      2  C   UNL     1      23.289  -2.602  53.106  1.00  0.00     0.000 C 
BRANCH   2   3
ATOM      3  C   UNL     1      22.954  -3.340  54.413  1.00  0.00     0.000 C 
BRANCH   3   4
ATOM      4  C   UNL     1      24.068  -3.214  55.465  1.00  0.00     0.000 C 
BRANCH   4   5
ATOM      5  C   UNL     1      23.541  -2.734  56.829  1.00  0.00     0.006 C 
BRANCH   5   6
ATOM      6  C   UNL     1      22.010  -2.810  56.917  1.00  0.00     0.053 C 
BRANCH   6   7
ATOM      7  C   UNL     1      21.406  -1.483  57.260  1.00  0.00     0.041 C 
ATOM      8  O   UNL     1      20.286  -1.425  57.834  1.00  0.00    -0.550 OA
ATOM      9  O   UNL     1      22.094  -0.311  56.973  1.00  0.00    -0.550 OA
ENDBRANCH   6   7
ENDBRANCH   5   6
ENDBRANCH   4   5
ENDBRANCH   3   4
ENDBRANCH   2   3
ENDBRANCH   1   2
BRANCH   1  10
ATOM     10  C   UNL     1      23.478  -5.026  52.249  1.00  0.00     0.000 C 
BRANCH  10  11
ATOM     11  C   UNL     1      24.959  -5.444  52.313  1.00  0.00    -0.000 C 
BRANCH  11  12
ATOM     12  C   UNL     1      25.329  -6.115  53.644  1.00  0.00    -0.000 C 
BRANCH  12  13
ATOM     13  C   UNL     1      26.789  -5.866  54.049  1.00  0.00    -0.000 C 
BRANCH  13  14
ATOM     14  C   UNL     1      27.720  -5.959  52.832  1.00  0.00    -0.000 C 
BRANCH  14  15
ATOM     15  C   UNL     1      29.155  -6.351  53.214  1.00  0.00    -0.003 C 
ATOM     16  C   UNL     1      29.941  -6.937  52.040  1.00  0.00     0.004 C 
ENDBRANCH  14  15
ENDBRANCH  13  14
ENDBRANCH  12  13
ENDBRANCH  11  12
ENDBRANCH  10  11
ENDBRANCH   1  10
TORSDOF 12
ENDMDL
MODEL 5
REMARK VINA RESULT:    -3.885     15.872     16.880
REMARK INTER + INTRA:          -7.547
REMARK INTER:                  -7.055
REMARK INTRA:                  -0.492
REMARK UNBOUND:                -0.937
REMARK SMILES CCCCCCCCCCCCCC(=O)[O-]
REMARK SMILES IDX 8 1 9 2 10 3 11 4 12 5 13 6 14 7 15 8 16 9 7 10 6 11 5 12
REMARK SMILES IDX 4 13 3 14 2 15 1 16
REMARK H PARENT
REMARK Flexibility Score: inf
ROOT
ATOM      1  C   UNL     1      32.909   7.630  43.921  1.00  0.00     0.000 C 
ENDROOT
BRANCH   1   2
ATOM      2  C   UNL     1      33.498   6.878  42.715  1.00  0.00     0.000 C 
BRANCH   2   3
ATOM      3  C   UNL     1      32.490   5.918  42.062  1.00  0.00     0.000 C 
BRANCH   3   4
ATOM      4  C   UNL     1      33.048   5.240  40.801  1.00  0.00     0.000 C 
BRANCH   4   5
ATOM      5  C   UNL     1      34.570   5.418  40.660  1.00  0.00     0.006 C 
BRANCH   5   6
ATOM      6  C   UNL     1      35.272   4.111  40.266  1.00  0.00     0.053 C 
BRANCH   6   7
ATOM      7  C   UNL     1      36.319   4.335  39.219  1.00  0.00     0.041 C 
ATOM      8  O   UNL     1      36.979   5.408  39.200  1.00  0.00    -0.550 OA
ATOM      9  O   UNL     1      36.586   3.346  38.281  1.00  0.00    -0.550 OA
ENDBRANCH   6   7
ENDBRANCH   5   6
ENDBRANCH   4   5
ENDBRANCH   3   4
ENDBRANCH   2   3
ENDBRANCH   1   2
BRANCH   1  10
ATOM     10  C   UNL     1      32.845   6.779  45.207  1.00  0.00     0.000 C 
BRANCH  10  11
ATOM     11  C   UNL     1      32.327   7.585  46.412  1.00  0.00    -0.000 C 
BRANCH  11  12
ATOM     12  C   UNL     1      30.902   7.185  46.824  1.00  0.00    -0.000 C 
BRANCH  12  13
ATOM     13  C   UNL     1      30.836   5.785  47.452  1.00  0.00    -0.000 C 
BRANCH  13  14
ATOM     14  C   UNL     1      31.679   5.717  48.733  1.00  0.00    -0.000 C 
BRANCH  14  15
ATOM     15  C   UNL     1      31.205   4.619  49.696  1.00  0.00    -0.003 C 
ATOM     16  C   UNL     1      32.361   3.822  50.301  1.00  0.00     0.004 C 
ENDBRANCH  14  15
ENDBRANCH  13  14
ENDBRANCH  12  13
ENDBRANCH  11  12
ENDBRANCH  10  11
ENDBRANCH   1  10
TORSDOF 12
ENDMDL
MODEL 6
REMARK VINA RESULT:    -3.882     14.903     15.961
REMARK INTER + INTRA:          -7.542
REMARK INTER:                  -6.414
REMARK INTRA:                  -1.128
REMARK UNBOUND:                -0.937
REMARK SMILES CCCCCCCCCCCCCC(=O)[O-]
REMARK SMILES IDX 8 1 9 2 10 3 11 4 12 5 13 6 14 7 15 8 16 9 7 10 6 11 5 12
REMARK SMILES IDX 4 13 3 14 2 15 1 16
REMARK H PARENT
REMARK Flexibility Score: inf
ROOT
ATOM      1  C   UNL     1      33.220   8.605  46.147  1.00  0.00     0.000 C 
ENDROOT
BRANCH   1   2
ATOM      2  C   UNL     1      34.380   8.278  45.191  1.00  0.00     0.000 C 
BRANCH   2   3
ATOM      3  C   UNL     1      33.963   8.322  43.712  1.00  0.00     0.000 C 
BRANCH   3   4
ATOM      4  C   UNL     1      32.490   8.718  43.524  1.00  0.00     0.000 C 
BRANCH   4   5
ATOM      5  C   UNL     1      31.767   7.833  42.494  1.00  0.00     0.006 C 
BRANCH   5   6
ATOM      6  C   UNL     1      30.885   6.769  43.162  1.00  0.00     0.053 C 
BRANCH   6   7
ATOM      7  C   UNL     1      31.569   5.438  43.224  1.00  0.00     0.041 C 
ATOM      8  O   UNL     1      31.466   4.719  44.253  1.00  0.00    -0.550 OA
ATOM      9  O   UNL     1      32.295   4.979  42.133  1.00  0.00    -0.550 OA
ENDBRANCH   6   7
ENDBRANCH   5   6
ENDBRANCH   4   5
ENDBRANCH   3   4
ENDBRANCH   2   3
ENDBRANCH   1   2
BRANCH   1  10
ATOM     10  C   UNL     1      32.666   7.371  46.890  1.00  0.00     0.000 C 
BRANCH  10  11
ATOM     11  C   UNL     1      31.138   7.245  46.749  1.00  0.00    -0.000 C 
BRANCH  11  12
ATOM     12  C   UNL     1      30.542   6.180  47.681  1.00  0.00    -0.000 C 
BRANCH  12  13
ATOM     13  C   UNL     1      31.550   5.672  48.723  1.00  0.00    -0.000 C 
BRANCH  13  14
ATOM     14  C   UNL     1      31.803   4.167  48.553  1.00  0.00    -0.000 C 
BRANCH  14  15
ATOM     15  C   UNL     1      31.600   3.382  49.857  1.00  0.00    -0.003 C 
ATOM     16  C   UNL     1      32.472   3.900  51.002  1.00  0.00     0.004 C 
ENDBRANCH  14  15
ENDBRANCH  13  14
ENDBRANCH  12  13
ENDBRANCH  11  12
ENDBRANCH  10  11
ENDBRANCH   1  10
TORSDOF 12
ENDMDL
MODEL 7
REMARK VINA RESULT:    -3.879      2.901      4.191
REMARK INTER + INTRA:          -7.538
REMARK INTER:                  -5.906
REMARK INTRA:                  -1.632
REMARK UNBOUND:                -0.937
REMARK SMILES CCCCCCCCCCCCCC(=O)[O-]
REMARK SMILES IDX 8 1 9 2 10 3 11 4 12 5 13 6 14 7 15 8 16 9 7 10 6 11 5 12
REMARK SMILES IDX 4 13 3 14 2 15 1 16
REMARK H PARENT
REMARK Flexibility Score: inf
ROOT
ATOM      1  C   UNL     1      19.434  -3.381  55.462  1.00  0.00     0.000 C 
ENDROOT
BRANCH   1   2
ATOM      2  C   UNL     1      20.620  -4.124  54.824  1.00  0.00     0.000 C 
BRANCH   2   3
ATOM      3  C   UNL     1      21.252  -5.159  55.770  1.00  0.00     0.000 C 
BRANCH   3   4
ATOM      4  C   UNL     1      21.536  -6.500  55.076  1.00  0.00     0.000 C 
BRANCH   4   5
ATOM      5  C   UNL     1      21.950  -6.327  53.604  1.00  0.00     0.006 C 
BRANCH   5   6
ATOM      6  C   UNL     1      23.388  -6.797  53.348  1.00  0.00     0.053 C 
BRANCH   6   7
ATOM      7  C   UNL     1      24.353  -5.652  53.326  1.00  0.00     0.041 C 
ATOM      8  O   UNL     1      23.964  -4.500  52.995  1.00  0.00    -0.550 OA
ATOM      9  O   UNL     1      25.676  -5.851  53.699  1.00  0.00    -0.550 OA
ENDBRANCH   6   7
ENDBRANCH   5   6
ENDBRANCH   4   5
ENDBRANCH   3   4
ENDBRANCH   2   3
ENDBRANCH   1   2
BRANCH   1  10
ATOM     10  C   UNL     1      19.519  -1.846  55.319  1.00  0.00     0.000 C 
BRANCH  10  11
ATOM     11  C   UNL     1      20.831  -1.397  54.651  1.00  0.00    -0.000 C 
BRANCH  11  12
ATOM     12  C   UNL     1      21.689  -0.511  55.567  1.00  0.00    -0.000 C 
BRANCH  12  13
ATOM     13  C   UNL     1      22.682  -1.320  56.415  1.00  0.00    -0.000 C 
BRANCH  13  14
ATOM     14  C   UNL     1      23.693  -2.056  55.523  1.00  0.00    -0.000 C 
BRANCH  14  15
ATOM     15  C   UNL     1      24.409  -3.198  56.260  1.00  0.00    -0.003 C 
ATOM     16  C   UNL     1      24.042  -3.268  57.743  1.00  0.00     0.004 C 
ENDBRANCH  14  15
ENDBRANCH  13  14
ENDBRANCH  12  13
ENDBRANCH  11  12
ENDBRANCH  10  11
ENDBRANCH   1  10
TORSDOF 12
ENDMDL
MODEL 8
REMARK VINA RESULT:    -3.799      3.773      5.218
REMARK INTER + INTRA:          -7.401
REMARK INTER:                  -5.098
REMARK INTRA:                  -2.302
REMARK UNBOUND:                -0.937
REMARK SMILES CCCCCCCCCCCCCC(=O)[O-]
REMARK SMILES IDX 8 1 9 2 10 3 11 4 12 5 13 6 14 7 15 8 16 9 7 10 6 11 5 12
REMARK SMILES IDX 4 13 3 14 2 15 1 16
REMARK H PARENT
REMARK Flexibility Score: inf
ROOT
ATOM      1  C   UNL     1      22.483  -3.434  57.745  1.00  0.00     0.000 C 
ENDROOT
BRANCH   1   2
ATOM      2  C   UNL     1      21.453  -4.507  57.353  1.00  0.00     0.000 C 
BRANCH   2   3
ATOM      3  C   UNL     1      21.748  -5.143  55.984  1.00  0.00     0.000 C 
BRANCH   3   4
ATOM      4  C   UNL     1      20.762  -4.690  54.896  1.00  0.00     0.000 C 
BRANCH   4   5
ATOM      5  C   UNL     1      21.326  -4.872  53.475  1.00  0.00     0.006 C 
BRANCH   5   6
ATOM      6  C   UNL     1      22.042  -3.611  52.971  1.00  0.00     0.053 C 
BRANCH   6   7
ATOM      7  C   UNL     1      23.483  -3.876  52.660  1.00  0.00     0.041 C 
ATOM      8  O   UNL     1      24.059  -3.247  51.733  1.00  0.00    -0.550 OA
ATOM      9  O   UNL     1      24.198  -4.797  53.414  1.00  0.00    -0.550 OA
ENDBRANCH   6   7
ENDBRANCH   5   6
ENDBRANCH   4   5
ENDBRANCH   3   4
ENDBRANCH   2   3
ENDBRANCH   1   2
BRANCH   1  10
ATOM     10  C   UNL     1      23.643  -3.296  56.736  1.00  0.00     0.000 C 
BRANCH  10  11
ATOM     11  C   UNL     1      23.587  -1.964  55.965  1.00  0.00    -0.000 C 
BRANCH  11  12
ATOM     12  C   UNL     1      22.434  -1.060  56.426  1.00  0.00    -0.000 C 
BRANCH  12  13
ATOM     13  C   UNL     1      21.657  -0.445  55.253  1.00  0.00    -0.000 C 
BRANCH  13  14
ATOM     14  C   UNL     1      20.261  -1.073  55.129  1.00  0.00    -0.000 C 
BRANCH  14  15
ATOM     15  C   UNL     1      19.656  -1.442  56.491  1.00  0.00    -0.003 C 
ATOM     16  C   UNL     1      18.355  -2.237  56.366  1.00  0.00     0.004 C 
ENDBRANCH  14  15
ENDBRANCH  13  14
ENDBRANCH  12  13
ENDBRANCH  11  12
ENDBRANCH  10  11
ENDBRANCH   1  10
TORSDOF 12
ENDMDL
MODEL 9
REMARK VINA RESULT:    -3.780      3.346      4.843
REMARK INTER + INTRA:          -7.369
REMARK INTER:                  -5.558
REMARK INTRA:                  -1.810
REMARK UNBOUND:                -0.937
REMARK SMILES CCCCCCCCCCCCCC(=O)[O-]
REMARK SMILES IDX 8 1 9 2 10 3 11 4 12 5 13 6 14 7 15 8 16 9 7 10 6 11 5 12
REMARK SMILES IDX 4 13 3 14 2 15 1 16
REMARK H PARENT
REMARK Flexibility Score: inf
ROOT
ATOM      1  C   UNL     1      21.631  -0.743  55.536  1.00  0.00     0.000 C 
ENDROOT
BRANCH   1   2
ATOM      2  C   UNL     1      22.571  -1.751  54.853  1.00  0.00     0.000 C 
BRANCH   2   3
ATOM      3  C   UNL     1      23.791  -2.108  55.719  1.00  0.00     0.000 C 
BRANCH   3   4
ATOM      4  C   UNL     1      24.188  -3.588  55.600  1.00  0.00     0.000 C 
BRANCH   4   5
ATOM      5  C   UNL     1      23.435  -4.312  54.471  1.00  0.00     0.006 C 
BRANCH   5   6
ATOM      6  C   UNL     1      24.364  -4.705  53.314  1.00  0.00     0.053 C 
BRANCH   6   7
ATOM      7  C   UNL     1      23.817  -5.856  52.527  1.00  0.00     0.041 C 
ATOM      8  O   UNL     1      23.846  -5.835  51.268  1.00  0.00    -0.550 OA
ATOM      9  O   UNL     1      23.303  -6.966  53.185  1.00  0.00    -0.550 OA
ENDBRANCH   6   7
ENDBRANCH   5   6
ENDBRANCH   4   5
ENDBRANCH   3   4
ENDBRANCH   2   3
ENDBRANCH   1   2
BRANCH   1  10
ATOM     10  C   UNL     1      22.140  -0.258  56.910  1.00  0.00     0.000 C 
BRANCH  10  11
ATOM     11  C   UNL     1      21.409  -0.948  58.077  1.00  0.00    -0.000 C 
BRANCH  11  12
ATOM     12  C   UNL     1      19.964  -1.335  57.726  1.00  0.00    -0.000 C 
BRANCH  12  13
ATOM     13  C   UNL     1      19.658  -2.812  58.014  1.00  0.00    -0.000 C 
BRANCH  13  14
ATOM     14  C   UNL     1      20.931  -3.665  57.918  1.00  0.00    -0.000 C 
BRANCH  14  15
ATOM     15  C   UNL     1      20.803  -4.805  56.897  1.00  0.00    -0.003 C 
ATOM     16  C   UNL     1      19.951  -4.423  55.686  1.00  0.00     0.004 C 
ENDBRANCH  14  15
ENDBRANCH  13  14
ENDBRANCH  12  13
ENDBRANCH  11  12
ENDBRANCH  10  11
ENDBRANCH   1  10
TORSDOF 12
ENDMDL
