MODEL 1
REMARK VINA RESULT:    26.082      0.000      0.000
REMARK INTER + INTRA:          31.076
REMARK INTER:                  31.418
REMARK INTRA:                  -0.342
REMARK UNBOUND:                -0.342
REMARK SMILES COc1ccc([C@@H]2CC(=O)c3c(O)cc(O)cc3O2)cc1O
REMARK SMILES IDX 7 1 8 2 9 3 10 4 11 5 12 6 14 7 15 8 17 9 18 10 19 11 6 12
REMARK SMILES IDX 3 13 21 14 4 15 20 16 5 17 2 18 1 19 22 20 13 22 16 24
REMARK H PARENT 22 21 13 23 16 25
REMARK Flexibility Score: inf
ROOT
ATOM      1  C   UNL     1      28.578  34.844  50.015  1.00  0.00     0.211 C 
ATOM      2  C   UNL     1      27.755  34.725  51.302  1.00  0.00     0.131 C 
ATOM      3  C   UNL     1      27.428  36.096  51.820  1.00  0.00     0.174 C 
ATOM      4  O   UNL     1      27.513  36.323  53.054  1.00  0.00    -0.294 OA
ATOM      5  C   UNL     1      27.011  37.150  50.855  1.00  0.00     0.102 A 
ATOM      6  C   UNL     1      26.348  38.353  51.219  1.00  0.00     0.133 A 
ATOM      7  C   UNL     1      26.031  39.293  50.230  1.00  0.00     0.093 A 
ATOM      8  C   UNL     1      26.298  39.032  48.880  1.00  0.00     0.123 A 
ATOM      9  C   UNL     1      26.925  37.841  48.517  1.00  0.00     0.093 A 
ATOM     10  C   UNL     1      27.298  36.913  49.492  1.00  0.00     0.138 A 
ATOM     11  O   UNL     1      27.940  35.733  49.091  1.00  0.00    -0.484 OA
ENDROOT
BRANCH   1  12
ATOM     12  C   UNL     1      28.795  33.487  49.388  1.00  0.00    -0.003 A 
ATOM     13  C   UNL     1      29.268  30.982  48.169  1.00  0.00     0.160 A 
ATOM     14  C   UNL     1      29.325  31.115  49.568  1.00  0.00     0.158 A 
ATOM     15  C   UNL     1      29.001  32.122  47.386  1.00  0.00     0.051 A 
ATOM     16  C   UNL     1      29.105  32.359  50.168  1.00  0.00     0.057 A 
ATOM     17  C   UNL     1      28.775  33.360  47.989  1.00  0.00     0.011 A 
BRANCH  13  18
ATOM     18  O   UNL     1      29.495  29.722  47.595  1.00  0.00    -0.493 OA
ATOM     19  C   UNL     1      28.997  29.309  46.325  1.00  0.00     0.278 C 
ENDBRANCH  13  18
BRANCH  14  20
ATOM     20  O   UNL     1      29.587  30.011  50.383  1.00  0.00    -0.504 OA
ATOM     21  H   UNL     1      30.324  29.349  50.176  1.00  0.00     0.293 HD
ENDBRANCH  14  20
ENDBRANCH   1  12
BRANCH   6  22
ATOM     22  O   UNL     1      25.952  38.647  52.526  1.00  0.00    -0.507 OA
ATOM     23  H   UNL     1      25.688  37.952  53.211  1.00  0.00     0.293 HD
ENDBRANCH   6  22
BRANCH   8  24
ATOM     24  O   UNL     1      25.944  39.952  47.895  1.00  0.00    -0.508 OA
ATOM     25  H   UNL     1      26.644  40.428  47.338  1.00  0.00     0.293 HD
ENDBRANCH   8  24
TORSDOF 5
ENDMDL
MODEL 2
REMARK VINA RESULT:    26.248      1.633      7.825
REMARK INTER + INTRA:          31.277
REMARK INTER:                  31.642
REMARK INTRA:                  -0.366
REMARK UNBOUND:                -0.342
REMARK SMILES COc1ccc([C@@H]2CC(=O)c3c(O)cc(O)cc3O2)cc1O
REMARK SMILES IDX 7 1 8 2 9 3 10 4 11 5 12 6 14 7 15 8 17 9 18 10 19 11 6 12
REMARK SMILES IDX 3 13 21 14 4 15 20 16 5 17 2 18 1 19 22 20 13 22 16 24
REMARK H PARENT 22 21 13 23 16 25
REMARK Flexibility Score: inf
ROOT
ATOM      1  C   UNL     1      29.034  33.662  49.099  1.00  0.00     0.211 C 
ATOM      2  C   UNL     1      28.335  33.476  47.748  1.00  0.00     0.131 C 
ATOM      3  C   UNL     1      28.831  32.219  47.093  1.00  0.00     0.174 C 
ATOM      4  O   UNL     1      29.081  32.226  45.860  1.00  0.00    -0.294 OA
ATOM      5  C   UNL     1      29.016  30.998  47.924  1.00  0.00     0.102 A 
ATOM      6  C   UNL     1      29.133  29.682  47.401  1.00  0.00     0.133 A 
ATOM      7  C   UNL     1      29.338  28.607  48.275  1.00  0.00     0.093 A 
ATOM      8  C   UNL     1      29.360  28.804  49.661  1.00  0.00     0.123 A 
ATOM      9  C   UNL     1      29.219  30.090  50.180  1.00  0.00     0.093 A 
ATOM     10  C   UNL     1      29.068  31.185  49.324  1.00  0.00     0.138 A 
ATOM     11  O   UNL     1      28.943  32.465  49.880  1.00  0.00    -0.484 OA
ENDROOT
BRANCH   1  12
ATOM     12  C   UNL     1      28.447  34.835  49.850  1.00  0.00    -0.003 A 
ATOM     13  C   UNL     1      27.291  37.038  51.189  1.00  0.00     0.160 A 
ATOM     14  C   UNL     1      27.366  35.782  51.818  1.00  0.00     0.158 A 
ATOM     15  C   UNL     1      27.774  37.172  49.872  1.00  0.00     0.051 A 
ATOM     16  C   UNL     1      27.926  34.690  51.148  1.00  0.00     0.057 A 
ATOM     17  C   UNL     1      28.338  36.081  49.210  1.00  0.00     0.011 A 
BRANCH  13  18
ATOM     18  O   UNL     1      26.723  38.116  51.885  1.00  0.00    -0.493 OA
ATOM     19  C   UNL     1      25.833  39.071  51.313  1.00  0.00     0.278 C 
ENDBRANCH  13  18
BRANCH  14  20
ATOM     20  O   UNL     1      26.900  35.605  53.122  1.00  0.00    -0.504 OA
ATOM     21  H   UNL     1      27.312  34.935  53.759  1.00  0.00     0.293 HD
ENDBRANCH  14  20
ENDBRANCH   1  12
BRANCH   6  22
ATOM     22  O   UNL     1      29.019  29.384  46.041  1.00  0.00    -0.507 OA
ATOM     23  H   UNL     1      29.803  29.201  45.431  1.00  0.00     0.293 HD
ENDBRANCH   6  22
BRANCH   8  24
ATOM     24  O   UNL     1      29.523  27.726  50.529  1.00  0.00    -0.508 OA
ATOM     25  H   UNL     1      28.773  27.413  51.133  1.00  0.00     0.293 HD
ENDBRANCH   8  24
TORSDOF 5
ENDMDL
MODEL 3
REMARK VINA RESULT:    27.907      3.050      7.249
REMARK INTER + INTRA:          33.275
REMARK INTER:                  33.539
REMARK INTRA:                  -0.264
REMARK UNBOUND:                -0.342
REMARK SMILES COc1ccc([C@@H]2CC(=O)c3c(O)cc(O)cc3O2)cc1O
REMARK SMILES IDX 7 1 8 2 9 3 10 4 11 5 12 6 14 7 15 8 17 9 18 10 19 11 6 12
REMARK SMILES IDX 3 13 21 14 4 15 20 16 5 17 2 18 1 19 22 20 13 22 16 24
REMARK H PARENT 22 21 13 23 16 25
REMARK Flexibility Score: inf
ROOT
ATOM      1  C   UNL     1      29.129  33.569  49.469  1.00  0.00     0.211 C 
ATOM      2  C   UNL     1      30.135  32.561  50.034  1.00  0.00     0.131 C 
ATOM      3  C   UNL     1      29.562  31.176  49.950  1.00  0.00     0.174 C 
ATOM      4  O   UNL     1      29.711  30.390  50.921  1.00  0.00    -0.294 OA
ATOM      5  C   UNL     1      28.831  30.772  48.718  1.00  0.00     0.102 A 
ATOM      6  C   UNL     1      28.552  29.426  48.357  1.00  0.00     0.133 A 
ATOM      7  C   UNL     1      27.826  29.161  47.188  1.00  0.00     0.093 A 
ATOM      8  C   UNL     1      27.433  30.201  46.338  1.00  0.00     0.123 A 
ATOM      9  C   UNL     1      27.728  31.521  46.675  1.00  0.00     0.093 A 
ATOM     10  C   UNL     1      28.404  31.812  47.863  1.00  0.00     0.138 A 
ATOM     11  O   UNL     1      28.671  33.151  48.178  1.00  0.00    -0.484 OA
ENDROOT
BRANCH   1  12
ATOM     12  C   UNL     1      29.734  34.952  49.400  1.00  0.00    -0.003 A 
ATOM     13  C   UNL     1      30.851  37.547  49.359  1.00  0.00     0.160 A 
ATOM     14  C   UNL     1      31.613  36.437  48.950  1.00  0.00     0.158 A 
ATOM     15  C   UNL     1      29.535  37.340  49.816  1.00  0.00     0.051 A 
ATOM     16  C   UNL     1      31.062  35.152  48.985  1.00  0.00     0.057 A 
ATOM     17  C   UNL     1      28.987  36.056  49.842  1.00  0.00     0.011 A 
BRANCH  13  18
ATOM     18  O   UNL     1      31.430  38.824  49.314  1.00  0.00    -0.493 OA
ATOM     19  C   UNL     1      31.562  39.613  48.134  1.00  0.00     0.278 C 
ENDBRANCH  13  18
BRANCH  14  20
ATOM     20  O   UNL     1      32.921  36.597  48.490  1.00  0.00    -0.504 OA
ATOM     21  H   UNL     1      33.487  35.815  48.183  1.00  0.00     0.293 HD
ENDBRANCH  14  20
ENDBRANCH   1  12
BRANCH   6  22
ATOM     22  O   UNL     1      28.996  28.325  49.093  1.00  0.00    -0.507 OA
ATOM     23  H   UNL     1      28.756  28.152  50.059  1.00  0.00     0.293 HD
ENDBRANCH   6  22
BRANCH   8  24
ATOM     24  O   UNL     1      26.746  29.931  45.155  1.00  0.00    -0.508 OA
ATOM     25  H   UNL     1      26.970  30.409  44.290  1.00  0.00     0.293 HD
ENDBRANCH   8  24
TORSDOF 5
ENDMDL
MODEL 4
REMARK VINA RESULT:    28.219     12.257     12.891
REMARK INTER + INTRA:          33.651
REMARK INTER:                  33.428
REMARK INTRA:                   0.223
REMARK UNBOUND:                -0.342
REMARK SMILES COc1ccc([C@@H]2CC(=O)c3c(O)cc(O)cc3O2)cc1O
REMARK SMILES IDX 7 1 8 2 9 3 10 4 11 5 12 6 14 7 15 8 17 9 18 10 19 11 6 12
REMARK SMILES IDX 3 13 21 14 4 15 20 16 5 17 2 18 1 19 22 20 13 22 16 24
REMARK H PARENT 22 21 13 23 16 25
REMARK Flexibility Score: inf
ROOT
ATOM      1  C   UNL     1      28.136  23.750  46.249  1.00  0.00     0.211 C 
ATOM      2  C   UNL     1      27.797  22.426  46.941  1.00  0.00     0.131 C 
ATOM      3  C   UNL     1      26.352  22.427  47.351  1.00  0.00     0.174 C 
ATOM      4  O   UNL     1      26.033  21.973  48.479  1.00  0.00    -0.294 OA
ATOM      5  C   UNL     1      25.336  22.969  46.407  1.00  0.00     0.102 A 
ATOM      6  C   UNL     1      23.940  22.719  46.502  1.00  0.00     0.133 A 
ATOM      7  C   UNL     1      23.069  23.308  45.576  1.00  0.00     0.093 A 
ATOM      8  C   UNL     1      23.563  24.083  44.520  1.00  0.00     0.123 A 
ATOM      9  C   UNL     1      24.934  24.309  44.408  1.00  0.00     0.093 A 
ATOM     10  C   UNL     1      25.816  23.775  45.351  1.00  0.00     0.138 A 
ATOM     11  O   UNL     1      27.187  24.035  45.216  1.00  0.00    -0.484 OA
ENDROOT
BRANCH   1  12
ATOM     12  C   UNL     1      29.541  23.720  45.692  1.00  0.00    -0.003 A 
ATOM     13  C   UNL     1      32.170  23.753  44.658  1.00  0.00     0.160 A 
ATOM     14  C   UNL     1      31.866  23.002  45.808  1.00  0.00     0.158 A 
ATOM     15  C   UNL     1      31.151  24.510  44.049  1.00  0.00     0.051 A 
ATOM     16  C   UNL     1      30.567  22.999  46.326  1.00  0.00     0.057 A 
ATOM     17  C   UNL     1      29.854  24.499  44.565  1.00  0.00     0.011 A 
BRANCH  13  18
ATOM     18  O   UNL     1      33.483  23.737  44.163  1.00  0.00    -0.493 OA
ATOM     19  C   UNL     1      34.655  23.761  44.973  1.00  0.00     0.278 C 
ENDBRANCH  13  18
BRANCH  14  20
ATOM     20  O   UNL     1      32.846  22.237  46.444  1.00  0.00    -0.504 OA
ATOM     21  H   UNL     1      33.248  21.410  46.020  1.00  0.00     0.293 HD
ENDBRANCH  14  20
ENDBRANCH   1  12
BRANCH   6  22
ATOM     22  O   UNL     1      23.374  21.875  47.461  1.00  0.00    -0.507 OA
ATOM     23  H   UNL     1      22.383  21.704  47.554  1.00  0.00     0.293 HD
ENDBRANCH   6  22
BRANCH   8  24
ATOM     24  O   UNL     1      22.696  24.635  43.578  1.00  0.00    -0.508 OA
ATOM     25  H   UNL     1      23.038  25.040  42.715  1.00  0.00     0.293 HD
ENDBRANCH   8  24
TORSDOF 5
ENDMDL
