MODEL 1
REMARK VINA RESULT:    -5.385      0.000      0.000
REMARK INTER + INTRA:          -7.078
REMARK INTER:                  -6.959
REMARK INTRA:                  -0.119
REMARK UNBOUND:                -0.119
REMARK SMILES CCO[C@H]1O[C@H](CO)[C@@H](O)[C@@H](O)[C@@H]1O
REMARK SMILES IDX 4 1 13 2 11 3 9 4 6 5 5 6 3 7 2 8 1 9 14 10 12 12 7 14 8 15
REMARK SMILES IDX 10 17
REMARK H PARENT 14 11 12 13 8 16 10 18
REMARK Flexibility Score: inf
ROOT
ATOM      1  C   UNL     1     -11.790   3.573 -19.702  1.00  0.00     0.281 C 
ATOM      2  C   UNL     1     -10.507   2.865 -19.176  1.00  0.00     0.202 C 
ATOM      3  C   UNL     1     -10.821   1.694 -18.221  1.00  0.00     0.179 C 
ATOM      4  C   UNL     1     -11.907   2.101 -17.205  1.00  0.00     0.177 C 
ATOM      5  C   UNL     1     -13.121   2.815 -17.880  1.00  0.00     0.178 C 
ATOM      6  O   UNL     1     -12.987   2.916 -19.293  1.00  0.00    -0.341 OA
ENDROOT
BRANCH   1   7
ATOM      7  O   UNL     1     -11.742   3.580 -21.121  1.00  0.00    -0.350 OA
BRANCH   7   8
ATOM      8  C   UNL     1     -10.472   3.176 -21.603  1.00  0.00     0.160 C 
ATOM      9  C   UNL     1     -10.595   2.714 -23.049  1.00  0.00     0.035 C 
ENDBRANCH   7   8
ENDBRANCH   1   7
BRANCH   2  10
ATOM     10  O   UNL     1      -9.707   3.815 -18.516  1.00  0.00    -0.385 OA
ATOM     11  H   UNL     1      -8.913   3.979 -19.089  1.00  0.00     0.211 HD
ENDBRANCH   2  10
BRANCH   3  12
ATOM     12  O   UNL     1     -11.166   0.530 -18.935  1.00  0.00    -0.387 OA
ATOM     13  H   UNL     1     -10.568  -0.207 -18.645  1.00  0.00     0.211 HD
ENDBRANCH   3  12
BRANCH   5  14
ATOM     14  C   UNL     1     -13.453   4.170 -17.213  1.00  0.00     0.191 C 
BRANCH  14  15
ATOM     15  O   UNL     1     -13.815   3.990 -15.870  1.00  0.00    -0.394 OA
ATOM     16  H   UNL     1     -13.504   4.796 -15.376  1.00  0.00     0.210 HD
ENDBRANCH  14  15
ENDBRANCH   5  14
BRANCH   4  17
ATOM     17  O   UNL     1     -12.315   0.991 -16.440  1.00  0.00    -0.387 OA
ATOM     18  H   UNL     1     -11.552   0.354 -16.395  1.00  0.00     0.211 HD
ENDBRANCH   4  17
TORSDOF 7
ENDMDL
MODEL 2
REMARK VINA RESULT:    -4.743      1.769      4.727
REMARK INTER + INTRA:          -6.249
REMARK INTER:                  -5.967
REMARK INTRA:                  -0.282
REMARK UNBOUND:                -0.119
REMARK SMILES CCO[C@H]1O[C@H](CO)[C@@H](O)[C@@H](O)[C@@H]1O
REMARK SMILES IDX 4 1 13 2 11 3 9 4 6 5 5 6 3 7 2 8 1 9 14 10 12 12 7 14 8 15
REMARK SMILES IDX 10 17
REMARK H PARENT 14 11 12 13 8 16 10 18
REMARK Flexibility Score: inf
ROOT
ATOM      1  C   UNL     1     -10.370   2.369 -19.347  1.00  0.00     0.281 C 
ATOM      2  C   UNL     1     -10.626   3.838 -18.899  1.00  0.00     0.202 C 
ATOM      3  C   UNL     1     -11.758   4.516 -19.699  1.00  0.00     0.179 C 
ATOM      4  C   UNL     1     -11.610   4.221 -21.204  1.00  0.00     0.177 C 
ATOM      5  C   UNL     1     -11.340   2.710 -21.494  1.00  0.00     0.178 C 
ATOM      6  O   UNL     1     -11.315   1.916 -20.313  1.00  0.00    -0.341 OA
ENDROOT
BRANCH   1   7
ATOM      7  O   UNL     1     -10.461   1.534 -18.201  1.00  0.00    -0.350 OA
BRANCH   7   8
ATOM      8  C   UNL     1     -11.763   0.994 -18.051  1.00  0.00     0.160 C 
ATOM      9  C   UNL     1     -12.355   1.444 -16.722  1.00  0.00     0.035 C 
ENDBRANCH   7   8
ENDBRANCH   1   7
BRANCH   2  10
ATOM     10  O   UNL     1      -9.433   4.569 -19.050  1.00  0.00    -0.385 OA
ATOM     11  H   UNL     1      -9.255   4.641 -20.023  1.00  0.00     0.211 HD
ENDBRANCH   2  10
BRANCH   3  12
ATOM     12  O   UNL     1     -13.025   4.149 -19.203  1.00  0.00    -0.387 OA
ATOM     13  H   UNL     1     -13.679   4.852 -19.457  1.00  0.00     0.211 HD
ENDBRANCH   3  12
BRANCH   5  14
ATOM     14  C   UNL     1     -10.093   2.494 -22.383  1.00  0.00     0.191 C 
BRANCH  14  15
ATOM     15  O   UNL     1     -10.406   1.699 -23.496  1.00  0.00    -0.394 OA
ATOM     16  H   UNL     1      -9.868   2.043 -24.258  1.00  0.00     0.210 HD
ENDBRANCH  14  15
ENDBRANCH   5  14
BRANCH   4  17
ATOM     17  O   UNL     1     -12.726   4.696 -21.919  1.00  0.00    -0.387 OA
ATOM     18  H   UNL     1     -13.412   4.984 -21.257  1.00  0.00     0.211 HD
ENDBRANCH   4  17
TORSDOF 7
ENDMDL
MODEL 3
REMARK VINA RESULT:    -4.319      1.867      4.273
REMARK INTER + INTRA:          -5.701
REMARK INTER:                  -5.570
REMARK INTRA:                  -0.131
REMARK UNBOUND:                -0.119
REMARK SMILES CCO[C@H]1O[C@H](CO)[C@@H](O)[C@@H](O)[C@@H]1O
REMARK SMILES IDX 4 1 13 2 11 3 9 4 6 5 5 6 3 7 2 8 1 9 14 10 12 12 7 14 8 15
REMARK SMILES IDX 10 17
REMARK H PARENT 14 11 12 13 8 16 10 18
REMARK Flexibility Score: inf
ROOT
ATOM      1  C   UNL     1     -11.839   1.063 -18.245  1.00  0.00     0.281 C 
ATOM      2  C   UNL     1     -12.475   1.730 -16.990  1.00  0.00     0.202 C 
ATOM      3  C   UNL     1     -13.105   3.104 -17.300  1.00  0.00     0.179 C 
ATOM      4  C   UNL     1     -12.162   3.946 -18.182  1.00  0.00     0.177 C 
ATOM      5  C   UNL     1     -11.590   3.136 -19.389  1.00  0.00     0.178 C 
ATOM      6  O   UNL     1     -12.080   1.801 -19.441  1.00  0.00    -0.341 OA
ENDROOT
BRANCH   1   7
ATOM      7  O   UNL     1     -12.402  -0.232 -18.393  1.00  0.00    -0.350 OA
BRANCH   7   8
ATOM      8  C   UNL     1     -12.277  -0.994 -17.204  1.00  0.00     0.160 C 
ATOM      9  C   UNL     1     -11.645  -2.342 -17.523  1.00  0.00     0.035 C 
ENDBRANCH   7   8
ENDBRANCH   1   7
BRANCH   2  10
ATOM     10  O   UNL     1     -11.482   1.873 -16.004  1.00  0.00    -0.385 OA
ATOM     11  H   UNL     1     -11.306   0.971 -15.631  1.00  0.00     0.211 HD
ENDBRANCH   2  10
BRANCH   3  12
ATOM     12  O   UNL     1     -14.386   2.963 -17.870  1.00  0.00    -0.387 OA
ATOM     13  H   UNL     1     -14.540   2.002 -18.064  1.00  0.00     0.211 HD
ENDBRANCH   3  12
BRANCH   5  14
ATOM     14  C   UNL     1     -10.047   3.209 -19.470  1.00  0.00     0.191 C 
BRANCH  14  15
ATOM     15  O   UNL     1      -9.583   4.454 -19.021  1.00  0.00    -0.394 OA
ATOM     16  H   UNL     1     -10.384   4.997 -18.793  1.00  0.00     0.210 HD
ENDBRANCH  14  15
ENDBRANCH   5  14
BRANCH   4  17
ATOM     17  O   UNL     1     -12.797   5.130 -18.604  1.00  0.00    -0.387 OA
ATOM     18  H   UNL     1     -13.244   4.943 -19.473  1.00  0.00     0.211 HD
ENDBRANCH   4  17
TORSDOF 7
ENDMDL
MODEL 4
REMARK VINA RESULT:    -4.059      1.836      2.540
REMARK INTER + INTRA:          -5.365
REMARK INTER:                  -5.011
REMARK INTRA:                  -0.354
REMARK UNBOUND:                -0.119
REMARK SMILES CCO[C@H]1O[C@H](CO)[C@@H](O)[C@@H](O)[C@@H]1O
REMARK SMILES IDX 4 1 13 2 11 3 9 4 6 5 5 6 3 7 2 8 1 9 14 10 12 12 7 14 8 15
REMARK SMILES IDX 10 17
REMARK H PARENT 14 11 12 13 8 16 10 18
REMARK Flexibility Score: inf
ROOT
ATOM      1  C   UNL     1     -11.950   3.185 -20.660  1.00  0.00     0.281 C 
ATOM      2  C   UNL     1     -11.287   4.327 -19.834  1.00  0.00     0.202 C 
ATOM      3  C   UNL     1     -10.090   3.836 -18.993  1.00  0.00     0.179 C 
ATOM      4  C   UNL     1     -10.436   2.515 -18.278  1.00  0.00     0.177 C 
ATOM      5  C   UNL     1     -11.110   1.477 -19.231  1.00  0.00     0.178 C 
ATOM      6  O   UNL     1     -11.238   1.954 -20.565  1.00  0.00    -0.341 OA
ENDROOT
BRANCH   1   7
ATOM      7  O   UNL     1     -11.981   3.584 -22.023  1.00  0.00    -0.350 OA
BRANCH   7   8
ATOM      8  C   UNL     1     -10.753   3.308 -22.676  1.00  0.00     0.160 C 
ATOM      9  C   UNL     1     -10.294   4.538 -23.447  1.00  0.00     0.035 C 
ENDBRANCH   7   8
ENDBRANCH   1   7
BRANCH   2  10
ATOM     10  O   UNL     1     -12.259   4.896 -18.992  1.00  0.00    -0.385 OA
ATOM     11  H   UNL     1     -11.783   5.265 -18.202  1.00  0.00     0.211 HD
ENDBRANCH   2  10
BRANCH   3  12
ATOM     12  O   UNL     1      -8.923   3.731 -19.777  1.00  0.00    -0.387 OA
ATOM     13  H   UNL     1      -8.525   2.833 -19.631  1.00  0.00     0.211 HD
ENDBRANCH   3  12
BRANCH   5  14
ATOM     14  C   UNL     1     -12.440   0.932 -18.661  1.00  0.00     0.191 C 
BRANCH  14  15
ATOM     15  O   UNL     1     -13.062   1.888 -17.845  1.00  0.00    -0.394 OA
ATOM     16  H   UNL     1     -13.955   1.524 -17.602  1.00  0.00     0.210 HD
ENDBRANCH  14  15
ENDBRANCH   5  14
BRANCH   4  17
ATOM     17  O   UNL     1      -9.299   1.978 -17.644  1.00  0.00    -0.387 OA
ATOM     18  H   UNL     1      -9.522   1.840 -16.683  1.00  0.00     0.211 HD
ENDBRANCH   4  17
TORSDOF 7
ENDMDL
MODEL 5
REMARK VINA RESULT:    -3.940      1.722      4.625
REMARK INTER + INTRA:          -5.211
REMARK INTER:                  -4.976
REMARK INTRA:                  -0.235
REMARK UNBOUND:                -0.119
REMARK SMILES CCO[C@H]1O[C@H](CO)[C@@H](O)[C@@H](O)[C@@H]1O
REMARK SMILES IDX 4 1 13 2 11 3 9 4 6 5 5 6 3 7 2 8 1 9 14 10 12 12 7 14 8 15
REMARK SMILES IDX 10 17
REMARK H PARENT 14 11 12 13 8 16 10 18
REMARK Flexibility Score: inf
ROOT
ATOM      1  C   UNL     1     -11.805   2.970 -18.943  1.00  0.00     0.281 C 
ATOM      2  C   UNL     1     -12.586   4.039 -19.762  1.00  0.00     0.202 C 
ATOM      3  C   UNL     1     -12.082   4.160 -21.216  1.00  0.00     0.179 C 
ATOM      4  C   UNL     1     -10.542   4.182 -21.256  1.00  0.00     0.177 C 
ATOM      5  C   UNL     1      -9.904   3.063 -20.372  1.00  0.00     0.178 C 
ATOM      6  O   UNL     1     -10.875   2.239 -19.738  1.00  0.00    -0.341 OA
ENDROOT
BRANCH   1   7
ATOM      7  O   UNL     1     -12.746   2.057 -18.396  1.00  0.00    -0.350 OA
BRANCH   7   8
ATOM      8  C   UNL     1     -12.679   2.024 -16.980  1.00  0.00     0.160 C 
ATOM      9  C   UNL     1     -13.432   3.216 -16.404  1.00  0.00     0.035 C 
ENDBRANCH   7   8
ENDBRANCH   1   7
BRANCH   2  10
ATOM     10  O   UNL     1     -12.465   5.281 -19.112  1.00  0.00    -0.385 OA
ATOM     11  H   UNL     1     -13.381   5.574 -18.868  1.00  0.00     0.211 HD
ENDBRANCH   2  10
BRANCH   3  12
ATOM     12  O   UNL     1     -12.624   3.146 -22.031  1.00  0.00    -0.387 OA
ATOM     13  H   UNL     1     -13.454   3.490 -22.452  1.00  0.00     0.211 HD
ENDBRANCH   3  12
BRANCH   5  14
ATOM     14  C   UNL     1      -8.856   3.621 -19.381  1.00  0.00     0.191 C 
BRANCH  14  15
ATOM     15  O   UNL     1      -9.115   4.967 -19.086  1.00  0.00    -0.394 OA
ATOM     16  H   UNL     1      -9.837   4.981 -18.402  1.00  0.00     0.210 HD
ENDBRANCH  14  15
ENDBRANCH   5  14
BRANCH   4  17
ATOM     17  O   UNL     1     -10.075   4.127 -22.583  1.00  0.00    -0.387 OA
ATOM     18  H   UNL     1     -10.804   3.748 -23.147  1.00  0.00     0.211 HD
ENDBRANCH   4  17
TORSDOF 7
ENDMDL
MODEL 6
REMARK VINA RESULT:    -3.843      9.159     11.317
REMARK INTER + INTRA:          -5.085
REMARK INTER:                  -4.778
REMARK INTRA:                  -0.307
REMARK UNBOUND:                -0.119
REMARK SMILES CCO[C@H]1O[C@H](CO)[C@@H](O)[C@@H](O)[C@@H]1O
REMARK SMILES IDX 4 1 13 2 11 3 9 4 6 5 5 6 3 7 2 8 1 9 14 10 12 12 7 14 8 15
REMARK SMILES IDX 10 17
REMARK H PARENT 14 11 12 13 8 16 10 18
REMARK Flexibility Score: inf
ROOT
ATOM      1  C   UNL     1     -18.615   5.241 -25.678  1.00  0.00     0.281 C 
ATOM      2  C   UNL     1     -17.090   4.926 -25.692  1.00  0.00     0.202 C 
ATOM      3  C   UNL     1     -16.338   5.672 -26.815  1.00  0.00     0.179 C 
ATOM      4  C   UNL     1     -17.120   5.585 -28.140  1.00  0.00     0.177 C 
ATOM      5  C   UNL     1     -18.637   5.909 -27.963  1.00  0.00     0.178 C 
ATOM      6  O   UNL     1     -18.977   6.245 -26.623  1.00  0.00    -0.341 OA
ENDROOT
BRANCH   1   7
ATOM      7  O   UNL     1     -18.962   5.698 -24.379  1.00  0.00    -0.350 OA
BRANCH   7   8
ATOM      8  C   UNL     1     -19.853   6.799 -24.433  1.00  0.00     0.160 C 
ATOM      9  C   UNL     1     -21.114   6.477 -23.642  1.00  0.00     0.035 C 
ENDBRANCH   7   8
ENDBRANCH   1   7
BRANCH   2  10
ATOM     10  O   UNL     1     -16.918   3.539 -25.844  1.00  0.00    -0.385 OA
ATOM     11  H   UNL     1     -15.972   3.334 -25.626  1.00  0.00     0.211 HD
ENDBRANCH   2  10
BRANCH   3  12
ATOM     12  O   UNL     1     -16.056   7.002 -26.446  1.00  0.00    -0.387 OA
ATOM     13  H   UNL     1     -16.913   7.468 -26.265  1.00  0.00     0.211 HD
ENDBRANCH   3  12
BRANCH   5  14
ATOM     14  C   UNL     1     -19.548   4.807 -28.551  1.00  0.00     0.191 C 
BRANCH  14  15
ATOM     15  O   UNL     1     -18.810   3.649 -28.836  1.00  0.00    -0.394 OA
ATOM     16  H   UNL     1     -18.537   3.707 -29.790  1.00  0.00     0.210 HD
ENDBRANCH  14  15
ENDBRANCH   5  14
BRANCH   4  17
ATOM     17  O   UNL     1     -16.525   6.398 -29.125  1.00  0.00    -0.387 OA
ATOM     18  H   UNL     1     -17.093   6.353 -29.941  1.00  0.00     0.211 HD
ENDBRANCH   4  17
TORSDOF 7
ENDMDL
MODEL 7
REMARK VINA RESULT:    -3.835      1.658      4.093
REMARK INTER + INTRA:          -5.075
REMARK INTER:                  -4.857
REMARK INTRA:                  -0.218
REMARK UNBOUND:                -0.119
REMARK SMILES CCO[C@H]1O[C@H](CO)[C@@H](O)[C@@H](O)[C@@H]1O
REMARK SMILES IDX 4 1 13 2 11 3 9 4 6 5 5 6 3 7 2 8 1 9 14 10 12 12 7 14 8 15
REMARK SMILES IDX 10 17
REMARK H PARENT 14 11 12 13 8 16 10 18
REMARK Flexibility Score: inf
ROOT
ATOM      1  C   UNL     1     -10.904   1.708 -19.393  1.00  0.00     0.281 C 
ATOM      2  C   UNL     1     -10.520   2.740 -18.292  1.00  0.00     0.202 C 
ATOM      3  C   UNL     1     -11.575   3.855 -18.127  1.00  0.00     0.179 C 
ATOM      4  C   UNL     1     -12.027   4.381 -19.503  1.00  0.00     0.177 C 
ATOM      5  C   UNL     1     -12.360   3.229 -20.504  1.00  0.00     0.178 C 
ATOM      6  O   UNL     1     -12.204   1.936 -19.931  1.00  0.00    -0.341 OA
ENDROOT
BRANCH   1   7
ATOM      7  O   UNL     1     -10.876   0.412 -18.814  1.00  0.00    -0.350 OA
BRANCH   7   8
ATOM      8  C   UNL     1     -12.086   0.116 -18.138  1.00  0.00     0.160 C 
ATOM      9  C   UNL     1     -12.067  -1.331 -17.663  1.00  0.00     0.035 C 
ENDBRANCH   7   8
ENDBRANCH   1   7
BRANCH   2  10
ATOM     10  O   UNL     1      -9.276   3.307 -18.621  1.00  0.00    -0.385 OA
ATOM     11  H   UNL     1      -8.753   3.376 -17.780  1.00  0.00     0.211 HD
ENDBRANCH   2  10
BRANCH   3  12
ATOM     12  O   UNL     1     -12.658   3.421 -17.337  1.00  0.00    -0.387 OA
ATOM     13  H   UNL     1     -13.429   3.237 -17.934  1.00  0.00     0.211 HD
ENDBRANCH   3  12
BRANCH   5  14
ATOM     14  C   UNL     1     -11.608   3.380 -21.847  1.00  0.00     0.191 C 
BRANCH  14  15
ATOM     15  O   UNL     1     -12.379   4.099 -22.772  1.00  0.00    -0.394 OA
ATOM     16  H   UNL     1     -13.325   3.820 -22.640  1.00  0.00     0.210 HD
ENDBRANCH  14  15
ENDBRANCH   5  14
BRANCH   4  17
ATOM     17  O   UNL     1     -13.103   5.278 -19.366  1.00  0.00    -0.387 OA
ATOM     18  H   UNL     1     -13.862   4.784 -18.952  1.00  0.00     0.211 HD
ENDBRANCH   4  17
TORSDOF 7
ENDMDL
MODEL 8
REMARK VINA RESULT:    -3.632      9.157     11.333
REMARK INTER + INTRA:          -4.812
REMARK INTER:                  -4.670
REMARK INTRA:                  -0.142
REMARK UNBOUND:                -0.119
REMARK SMILES CCO[C@H]1O[C@H](CO)[C@@H](O)[C@@H](O)[C@@H]1O
REMARK SMILES IDX 4 1 13 2 11 3 9 4 6 5 5 6 3 7 2 8 1 9 14 10 12 12 7 14 8 15
REMARK SMILES IDX 10 17
REMARK H PARENT 14 11 12 13 8 16 10 18
REMARK Flexibility Score: inf
ROOT
ATOM      1  C   UNL     1     -18.989   5.300 -26.971  1.00  0.00     0.281 C 
ATOM      2  C   UNL     1     -18.881   5.128 -28.515  1.00  0.00     0.202 C 
ATOM      3  C   UNL     1     -17.697   4.231 -28.934  1.00  0.00     0.179 C 
ATOM      4  C   UNL     1     -16.428   4.606 -28.144  1.00  0.00     0.177 C 
ATOM      5  C   UNL     1     -16.698   4.761 -26.614  1.00  0.00     0.178 C 
ATOM      6  O   UNL     1     -18.051   4.495 -26.262  1.00  0.00    -0.341 OA
ENDROOT
BRANCH   1   7
ATOM      7  O   UNL     1     -20.299   4.924 -26.573  1.00  0.00    -0.350 OA
BRANCH   7   8
ATOM      8  C   UNL     1     -20.906   5.919 -25.766  1.00  0.00     0.160 C 
ATOM      9  C   UNL     1     -20.699   5.582 -24.296  1.00  0.00     0.035 C 
ENDBRANCH   7   8
ENDBRANCH   1   7
BRANCH   2  10
ATOM     10  O   UNL     1     -18.745   6.399 -29.102  1.00  0.00    -0.385 OA
ATOM     11  H   UNL     1     -19.509   6.519 -29.723  1.00  0.00     0.211 HD
ENDBRANCH   2  10
BRANCH   3  12
ATOM     12  O   UNL     1     -18.021   2.865 -28.808  1.00  0.00    -0.387 OA
ATOM     13  H   UNL     1     -18.116   2.651 -27.843  1.00  0.00     0.211 HD
ENDBRANCH   3  12
BRANCH   5  14
ATOM     14  C   UNL     1     -16.192   6.113 -26.060  1.00  0.00     0.191 C 
BRANCH  14  15
ATOM     15  O   UNL     1     -15.051   5.930 -25.264  1.00  0.00    -0.394 OA
ATOM     16  H   UNL     1     -15.275   5.230 -24.594  1.00  0.00     0.210 HD
ENDBRANCH  14  15
ENDBRANCH   5  14
BRANCH   4  17
ATOM     17  O   UNL     1     -15.391   3.688 -28.400  1.00  0.00    -0.387 OA
ATOM     18  H   UNL     1     -15.233   3.166 -27.567  1.00  0.00     0.211 HD
ENDBRANCH   4  17
TORSDOF 7
ENDMDL
MODEL 9
REMARK VINA RESULT:    -3.613      9.315     10.950
REMARK INTER + INTRA:          -4.788
REMARK INTER:                  -4.605
REMARK INTRA:                  -0.183
REMARK UNBOUND:                -0.119
REMARK SMILES CCO[C@H]1O[C@H](CO)[C@@H](O)[C@@H](O)[C@@H]1O
REMARK SMILES IDX 4 1 13 2 11 3 9 4 6 5 5 6 3 7 2 8 1 9 14 10 12 12 7 14 8 15
REMARK SMILES IDX 10 17
REMARK H PARENT 14 11 12 13 8 16 10 18
REMARK Flexibility Score: inf
ROOT
ATOM      1  C   UNL     1     -18.162   5.405 -28.147  1.00  0.00     0.281 C 
ATOM      2  C   UNL     1     -16.994   5.770 -27.184  1.00  0.00     0.202 C 
ATOM      3  C   UNL     1     -17.339   5.511 -25.703  1.00  0.00     0.179 C 
ATOM      4  C   UNL     1     -18.752   6.035 -25.377  1.00  0.00     0.177 C 
ATOM      5  C   UNL     1     -19.811   5.603 -26.441  1.00  0.00     0.178 C 
ATOM      6  O   UNL     1     -19.259   4.793 -27.473  1.00  0.00    -0.341 OA
ENDROOT
BRANCH   1   7
ATOM      7  O   UNL     1     -17.668   4.497 -29.121  1.00  0.00    -0.350 OA
BRANCH   7   8
ATOM      8  C   UNL     1     -16.344   4.086 -28.826  1.00  0.00     0.160 C 
ATOM      9  C   UNL     1     -16.232   2.574 -28.977  1.00  0.00     0.035 C 
ENDBRANCH   7   8
ENDBRANCH   1   7
BRANCH   2  10
ATOM     10  O   UNL     1     -16.666   7.125 -27.367  1.00  0.00    -0.385 OA
ATOM     11  H   UNL     1     -17.332   7.506 -27.997  1.00  0.00     0.211 HD
ENDBRANCH   2  10
BRANCH   3  12
ATOM     12  O   UNL     1     -17.183   4.150 -25.371  1.00  0.00    -0.387 OA
ATOM     13  H   UNL     1     -17.784   3.941 -24.609  1.00  0.00     0.211 HD
ENDBRANCH   3  12
BRANCH   5  14
ATOM     14  C   UNL     1     -20.617   6.803 -26.991  1.00  0.00     0.191 C 
BRANCH  14  15
ATOM     15  O   UNL     1     -21.775   6.365 -27.650  1.00  0.00    -0.394 OA
ATOM     16  H   UNL     1     -22.487   7.031 -27.456  1.00  0.00     0.210 HD
ENDBRANCH  14  15
ENDBRANCH   5  14
BRANCH   4  17
ATOM     17  O   UNL     1     -19.137   5.657 -24.076  1.00  0.00    -0.387 OA
ATOM     18  H   UNL     1     -19.334   6.487 -23.563  1.00  0.00     0.211 HD
ENDBRANCH   4  17
TORSDOF 7
ENDMDL
