MODEL 1
REMARK VINA RESULT:    -5.629      0.000      0.000
REMARK INTER + INTRA:         -10.036
REMARK INTER:                  -8.591
REMARK INTRA:                  -1.445
REMARK UNBOUND:                -1.445
REMARK SMILES CC(=O)CCC=C(C)CCC=C(C)CCC=C(C)C
REMARK SMILES IDX 10 1 11 2 12 3 13 4 14 5 15 6 16 7 18 8 17 9 19 10 9 11 7 12
REMARK SMILES IDX 6 13 8 14 5 15 4 16 2 17 3 18 1 19
REMARK H PARENT
REMARK Flexibility Score: inf
ROOT
ATOM      1  C   UNL     1      25.248  -6.215   6.691  1.00  0.00     0.032 C 
ENDROOT
BRANCH   1   2
ATOM      2  C   UNL     1      25.808  -4.827   6.498  1.00  0.00    -0.028 C 
ATOM      3  C   UNL     1      25.077  -3.690   6.456  1.00  0.00    -0.077 C 
ATOM      4  C   UNL     1      25.796  -2.389   6.203  1.00  0.00     0.039 C 
BRANCH   3   5
ATOM      5  C   UNL     1      23.576  -3.662   6.684  1.00  0.00     0.034 C 
BRANCH   5   6
ATOM      6  C   UNL     1      23.214  -3.063   8.051  1.00  0.00     0.032 C 
BRANCH   6   7
ATOM      7  C   UNL     1      22.475  -1.753   7.909  1.00  0.00    -0.028 C 
ATOM      8  C   UNL     1      20.214  -2.812   8.109  1.00  0.00     0.039 C 
ATOM      9  C   UNL     1      21.129  -1.628   7.903  1.00  0.00    -0.080 C 
ATOM     10  C   UNL     1      20.537  -0.258   7.701  1.00  0.00     0.039 C 
ENDBRANCH   6   7
ENDBRANCH   5   6
ENDBRANCH   3   5
ENDBRANCH   1   2
BRANCH   1  11
ATOM     11  C   UNL     1      25.468  -6.700   8.129  1.00  0.00     0.034 C 
BRANCH  11  12
ATOM     12  C   UNL     1      25.539  -8.215   8.183  1.00  0.00    -0.077 C 
ATOM     13  C   UNL     1      24.483  -8.993   8.515  1.00  0.00    -0.028 C 
ATOM     14  C   UNL     1      26.859  -8.885   7.908  1.00  0.00     0.039 C 
BRANCH  13  15
ATOM     15  C   UNL     1      23.088  -8.490   8.799  1.00  0.00     0.035 C 
BRANCH  15  16
ATOM     16  C   UNL     1      22.758  -8.542  10.297  1.00  0.00     0.079 C 
BRANCH  16  17
ATOM     17  C   UNL     1      22.581  -7.160  10.873  1.00  0.00     0.130 C 
ATOM     18  O   UNL     1      22.499  -7.018  12.084  1.00  0.00    -0.300 OA
ATOM     19  C   UNL     1      22.505  -5.951   9.989  1.00  0.00     0.087 C 
ENDBRANCH  16  17
ENDBRANCH  15  16
ENDBRANCH  13  15
ENDBRANCH  11  12
ENDBRANCH   1  11
TORSDOF 9
ENDMDL
MODEL 2
REMARK VINA RESULT:    -5.513      1.996      6.078
REMARK INTER + INTRA:          -9.859
REMARK INTER:                  -7.856
REMARK INTRA:                  -2.002
REMARK UNBOUND:                -1.445
REMARK SMILES CC(=O)CCC=C(C)CCC=C(C)CCC=C(C)C
REMARK SMILES IDX 10 1 11 2 12 3 13 4 14 5 15 6 16 7 18 8 17 9 19 10 9 11 7 12
REMARK SMILES IDX 6 13 8 14 5 15 4 16 2 17 3 18 1 19
REMARK H PARENT
REMARK Flexibility Score: inf
ROOT
ATOM      1  C   UNL     1      23.762  -4.531   8.716  1.00  0.00     0.032 C 
ENDROOT
BRANCH   1   2
ATOM      2  C   UNL     1      25.097  -5.189   8.470  1.00  0.00    -0.028 C 
ATOM      3  C   UNL     1      25.352  -6.097   7.500  1.00  0.00    -0.077 C 
ATOM      4  C   UNL     1      26.734  -6.694   7.428  1.00  0.00     0.039 C 
BRANCH   3   5
ATOM      5  C   UNL     1      24.321  -6.515   6.466  1.00  0.00     0.034 C 
BRANCH   5   6
ATOM      6  C   UNL     1      23.914  -7.987   6.623  1.00  0.00     0.032 C 
BRANCH   6   7
ATOM      7  C   UNL     1      23.144  -8.221   7.901  1.00  0.00    -0.028 C 
ATOM      8  C   UNL     1      24.934  -9.648   8.917  1.00  0.00     0.039 C 
ATOM      9  C   UNL     1      23.575  -8.988   8.926  1.00  0.00    -0.080 C 
ATOM     10  C   UNL     1      22.670  -9.169  10.117  1.00  0.00     0.039 C 
ENDBRANCH   6   7
ENDBRANCH   5   6
ENDBRANCH   3   5
ENDBRANCH   1   2
BRANCH   1  11
ATOM     11  C   UNL     1      23.846  -3.017   8.486  1.00  0.00     0.034 C 
BRANCH  11  12
ATOM     12  C   UNL     1      24.196  -2.709   7.043  1.00  0.00    -0.077 C 
ATOM     13  C   UNL     1      23.346  -2.927   6.013  1.00  0.00    -0.028 C 
ATOM     14  C   UNL     1      25.574  -2.187   6.730  1.00  0.00     0.039 C 
BRANCH  13  15
ATOM     15  C   UNL     1      21.927  -3.423   6.148  1.00  0.00     0.035 C 
BRANCH  15  16
ATOM     16  C   UNL     1      20.911  -2.277   6.047  1.00  0.00     0.079 C 
BRANCH  16  17
ATOM     17  C   UNL     1      20.445  -1.828   7.409  1.00  0.00     0.130 C 
ATOM     18  O   UNL     1      19.887  -2.624   8.148  1.00  0.00    -0.300 OA
ATOM     19  C   UNL     1      20.656  -0.419   7.877  1.00  0.00     0.087 C 
ENDBRANCH  16  17
ENDBRANCH  15  16
ENDBRANCH  13  15
ENDBRANCH  11  12
ENDBRANCH   1  11
TORSDOF 9
ENDMDL
MODEL 3
REMARK VINA RESULT:    -5.412     10.150     13.571
REMARK INTER + INTRA:          -9.704
REMARK INTER:                  -7.838
REMARK INTRA:                  -1.866
REMARK UNBOUND:                -1.445
REMARK SMILES CC(=O)CCC=C(C)CCC=C(C)CCC=C(C)C
REMARK SMILES IDX 10 1 11 2 12 3 13 4 14 5 15 6 16 7 18 8 17 9 19 10 9 11 7 12
REMARK SMILES IDX 6 13 8 14 5 15 4 16 2 17 3 18 1 19
REMARK H PARENT
REMARK Flexibility Score: inf
ROOT
ATOM      1  C   UNL     1      13.943  -7.779  17.150  1.00  0.00     0.032 C 
ENDROOT
BRANCH   1   2
ATOM      2  C   UNL     1      14.586  -6.534  16.591  1.00  0.00    -0.028 C 
ATOM      3  C   UNL     1      15.911  -6.374  16.367  1.00  0.00    -0.077 C 
ATOM      4  C   UNL     1      16.391  -5.042  15.851  1.00  0.00     0.039 C 
BRANCH   3   5
ATOM      5  C   UNL     1      16.927  -7.483  16.581  1.00  0.00     0.034 C 
BRANCH   5   6
ATOM      6  C   UNL     1      18.085  -7.035  17.485  1.00  0.00     0.032 C 
BRANCH   6   7
ATOM      7  C   UNL     1      19.426  -7.430  16.913  1.00  0.00    -0.028 C 
ATOM      8  C   UNL     1      19.635  -9.461  18.363  1.00  0.00     0.039 C 
ATOM      9  C   UNL     1      20.147  -8.498  17.318  1.00  0.00    -0.080 C 
ATOM     10  C   UNL     1      21.495  -8.734  16.688  1.00  0.00     0.039 C 
ENDBRANCH   6   7
ENDBRANCH   5   6
ENDBRANCH   3   5
ENDBRANCH   1   2
BRANCH   1  11
ATOM     11  C   UNL     1      13.540  -7.576  18.616  1.00  0.00     0.034 C 
BRANCH  11  12
ATOM     12  C   UNL     1      14.754  -7.633  19.523  1.00  0.00    -0.077 C 
ATOM     13  C   UNL     1      15.302  -6.537  20.096  1.00  0.00    -0.028 C 
ATOM     14  C   UNL     1      15.420  -8.965  19.754  1.00  0.00     0.039 C 
BRANCH  13  15
ATOM     15  C   UNL     1      14.754  -5.135  19.987  1.00  0.00     0.035 C 
BRANCH  15  16
ATOM     16  C   UNL     1      15.853  -4.078  20.165  1.00  0.00     0.079 C 
BRANCH  16  17
ATOM     17  C   UNL     1      15.432  -2.742  19.608  1.00  0.00     0.130 C 
ATOM     18  O   UNL     1      14.458  -2.675  18.873  1.00  0.00    -0.300 OA
ATOM     19  C   UNL     1      16.183  -1.487  19.942  1.00  0.00     0.087 C 
ENDBRANCH  16  17
ENDBRANCH  15  16
ENDBRANCH  13  15
ENDBRANCH  11  12
ENDBRANCH   1  11
TORSDOF 9
ENDMDL
MODEL 4
REMARK VINA RESULT:    -5.338     11.703     14.901
REMARK INTER + INTRA:          -9.591
REMARK INTER:                  -7.100
REMARK INTRA:                  -2.492
REMARK UNBOUND:                -1.445
REMARK SMILES CC(=O)CCC=C(C)CCC=C(C)CCC=C(C)C
REMARK SMILES IDX 10 1 11 2 12 3 13 4 14 5 15 6 16 7 18 8 17 9 19 10 9 11 7 12
REMARK SMILES IDX 6 13 8 14 5 15 4 16 2 17 3 18 1 19
REMARK H PARENT
REMARK Flexibility Score: inf
ROOT
ATOM      1  C   UNL     1      13.629  -8.134  17.433  1.00  0.00     0.032 C 
ENDROOT
BRANCH   1   2
ATOM      2  C   UNL     1      12.829  -8.695  18.582  1.00  0.00    -0.028 C 
ATOM      3  C   UNL     1      13.171  -8.605  19.888  1.00  0.00    -0.077 C 
ATOM      4  C   UNL     1      12.279  -9.269  20.906  1.00  0.00     0.039 C 
BRANCH   3   5
ATOM      5  C   UNL     1      14.390  -7.841  20.374  1.00  0.00     0.034 C 
BRANCH   5   6
ATOM      6  C   UNL     1      15.675  -8.673  20.253  1.00  0.00     0.032 C 
BRANCH   6   7
ATOM      7  C   UNL     1      16.814  -7.862  19.681  1.00  0.00    -0.028 C 
ATOM      8  C   UNL     1      17.033  -9.298  17.640  1.00  0.00     0.039 C 
ATOM      9  C   UNL     1      17.453  -8.148  18.525  1.00  0.00    -0.080 C 
ATOM     10  C   UNL     1      18.609  -7.275  18.110  1.00  0.00     0.039 C 
ENDBRANCH   6   7
ENDBRANCH   5   6
ENDBRANCH   3   5
ENDBRANCH   1   2
BRANCH   1  11
ATOM     11  C   UNL     1      13.470  -6.612  17.345  1.00  0.00     0.034 C 
BRANCH  11  12
ATOM     12  C   UNL     1      14.808  -5.943  17.087  1.00  0.00    -0.077 C 
ATOM     13  C   UNL     1      15.334  -5.002  17.905  1.00  0.00    -0.028 C 
ATOM     14  C   UNL     1      15.563  -6.301  15.834  1.00  0.00     0.039 C 
BRANCH  13  15
ATOM     15  C   UNL     1      14.724  -4.543  19.207  1.00  0.00     0.035 C 
BRANCH  15  16
ATOM     16  C   UNL     1      15.701  -3.685  20.022  1.00  0.00     0.079 C 
BRANCH  16  17
ATOM     17  C   UNL     1      15.470  -2.213  19.792  1.00  0.00     0.130 C 
ATOM     18  O   UNL     1      14.380  -1.829  19.396  1.00  0.00    -0.300 OA
ATOM     19  C   UNL     1      16.554  -1.207  20.043  1.00  0.00     0.087 C 
ENDBRANCH  16  17
ENDBRANCH  15  16
ENDBRANCH  13  15
ENDBRANCH  11  12
ENDBRANCH   1  11
TORSDOF 9
ENDMDL
MODEL 5
REMARK VINA RESULT:    -5.328      2.392      5.916
REMARK INTER + INTRA:          -9.577
REMARK INTER:                  -7.396
REMARK INTRA:                  -2.181
REMARK UNBOUND:                -1.445
REMARK SMILES CC(=O)CCC=C(C)CCC=C(C)CCC=C(C)C
REMARK SMILES IDX 10 1 11 2 12 3 13 4 14 5 15 6 16 7 18 8 17 9 19 10 9 11 7 12
REMARK SMILES IDX 6 13 8 14 5 15 4 16 2 17 3 18 1 19
REMARK H PARENT
REMARK Flexibility Score: inf
ROOT
ATOM      1  C   UNL     1      26.212  -5.679   6.563  1.00  0.00     0.032 C 
ENDROOT
BRANCH   1   2
ATOM      2  C   UNL     1      27.325  -6.581   7.037  1.00  0.00    -0.028 C 
ATOM      3  C   UNL     1      27.251  -7.929   7.125  1.00  0.00    -0.077 C 
ATOM      4  C   UNL     1      28.443  -8.674   7.670  1.00  0.00     0.039 C 
BRANCH   3   5
ATOM      5  C   UNL     1      26.040  -8.724   6.669  1.00  0.00     0.034 C 
BRANCH   5   6
ATOM      6  C   UNL     1      25.474  -9.604   7.794  1.00  0.00     0.032 C 
BRANCH   6   7
ATOM      7  C   UNL     1      24.756  -8.784   8.839  1.00  0.00    -0.028 C 
ATOM      8  C   UNL     1      22.478  -9.379   7.983  1.00  0.00     0.039 C 
ATOM      9  C   UNL     1      23.413  -8.649   8.918  1.00  0.00    -0.080 C 
ATOM     10  C   UNL     1      22.845  -7.752   9.987  1.00  0.00     0.039 C 
ENDBRANCH   6   7
ENDBRANCH   5   6
ENDBRANCH   3   5
ENDBRANCH   1   2
BRANCH   1  11
ATOM     11  C   UNL     1      25.226  -5.381   7.698  1.00  0.00     0.034 C 
BRANCH  11  12
ATOM     12  C   UNL     1      23.807  -5.287   7.169  1.00  0.00    -0.077 C 
ATOM     13  C   UNL     1      22.903  -4.392   7.630  1.00  0.00    -0.028 C 
ATOM     14  C   UNL     1      23.362  -6.273   6.120  1.00  0.00     0.039 C 
BRANCH  13  15
ATOM     15  C   UNL     1      23.185  -3.324   8.659  1.00  0.00     0.035 C 
BRANCH  15  16
ATOM     16  C   UNL     1      22.355  -2.058   8.407  1.00  0.00     0.079 C 
BRANCH  16  17
ATOM     17  C   UNL     1      22.426  -1.626   6.965  1.00  0.00     0.130 C 
ATOM     18  O   UNL     1      23.491  -1.247   6.501  1.00  0.00    -0.300 OA
ATOM     19  C   UNL     1      21.213  -1.655   6.083  1.00  0.00     0.087 C 
ENDBRANCH  16  17
ENDBRANCH  15  16
ENDBRANCH  13  15
ENDBRANCH  11  12
ENDBRANCH   1  11
TORSDOF 9
ENDMDL
MODEL 6
REMARK VINA RESULT:    -5.273     11.070     13.935
REMARK INTER + INTRA:          -9.492
REMARK INTER:                  -6.990
REMARK INTRA:                  -2.502
REMARK UNBOUND:                -1.445
REMARK SMILES CC(=O)CCC=C(C)CCC=C(C)CCC=C(C)C
REMARK SMILES IDX 10 1 11 2 12 3 13 4 14 5 15 6 16 7 18 8 17 9 19 10 9 11 7 12
REMARK SMILES IDX 6 13 8 14 5 15 4 16 2 17 3 18 1 19
REMARK H PARENT
REMARK Flexibility Score: inf
ROOT
ATOM      1  C   UNL     1      13.045  -8.459  18.270  1.00  0.00     0.032 C 
ENDROOT
BRANCH   1   2
ATOM      2  C   UNL     1      13.880  -7.961  17.116  1.00  0.00    -0.028 C 
ATOM      3  C   UNL     1      14.241  -6.673  16.915  1.00  0.00    -0.077 C 
ATOM      4  C   UNL     1      15.037  -6.341  15.678  1.00  0.00     0.039 C 
BRANCH   3   5
ATOM      5  C   UNL     1      13.911  -5.557  17.891  1.00  0.00     0.034 C 
BRANCH   5   6
ATOM      6  C   UNL     1      15.173  -4.838  18.389  1.00  0.00     0.032 C 
BRANCH   6   7
ATOM      7  C   UNL     1      14.875  -3.424  18.827  1.00  0.00    -0.028 C 
ATOM      8  C   UNL     1      14.302  -4.092  21.173  1.00  0.00     0.039 C 
ATOM      9  C   UNL     1      14.454  -3.077  20.064  1.00  0.00    -0.080 C 
ATOM     10  C   UNL     1      14.147  -1.627  20.336  1.00  0.00     0.039 C 
ENDBRANCH   6   7
ENDBRANCH   5   6
ENDBRANCH   3   5
ENDBRANCH   1   2
BRANCH   1  11
ATOM     11  C   UNL     1      13.902  -9.249  19.267  1.00  0.00     0.034 C 
BRANCH  11  12
ATOM     12  C   UNL     1      14.590  -8.315  20.245  1.00  0.00    -0.077 C 
ATOM     13  C   UNL     1      15.912  -8.032  20.192  1.00  0.00    -0.028 C 
ATOM     14  C   UNL     1      13.778  -7.716  21.364  1.00  0.00     0.039 C 
BRANCH  13  15
ATOM     15  C   UNL     1      16.864  -8.527  19.130  1.00  0.00     0.035 C 
BRANCH  15  16
ATOM     16  C   UNL     1      17.723  -7.390  18.560  1.00  0.00     0.079 C 
BRANCH  16  17
ATOM     17  C   UNL     1      18.294  -7.748  17.212  1.00  0.00     0.130 C 
ATOM     18  O   UNL     1      19.234  -7.107  16.765  1.00  0.00    -0.300 OA
ATOM     19  C   UNL     1      17.734  -8.882  16.406  1.00  0.00     0.087 C 
ENDBRANCH  16  17
ENDBRANCH  15  16
ENDBRANCH  13  15
ENDBRANCH  11  12
ENDBRANCH   1  11
TORSDOF 9
ENDMDL
MODEL 7
REMARK VINA RESULT:    -5.260      2.006      3.493
REMARK INTER + INTRA:          -9.472
REMARK INTER:                  -7.058
REMARK INTRA:                  -2.414
REMARK UNBOUND:                -1.445
REMARK SMILES CC(=O)CCC=C(C)CCC=C(C)CCC=C(C)C
REMARK SMILES IDX 10 1 11 2 12 3 13 4 14 5 15 6 16 7 18 8 17 9 19 10 9 11 7 12
REMARK SMILES IDX 6 13 8 14 5 15 4 16 2 17 3 18 1 19
REMARK H PARENT
REMARK Flexibility Score: inf
ROOT
ATOM      1  C   UNL     1      23.015  -5.207   9.476  1.00  0.00     0.032 C 
ENDROOT
BRANCH   1   2
ATOM      2  C   UNL     1      24.367  -5.501   8.874  1.00  0.00    -0.028 C 
ATOM      3  C   UNL     1      24.658  -5.453   7.554  1.00  0.00    -0.077 C 
ATOM      4  C   UNL     1      26.052  -5.828   7.118  1.00  0.00     0.039 C 
BRANCH   3   5
ATOM      5  C   UNL     1      23.659  -5.010   6.500  1.00  0.00     0.034 C 
BRANCH   5   6
ATOM      6  C   UNL     1      23.815  -3.523   6.150  1.00  0.00     0.032 C 
BRANCH   6   7
ATOM      7  C   UNL     1      22.509  -2.776   6.288  1.00  0.00    -0.028 C 
ATOM      8  C   UNL     1      23.139  -1.743   8.482  1.00  0.00     0.039 C 
ATOM      9  C   UNL     1      22.179  -1.998   7.343  1.00  0.00    -0.080 C 
ATOM     10  C   UNL     1      20.816  -1.357   7.363  1.00  0.00     0.039 C 
ENDBRANCH   6   7
ENDBRANCH   5   6
ENDBRANCH   3   5
ENDBRANCH   1   2
BRANCH   1  11
ATOM     11  C   UNL     1      22.150  -6.472   9.526  1.00  0.00     0.034 C 
BRANCH  11  12
ATOM     12  C   UNL     1      22.593  -7.385  10.654  1.00  0.00    -0.077 C 
ATOM     13  C   UNL     1      22.929  -8.682  10.467  1.00  0.00    -0.028 C 
ATOM     14  C   UNL     1      22.607  -6.840  12.059  1.00  0.00     0.039 C 
BRANCH  13  15
ATOM     15  C   UNL     1      22.989  -9.379   9.130  1.00  0.00     0.035 C 
BRANCH  15  16
ATOM     16  C   UNL     1      24.361  -9.213   8.462  1.00  0.00     0.079 C 
BRANCH  16  17
ATOM     17  C   UNL     1      24.234  -9.052   6.969  1.00  0.00     0.130 C 
ATOM     18  O   UNL     1      25.199  -9.280   6.254  1.00  0.00    -0.300 OA
ATOM     19  C   UNL     1      22.944  -8.620   6.339  1.00  0.00     0.087 C 
ENDBRANCH  16  17
ENDBRANCH  15  16
ENDBRANCH  13  15
ENDBRANCH  11  12
ENDBRANCH   1  11
TORSDOF 9
ENDMDL
MODEL 8
REMARK VINA RESULT:    -5.254     12.289     15.253
REMARK INTER + INTRA:          -9.463
REMARK INTER:                  -6.847
REMARK INTRA:                  -2.616
REMARK UNBOUND:                -1.445
REMARK SMILES CC(=O)CCC=C(C)CCC=C(C)CCC=C(C)C
REMARK SMILES IDX 10 1 11 2 12 3 13 4 14 5 15 6 16 7 18 8 17 9 19 10 9 11 7 12
REMARK SMILES IDX 6 13 8 14 5 15 4 16 2 17 3 18 1 19
REMARK H PARENT
REMARK Flexibility Score: inf
ROOT
ATOM      1  C   UNL     1      15.097  -6.727  16.375  1.00  0.00     0.032 C 
ENDROOT
BRANCH   1   2
ATOM      2  C   UNL     1      13.682  -6.995  16.826  1.00  0.00    -0.028 C 
ATOM      3  C   UNL     1      13.282  -8.072  17.540  1.00  0.00    -0.077 C 
ATOM      4  C   UNL     1      11.816  -8.209  17.863  1.00  0.00     0.039 C 
BRANCH   3   5
ATOM      5  C   UNL     1      14.244  -9.128  18.056  1.00  0.00     0.034 C 
BRANCH   5   6
ATOM      6  C   UNL     1      13.733  -9.791  19.343  1.00  0.00     0.032 C 
BRANCH   6   7
ATOM      7  C   UNL     1      14.019  -8.944  20.561  1.00  0.00    -0.028 C 
ATOM      8  C   UNL     1      11.658  -9.040  21.391  1.00  0.00     0.039 C 
ATOM      9  C   UNL     1      13.092  -8.574  21.472  1.00  0.00    -0.080 C 
ATOM     10  C   UNL     1      13.520  -7.682  22.608  1.00  0.00     0.039 C 
ENDBRANCH   6   7
ENDBRANCH   5   6
ENDBRANCH   3   5
ENDBRANCH   1   2
BRANCH   1  11
ATOM     11  C   UNL     1      15.737  -5.611  17.209  1.00  0.00     0.034 C 
BRANCH  11  12
ATOM     12  C   UNL     1      16.409  -6.179  18.445  1.00  0.00    -0.077 C 
ATOM     13  C   UNL     1      15.923  -6.008  19.696  1.00  0.00    -0.028 C 
ATOM     14  C   UNL     1      17.710  -6.922  18.282  1.00  0.00     0.039 C 
BRANCH  13  15
ATOM     15  C   UNL     1      14.628  -5.311  20.037  1.00  0.00     0.035 C 
BRANCH  15  16
ATOM     16  C   UNL     1      14.869  -4.011  20.817  1.00  0.00     0.079 C 
BRANCH  16  17
ATOM     17  C   UNL     1      15.160  -2.856  19.892  1.00  0.00     0.130 C 
ATOM     18  O   UNL     1      16.165  -2.184  20.065  1.00  0.00    -0.300 OA
ATOM     19  C   UNL     1      14.238  -2.515  18.759  1.00  0.00     0.087 C 
ENDBRANCH  16  17
ENDBRANCH  15  16
ENDBRANCH  13  15
ENDBRANCH  11  12
ENDBRANCH   1  11
TORSDOF 9
ENDMDL
MODEL 9
REMARK VINA RESULT:    -5.215     11.232     14.183
REMARK INTER + INTRA:          -9.404
REMARK INTER:                  -6.863
REMARK INTRA:                  -2.541
REMARK UNBOUND:                -1.445
REMARK SMILES CC(=O)CCC=C(C)CCC=C(C)CCC=C(C)C
REMARK SMILES IDX 10 1 11 2 12 3 13 4 14 5 15 6 16 7 18 8 17 9 19 10 9 11 7 12
REMARK SMILES IDX 6 13 8 14 5 15 4 16 2 17 3 18 1 19
REMARK H PARENT
REMARK Flexibility Score: inf
ROOT
ATOM      1  C   UNL     1      17.616  -6.972  16.634  1.00  0.00     0.032 C 
ENDROOT
BRANCH   1   2
ATOM      2  C   UNL     1      18.016  -7.372  18.033  1.00  0.00    -0.028 C 
ATOM      3  C   UNL     1      17.605  -8.492  18.671  1.00  0.00    -0.077 C 
ATOM      4  C   UNL     1      18.061  -8.712  20.091  1.00  0.00     0.039 C 
BRANCH   3   5
ATOM      5  C   UNL     1      16.736  -9.549  18.012  1.00  0.00     0.034 C 
BRANCH   5   6
ATOM      6  C   UNL     1      15.501  -9.887  18.859  1.00  0.00     0.032 C 
BRANCH   6   7
ATOM      7  C   UNL     1      14.225  -9.422  18.197  1.00  0.00    -0.028 C 
ATOM      8  C   UNL     1      13.280  -8.464  20.310  1.00  0.00     0.039 C 
ATOM      9  C   UNL     1      13.207  -8.809  18.842  1.00  0.00    -0.080 C 
ATOM     10  C   UNL     1      11.974  -8.450  18.054  1.00  0.00     0.039 C 
ENDBRANCH   6   7
ENDBRANCH   5   6
ENDBRANCH   3   5
ENDBRANCH   1   2
BRANCH   1  11
ATOM     11  C   UNL     1      16.797  -5.676  16.646  1.00  0.00     0.034 C 
BRANCH  11  12
ATOM     12  C   UNL     1      15.338  -5.963  16.950  1.00  0.00    -0.077 C 
ATOM     13  C   UNL     1      14.779  -5.747  18.163  1.00  0.00    -0.028 C 
ATOM     14  C   UNL     1      14.482  -6.569  15.868  1.00  0.00     0.039 C 
BRANCH  13  15
ATOM     15  C   UNL     1      15.483  -5.130  19.346  1.00  0.00     0.035 C 
BRANCH  15  16
ATOM     16  C   UNL     1      14.598  -4.099  20.061  1.00  0.00     0.079 C 
BRANCH  16  17
ATOM     17  C   UNL     1      14.755  -2.724  19.463  1.00  0.00     0.130 C 
ATOM     18  O   UNL     1      13.929  -2.319  18.659  1.00  0.00    -0.300 OA
ATOM     19  C   UNL     1      15.906  -1.838  19.837  1.00  0.00     0.087 C 
ENDBRANCH  16  17
ENDBRANCH  15  16
ENDBRANCH  13  15
ENDBRANCH  11  12
ENDBRANCH   1  11
TORSDOF 9
ENDMDL
