MODEL 1
REMARK VINA RESULT:    -7.071      0.000      0.000
REMARK INTER + INTRA:          -9.904
REMARK INTER:                  -9.345
REMARK INTRA:                  -0.559
REMARK UNBOUND:                -0.559
REMARK SMILES CC[C@@H](C=C[C@@H](C)[C@@H]1CC[C@@H]2C3=CC[C@H]4C[C@H](O)CC[C@]4(C)[C@@H]3CC[C@@]21C)C(C)C
REMARK SMILES IDX 6 1 7 2 5 3 4 4 3 5 2 6 1 7 28 8 29 9 30 10 8 11 9 12 26 13
REMARK SMILES IDX 10 14 11 15 25 16 27 17 12 18 24 19 23 20 13 21 21 22 14 23
REMARK SMILES IDX 15 24 20 25 22 26 16 27 19 28 17 29 18 30
REMARK H PARENT 18 31
REMARK Flexibility Score: inf
ROOT
ATOM      1  C   UNL     1      10.995  -8.471  27.304  1.00  0.00     0.012 C 
ATOM      2  C   UNL     1      10.233  -8.224  28.615  1.00  0.00     0.012 C 
ENDROOT
BRANCH   1   3
ATOM      3  C   UNL     1      10.384  -7.607  26.216  1.00  0.00    -0.028 C 
ATOM      4  C   UNL     1      10.230  -6.280  26.361  1.00  0.00    -0.027 C 
BRANCH   4   5
ATOM      5  C   UNL     1       9.465  -5.418  25.371  1.00  0.00     0.014 C 
BRANCH   5   6
ATOM      6  C   UNL     1       8.819  -6.325  24.290  1.00  0.00     0.004 C 
ATOM      7  C   UNL     1       7.546  -5.734  23.689  1.00  0.00     0.004 C 
ENDBRANCH   5   6
BRANCH   5   8
ATOM      8  C   UNL     1      10.320  -4.207  24.841  1.00  0.00    -0.011 C 
ATOM      9  C   UNL     1       9.590  -2.845  24.797  1.00  0.00     0.008 C 
ATOM     10  C   UNL     1      11.627  -4.055  25.639  1.00  0.00     0.008 C 
ENDBRANCH   5   8
ENDBRANCH   4   5
ENDBRANCH   1   3
BRANCH   1  11
ATOM     11  C   UNL     1      11.119  -9.962  26.833  1.00  0.00     0.002 C 
ATOM     12  C   UNL     1      11.428 -11.016  27.899  1.00  0.00     0.005 C 
ATOM     13  C   UNL     1      12.037 -10.341  25.634  1.00  0.00    -0.023 C 
ATOM     14  C   UNL     1      11.781 -12.288  27.103  1.00  0.00     0.009 C 
ATOM     15  C   UNL     1      11.827 -11.875  25.618  1.00  0.00     0.021 C 
ATOM     16  C   UNL     1      13.550  -9.970  25.859  1.00  0.00     0.008 C 
ATOM     17  C   UNL     1      11.508  -9.697  24.331  1.00  0.00     0.012 C 
ATOM     18  C   UNL     1      12.841 -12.659  24.797  1.00  0.00    -0.067 C 
ATOM     19  C   UNL     1      14.581 -11.083  25.595  1.00  0.00     0.009 C 
ATOM     20  C   UNL     1      14.184 -12.022  24.449  1.00  0.00     0.021 C 
ATOM     21  C   UNL     1      12.476 -13.848  24.283  1.00  0.00    -0.027 C 
ATOM     22  C   UNL     1      15.335 -13.036  23.954  1.00  0.00    -0.023 C 
ATOM     23  C   UNL     1      13.401 -14.634  23.408  1.00  0.00     0.031 C 
ATOM     24  C   UNL     1      14.820 -14.513  23.972  1.00  0.00     0.002 C 
ATOM     25  C   UNL     1      16.667 -13.005  24.809  1.00  0.00     0.010 C 
ATOM     26  C   UNL     1      15.708 -12.591  22.503  1.00  0.00     0.012 C 
ATOM     27  C   UNL     1      15.798 -15.498  23.293  1.00  0.00     0.036 C 
ATOM     28  C   UNL     1      17.414 -14.357  24.934  1.00  0.00     0.032 C 
ATOM     29  C   UNL     1      17.278 -15.262  23.695  1.00  0.00     0.114 C 
BRANCH  29  30
ATOM     30  O   UNL     1      17.886 -16.502  23.948  1.00  0.00    -0.393 OA
ATOM     31  H   UNL     1      17.760 -16.695  24.915  1.00  0.00     0.210 HD
ENDBRANCH  29  30
ENDBRANCH   1  11
TORSDOF 6
ENDMDL
MODEL 2
REMARK VINA RESULT:    -6.984      1.975      4.023
REMARK INTER + INTRA:          -9.789
REMARK INTER:                  -8.816
REMARK INTRA:                  -0.973
REMARK UNBOUND:                -0.559
REMARK SMILES CC[C@@H](C=C[C@@H](C)[C@@H]1CC[C@@H]2C3=CC[C@H]4C[C@H](O)CC[C@]4(C)[C@@H]3CC[C@@]21C)C(C)C
REMARK SMILES IDX 6 1 7 2 5 3 4 4 3 5 2 6 1 7 28 8 29 9 30 10 8 11 9 12 26 13
REMARK SMILES IDX 10 14 11 15 25 16 27 17 12 18 24 19 23 20 13 21 21 22 14 23
REMARK SMILES IDX 15 24 20 25 22 26 16 27 19 28 17 29 18 30
REMARK H PARENT 18 31
REMARK Flexibility Score: inf
ROOT
ATOM      1  C   UNL     1      10.655  -8.810  26.004  1.00  0.00     0.012 C 
ATOM      2  C   UNL     1      10.311  -7.710  24.988  1.00  0.00     0.012 C 
ENDROOT
BRANCH   1   3
ATOM      3  C   UNL     1      10.271  -8.328  27.391  1.00  0.00    -0.028 C 
ATOM      4  C   UNL     1       9.242  -8.858  28.072  1.00  0.00    -0.027 C 
BRANCH   4   5
ATOM      5  C   UNL     1       8.724  -8.283  29.380  1.00  0.00     0.014 C 
BRANCH   5   6
ATOM      6  C   UNL     1       8.953  -9.311  30.520  1.00  0.00     0.004 C 
ATOM      7  C   UNL     1       9.858  -8.784  31.633  1.00  0.00     0.004 C 
ENDBRANCH   5   6
BRANCH   5   8
ATOM      8  C   UNL     1       7.267  -7.704  29.248  1.00  0.00    -0.011 C 
ATOM      9  C   UNL     1       6.976  -6.920  27.949  1.00  0.00     0.008 C 
ATOM     10  C   UNL     1       6.209  -8.809  29.420  1.00  0.00     0.008 C 
ENDBRANCH   5   8
ENDBRANCH   4   5
ENDBRANCH   1   3
BRANCH   1  11
ATOM     11  C   UNL     1      12.127  -9.349  25.985  1.00  0.00     0.002 C 
ATOM     12  C   UNL     1      13.074  -8.780  24.925  1.00  0.00     0.005 C 
ATOM     13  C   UNL     1      12.411 -10.881  25.978  1.00  0.00    -0.023 C 
ATOM     14  C   UNL     1      14.309  -9.702  24.966  1.00  0.00     0.009 C 
ATOM     15  C   UNL     1      13.958 -10.860  25.922  1.00  0.00     0.021 C 
ATOM     16  C   UNL     1      11.800 -11.627  24.733  1.00  0.00     0.008 C 
ATOM     17  C   UNL     1      11.913 -11.523  27.293  1.00  0.00     0.012 C 
ATOM     18  C   UNL     1      14.610 -12.183  25.545  1.00  0.00    -0.067 C 
ATOM     19  C   UNL     1      12.752 -12.548  23.946  1.00  0.00     0.009 C 
ATOM     20  C   UNL     1      13.789 -13.252  24.829  1.00  0.00     0.021 C 
ATOM     21  C   UNL     1      15.863 -12.430  25.971  1.00  0.00    -0.027 C 
ATOM     22  C   UNL     1      14.633 -14.421  24.108  1.00  0.00    -0.023 C 
ATOM     23  C   UNL     1      16.534 -13.739  25.695  1.00  0.00     0.031 C 
ATOM     24  C   UNL     1      16.170 -14.179  24.274  1.00  0.00     0.002 C 
ATOM     25  C   UNL     1      14.359 -14.585  22.558  1.00  0.00     0.010 C 
ATOM     26  C   UNL     1      14.199 -15.754  24.798  1.00  0.00     0.012 C 
ATOM     27  C   UNL     1      17.020 -15.381  23.806  1.00  0.00     0.036 C 
ATOM     28  C   UNL     1      15.573 -15.042  21.709  1.00  0.00     0.032 C 
ATOM     29  C   UNL     1      16.541 -15.979  22.455  1.00  0.00     0.114 C 
BRANCH  29  30
ATOM     30  O   UNL     1      17.659 -16.240  21.649  1.00  0.00    -0.393 OA
ATOM     31  H   UNL     1      17.353 -16.198  20.705  1.00  0.00     0.210 HD
ENDBRANCH  29  30
ENDBRANCH   1  11
TORSDOF 6
ENDMDL
MODEL 3
REMARK VINA RESULT:    -6.869      2.002      4.047
REMARK INTER + INTRA:          -9.636
REMARK INTER:                  -8.757
REMARK INTRA:                  -0.879
REMARK UNBOUND:                -0.559
REMARK SMILES CC[C@@H](C=C[C@@H](C)[C@@H]1CC[C@@H]2C3=CC[C@H]4C[C@H](O)CC[C@]4(C)[C@@H]3CC[C@@]21C)C(C)C
REMARK SMILES IDX 6 1 7 2 5 3 4 4 3 5 2 6 1 7 28 8 29 9 30 10 8 11 9 12 26 13
REMARK SMILES IDX 10 14 11 15 25 16 27 17 12 18 24 19 23 20 13 21 21 22 14 23
REMARK SMILES IDX 15 24 20 25 22 26 16 27 19 28 17 29 18 30
REMARK H PARENT 18 31
REMARK Flexibility Score: inf
ROOT
ATOM      1  C   UNL     1      11.775 -10.414  25.622  1.00  0.00     0.012 C 
ATOM      2  C   UNL     1      11.876  -9.276  24.594  1.00  0.00     0.012 C 
ENDROOT
BRANCH   1   3
ATOM      3  C   UNL     1      11.308  -9.834  26.945  1.00  0.00    -0.028 C 
ATOM      4  C   UNL     1      10.265  -8.990  27.026  1.00  0.00    -0.027 C 
BRANCH   4   5
ATOM      5  C   UNL     1       9.884  -8.258  28.301  1.00  0.00     0.014 C 
BRANCH   5   6
ATOM      6  C   UNL     1       9.870  -9.261  29.485  1.00  0.00     0.004 C 
ATOM      7  C   UNL     1       9.891  -8.580  30.852  1.00  0.00     0.004 C 
ENDBRANCH   5   6
BRANCH   5   8
ATOM      8  C   UNL     1       8.595  -7.372  28.125  1.00  0.00    -0.011 C 
ATOM      9  C   UNL     1       8.497  -6.595  26.793  1.00  0.00     0.008 C 
ATOM     10  C   UNL     1       7.315  -8.204  28.321  1.00  0.00     0.008 C 
ENDBRANCH   5   8
ENDBRANCH   4   5
ENDBRANCH   1   3
BRANCH   1  11
ATOM     11  C   UNL     1      13.055 -11.298  25.819  1.00  0.00     0.002 C 
ATOM     12  C   UNL     1      14.414 -10.641  25.563  1.00  0.00     0.005 C 
ATOM     13  C   UNL     1      13.166 -12.696  25.140  1.00  0.00    -0.023 C 
ATOM     14  C   UNL     1      15.418 -11.810  25.538  1.00  0.00     0.009 C 
ATOM     15  C   UNL     1      14.582 -13.105  25.612  1.00  0.00     0.021 C 
ATOM     16  C   UNL     1      13.075 -12.641  23.570  1.00  0.00     0.008 C 
ATOM     17  C   UNL     1      12.094 -13.653  25.712  1.00  0.00     0.012 C 
ATOM     18  C   UNL     1      15.202 -14.276  24.862  1.00  0.00    -0.067 C 
ATOM     19  C   UNL     1      14.177 -13.381  22.789  1.00  0.00     0.009 C 
ATOM     20  C   UNL     1      14.665 -14.658  23.485  1.00  0.00     0.021 C 
ATOM     21  C   UNL     1      16.122 -15.031  25.489  1.00  0.00    -0.027 C 
ATOM     22  C   UNL     1      15.618 -15.608  22.598  1.00  0.00    -0.023 C 
ATOM     23  C   UNL     1      16.716 -16.238  24.832  1.00  0.00     0.031 C 
ATOM     24  C   UNL     1      16.953 -15.917  23.354  1.00  0.00     0.002 C 
ATOM     25  C   UNL     1      16.018 -15.022  21.183  1.00  0.00     0.010 C 
ATOM     26  C   UNL     1      14.805 -16.918  22.343  1.00  0.00     0.012 C 
ATOM     27  C   UNL     1      17.801 -17.003  22.656  1.00  0.00     0.036 C 
ATOM     28  C   UNL     1      17.427 -15.414  20.670  1.00  0.00     0.032 C 
ATOM     29  C   UNL     1      17.889 -16.814  21.117  1.00  0.00     0.114 C 
BRANCH  29  30
ATOM     30  O   UNL     1      19.213 -17.027  20.706  1.00  0.00    -0.393 OA
ATOM     31  H   UNL     1      19.448 -17.960  20.955  1.00  0.00     0.210 HD
ENDBRANCH  29  30
ENDBRANCH   1  11
TORSDOF 6
ENDMDL
MODEL 4
REMARK VINA RESULT:    -6.749      1.523      2.501
REMARK INTER + INTRA:          -9.478
REMARK INTER:                  -8.416
REMARK INTRA:                  -1.062
REMARK UNBOUND:                -0.559
REMARK SMILES CC[C@@H](C=C[C@@H](C)[C@@H]1CC[C@@H]2C3=CC[C@H]4C[C@H](O)CC[C@]4(C)[C@@H]3CC[C@@]21C)C(C)C
REMARK SMILES IDX 6 1 7 2 5 3 4 4 3 5 2 6 1 7 28 8 29 9 30 10 8 11 9 12 26 13
REMARK SMILES IDX 10 14 11 15 25 16 27 17 12 18 24 19 23 20 13 21 21 22 14 23
REMARK SMILES IDX 15 24 20 25 22 26 16 27 19 28 17 29 18 30
REMARK H PARENT 18 31
REMARK Flexibility Score: inf
ROOT
ATOM      1  C   UNL     1      10.649  -6.785  25.584  1.00  0.00     0.012 C 
ATOM      2  C   UNL     1      11.310  -5.842  26.601  1.00  0.00     0.012 C 
ENDROOT
BRANCH   1   3
ATOM      3  C   UNL     1       9.222  -6.324  25.349  1.00  0.00    -0.028 C 
ATOM      4  C   UNL     1       8.705  -6.202  24.115  1.00  0.00    -0.027 C 
BRANCH   4   5
ATOM      5  C   UNL     1       7.347  -5.578  23.839  1.00  0.00     0.014 C 
BRANCH   5   6
ATOM      6  C   UNL     1       6.315  -6.120  24.863  1.00  0.00     0.004 C 
ATOM      7  C   UNL     1       4.875  -6.057  24.358  1.00  0.00     0.004 C 
ENDBRANCH   5   6
BRANCH   5   8
ATOM      8  C   UNL     1       6.938  -5.673  22.322  1.00  0.00    -0.011 C 
ATOM      9  C   UNL     1       6.673  -4.323  21.618  1.00  0.00     0.008 C 
ATOM     10  C   UNL     1       7.975  -6.471  21.513  1.00  0.00     0.008 C 
ENDBRANCH   5   8
ENDBRANCH   4   5
ENDBRANCH   1   3
BRANCH   1  11
ATOM     11  C   UNL     1      10.696  -8.317  25.912  1.00  0.00     0.002 C 
ATOM     12  C   UNL     1      11.000  -8.721  27.357  1.00  0.00     0.005 C 
ATOM     13  C   UNL     1      11.556  -9.287  25.048  1.00  0.00    -0.023 C 
ATOM     14  C   UNL     1      11.275 -10.236  27.292  1.00  0.00     0.009 C 
ATOM     15  C   UNL     1      11.284 -10.614  25.797  1.00  0.00     0.021 C 
ATOM     16  C   UNL     1      13.090  -8.932  25.044  1.00  0.00     0.008 C 
ATOM     17  C   UNL     1      11.008  -9.345  23.604  1.00  0.00     0.012 C 
ATOM     18  C   UNL     1      12.237 -11.754  25.462  1.00  0.00    -0.067 C 
ATOM     19  C   UNL     1      14.065 -10.083  25.355  1.00  0.00     0.009 C 
ATOM     20  C   UNL     1      13.591 -11.443  24.829  1.00  0.00     0.021 C 
ATOM     21  C   UNL     1      11.807 -13.021  25.609  1.00  0.00    -0.027 C 
ATOM     22  C   UNL     1      14.683 -12.627  24.890  1.00  0.00    -0.023 C 
ATOM     23  C   UNL     1      12.669 -14.184  25.229  1.00  0.00     0.031 C 
ATOM     24  C   UNL     1      14.110 -13.874  25.643  1.00  0.00     0.002 C 
ATOM     25  C   UNL     1      16.044 -12.247  25.603  1.00  0.00     0.010 C 
ATOM     26  C   UNL     1      15.022 -12.979  23.405  1.00  0.00     0.012 C 
ATOM     27  C   UNL     1      15.023 -15.115  25.531  1.00  0.00     0.036 C 
ATOM     28  C   UNL     1      16.741 -13.398  26.373  1.00  0.00     0.032 C 
ATOM     29  C   UNL     1      16.526 -14.789  25.747  1.00  0.00     0.114 C 
BRANCH  29  30
ATOM     30  O   UNL     1      17.092 -15.770  26.575  1.00  0.00    -0.393 OA
ATOM     31  H   UNL     1      17.829 -16.193  26.062  1.00  0.00     0.210 HD
ENDBRANCH  29  30
ENDBRANCH   1  11
TORSDOF 6
ENDMDL
MODEL 5
REMARK VINA RESULT:    -6.721      2.161      4.917
REMARK INTER + INTRA:          -9.442
REMARK INTER:                  -8.349
REMARK INTRA:                  -1.092
REMARK UNBOUND:                -0.559
REMARK SMILES CC[C@@H](C=C[C@@H](C)[C@@H]1CC[C@@H]2C3=CC[C@H]4C[C@H](O)CC[C@]4(C)[C@@H]3CC[C@@]21C)C(C)C
REMARK SMILES IDX 6 1 7 2 5 3 4 4 3 5 2 6 1 7 28 8 29 9 30 10 8 11 9 12 26 13
REMARK SMILES IDX 10 14 11 15 25 16 27 17 12 18 24 19 23 20 13 21 21 22 14 23
REMARK SMILES IDX 15 24 20 25 22 26 16 27 19 28 17 29 18 30
REMARK H PARENT 18 31
REMARK Flexibility Score: inf
ROOT
ATOM      1  C   UNL     1      10.269  -8.885  27.004  1.00  0.00     0.012 C 
ATOM      2  C   UNL     1       9.705  -7.682  26.233  1.00  0.00     0.012 C 
ENDROOT
BRANCH   1   3
ATOM      3  C   UNL     1      10.056  -8.654  28.489  1.00  0.00    -0.028 C 
ATOM      4  C   UNL     1       9.783  -9.661  29.336  1.00  0.00    -0.027 C 
BRANCH   4   5
ATOM      5  C   UNL     1       9.392  -9.444  30.788  1.00  0.00     0.014 C 
BRANCH   5   6
ATOM      6  C   UNL     1      10.049  -8.138  31.308  1.00  0.00     0.004 C 
ATOM      7  C   UNL     1      10.727  -8.304  32.667  1.00  0.00     0.004 C 
ENDBRANCH   5   6
BRANCH   5   8
ATOM      8  C   UNL     1       9.608 -10.730  31.669  1.00  0.00    -0.011 C 
ATOM      9  C   UNL     1       8.424 -11.119  32.583  1.00  0.00     0.008 C 
ATOM     10  C   UNL     1       9.997 -11.941  30.802  1.00  0.00     0.008 C 
ENDBRANCH   5   8
ENDBRANCH   4   5
ENDBRANCH   1   3
BRANCH   1  11
ATOM     11  C   UNL     1      11.758  -9.276  26.705  1.00  0.00     0.002 C 
ATOM     12  C   UNL     1      12.540  -8.388  25.734  1.00  0.00     0.005 C 
ATOM     13  C   UNL     1      12.128 -10.730  26.288  1.00  0.00    -0.023 C 
ATOM     14  C   UNL     1      13.823  -9.183  25.421  1.00  0.00     0.009 C 
ATOM     15  C   UNL     1      13.654 -10.564  26.087  1.00  0.00     0.021 C 
ATOM     16  C   UNL     1      11.421 -11.202  24.963  1.00  0.00     0.008 C 
ATOM     17  C   UNL     1      11.826 -11.711  27.444  1.00  0.00     0.012 C 
ATOM     18  C   UNL     1      14.334 -11.695  25.328  1.00  0.00    -0.067 C 
ATOM     19  C   UNL     1      12.326 -11.820  23.880  1.00  0.00     0.009 C 
ATOM     20  C   UNL     1      13.498 -12.626  24.453  1.00  0.00     0.021 C 
ATOM     21  C   UNL     1      15.640 -11.931  25.553  1.00  0.00    -0.027 C 
ATOM     22  C   UNL     1      14.319 -13.509  23.383  1.00  0.00    -0.023 C 
ATOM     23  C   UNL     1      16.349 -13.072  24.894  1.00  0.00     0.031 C 
ATOM     24  C   UNL     1      15.849 -13.184  23.452  1.00  0.00     0.002 C 
ATOM     25  C   UNL     1      13.877 -13.316  21.876  1.00  0.00     0.010 C 
ATOM     26  C   UNL     1      14.048 -15.002  23.757  1.00  0.00     0.012 C 
ATOM     27  C   UNL     1      16.707 -14.160  22.616  1.00  0.00     0.036 C 
ATOM     28  C   UNL     1      15.008 -13.448  20.824  1.00  0.00     0.032 C 
ATOM     29  C   UNL     1      16.109 -14.452  21.214  1.00  0.00     0.114 C 
BRANCH  29  30
ATOM     30  O   UNL     1      17.139 -14.414  20.261  1.00  0.00    -0.393 OA
ATOM     31  H   UNL     1      17.989 -14.279  20.757  1.00  0.00     0.210 HD
ENDBRANCH  29  30
ENDBRANCH   1  11
TORSDOF 6
ENDMDL
MODEL 6
REMARK VINA RESULT:    -6.543      1.607      3.489
REMARK INTER + INTRA:          -9.206
REMARK INTER:                  -8.690
REMARK INTRA:                  -0.516
REMARK UNBOUND:                -0.559
REMARK SMILES CC[C@@H](C=C[C@@H](C)[C@@H]1CC[C@@H]2C3=CC[C@H]4C[C@H](O)CC[C@]4(C)[C@@H]3CC[C@@]21C)C(C)C
REMARK SMILES IDX 6 1 7 2 5 3 4 4 3 5 2 6 1 7 28 8 29 9 30 10 8 11 9 12 26 13
REMARK SMILES IDX 10 14 11 15 25 16 27 17 12 18 24 19 23 20 13 21 21 22 14 23
REMARK SMILES IDX 15 24 20 25 22 26 16 27 19 28 17 29 18 30
REMARK H PARENT 18 31
REMARK Flexibility Score: inf
ROOT
ATOM      1  C   UNL     1      11.575 -10.266  25.103  1.00  0.00     0.012 C 
ATOM      2  C   UNL     1      11.169 -10.275  23.621  1.00  0.00     0.012 C 
ENDROOT
BRANCH   1   3
ATOM      3  C   UNL     1      11.595  -8.830  25.593  1.00  0.00    -0.028 C 
ATOM      4  C   UNL     1      10.579  -7.982  25.362  1.00  0.00    -0.027 C 
BRANCH   4   5
ATOM      5  C   UNL     1      10.643  -6.498  25.682  1.00  0.00     0.014 C 
BRANCH   5   6
ATOM      6  C   UNL     1      11.448  -6.289  26.992  1.00  0.00     0.004 C 
ATOM      7  C   UNL     1      12.501  -5.188  26.883  1.00  0.00     0.004 C 
ENDBRANCH   5   6
BRANCH   5   8
ATOM      8  C   UNL     1       9.231  -5.805  25.614  1.00  0.00    -0.011 C 
ATOM      9  C   UNL     1       8.514  -5.886  24.248  1.00  0.00     0.008 C 
ATOM     10  C   UNL     1       8.294  -6.341  26.711  1.00  0.00     0.008 C 
ENDBRANCH   5   8
ENDBRANCH   4   5
ENDBRANCH   1   3
BRANCH   1  11
ATOM     11  C   UNL     1      12.909 -11.003  25.471  1.00  0.00     0.002 C 
ATOM     12  C   UNL     1      14.224 -10.306  25.112  1.00  0.00     0.005 C 
ATOM     13  C   UNL     1      13.134 -12.489  25.061  1.00  0.00    -0.023 C 
ATOM     14  C   UNL     1      15.308 -11.382  25.312  1.00  0.00     0.009 C 
ATOM     15  C   UNL     1      14.564 -12.699  25.614  1.00  0.00     0.021 C 
ATOM     16  C   UNL     1      13.076 -12.727  23.506  1.00  0.00     0.008 C 
ATOM     17  C   UNL     1      12.119 -13.403  25.788  1.00  0.00     0.012 C 
ATOM     18  C   UNL     1      15.282 -13.939  25.096  1.00  0.00    -0.067 C 
ATOM     19  C   UNL     1      14.245 -13.514  22.885  1.00  0.00     0.009 C 
ATOM     20  C   UNL     1      14.805 -14.604  23.808  1.00  0.00     0.021 C 
ATOM     21  C   UNL     1      16.239 -14.497  25.860  1.00  0.00    -0.027 C 
ATOM     22  C   UNL     1      15.844 -15.627  23.120  1.00  0.00    -0.023 C 
ATOM     23  C   UNL     1      16.932 -15.756  25.442  1.00  0.00     0.031 C 
ATOM     24  C   UNL     1      17.179 -15.694  23.932  1.00  0.00     0.002 C 
ATOM     25  C   UNL     1      16.233 -15.281  21.625  1.00  0.00     0.010 C 
ATOM     26  C   UNL     1      15.131 -17.017  23.101  1.00  0.00     0.012 C 
ATOM     27  C   UNL     1      18.117 -16.824  23.453  1.00  0.00     0.036 C 
ATOM     28  C   UNL     1      17.678 -15.654  21.206  1.00  0.00     0.032 C 
ATOM     29  C   UNL     1      18.227 -16.911  21.907  1.00  0.00     0.114 C 
BRANCH  29  30
ATOM     30  O   UNL     1      19.572 -17.098  21.554  1.00  0.00    -0.393 OA
ATOM     31  H   UNL     1      19.655 -16.869  20.591  1.00  0.00     0.210 HD
ENDBRANCH  29  30
ENDBRANCH   1  11
TORSDOF 6
ENDMDL
MODEL 7
REMARK VINA RESULT:    -6.460      2.950      5.532
REMARK INTER + INTRA:          -9.096
REMARK INTER:                  -8.634
REMARK INTRA:                  -0.462
REMARK UNBOUND:                -0.559
REMARK SMILES CC[C@@H](C=C[C@@H](C)[C@@H]1CC[C@@H]2C3=CC[C@H]4C[C@H](O)CC[C@]4(C)[C@@H]3CC[C@@]21C)C(C)C
REMARK SMILES IDX 6 1 7 2 5 3 4 4 3 5 2 6 1 7 28 8 29 9 30 10 8 11 9 12 26 13
REMARK SMILES IDX 10 14 11 15 25 16 27 17 12 18 24 19 23 20 13 21 21 22 14 23
REMARK SMILES IDX 15 24 20 25 22 26 16 27 19 28 17 29 18 30
REMARK H PARENT 18 31
REMARK Flexibility Score: inf
ROOT
ATOM      1  C   UNL     1      13.203 -13.989  26.243  1.00  0.00     0.012 C 
ATOM      2  C   UNL     1      12.506 -14.738  27.389  1.00  0.00     0.012 C 
ENDROOT
BRANCH   1   3
ATOM      3  C   UNL     1      12.276 -12.896  25.742  1.00  0.00    -0.028 C 
ATOM      4  C   UNL     1      12.454 -11.605  26.067  1.00  0.00    -0.027 C 
BRANCH   4   5
ATOM      5  C   UNL     1      11.450 -10.515  25.731  1.00  0.00     0.014 C 
BRANCH   5   6
ATOM      6  C   UNL     1      11.752  -9.956  24.315  1.00  0.00     0.004 C 
ATOM      7  C   UNL     1      11.014 -10.698  23.203  1.00  0.00     0.004 C 
ENDBRANCH   5   6
BRANCH   5   8
ATOM      8  C   UNL     1      11.305  -9.452  26.882  1.00  0.00    -0.011 C 
ATOM      9  C   UNL     1      10.587  -8.141  26.493  1.00  0.00     0.008 C 
ATOM     10  C   UNL     1      10.616 -10.059  28.118  1.00  0.00     0.008 C 
ENDBRANCH   5   8
ENDBRANCH   4   5
ENDBRANCH   1   3
BRANCH   1  11
ATOM     11  C   UNL     1      13.734 -14.862  25.053  1.00  0.00     0.002 C 
ATOM     12  C   UNL     1      15.158 -15.413  25.161  1.00  0.00     0.005 C 
ATOM     13  C   UNL     1      13.624 -14.353  23.585  1.00  0.00    -0.023 C 
ATOM     14  C   UNL     1      15.481 -15.946  23.753  1.00  0.00     0.009 C 
ATOM     15  C   UNL     1      14.302 -15.534  22.848  1.00  0.00     0.021 C 
ATOM     16  C   UNL     1      14.388 -13.001  23.331  1.00  0.00     0.008 C 
ATOM     17  C   UNL     1      12.139 -14.224  23.174  1.00  0.00     0.012 C 
ATOM     18  C   UNL     1      14.707 -15.251  21.408  1.00  0.00    -0.067 C 
ATOM     19  C   UNL     1      15.344 -12.964  22.124  1.00  0.00     0.009 C 
ATOM     20  C   UNL     1      14.860 -13.807  20.937  1.00  0.00     0.021 C 
ATOM     21  C   UNL     1      14.792 -16.281  20.546  1.00  0.00    -0.027 C 
ATOM     22  C   UNL     1      15.675 -13.599  19.562  1.00  0.00    -0.023 C 
ATOM     23  C   UNL     1      15.114 -16.062  19.101  1.00  0.00     0.031 C 
ATOM     24  C   UNL     1      16.183 -14.970  19.004  1.00  0.00     0.002 C 
ATOM     25  C   UNL     1      16.939 -12.651  19.670  1.00  0.00     0.010 C 
ATOM     26  C   UNL     1      14.677 -12.925  18.566  1.00  0.00     0.012 C 
ATOM     27  C   UNL     1      16.768 -14.858  17.579  1.00  0.00     0.036 C 
ATOM     28  C   UNL     1      18.127 -13.012  18.742  1.00  0.00     0.032 C 
ATOM     29  C   UNL     1      17.703 -13.632  17.397  1.00  0.00     0.114 C 
BRANCH  29  30
ATOM     30  O   UNL     1      18.843 -14.030  16.681  1.00  0.00    -0.393 OA
ATOM     31  H   UNL     1      18.952 -15.006  16.828  1.00  0.00     0.210 HD
ENDBRANCH  29  30
ENDBRANCH   1  11
TORSDOF 6
ENDMDL
MODEL 8
REMARK VINA RESULT:    -6.406      5.846     10.901
REMARK INTER + INTRA:          -9.024
REMARK INTER:                  -8.356
REMARK INTRA:                  -0.669
REMARK UNBOUND:                -0.559
REMARK SMILES CC[C@@H](C=C[C@@H](C)[C@@H]1CC[C@@H]2C3=CC[C@H]4C[C@H](O)CC[C@]4(C)[C@@H]3CC[C@@]21C)C(C)C
REMARK SMILES IDX 6 1 7 2 5 3 4 4 3 5 2 6 1 7 28 8 29 9 30 10 8 11 9 12 26 13
REMARK SMILES IDX 10 14 11 15 25 16 27 17 12 18 24 19 23 20 13 21 21 22 14 23
REMARK SMILES IDX 15 24 20 25 22 26 16 27 19 28 17 29 18 30
REMARK H PARENT 18 31
REMARK Flexibility Score: inf
ROOT
ATOM      1  C   UNL     1      10.684  -3.693  25.020  1.00  0.00     0.012 C 
ATOM      2  C   UNL     1       9.285  -3.340  24.492  1.00  0.00     0.012 C 
ENDROOT
BRANCH   1   3
ATOM      3  C   UNL     1      10.633  -5.072  25.651  1.00  0.00    -0.028 C 
ATOM      4  C   UNL     1       9.730  -5.995  25.278  1.00  0.00    -0.027 C 
BRANCH   4   5
ATOM      5  C   UNL     1       9.537  -7.314  26.006  1.00  0.00     0.014 C 
BRANCH   5   6
ATOM      6  C   UNL     1       8.732  -7.068  27.310  1.00  0.00     0.004 C 
ATOM      7  C   UNL     1       7.428  -6.308  27.079  1.00  0.00     0.004 C 
ENDBRANCH   5   6
BRANCH   5   8
ATOM      8  C   UNL     1      10.881  -8.119  26.159  1.00  0.00    -0.011 C 
ATOM      9  C   UNL     1      10.936  -9.104  27.349  1.00  0.00     0.008 C 
ATOM     10  C   UNL     1      11.230  -8.872  24.863  1.00  0.00     0.008 C 
ENDBRANCH   5   8
ENDBRANCH   4   5
ENDBRANCH   1   3
BRANCH   1  11
ATOM     11  C   UNL     1      11.351  -2.656  25.990  1.00  0.00     0.002 C 
ATOM     12  C   UNL     1      11.065  -1.173  25.745  1.00  0.00     0.005 C 
ATOM     13  C   UNL     1      12.879  -2.714  26.284  1.00  0.00    -0.023 C 
ATOM     14  C   UNL     1      12.073  -0.425  26.637  1.00  0.00     0.009 C 
ATOM     15  C   UNL     1      13.009  -1.497  27.231  1.00  0.00     0.021 C 
ATOM     16  C   UNL     1      13.772  -2.542  24.999  1.00  0.00     0.008 C 
ATOM     17  C   UNL     1      13.233  -4.028  27.019  1.00  0.00     0.012 C 
ATOM     18  C   UNL     1      14.432  -1.006  27.462  1.00  0.00    -0.067 C 
ATOM     19  C   UNL     1      14.900  -1.495  25.077  1.00  0.00     0.009 C 
ATOM     20  C   UNL     1      15.530  -1.382  26.471  1.00  0.00     0.021 C 
ATOM     21  C   UNL     1      14.715  -0.361  28.609  1.00  0.00    -0.027 C 
ATOM     22  C   UNL     1      16.879  -0.503  26.551  1.00  0.00    -0.023 C 
ATOM     23  C   UNL     1      16.108   0.084  28.928  1.00  0.00     0.031 C 
ATOM     24  C   UNL     1      16.754   0.609  27.644  1.00  0.00     0.002 C 
ATOM     25  C   UNL     1      17.286   0.222  25.203  1.00  0.00     0.010 C 
ATOM     26  C   UNL     1      18.026  -1.504  26.901  1.00  0.00     0.012 C 
ATOM     27  C   UNL     1      18.092   1.330  27.923  1.00  0.00     0.036 C 
ATOM     28  C   UNL     1      17.993   1.592  25.368  1.00  0.00     0.032 C 
ATOM     29  C   UNL     1      18.870   1.695  26.630  1.00  0.00     0.114 C 
BRANCH  29  30
ATOM     30  O   UNL     1      19.369   3.001  26.751  1.00  0.00    -0.393 OA
ATOM     31  H   UNL     1      18.709   3.516  27.286  1.00  0.00     0.210 HD
ENDBRANCH  29  30
ENDBRANCH   1  11
TORSDOF 6
ENDMDL
MODEL 9
REMARK VINA RESULT:    -6.219      5.033      8.745
REMARK INTER + INTRA:          -8.777
REMARK INTER:                  -7.762
REMARK INTRA:                  -1.016
REMARK UNBOUND:                -0.559
REMARK SMILES CC[C@@H](C=C[C@@H](C)[C@@H]1CC[C@@H]2C3=CC[C@H]4C[C@H](O)CC[C@]4(C)[C@@H]3CC[C@@]21C)C(C)C
REMARK SMILES IDX 6 1 7 2 5 3 4 4 3 5 2 6 1 7 28 8 29 9 30 10 8 11 9 12 26 13
REMARK SMILES IDX 10 14 11 15 25 16 27 17 12 18 24 19 23 20 13 21 21 22 14 23
REMARK SMILES IDX 15 24 20 25 22 26 16 27 19 28 17 29 18 30
REMARK H PARENT 18 31
REMARK Flexibility Score: inf
ROOT
ATOM      1  C   UNL     1      17.964 -13.134  17.774  1.00  0.00     0.012 C 
ATOM      2  C   UNL     1      19.420 -13.495  17.439  1.00  0.00     0.012 C 
ENDROOT
BRANCH   1   3
ATOM      3  C   UNL     1      17.927 -11.718  18.320  1.00  0.00    -0.028 C 
ATOM      4  C   UNL     1      19.045 -10.997  18.510  1.00  0.00    -0.027 C 
BRANCH   4   5
ATOM      5  C   UNL     1      19.057  -9.651  19.216  1.00  0.00     0.014 C 
BRANCH   5   6
ATOM      6  C   UNL     1      19.481  -9.850  20.696  1.00  0.00     0.004 C 
ATOM      7  C   UNL     1      20.543 -10.933  20.878  1.00  0.00     0.004 C 
ENDBRANCH   5   6
BRANCH   5   8
ATOM      8  C   UNL     1      17.735  -8.833  18.975  1.00  0.00    -0.011 C 
ATOM      9  C   UNL     1      17.360  -7.830  20.090  1.00  0.00     0.008 C 
ATOM     10  C   UNL     1      17.773  -8.097  17.624  1.00  0.00     0.008 C 
ENDBRANCH   5   8
ENDBRANCH   4   5
ENDBRANCH   1   3
BRANCH   1  11
ATOM     11  C   UNL     1      17.196 -14.120  18.720  1.00  0.00     0.002 C 
ATOM     12  C   UNL     1      15.700 -14.324  18.465  1.00  0.00     0.005 C 
ATOM     13  C   UNL     1      17.311 -13.986  20.268  1.00  0.00    -0.023 C 
ATOM     14  C   UNL     1      15.189 -15.079  19.707  1.00  0.00     0.009 C 
ATOM     15  C   UNL     1      16.366 -15.133  20.701  1.00  0.00     0.021 C 
ATOM     16  C   UNL     1      16.817 -12.595  20.816  1.00  0.00     0.008 C 
ATOM     17  C   UNL     1      18.763 -14.263  20.722  1.00  0.00     0.012 C 
ATOM     18  C   UNL     1      15.935 -15.101  22.161  1.00  0.00    -0.067 C 
ATOM     19  C   UNL     1      15.812 -12.631  21.983  1.00  0.00     0.009 C 
ATOM     20  C   UNL     1      16.043 -13.798  22.950  1.00  0.00     0.021 C 
ATOM     21  C   UNL     1      15.593 -16.256  22.760  1.00  0.00    -0.027 C 
ATOM     22  C   UNL     1      15.200 -13.737  24.323  1.00  0.00    -0.023 C 
ATOM     23  C   UNL     1      15.229 -16.302  24.211  1.00  0.00     0.031 C 
ATOM     24  C   UNL     1      14.395 -15.062  24.540  1.00  0.00     0.002 C 
ATOM     25  C   UNL     1      14.159 -12.548  24.416  1.00  0.00     0.010 C 
ATOM     26  C   UNL     1      16.247 -13.526  25.463  1.00  0.00     0.012 C 
ATOM     27  C   UNL     1      13.755 -15.151  25.943  1.00  0.00     0.036 C 
ATOM     28  C   UNL     1      12.867 -12.851  25.217  1.00  0.00     0.032 C 
ATOM     29  C   UNL     1      13.072 -13.830  26.388  1.00  0.00     0.114 C 
BRANCH  29  30
ATOM     30  O   UNL     1      11.833 -14.131  26.974  1.00  0.00    -0.393 OA
ATOM     31  H   UNL     1      11.999 -14.287  27.941  1.00  0.00     0.210 HD
ENDBRANCH  29  30
ENDBRANCH   1  11
TORSDOF 6
ENDMDL
