MODEL 1
REMARK VINA RESULT:    -4.537      0.000      0.000
REMARK INTER + INTRA:          -5.245
REMARK INTER:                  -5.200
REMARK INTRA:                  -0.045
REMARK UNBOUND:                -0.045
REMARK SMILES O=C([O-])c1cc(O)c(O)c(O)c1
REMARK SMILES IDX 4 1 5 2 12 3 6 4 10 5 8 6 2 7 1 8 3 9 7 10 11 12 9 14
REMARK H PARENT 7 11 11 13 9 15
REMARK Flexibility Score: inf
ROOT
ATOM      1  C   UNL     1     223.373 128.026 216.841  1.00  0.00     0.005 A 
ATOM      2  C   UNL     1     223.188 129.298 216.272  1.00  0.00     0.060 A 
ATOM      3  C   UNL     1     222.527 126.974 216.448  1.00  0.00     0.060 A 
ATOM      4  C   UNL     1     222.175 129.519 215.328  1.00  0.00     0.162 A 
ATOM      5  C   UNL     1     221.514 127.189 215.505  1.00  0.00     0.162 A 
ATOM      6  C   UNL     1     221.335 128.460 214.943  1.00  0.00     0.200 A 
ENDROOT
BRANCH   1   7
ATOM      7  C   UNL     1     224.444 127.802 217.836  1.00  0.00     0.072 C 
ATOM      8  O   UNL     1     224.246 128.042 219.057  1.00  0.00    -0.545 OA
ATOM      9  O   UNL     1     225.687 127.324 217.438  1.00  0.00    -0.545 OA
ENDBRANCH   1   7
BRANCH   4  10
ATOM     10  O   UNL     1     222.001 130.784 214.771  1.00  0.00    -0.504 OA
ATOM     11  H   UNL     1     222.295 130.992 213.823  1.00  0.00     0.293 HD
ENDBRANCH   4  10
BRANCH   5  12
ATOM     12  O   UNL     1     220.677 126.143 215.120  1.00  0.00    -0.504 OA
ATOM     13  H   UNL     1     219.790 125.976 215.582  1.00  0.00     0.293 HD
ENDBRANCH   5  12
BRANCH   6  14
ATOM     14  O   UNL     1     220.321 128.654 214.005  1.00  0.00    -0.502 OA
ATOM     15  H   UNL     1     219.892 127.883 213.508  1.00  0.00     0.293 HD
ENDBRANCH   6  14
TORSDOF 4
ENDMDL
MODEL 2
REMARK VINA RESULT:    -4.510      0.071      2.422
REMARK INTER + INTRA:          -5.213
REMARK INTER:                  -5.169
REMARK INTRA:                  -0.045
REMARK UNBOUND:                -0.045
REMARK SMILES O=C([O-])c1cc(O)c(O)c(O)c1
REMARK SMILES IDX 4 1 5 2 12 3 6 4 10 5 8 6 2 7 1 8 3 9 7 10 11 12 9 14
REMARK H PARENT 7 11 11 13 9 15
REMARK Flexibility Score: inf
ROOT
ATOM      1  C   UNL     1     223.433 128.060 216.811  1.00  0.00     0.005 A 
ATOM      2  C   UNL     1     222.590 127.006 216.422  1.00  0.00     0.060 A 
ATOM      3  C   UNL     1     223.235 129.335 216.252  1.00  0.00     0.060 A 
ATOM      4  C   UNL     1     221.565 127.217 215.489  1.00  0.00     0.162 A 
ATOM      5  C   UNL     1     222.212 129.551 215.319  1.00  0.00     0.162 A 
ATOM      6  C   UNL     1     221.375 128.495 214.935  1.00  0.00     0.200 A 
ENDROOT
BRANCH   1   7
ATOM      7  C   UNL     1     224.512 127.829 217.797  1.00  0.00     0.072 C 
ATOM      8  O   UNL     1     224.329 128.078 219.018  1.00  0.00    -0.545 OA
ATOM      9  O   UNL     1     225.746 127.335 217.388  1.00  0.00    -0.545 OA
ENDBRANCH   1   7
BRANCH   4  10
ATOM     10  O   UNL     1     220.735 126.164 215.110  1.00  0.00    -0.504 OA
ATOM     11  H   UNL     1     221.021 125.488 214.411  1.00  0.00     0.293 HD
ENDBRANCH   4  10
BRANCH   5  12
ATOM     12  O   UNL     1     222.020 130.816 214.765  1.00  0.00    -0.504 OA
ATOM     13  H   UNL     1     222.779 131.322 214.323  1.00  0.00     0.293 HD
ENDBRANCH   5  12
BRANCH   6  14
ATOM     14  O   UNL     1     220.363 128.730 214.005  1.00  0.00    -0.502 OA
ATOM     15  H   UNL     1     220.562 128.968 213.041  1.00  0.00     0.293 HD
ENDBRANCH   6  14
TORSDOF 4
ENDMDL
MODEL 3
REMARK VINA RESULT:    -4.290     17.585     18.371
REMARK INTER + INTRA:          -4.961
REMARK INTER:                  -4.909
REMARK INTRA:                  -0.053
REMARK UNBOUND:                -0.045
REMARK SMILES O=C([O-])c1cc(O)c(O)c(O)c1
REMARK SMILES IDX 4 1 5 2 12 3 6 4 10 5 8 6 2 7 1 8 3 9 7 10 11 12 9 14
REMARK H PARENT 7 11 11 13 9 15
REMARK Flexibility Score: inf
ROOT
ATOM      1  C   UNL     1     213.347 140.437 226.536  1.00  0.00     0.005 A 
ATOM      2  C   UNL     1     213.815 139.478 225.622  1.00  0.00     0.060 A 
ATOM      3  C   UNL     1     211.986 140.788 226.521  1.00  0.00     0.060 A 
ATOM      4  C   UNL     1     212.939 138.878 224.705  1.00  0.00     0.162 A 
ATOM      5  C   UNL     1     211.107 140.192 225.607  1.00  0.00     0.162 A 
ATOM      6  C   UNL     1     211.580 139.237 224.698  1.00  0.00     0.200 A 
ENDROOT
BRANCH   1   7
ATOM      7  C   UNL     1     214.278 141.064 227.501  1.00  0.00     0.072 C 
ATOM      8  O   UNL     1     213.864 141.922 228.325  1.00  0.00    -0.545 OA
ATOM      9  O   UNL     1     215.623 140.717 227.510  1.00  0.00    -0.545 OA
ENDBRANCH   1   7
BRANCH   4  10
ATOM     10  O   UNL     1     213.414 137.928 223.802  1.00  0.00    -0.504 OA
ATOM     11  H   UNL     1     214.395 137.679 223.761  1.00  0.00     0.293 HD
ENDBRANCH   4  10
BRANCH   5  12
ATOM     12  O   UNL     1     209.759 140.545 225.594  1.00  0.00    -0.504 OA
ATOM     13  H   UNL     1     209.135 140.233 224.858  1.00  0.00     0.293 HD
ENDBRANCH   5  12
BRANCH   6  14
ATOM     14  O   UNL     1     210.690 138.655 223.796  1.00  0.00    -0.502 OA
ATOM     15  H   UNL     1     210.565 139.012 222.855  1.00  0.00     0.293 HD
ENDBRANCH   6  14
TORSDOF 4
ENDMDL
MODEL 4
REMARK VINA RESULT:    -4.285     17.604     18.346
REMARK INTER + INTRA:          -4.957
REMARK INTER:                  -4.904
REMARK INTRA:                  -0.053
REMARK UNBOUND:                -0.045
REMARK SMILES O=C([O-])c1cc(O)c(O)c(O)c1
REMARK SMILES IDX 4 1 5 2 12 3 6 4 10 5 8 6 2 7 1 8 3 9 7 10 11 12 9 14
REMARK H PARENT 7 11 11 13 9 15
REMARK Flexibility Score: inf
ROOT
ATOM      1  C   UNL     1     213.387 140.492 226.538  1.00  0.00     0.005 A 
ATOM      2  C   UNL     1     212.037 140.880 226.506  1.00  0.00     0.060 A 
ATOM      3  C   UNL     1     213.835 139.505 225.643  1.00  0.00     0.060 A 
ATOM      4  C   UNL     1     211.146 140.292 225.596  1.00  0.00     0.162 A 
ATOM      5  C   UNL     1     212.949 138.914 224.732  1.00  0.00     0.162 A 
ATOM      6  C   UNL     1     211.605 139.306 224.706  1.00  0.00     0.200 A 
ENDROOT
BRANCH   1   7
ATOM      7  C   UNL     1     214.321 141.117 227.501  1.00  0.00     0.072 C 
ATOM      8  O   UNL     1     213.901 141.935 228.362  1.00  0.00    -0.545 OA
ATOM      9  O   UNL     1     215.677 140.813 227.467  1.00  0.00    -0.545 OA
ENDBRANCH   1   7
BRANCH   4  10
ATOM     10  O   UNL     1     209.809 140.684 225.573  1.00  0.00    -0.504 OA
ATOM     11  H   UNL     1     209.527 141.588 225.211  1.00  0.00     0.293 HD
ENDBRANCH   4  10
BRANCH   5  12
ATOM     12  O   UNL     1     213.398 137.935 223.848  1.00  0.00    -0.504 OA
ATOM     13  H   UNL     1     212.817 137.600 223.087  1.00  0.00     0.293 HD
ENDBRANCH   5  12
BRANCH   6  14
ATOM     14  O   UNL     1     210.738 138.706 223.792  1.00  0.00    -0.502 OA
ATOM     15  H   UNL     1     210.249 139.240 223.083  1.00  0.00     0.293 HD
ENDBRANCH   6  14
TORSDOF 4
ENDMDL
MODEL 5
REMARK VINA RESULT:    -4.237     17.923     18.991
REMARK INTER + INTRA:          -4.901
REMARK INTER:                  -4.856
REMARK INTRA:                  -0.045
REMARK UNBOUND:                -0.045
REMARK SMILES O=C([O-])c1cc(O)c(O)c(O)c1
REMARK SMILES IDX 4 1 5 2 12 3 6 4 10 5 8 6 2 7 1 8 3 9 7 10 11 12 9 14
REMARK H PARENT 7 11 11 13 9 15
REMARK Flexibility Score: inf
ROOT
ATOM      1  C   UNL     1     213.406 140.170 225.279  1.00  0.00     0.005 A 
ATOM      2  C   UNL     1     214.331 140.167 226.337  1.00  0.00     0.060 A 
ATOM      3  C   UNL     1     212.243 140.950 225.392  1.00  0.00     0.060 A 
ATOM      4  C   UNL     1     214.100 140.930 227.491  1.00  0.00     0.162 A 
ATOM      5  C   UNL     1     212.007 141.714 226.543  1.00  0.00     0.162 A 
ATOM      6  C   UNL     1     212.933 141.706 227.594  1.00  0.00     0.200 A 
ENDROOT
BRANCH   1   7
ATOM      7  C   UNL     1     213.658 139.362 224.065  1.00  0.00     0.072 C 
ATOM      8  O   UNL     1     213.372 138.136 224.040  1.00  0.00    -0.545 OA
ATOM      9  O   UNL     1     214.216 139.946 222.934  1.00  0.00    -0.545 OA
ENDBRANCH   1   7
BRANCH   4  10
ATOM     10  O   UNL     1     215.024 140.919 228.533  1.00  0.00    -0.504 OA
ATOM     11  H   UNL     1     215.400 141.779 228.919  1.00  0.00     0.293 HD
ENDBRANCH   4  10
BRANCH   5  12
ATOM     12  O   UNL     1     210.850 142.485 226.652  1.00  0.00    -0.504 OA
ATOM     13  H   UNL     1     210.656 143.244 226.007  1.00  0.00     0.293 HD
ENDBRANCH   5  12
BRANCH   6  14
ATOM     14  O   UNL     1     212.681 142.473 228.731  1.00  0.00    -0.502 OA
ATOM     15  H   UNL     1     213.024 142.208 229.647  1.00  0.00     0.293 HD
ENDBRANCH   6  14
TORSDOF 4
ENDMDL
MODEL 6
REMARK VINA RESULT:    -4.223      2.014      4.205
REMARK INTER + INTRA:          -4.884
REMARK INTER:                  -4.839
REMARK INTRA:                  -0.045
REMARK UNBOUND:                -0.045
REMARK SMILES O=C([O-])c1cc(O)c(O)c(O)c1
REMARK SMILES IDX 4 1 5 2 12 3 6 4 10 5 8 6 2 7 1 8 3 9 7 10 11 12 9 14
REMARK H PARENT 7 11 11 13 9 15
REMARK Flexibility Score: inf
ROOT
ATOM      1  C   UNL     1     223.105 128.352 216.694  1.00  0.00     0.005 A 
ATOM      2  C   UNL     1     222.866 127.600 215.532  1.00  0.00     0.060 A 
ATOM      3  C   UNL     1     224.363 128.266 217.315  1.00  0.00     0.060 A 
ATOM      4  C   UNL     1     223.865 126.773 214.997  1.00  0.00     0.162 A 
ATOM      5  C   UNL     1     225.364 127.441 216.785  1.00  0.00     0.162 A 
ATOM      6  C   UNL     1     225.119 126.694 215.627  1.00  0.00     0.200 A 
ENDROOT
BRANCH   1   7
ATOM      7  C   UNL     1     222.046 129.222 217.251  1.00  0.00     0.072 C 
ATOM      8  O   UNL     1     221.736 130.301 216.679  1.00  0.00    -0.545 OA
ATOM      9  O   UNL     1     221.379 128.862 218.416  1.00  0.00    -0.545 OA
ENDBRANCH   1   7
BRANCH   4  10
ATOM     10  O   UNL     1     223.616 126.031 213.844  1.00  0.00    -0.504 OA
ATOM     11  H   UNL     1     222.677 125.752 213.584  1.00  0.00     0.293 HD
ENDBRANCH   4  10
BRANCH   5  12
ATOM     12  O   UNL     1     226.610 127.358 217.406  1.00  0.00    -0.504 OA
ATOM     13  H   UNL     1     226.696 127.268 218.413  1.00  0.00     0.293 HD
ENDBRANCH   5  12
BRANCH   6  14
ATOM     14  O   UNL     1     226.128 125.879 215.114  1.00  0.00    -0.502 OA
ATOM     15  H   UNL     1     226.040 124.870 215.078  1.00  0.00     0.293 HD
ENDBRANCH   6  14
TORSDOF 4
ENDMDL
MODEL 7
REMARK VINA RESULT:    -4.222     17.909     18.966
REMARK INTER + INTRA:          -4.883
REMARK INTER:                  -4.838
REMARK INTRA:                  -0.045
REMARK UNBOUND:                -0.045
REMARK SMILES O=C([O-])c1cc(O)c(O)c(O)c1
REMARK SMILES IDX 4 1 5 2 12 3 6 4 10 5 8 6 2 7 1 8 3 9 7 10 11 12 9 14
REMARK H PARENT 7 11 11 13 9 15
REMARK Flexibility Score: inf
ROOT
ATOM      1  C   UNL     1     213.407 140.167 225.259  1.00  0.00     0.005 A 
ATOM      2  C   UNL     1     212.222 140.910 225.389  1.00  0.00     0.060 A 
ATOM      3  C   UNL     1     214.347 140.193 226.303  1.00  0.00     0.060 A 
ATOM      4  C   UNL     1     211.977 141.669 226.543  1.00  0.00     0.162 A 
ATOM      5  C   UNL     1     214.108 140.949 227.458  1.00  0.00     0.162 A 
ATOM      6  C   UNL     1     212.924 141.688 227.581  1.00  0.00     0.200 A 
ENDROOT
BRANCH   1   7
ATOM      7  C   UNL     1     213.658 139.369 224.038  1.00  0.00     0.072 C 
ATOM      8  O   UNL     1     213.388 138.139 224.010  1.00  0.00    -0.545 OA
ATOM      9  O   UNL     1     214.197 139.966 222.904  1.00  0.00    -0.545 OA
ENDBRANCH   1   7
BRANCH   4  10
ATOM     10  O   UNL     1     210.798 142.402 226.661  1.00  0.00    -0.504 OA
ATOM     11  H   UNL     1     210.726 143.192 227.293  1.00  0.00     0.293 HD
ENDBRANCH   4  10
BRANCH   5  12
ATOM     12  O   UNL     1     215.044 140.973 228.491  1.00  0.00    -0.504 OA
ATOM     13  H   UNL     1     215.856 140.365 228.485  1.00  0.00     0.293 HD
ENDBRANCH   5  12
BRANCH   6  14
ATOM     14  O   UNL     1     212.704 142.434 228.739  1.00  0.00    -0.502 OA
ATOM     15  H   UNL     1     213.451 142.659 229.385  1.00  0.00     0.293 HD
ENDBRANCH   6  14
TORSDOF 4
ENDMDL
MODEL 8
REMARK VINA RESULT:    -4.133      2.227      4.069
REMARK INTER + INTRA:          -4.782
REMARK INTER:                  -4.735
REMARK INTRA:                  -0.046
REMARK UNBOUND:                -0.045
REMARK SMILES O=C([O-])c1cc(O)c(O)c(O)c1
REMARK SMILES IDX 4 1 5 2 12 3 6 4 10 5 8 6 2 7 1 8 3 9 7 10 11 12 9 14
REMARK H PARENT 7 11 11 13 9 15
REMARK Flexibility Score: inf
ROOT
ATOM      1  C   UNL     1     223.365 128.438 216.466  1.00  0.00     0.005 A 
ATOM      2  C   UNL     1     224.544 128.200 217.191  1.00  0.00     0.060 A 
ATOM      3  C   UNL     1     223.242 127.910 215.170  1.00  0.00     0.060 A 
ATOM      4  C   UNL     1     225.588 127.448 216.632  1.00  0.00     0.162 A 
ATOM      5  C   UNL     1     224.281 127.158 214.606  1.00  0.00     0.162 A 
ATOM      6  C   UNL     1     225.455 126.925 215.334  1.00  0.00     0.200 A 
ENDROOT
BRANCH   1   7
ATOM      7  C   UNL     1     222.269 129.233 217.064  1.00  0.00     0.072 C 
ATOM      8  O   UNL     1     221.874 130.295 216.514  1.00  0.00    -0.545 OA
ATOM      9  O   UNL     1     221.660 128.819 218.243  1.00  0.00    -0.545 OA
ENDBRANCH   1   7
BRANCH   4  10
ATOM     10  O   UNL     1     226.754 127.218 217.360  1.00  0.00    -0.504 OA
ATOM     11  H   UNL     1     227.267 127.977 217.794  1.00  0.00     0.293 HD
ENDBRANCH   4  10
BRANCH   5  12
ATOM     12  O   UNL     1     224.156 126.637 213.319  1.00  0.00    -0.504 OA
ATOM     13  H   UNL     1     224.966 126.339 212.786  1.00  0.00     0.293 HD
ENDBRANCH   5  12
BRANCH   6  14
ATOM     14  O   UNL     1     226.478 126.173 214.756  1.00  0.00    -0.502 OA
ATOM     15  H   UNL     1     227.453 126.433 214.845  1.00  0.00     0.293 HD
ENDBRANCH   6  14
TORSDOF 4
ENDMDL
MODEL 9
REMARK VINA RESULT:    -4.108      1.381      1.686
REMARK INTER + INTRA:          -4.753
REMARK INTER:                  -4.700
REMARK INTRA:                  -0.053
REMARK UNBOUND:                -0.045
REMARK SMILES O=C([O-])c1cc(O)c(O)c(O)c1
REMARK SMILES IDX 4 1 5 2 12 3 6 4 10 5 8 6 2 7 1 8 3 9 7 10 11 12 9 14
REMARK H PARENT 7 11 11 13 9 15
REMARK Flexibility Score: inf
ROOT
ATOM      1  C   UNL     1     223.115 127.830 216.448  1.00  0.00     0.005 A 
ATOM      2  C   UNL     1     222.661 129.084 216.891  1.00  0.00     0.060 A 
ATOM      3  C   UNL     1     222.743 127.383 215.168  1.00  0.00     0.060 A 
ATOM      4  C   UNL     1     221.847 129.880 216.072  1.00  0.00     0.162 A 
ATOM      5  C   UNL     1     221.930 128.175 214.346  1.00  0.00     0.162 A 
ATOM      6  C   UNL     1     221.481 129.423 214.794  1.00  0.00     0.200 A 
ENDROOT
BRANCH   1   7
ATOM      7  C   UNL     1     223.974 126.997 217.318  1.00  0.00     0.072 C 
ATOM      8  O   UNL     1     224.389 125.875 216.924  1.00  0.00    -0.545 OA
ATOM      9  O   UNL     1     224.333 127.440 218.586  1.00  0.00    -0.545 OA
ENDBRANCH   1   7
BRANCH   4  10
ATOM     10  O   UNL     1     221.402 131.122 216.522  1.00  0.00    -0.504 OA
ATOM     11  H   UNL     1     221.572 131.970 215.993  1.00  0.00     0.293 HD
ENDBRANCH   4  10
BRANCH   5  12
ATOM     12  O   UNL     1     221.563 127.726 213.078  1.00  0.00    -0.504 OA
ATOM     13  H   UNL     1     221.177 128.356 212.383  1.00  0.00     0.293 HD
ENDBRANCH   5  12
BRANCH   6  14
ATOM     14  O   UNL     1     220.672 130.196 213.961  1.00  0.00    -0.502 OA
ATOM     15  H   UNL     1     220.562 129.990 212.975  1.00  0.00     0.293 HD
ENDBRANCH   6  14
TORSDOF 4
ENDMDL
