MODEL 1
REMARK VINA RESULT:    -6.409      0.000      0.000
REMARK INTER + INTRA:          -8.046
REMARK INTER:                  -7.721
REMARK INTRA:                  -0.325
REMARK UNBOUND:                -0.325
REMARK SMILES O=c1c(O)c(-c2ccc(O)c(O)c2)oc2cc(O)cc(O)c12
REMARK SMILES IDX 5 1 3 2 2 3 1 4 22 5 20 6 19 7 17 8 16 9 15 10 14 11 6 12
REMARK SMILES IDX 7 13 8 14 9 15 13 16 11 17 10 18 12 20 4 22 21 24 18 26
REMARK H PARENT 10 19 12 21 4 23 21 25 18 27
REMARK Flexibility Score: inf
ROOT
ATOM      1  C   UNL     1     -20.253  26.703  -1.444  1.00  0.00     0.180 A 
ATOM      2  C   UNL     1     -19.300  26.300  -0.489  1.00  0.00     0.208 A 
ATOM      3  C   UNL     1     -19.240  24.948  -0.119  1.00  0.00     0.238 A 
ATOM      4  O   UNL     1     -18.384  24.573   0.727  1.00  0.00    -0.285 OA
ATOM      5  C   UNL     1     -20.144  24.028  -0.692  1.00  0.00     0.111 A 
ATOM      6  C   UNL     1     -20.152  22.649  -0.371  1.00  0.00     0.134 A 
ATOM      7  C   UNL     1     -21.089  21.799  -0.977  1.00  0.00     0.093 A 
ATOM      8  C   UNL     1     -22.015  22.299  -1.896  1.00  0.00     0.123 A 
ATOM      9  C   UNL     1     -22.010  23.661  -2.218  1.00  0.00     0.094 A 
ATOM     10  C   UNL     1     -21.084  24.523  -1.626  1.00  0.00     0.146 A 
ATOM     11  O   UNL     1     -21.098  25.811  -1.953  1.00  0.00    -0.452 OA
ENDROOT
BRANCH   1  12
ATOM     12  C   UNL     1     -20.365  28.108  -1.900  1.00  0.00     0.025 A 
ATOM     13  C   UNL     1     -21.197  29.026  -1.242  1.00  0.00     0.016 A 
ATOM     14  C   UNL     1     -21.268  30.351  -1.677  1.00  0.00     0.051 A 
ATOM     15  C   UNL     1     -20.503  30.789  -2.763  1.00  0.00     0.157 A 
ATOM     16  C   UNL     1     -19.579  28.548  -2.976  1.00  0.00     0.062 A 
ATOM     17  C   UNL     1     -19.643  29.876  -3.420  1.00  0.00     0.158 A 
BRANCH  15  18
ATOM     18  O   UNL     1     -20.623  32.125  -3.151  1.00  0.00    -0.504 OA
ATOM     19  H   UNL     1     -21.330  32.754  -2.798  1.00  0.00     0.293 HD
ENDBRANCH  15  18
BRANCH  17  20
ATOM     20  O   UNL     1     -18.844  30.241  -4.504  1.00  0.00    -0.504 OA
ATOM     21  H   UNL     1     -18.367  29.582  -5.103  1.00  0.00     0.293 HD
ENDBRANCH  17  20
ENDBRANCH   1  12
BRANCH   2  22
ATOM     22  O   UNL     1     -18.450  27.240   0.100  1.00  0.00    -0.502 OA
ATOM     23  H   UNL     1     -17.536  26.994   0.460  1.00  0.00     0.293 HD
ENDBRANCH   2  22
BRANCH   6  24
ATOM     24  O   UNL     1     -19.241  22.119   0.544  1.00  0.00    -0.507 OA
ATOM     25  H   UNL     1     -19.511  21.890   1.494  1.00  0.00     0.293 HD
ENDBRANCH   6  24
BRANCH   8  26
ATOM     26  O   UNL     1     -22.935  21.435  -2.483  1.00  0.00    -0.508 OA
ATOM     27  H   UNL     1     -23.540  21.737  -3.237  1.00  0.00     0.293 HD
ENDBRANCH   8  26
TORSDOF 6
ENDMDL
MODEL 2
REMARK VINA RESULT:    -6.253      1.590      6.978
REMARK INTER + INTRA:          -7.858
REMARK INTER:                  -7.558
REMARK INTRA:                  -0.299
REMARK UNBOUND:                -0.325
REMARK SMILES O=c1c(O)c(-c2ccc(O)c(O)c2)oc2cc(O)cc(O)c12
REMARK SMILES IDX 5 1 3 2 2 3 1 4 22 5 20 6 19 7 17 8 16 9 15 10 14 11 6 12
REMARK SMILES IDX 7 13 8 14 9 15 13 16 11 17 10 18 12 20 4 22 21 24 18 26
REMARK H PARENT 10 19 12 21 4 23 21 25 18 27
REMARK Flexibility Score: inf
ROOT
ATOM      1  C   UNL     1     -20.953  26.852  -1.940  1.00  0.00     0.180 A 
ATOM      2  C   UNL     1     -19.900  27.396  -2.701  1.00  0.00     0.208 A 
ATOM      3  C   UNL     1     -19.686  28.782  -2.670  1.00  0.00     0.238 A 
ATOM      4  O   UNL     1     -18.739  29.279  -3.338  1.00  0.00    -0.285 OA
ATOM      5  C   UNL     1     -20.536  29.602  -1.899  1.00  0.00     0.111 A 
ATOM      6  C   UNL     1     -20.391  31.008  -1.816  1.00  0.00     0.134 A 
ATOM      7  C   UNL     1     -21.284  31.755  -1.034  1.00  0.00     0.093 A 
ATOM      8  C   UNL     1     -22.317  31.126  -0.334  1.00  0.00     0.123 A 
ATOM      9  C   UNL     1     -22.465  29.737  -0.411  1.00  0.00     0.094 A 
ATOM     10  C   UNL     1     -21.584  28.975  -1.184  1.00  0.00     0.146 A 
ATOM     11  O   UNL     1     -21.744  27.657  -1.236  1.00  0.00    -0.452 OA
ENDROOT
BRANCH   1  12
ATOM     12  C   UNL     1     -21.229  25.398  -1.906  1.00  0.00     0.025 A 
ATOM     13  C   UNL     1     -22.216  24.822  -2.720  1.00  0.00     0.016 A 
ATOM     14  C   UNL     1     -22.443  23.444  -2.687  1.00  0.00     0.051 A 
ATOM     15  C   UNL     1     -21.684  22.615  -1.854  1.00  0.00     0.157 A 
ATOM     16  C   UNL     1     -20.451  24.566  -1.086  1.00  0.00     0.062 A 
ATOM     17  C   UNL     1     -20.670  23.183  -1.045  1.00  0.00     0.158 A 
BRANCH  15  18
ATOM     18  O   UNL     1     -21.963  21.247  -1.864  1.00  0.00    -0.504 OA
ATOM     19  H   UNL     1     -21.414  20.562  -2.363  1.00  0.00     0.293 HD
ENDBRANCH  15  18
BRANCH  17  20
ATOM     20  O   UNL     1     -19.867  22.420  -0.196  1.00  0.00    -0.504 OA
ATOM     21  H   UNL     1     -19.419  21.556  -0.467  1.00  0.00     0.293 HD
ENDBRANCH  17  20
ENDBRANCH   1  12
BRANCH   2  22
ATOM     22  O   UNL     1     -19.102  26.568  -3.496  1.00  0.00    -0.502 OA
ATOM     23  H   UNL     1     -18.518  26.929  -4.239  1.00  0.00     0.293 HD
ENDBRANCH   2  22
BRANCH   6  24
ATOM     24  O   UNL     1     -19.370  31.666  -2.504  1.00  0.00    -0.507 OA
ATOM     25  H   UNL     1     -18.832  31.205  -3.228  1.00  0.00     0.293 HD
ENDBRANCH   6  24
BRANCH   8  26
ATOM     26  O   UNL     1     -23.191  31.890   0.435  1.00  0.00    -0.508 OA
ATOM     27  H   UNL     1     -23.880  32.497   0.007  1.00  0.00     0.293 HD
ENDBRANCH   8  26
TORSDOF 6
ENDMDL
MODEL 3
REMARK VINA RESULT:    -6.242      1.648      7.020
REMARK INTER + INTRA:          -7.845
REMARK INTER:                  -7.593
REMARK INTRA:                  -0.252
REMARK UNBOUND:                -0.325
REMARK SMILES O=c1c(O)c(-c2ccc(O)c(O)c2)oc2cc(O)cc(O)c12
REMARK SMILES IDX 5 1 3 2 2 3 1 4 22 5 20 6 19 7 17 8 16 9 15 10 14 11 6 12
REMARK SMILES IDX 7 13 8 14 9 15 13 16 11 17 10 18 12 20 4 22 21 24 18 26
REMARK H PARENT 10 19 12 21 4 23 21 25 18 27
REMARK Flexibility Score: inf
ROOT
ATOM      1  C   UNL     1     -20.696  27.233  -1.875  1.00  0.00     0.180 A 
ATOM      2  C   UNL     1     -19.656  27.846  -2.600  1.00  0.00     0.208 A 
ATOM      3  C   UNL     1     -19.691  29.235  -2.794  1.00  0.00     0.238 A 
ATOM      4  O   UNL     1     -18.759  29.797  -3.431  1.00  0.00    -0.285 OA
ATOM      5  C   UNL     1     -20.771  29.984  -2.280  1.00  0.00     0.111 A 
ATOM      6  C   UNL     1     -20.884  31.386  -2.435  1.00  0.00     0.134 A 
ATOM      7  C   UNL     1     -21.995  32.058  -1.903  1.00  0.00     0.093 A 
ATOM      8  C   UNL     1     -22.992  31.357  -1.220  1.00  0.00     0.123 A 
ATOM      9  C   UNL     1     -22.885  29.971  -1.063  1.00  0.00     0.094 A 
ATOM     10  C   UNL     1     -21.785  29.284  -1.585  1.00  0.00     0.146 A 
ATOM     11  O   UNL     1     -21.706  27.968  -1.418  1.00  0.00    -0.452 OA
ENDROOT
BRANCH   1  12
ATOM     12  C   UNL     1     -20.720  25.776  -1.612  1.00  0.00     0.025 A 
ATOM     13  C   UNL     1     -19.825  25.181  -0.710  1.00  0.00     0.016 A 
ATOM     14  C   UNL     1     -19.882  23.809  -0.461  1.00  0.00     0.051 A 
ATOM     15  C   UNL     1     -20.837  23.006  -1.093  1.00  0.00     0.157 A 
ATOM     16  C   UNL     1     -21.694  24.978  -2.232  1.00  0.00     0.062 A 
ATOM     17  C   UNL     1     -21.759  23.600  -1.988  1.00  0.00     0.158 A 
BRANCH  15  18
ATOM     18  O   UNL     1     -20.838  21.640  -0.805  1.00  0.00    -0.504 OA
ATOM     19  H   UNL     1     -20.493  21.245   0.058  1.00  0.00     0.293 HD
ENDBRANCH  15  18
BRANCH  17  20
ATOM     20  O   UNL     1     -22.746  22.867  -2.650  1.00  0.00    -0.504 OA
ATOM     21  H   UNL     1     -22.750  21.860  -2.721  1.00  0.00     0.293 HD
ENDBRANCH  17  20
ENDBRANCH   1  12
BRANCH   2  22
ATOM     22  O   UNL     1     -18.623  27.076  -3.140  1.00  0.00    -0.502 OA
ATOM     23  H   UNL     1     -18.691  26.071  -3.240  1.00  0.00     0.293 HD
ENDBRANCH   2  22
BRANCH   6  24
ATOM     24  O   UNL     1     -19.905  32.115  -3.113  1.00  0.00    -0.507 OA
ATOM     25  H   UNL     1     -20.143  32.778  -3.842  1.00  0.00     0.293 HD
ENDBRANCH   6  24
BRANCH   8  26
ATOM     26  O   UNL     1     -24.085  32.047  -0.702  1.00  0.00    -0.508 OA
ATOM     27  H   UNL     1     -24.999  31.617  -0.635  1.00  0.00     0.293 HD
ENDBRANCH   8  26
TORSDOF 6
ENDMDL
MODEL 4
REMARK VINA RESULT:    -6.134      1.668      7.118
REMARK INTER + INTRA:          -7.714
REMARK INTER:                  -7.382
REMARK INTRA:                  -0.332
REMARK UNBOUND:                -0.325
REMARK SMILES O=c1c(O)c(-c2ccc(O)c(O)c2)oc2cc(O)cc(O)c12
REMARK SMILES IDX 5 1 3 2 2 3 1 4 22 5 20 6 19 7 17 8 16 9 15 10 14 11 6 12
REMARK SMILES IDX 7 13 8 14 9 15 13 16 11 17 10 18 12 20 4 22 21 24 18 26
REMARK H PARENT 10 19 12 21 4 23 21 25 18 27
REMARK Flexibility Score: inf
ROOT
ATOM      1  C   UNL     1     -21.378  26.924  -1.536  1.00  0.00     0.180 A 
ATOM      2  C   UNL     1     -22.263  27.703  -0.766  1.00  0.00     0.208 A 
ATOM      3  C   UNL     1     -22.109  29.098  -0.758  1.00  0.00     0.238 A 
ATOM      4  O   UNL     1     -22.902  29.806  -0.081  1.00  0.00    -0.285 OA
ATOM      5  C   UNL     1     -21.064  29.687  -1.500  1.00  0.00     0.111 A 
ATOM      6  C   UNL     1     -20.837  31.084  -1.542  1.00  0.00     0.134 A 
ATOM      7  C   UNL     1     -19.770  31.593  -2.298  1.00  0.00     0.093 A 
ATOM      8  C   UNL     1     -18.928  30.736  -3.009  1.00  0.00     0.123 A 
ATOM      9  C   UNL     1     -19.148  29.355  -2.972  1.00  0.00     0.094 A 
ATOM     10  C   UNL     1     -20.206  28.828  -2.227  1.00  0.00     0.146 A 
ATOM     11  O   UNL     1     -20.396  27.513  -2.212  1.00  0.00    -0.452 OA
ENDROOT
BRANCH   1  12
ATOM     12  C   UNL     1     -21.489  25.450  -1.611  1.00  0.00     0.025 A 
ATOM     13  C   UNL     1     -22.304  24.825  -2.567  1.00  0.00     0.016 A 
ATOM     14  C   UNL     1     -22.375  23.432  -2.633  1.00  0.00     0.051 A 
ATOM     15  C   UNL     1     -21.625  22.636  -1.760  1.00  0.00     0.157 A 
ATOM     16  C   UNL     1     -20.719  24.655  -0.747  1.00  0.00     0.062 A 
ATOM     17  C   UNL     1     -20.782  23.256  -0.806  1.00  0.00     0.158 A 
BRANCH  15  18
ATOM     18  O   UNL     1     -21.744  21.250  -1.874  1.00  0.00    -0.504 OA
ATOM     19  H   UNL     1     -22.520  20.717  -1.508  1.00  0.00     0.293 HD
ENDBRANCH  15  18
BRANCH  17  20
ATOM     20  O   UNL     1     -19.999  22.529   0.092  1.00  0.00    -0.504 OA
ATOM     21  H   UNL     1     -20.373  21.929   0.812  1.00  0.00     0.293 HD
ENDBRANCH  17  20
ENDBRANCH   1  12
BRANCH   2  22
ATOM     22  O   UNL     1     -23.259  27.090   0.000  1.00  0.00    -0.502 OA
ATOM     23  H   UNL     1     -23.211  26.117   0.273  1.00  0.00     0.293 HD
ENDBRANCH   2  22
BRANCH   6  24
ATOM     24  O   UNL     1     -21.660  31.967  -0.842  1.00  0.00    -0.507 OA
ATOM     25  H   UNL     1     -22.478  31.646  -0.337  1.00  0.00     0.293 HD
ENDBRANCH   6  24
BRANCH   8  26
ATOM     26  O   UNL     1     -17.875  31.266  -3.750  1.00  0.00    -0.508 OA
ATOM     27  H   UNL     1     -16.917  30.976  -3.594  1.00  0.00     0.293 HD
ENDBRANCH   8  26
TORSDOF 6
ENDMDL
MODEL 5
REMARK VINA RESULT:    -5.469      1.765      6.841
REMARK INTER + INTRA:          -6.914
REMARK INTER:                  -6.867
REMARK INTRA:                  -0.046
REMARK UNBOUND:                -0.325
REMARK SMILES O=c1c(O)c(-c2ccc(O)c(O)c2)oc2cc(O)cc(O)c12
REMARK SMILES IDX 5 1 3 2 2 3 1 4 22 5 20 6 19 7 17 8 16 9 15 10 14 11 6 12
REMARK SMILES IDX 7 13 8 14 9 15 13 16 11 17 10 18 12 20 4 22 21 24 18 26
REMARK H PARENT 10 19 12 21 4 23 21 25 18 27
REMARK Flexibility Score: inf
ROOT
ATOM      1  C   UNL     1     -20.977  26.733  -1.192  1.00  0.00     0.180 A 
ATOM      2  C   UNL     1     -19.728  27.374  -1.301  1.00  0.00     0.208 A 
ATOM      3  C   UNL     1     -19.669  28.770  -1.178  1.00  0.00     0.238 A 
ATOM      4  O   UNL     1     -18.554  29.354  -1.263  1.00  0.00    -0.285 OA
ATOM      5  C   UNL     1     -20.856  29.503  -0.970  1.00  0.00     0.111 A 
ATOM      6  C   UNL     1     -20.884  30.912  -0.839  1.00  0.00     0.134 A 
ATOM      7  C   UNL     1     -22.107  31.569  -0.642  1.00  0.00     0.093 A 
ATOM      8  C   UNL     1     -23.301  30.846  -0.574  1.00  0.00     0.123 A 
ATOM      9  C   UNL     1     -23.280  29.454  -0.702  1.00  0.00     0.094 A 
ATOM     10  C   UNL     1     -22.071  28.781  -0.896  1.00  0.00     0.146 A 
ATOM     11  O   UNL     1     -22.078  27.457  -1.010  1.00  0.00    -0.452 OA
ENDROOT
BRANCH   1  12
ATOM     12  C   UNL     1     -21.118  25.263  -1.291  1.00  0.00     0.025 A 
ATOM     13  C   UNL     1     -21.955  24.671  -2.250  1.00  0.00     0.016 A 
ATOM     14  C   UNL     1     -22.054  23.281  -2.339  1.00  0.00     0.051 A 
ATOM     15  C   UNL     1     -21.313  22.455  -1.486  1.00  0.00     0.157 A 
ATOM     16  C   UNL     1     -20.357  24.438  -0.448  1.00  0.00     0.062 A 
ATOM     17  C   UNL     1     -20.449  23.042  -0.530  1.00  0.00     0.158 A 
BRANCH  15  18
ATOM     18  O   UNL     1     -21.461  21.074  -1.623  1.00  0.00    -0.504 OA
ATOM     19  H   UNL     1     -21.041  20.397  -1.002  1.00  0.00     0.293 HD
ENDBRANCH  15  18
BRANCH  17  20
ATOM     20  O   UNL     1     -19.673  22.284   0.349  1.00  0.00    -0.504 OA
ATOM     21  H   UNL     1     -20.050  21.613   1.002  1.00  0.00     0.293 HD
ENDBRANCH  17  20
ENDBRANCH   1  12
BRANCH   2  22
ATOM     22  O   UNL     1     -18.573  26.630  -1.558  1.00  0.00    -0.502 OA
ATOM     23  H   UNL     1     -18.072  26.691  -2.435  1.00  0.00     0.293 HD
ENDBRANCH   2  22
BRANCH   6  24
ATOM     24  O   UNL     1     -19.708  31.663  -0.903  1.00  0.00    -0.507 OA
ATOM     25  H   UNL     1     -19.703  32.616  -1.246  1.00  0.00     0.293 HD
ENDBRANCH   6  24
BRANCH   8  26
ATOM     26  O   UNL     1     -24.503  31.522  -0.379  1.00  0.00    -0.508 OA
ATOM     27  H   UNL     1     -24.962  31.538   0.524  1.00  0.00     0.293 HD
ENDBRANCH   8  26
TORSDOF 6
ENDMDL
MODEL 6
REMARK VINA RESULT:    -4.857      1.886      6.776
REMARK INTER + INTRA:          -6.175
REMARK INTER:                  -6.265
REMARK INTRA:                   0.090
REMARK UNBOUND:                -0.325
REMARK SMILES O=c1c(O)c(-c2ccc(O)c(O)c2)oc2cc(O)cc(O)c12
REMARK SMILES IDX 5 1 3 2 2 3 1 4 22 5 20 6 19 7 17 8 16 9 15 10 14 11 6 12
REMARK SMILES IDX 7 13 8 14 9 15 13 16 11 17 10 18 12 20 4 22 21 24 18 26
REMARK H PARENT 10 19 12 21 4 23 21 25 18 27
REMARK Flexibility Score: inf
ROOT
ATOM      1  C   UNL     1     -20.679  26.565  -0.995  1.00  0.00     0.180 A 
ATOM      2  C   UNL     1     -19.369  26.962  -0.665  1.00  0.00     0.208 A 
ATOM      3  C   UNL     1     -19.109  28.322  -0.438  1.00  0.00     0.238 A 
ATOM      4  O   UNL     1     -17.942  28.688  -0.130  1.00  0.00    -0.285 OA
ATOM      5  C   UNL     1     -20.154  29.262  -0.566  1.00  0.00     0.111 A 
ATOM      6  C   UNL     1     -19.975  30.651  -0.358  1.00  0.00     0.134 A 
ATOM      7  C   UNL     1     -21.062  31.524  -0.513  1.00  0.00     0.093 A 
ATOM      8  C   UNL     1     -22.322  31.036  -0.870  1.00  0.00     0.123 A 
ATOM      9  C   UNL     1     -22.505  29.665  -1.076  1.00  0.00     0.094 A 
ATOM     10  C   UNL     1     -21.434  28.779  -0.924  1.00  0.00     0.146 A 
ATOM     11  O   UNL     1     -21.636  27.481  -1.120  1.00  0.00    -0.452 OA
ENDROOT
BRANCH   1  12
ATOM     12  C   UNL     1     -21.036  25.147  -1.229  1.00  0.00     0.025 A 
ATOM     13  C   UNL     1     -21.788  24.757  -2.348  1.00  0.00     0.016 A 
ATOM     14  C   UNL     1     -22.092  23.411  -2.559  1.00  0.00     0.051 A 
ATOM     15  C   UNL     1     -21.644  22.429  -1.670  1.00  0.00     0.157 A 
ATOM     16  C   UNL     1     -20.566  24.162  -0.346  1.00  0.00     0.062 A 
ATOM     17  C   UNL     1     -20.866  22.809  -0.550  1.00  0.00     0.158 A 
BRANCH  15  18
ATOM     18  O   UNL     1     -21.987  21.102  -1.936  1.00  0.00    -0.504 OA
ATOM     19  H   UNL     1     -21.980  20.690  -2.858  1.00  0.00     0.293 HD
ENDBRANCH  15  18
BRANCH  17  20
ATOM     20  O   UNL     1     -20.377  21.886   0.376  1.00  0.00    -0.504 OA
ATOM     21  H   UNL     1     -19.917  22.139   1.238  1.00  0.00     0.293 HD
ENDBRANCH  17  20
ENDBRANCH   1  12
BRANCH   2  22
ATOM     22  O   UNL     1     -18.342  26.017  -0.593  1.00  0.00    -0.502 OA
ATOM     23  H   UNL     1     -18.523  25.023  -0.546  1.00  0.00     0.293 HD
ENDBRANCH   2  22
BRANCH   6  24
ATOM     24  O   UNL     1     -18.729  31.170  -0.002  1.00  0.00    -0.507 OA
ATOM     25  H   UNL     1     -17.873  30.647  -0.147  1.00  0.00     0.293 HD
ENDBRANCH   6  24
BRANCH   8  26
ATOM     26  O   UNL     1     -23.384  31.923  -1.019  1.00  0.00    -0.508 OA
ATOM     27  H   UNL     1     -23.370  32.843  -0.595  1.00  0.00     0.293 HD
ENDBRANCH   8  26
TORSDOF 6
ENDMDL
MODEL 7
REMARK VINA RESULT:    -4.851      1.986      2.665
REMARK INTER + INTRA:          -6.168
REMARK INTER:                  -6.264
REMARK INTRA:                   0.096
REMARK UNBOUND:                -0.325
REMARK SMILES O=c1c(O)c(-c2ccc(O)c(O)c2)oc2cc(O)cc(O)c12
REMARK SMILES IDX 5 1 3 2 2 3 1 4 22 5 20 6 19 7 17 8 16 9 15 10 14 11 6 12
REMARK SMILES IDX 7 13 8 14 9 15 13 16 11 17 10 18 12 20 4 22 21 24 18 26
REMARK H PARENT 10 19 12 21 4 23 21 25 18 27
REMARK Flexibility Score: inf
ROOT
ATOM      1  C   UNL     1     -21.120  27.291  -0.842  1.00  0.00     0.180 A 
ATOM      2  C   UNL     1     -19.799  27.261  -0.357  1.00  0.00     0.208 A 
ATOM      3  C   UNL     1     -19.128  26.031  -0.289  1.00  0.00     0.238 A 
ATOM      4  O   UNL     1     -17.940  25.994   0.132  1.00  0.00    -0.285 OA
ATOM      5  C   UNL     1     -19.794  24.852  -0.685  1.00  0.00     0.111 A 
ATOM      6  C   UNL     1     -19.191  23.571  -0.644  1.00  0.00     0.134 A 
ATOM      7  C   UNL     1     -19.923  22.445  -1.047  1.00  0.00     0.093 A 
ATOM      8  C   UNL     1     -21.243  22.572  -1.489  1.00  0.00     0.123 A 
ATOM      9  C   UNL     1     -21.843  23.835  -1.532  1.00  0.00     0.094 A 
ATOM     10  C   UNL     1     -21.129  24.970  -1.137  1.00  0.00     0.146 A 
ATOM     11  O   UNL     1     -21.722  26.158  -1.193  1.00  0.00    -0.452 OA
ENDROOT
BRANCH   1  12
ATOM     12  C   UNL     1     -21.887  28.553  -0.962  1.00  0.00     0.025 A 
ATOM     13  C   UNL     1     -21.286  29.732  -1.429  1.00  0.00     0.016 A 
ATOM     14  C   UNL     1     -22.035  30.903  -1.556  1.00  0.00     0.051 A 
ATOM     15  C   UNL     1     -23.396  30.920  -1.233  1.00  0.00     0.157 A 
ATOM     16  C   UNL     1     -23.257  28.560  -0.658  1.00  0.00     0.062 A 
ATOM     17  C   UNL     1     -24.017  29.730  -0.782  1.00  0.00     0.158 A 
BRANCH  15  18
ATOM     18  O   UNL     1     -24.087  32.124  -1.377  1.00  0.00    -0.504 OA
ATOM     19  H   UNL     1     -24.356  32.716  -0.605  1.00  0.00     0.293 HD
ENDBRANCH  15  18
BRANCH  17  20
ATOM     20  O   UNL     1     -25.372  29.667  -0.449  1.00  0.00    -0.504 OA
ATOM     21  H   UNL     1     -25.945  28.845  -0.569  1.00  0.00     0.293 HD
ENDBRANCH  17  20
ENDBRANCH   1  12
BRANCH   2  22
ATOM     22  O   UNL     1     -19.179  28.437   0.075  1.00  0.00    -0.502 OA
ATOM     23  H   UNL     1     -18.827  29.134  -0.569  1.00  0.00     0.293 HD
ENDBRANCH   2  22
BRANCH   6  24
ATOM     24  O   UNL     1     -17.876  23.411  -0.206  1.00  0.00    -0.507 OA
ATOM     25  H   UNL     1     -17.091  23.463  -0.846  1.00  0.00     0.293 HD
ENDBRANCH   6  24
BRANCH   8  26
ATOM     26  O   UNL     1     -21.948  21.438  -1.881  1.00  0.00    -0.508 OA
ATOM     27  H   UNL     1     -22.762  21.116  -1.371  1.00  0.00     0.293 HD
ENDBRANCH   8  26
TORSDOF 6
ENDMDL
MODEL 8
REMARK VINA RESULT:    -4.741      1.430      6.700
REMARK INTER + INTRA:          -6.036
REMARK INTER:                  -6.511
REMARK INTRA:                   0.476
REMARK UNBOUND:                -0.325
REMARK SMILES O=c1c(O)c(-c2ccc(O)c(O)c2)oc2cc(O)cc(O)c12
REMARK SMILES IDX 5 1 3 2 2 3 1 4 22 5 20 6 19 7 17 8 16 9 15 10 14 11 6 12
REMARK SMILES IDX 7 13 8 14 9 15 13 16 11 17 10 18 12 20 4 22 21 24 18 26
REMARK H PARENT 10 19 12 21 4 23 21 25 18 27
REMARK Flexibility Score: inf
ROOT
ATOM      1  C   UNL     1     -20.232  26.378  -1.322  1.00  0.00     0.180 A 
ATOM      2  C   UNL     1     -19.479  26.674  -0.169  1.00  0.00     0.208 A 
ATOM      3  C   UNL     1     -18.936  27.959  -0.025  1.00  0.00     0.238 A 
ATOM      4  O   UNL     1     -18.269  28.239   1.008  1.00  0.00    -0.285 OA
ATOM      5  C   UNL     1     -19.135  28.918  -1.041  1.00  0.00     0.111 A 
ATOM      6  C   UNL     1     -18.618  30.234  -0.975  1.00  0.00     0.134 A 
ATOM      7  C   UNL     1     -18.853  31.127  -2.031  1.00  0.00     0.093 A 
ATOM      8  C   UNL     1     -19.592  30.732  -3.149  1.00  0.00     0.123 A 
ATOM      9  C   UNL     1     -20.106  29.432  -3.219  1.00  0.00     0.094 A 
ATOM     10  C   UNL     1     -19.885  28.529  -2.176  1.00  0.00     0.146 A 
ATOM     11  O   UNL     1     -20.388  27.302  -2.265  1.00  0.00    -0.452 OA
ENDROOT
BRANCH   1  12
ATOM     12  C   UNL     1     -20.854  25.051  -1.536  1.00  0.00     0.025 A 
ATOM     13  C   UNL     1     -21.825  24.850  -2.529  1.00  0.00     0.016 A 
ATOM     14  C   UNL     1     -22.380  23.585  -2.728  1.00  0.00     0.051 A 
ATOM     15  C   UNL     1     -21.970  22.495  -1.953  1.00  0.00     0.157 A 
ATOM     16  C   UNL     1     -20.425  23.956  -0.771  1.00  0.00     0.062 A 
ATOM     17  C   UNL     1     -20.975  22.682  -0.963  1.00  0.00     0.158 A 
BRANCH  15  18
ATOM     18  O   UNL     1     -22.568  21.257  -2.198  1.00  0.00    -0.504 OA
ATOM     19  H   UNL     1     -23.564  21.095  -2.168  1.00  0.00     0.293 HD
ENDBRANCH  15  18
BRANCH  17  20
ATOM     20  O   UNL     1     -20.510  21.641  -0.157  1.00  0.00    -0.504 OA
ATOM     21  H   UNL     1     -21.052  21.207   0.575  1.00  0.00     0.293 HD
ENDBRANCH  17  20
ENDBRANCH   1  12
BRANCH   2  22
ATOM     22  O   UNL     1     -19.255  25.691   0.799  1.00  0.00    -0.502 OA
ATOM     23  H   UNL     1     -19.687  25.723   1.714  1.00  0.00     0.293 HD
ENDBRANCH   2  22
BRANCH   6  24
ATOM     24  O   UNL     1     -17.875  30.660   0.127  1.00  0.00    -0.507 OA
ATOM     25  H   UNL     1     -18.184  31.426   0.715  1.00  0.00     0.293 HD
ENDBRANCH   6  24
BRANCH   8  26
ATOM     26  O   UNL     1     -19.809  31.637  -4.184  1.00  0.00    -0.508 OA
ATOM     27  H   UNL     1     -20.314  31.373  -5.022  1.00  0.00     0.293 HD
ENDBRANCH   8  26
TORSDOF 6
ENDMDL
MODEL 9
REMARK VINA RESULT:    -3.775      3.803      5.271
REMARK INTER + INTRA:          -4.873
REMARK INTER:                  -5.334
REMARK INTRA:                   0.461
REMARK UNBOUND:                -0.325
REMARK SMILES O=c1c(O)c(-c2ccc(O)c(O)c2)oc2cc(O)cc(O)c12
REMARK SMILES IDX 5 1 3 2 2 3 1 4 22 5 20 6 19 7 17 8 16 9 15 10 14 11 6 12
REMARK SMILES IDX 7 13 8 14 9 15 13 16 11 17 10 18 12 20 4 22 21 24 18 26
REMARK H PARENT 10 19 12 21 4 23 21 25 18 27
REMARK Flexibility Score: inf
ROOT
ATOM      1  C   UNL     1     -22.793  27.958   0.226  1.00  0.00     0.180 A 
ATOM      2  C   UNL     1     -21.713  28.784  -0.140  1.00  0.00     0.208 A 
ATOM      3  C   UNL     1     -20.462  28.197  -0.383  1.00  0.00     0.238 A 
ATOM      4  O   UNL     1     -19.491  28.926  -0.723  1.00  0.00    -0.285 OA
ATOM      5  C   UNL     1     -20.306  26.803  -0.237  1.00  0.00     0.111 A 
ATOM      6  C   UNL     1     -19.078  26.134  -0.459  1.00  0.00     0.134 A 
ATOM      7  C   UNL     1     -19.001  24.745  -0.283  1.00  0.00     0.093 A 
ATOM      8  C   UNL     1     -20.124  24.013   0.110  1.00  0.00     0.123 A 
ATOM      9  C   UNL     1     -21.340  24.668   0.330  1.00  0.00     0.094 A 
ATOM     10  C   UNL     1     -21.437  26.052   0.158  1.00  0.00     0.146 A 
ATOM     11  O   UNL     1     -22.605  26.649   0.369  1.00  0.00    -0.452 OA
ENDROOT
BRANCH   1  12
ATOM     12  C   UNL     1     -24.148  28.500   0.480  1.00  0.00     0.025 A 
ATOM     13  C   UNL     1     -24.400  29.880   0.458  1.00  0.00     0.016 A 
ATOM     14  C   UNL     1     -25.691  30.365   0.677  1.00  0.00     0.051 A 
ATOM     15  C   UNL     1     -26.755  29.487   0.908  1.00  0.00     0.157 A 
ATOM     16  C   UNL     1     -25.217  27.614   0.690  1.00  0.00     0.062 A 
ATOM     17  C   UNL     1     -26.516  28.092   0.910  1.00  0.00     0.158 A 
BRANCH  15  18
ATOM     18  O   UNL     1     -28.020  30.036   1.125  1.00  0.00    -0.504 OA
ATOM     19  H   UNL     1     -28.884  29.530   0.997  1.00  0.00     0.293 HD
ENDBRANCH  15  18
BRANCH  17  20
ATOM     20  O   UNL     1     -27.527  27.154   1.125  1.00  0.00    -0.504 OA
ATOM     21  H   UNL     1     -27.966  26.990   2.019  1.00  0.00     0.293 HD
ENDBRANCH  17  20
ENDBRANCH   1  12
BRANCH   2  22
ATOM     22  O   UNL     1     -21.883  30.169  -0.231  1.00  0.00    -0.502 OA
ATOM     23  H   UNL     1     -21.133  30.789  -0.508  1.00  0.00     0.293 HD
ENDBRANCH   2  22
BRANCH   6  24
ATOM     24  O   UNL     1     -17.937  26.837  -0.851  1.00  0.00    -0.507 OA
ATOM     25  H   UNL     1     -17.060  26.367  -1.039  1.00  0.00     0.293 HD
ENDBRANCH   6  24
BRANCH   8  26
ATOM     26  O   UNL     1     -20.021  22.634   0.279  1.00  0.00    -0.508 OA
ATOM     27  H   UNL     1     -19.974  22.005  -0.514  1.00  0.00     0.293 HD
ENDBRANCH   8  26
TORSDOF 6
ENDMDL
