MODEL 1
REMARK VINA RESULT:    -5.279      0.000      0.000
REMARK INTER + INTRA:          -9.244
REMARK INTER:                  -7.748
REMARK INTRA:                  -1.496
REMARK UNBOUND:                -1.496
REMARK SMILES Cc1cc2c(C(C)C)c(O)c(O)c(C=O)c2c(O)c1-c1c(C)cc2c(C(C)C)c(O)c(O)c(C=O)c2c1O
REMARK SMILES IDX 1 1 2 2 3 3 4 4 16 5 13 6 11 7 9 8 5 9 17 10 19 11 20 12
REMARK SMILES IDX 37 13 21 14 36 15 23 16 22 17 24 18 33 19 25 20 31 21 29 22
REMARK SMILES IDX 38 23 34 25 35 26 26 27 27 28 28 29 32 30 30 32 18 34 6 36
REMARK SMILES IDX 7 37 8 38 14 39 15 40 10 41 12 43
REMARK H PARENT 38 24 32 31 30 33 18 35 10 42 12 44
REMARK Flexibility Score: inf
ROOT
ATOM      1  C   UNL     1      68.622  28.241  61.967  1.00  0.00     0.045 C 
ATOM      2  C   UNL     1      68.785  28.747  60.554  1.00  0.00    -0.039 A 
ATOM      3  C   UNL     1      69.943  29.445  60.208  1.00  0.00     0.013 A 
ATOM      4  C   UNL     1      70.165  29.916  58.895  1.00  0.00    -0.006 A 
ATOM      5  C   UNL     1      69.148  29.715  57.914  1.00  0.00     0.039 A 
ATOM      6  C   UNL     1      69.375  30.177  56.586  1.00  0.00     0.072 A 
ATOM      7  C   UNL     1      70.461  31.026  56.315  1.00  0.00     0.169 A 
ATOM      8  C   UNL     1      71.409  31.306  57.315  1.00  0.00     0.162 A 
ATOM      9  C   UNL     1      71.360  30.624  58.552  1.00  0.00     0.008 A 
ATOM     10  C   UNL     1      67.916  29.113  58.304  1.00  0.00     0.132 A 
ATOM     11  C   UNL     1      67.754  28.602  59.609  1.00  0.00     0.031 A 
ENDROOT
BRANCH  11  12
ATOM     12  C   UNL     1      66.474  27.961  60.011  1.00  0.00     0.031 A 
ATOM     13  C   UNL     1      65.416  28.744  60.518  1.00  0.00     0.132 A 
ATOM     14  C   UNL     1      66.304  26.576  59.852  1.00  0.00    -0.039 A 
ATOM     15  C   UNL     1      64.158  28.146  60.820  1.00  0.00     0.039 A 
ATOM     16  C   UNL     1      65.120  25.975  60.282  1.00  0.00     0.013 A 
ATOM     17  C   UNL     1      67.405  25.713  59.287  1.00  0.00     0.045 C 
ATOM     18  C   UNL     1      64.060  26.723  60.829  1.00  0.00    -0.006 A 
ATOM     19  C   UNL     1      63.002  28.919  61.135  1.00  0.00     0.072 A 
ATOM     20  C   UNL     1      62.892  26.086  61.354  1.00  0.00     0.008 A 
ATOM     21  C   UNL     1      61.803  28.274  61.477  1.00  0.00     0.169 A 
ATOM     22  C   UNL     1      61.738  26.879  61.565  1.00  0.00     0.162 A 
BRANCH  13  23
ATOM     23  O   UNL     1      65.627  30.108  60.757  1.00  0.00    -0.507 OA
ATOM     24  H   UNL     1      66.543  30.532  60.829  1.00  0.00     0.293 HD
ENDBRANCH  13  23
BRANCH  19  25
ATOM     25  C   UNL     1      62.964  30.392  60.966  1.00  0.00     0.264 C 
ATOM     26  O   UNL     1      62.594  30.909  59.879  1.00  0.00    -0.298 OA
ENDBRANCH  19  25
BRANCH  20  27
ATOM     27  C   UNL     1      62.855  24.609  61.788  1.00  0.00     0.017 C 
ATOM     28  C   UNL     1      62.200  23.657  60.769  1.00  0.00     0.012 C 
ATOM     29  C   UNL     1      62.306  24.423  63.210  1.00  0.00     0.012 C 
ENDBRANCH  20  27
BRANCH  21  30
ATOM     30  O   UNL     1      60.653  29.039  61.703  1.00  0.00    -0.504 OA
ATOM     31  H   UNL     1      60.138  29.017  62.576  1.00  0.00     0.293 HD
ENDBRANCH  21  30
BRANCH  22  32
ATOM     32  O   UNL     1      60.489  26.309  61.843  1.00  0.00    -0.504 OA
ATOM     33  H   UNL     1      59.606  26.706  61.554  1.00  0.00     0.293 HD
ENDBRANCH  22  32
ENDBRANCH  11  12
BRANCH  10  34
ATOM     34  O   UNL     1      66.837  29.073  57.413  1.00  0.00    -0.507 OA
ATOM     35  H   UNL     1      65.963  28.602  57.607  1.00  0.00     0.293 HD
ENDBRANCH  10  34
BRANCH   9  36
ATOM     36  C   UNL     1      72.557  30.711  59.517  1.00  0.00     0.017 C 
ATOM     37  C   UNL     1      73.083  29.312  59.861  1.00  0.00     0.012 C 
ATOM     38  C   UNL     1      72.276  31.532  60.791  1.00  0.00     0.012 C 
ENDBRANCH   9  36
BRANCH   6  39
ATOM     39  C   UNL     1      68.566  29.740  55.424  1.00  0.00     0.264 C 
ATOM     40  O   UNL     1      67.728  30.515  54.892  1.00  0.00    -0.298 OA
ENDBRANCH   6  39
BRANCH   8  41
ATOM     41  O   UNL     1      72.407  32.262  57.105  1.00  0.00    -0.504 OA
ATOM     42  H   UNL     1      72.612  32.686  56.213  1.00  0.00     0.293 HD
ENDBRANCH   8  41
BRANCH   7  43
ATOM     43  O   UNL     1      70.598  31.541  55.020  1.00  0.00    -0.504 OA
ATOM     44  H   UNL     1      69.993  32.241  54.617  1.00  0.00     0.293 HD
ENDBRANCH   7  43
TORSDOF 11
ENDMDL
MODEL 2
REMARK VINA RESULT:    -5.195      9.719     12.399
REMARK INTER + INTRA:          -9.121
REMARK INTER:                  -7.543
REMARK INTRA:                  -1.578
REMARK UNBOUND:                -1.496
REMARK SMILES Cc1cc2c(C(C)C)c(O)c(O)c(C=O)c2c(O)c1-c1c(C)cc2c(C(C)C)c(O)c(O)c(C=O)c2c1O
REMARK SMILES IDX 1 1 2 2 3 3 4 4 16 5 13 6 11 7 9 8 5 9 17 10 19 11 20 12
REMARK SMILES IDX 37 13 21 14 36 15 23 16 22 17 24 18 33 19 25 20 31 21 29 22
REMARK SMILES IDX 38 23 34 25 35 26 26 27 27 28 28 29 32 30 30 32 18 34 6 36
REMARK SMILES IDX 7 37 8 38 14 39 15 40 10 41 12 43
REMARK H PARENT 38 24 32 31 30 33 18 35 10 42 12 44
REMARK Flexibility Score: inf
ROOT
ATOM      1  C   UNL     1      63.724  21.894  52.239  1.00  0.00     0.045 C 
ATOM      2  C   UNL     1      62.822  22.977  51.699  1.00  0.00    -0.039 A 
ATOM      3  C   UNL     1      63.390  24.109  51.111  1.00  0.00     0.013 A 
ATOM      4  C   UNL     1      62.597  25.141  50.561  1.00  0.00    -0.006 A 
ATOM      5  C   UNL     1      61.176  25.040  50.661  1.00  0.00     0.039 A 
ATOM      6  C   UNL     1      60.375  26.073  50.095  1.00  0.00     0.072 A 
ATOM      7  C   UNL     1      60.971  27.274  49.676  1.00  0.00     0.169 A 
ATOM      8  C   UNL     1      62.371  27.407  49.674  1.00  0.00     0.162 A 
ATOM      9  C   UNL     1      63.193  26.292  49.955  1.00  0.00     0.008 A 
ATOM     10  C   UNL     1      60.607  23.945  51.372  1.00  0.00     0.132 A 
ATOM     11  C   UNL     1      61.427  22.903  51.855  1.00  0.00     0.031 A 
ENDROOT
BRANCH  11  12
ATOM     12  C   UNL     1      60.830  21.754  52.585  1.00  0.00     0.031 A 
ATOM     13  C   UNL     1      60.435  20.595  51.883  1.00  0.00     0.132 A 
ATOM     14  C   UNL     1      60.689  21.807  53.981  1.00  0.00    -0.039 A 
ATOM     15  C   UNL     1      59.944  19.459  52.589  1.00  0.00     0.039 A 
ATOM     16  C   UNL     1      60.077  20.747  54.652  1.00  0.00     0.013 A 
ATOM     17  C   UNL     1      61.126  23.020  54.765  1.00  0.00     0.045 C 
ATOM     18  C   UNL     1      59.636  19.592  53.976  1.00  0.00    -0.006 A 
ATOM     19  C   UNL     1      59.730  18.200  51.954  1.00  0.00     0.072 A 
ATOM     20  C   UNL     1      58.925  18.556  54.658  1.00  0.00     0.008 A 
ATOM     21  C   UNL     1      59.194  17.130  52.688  1.00  0.00     0.169 A 
ATOM     22  C   UNL     1      58.816  17.294  54.025  1.00  0.00     0.162 A 
BRANCH  13  23
ATOM     23  O   UNL     1      60.495  20.587  50.484  1.00  0.00    -0.507 OA
ATOM     24  H   UNL     1      59.713  20.343  49.889  1.00  0.00     0.293 HD
ENDBRANCH  13  23
BRANCH  19  25
ATOM     25  C   UNL     1      60.196  17.920  50.575  1.00  0.00     0.264 C 
ATOM     26  O   UNL     1      59.373  17.675  49.652  1.00  0.00    -0.298 OA
ENDBRANCH  19  25
BRANCH  20  27
ATOM     27  C   UNL     1      58.194  18.769  55.997  1.00  0.00     0.017 C 
ATOM     28  C   UNL     1      58.816  18.023  57.193  1.00  0.00     0.012 C 
ATOM     29  C   UNL     1      56.679  18.551  55.886  1.00  0.00     0.012 C 
ENDBRANCH  20  27
BRANCH  21  30
ATOM     30  O   UNL     1      59.065  15.876  52.078  1.00  0.00    -0.504 OA
ATOM     31  H   UNL     1      59.309  15.009  52.542  1.00  0.00     0.293 HD
ENDBRANCH  21  30
BRANCH  22  32
ATOM     32  O   UNL     1      58.355  16.161  54.708  1.00  0.00    -0.504 OA
ATOM     33  H   UNL     1      57.388  15.997  54.950  1.00  0.00     0.293 HD
ENDBRANCH  22  32
ENDBRANCH  11  12
BRANCH  10  34
ATOM     34  O   UNL     1      59.233  23.919  51.646  1.00  0.00    -0.507 OA
ATOM     35  H   UNL     1      58.751  24.635  52.176  1.00  0.00     0.293 HD
ENDBRANCH  10  34
BRANCH   9  36
ATOM     36  C   UNL     1      64.702  26.365  49.663  1.00  0.00     0.017 C 
ATOM     37  C   UNL     1      65.442  27.094  50.791  1.00  0.00     0.012 C 
ATOM     38  C   UNL     1      65.045  26.969  48.287  1.00  0.00     0.012 C 
ENDBRANCH   9  36
BRANCH   6  39
ATOM     39  C   UNL     1      58.924  25.924  49.837  1.00  0.00     0.264 C 
ATOM     40  O   UNL     1      58.076  26.518  50.556  1.00  0.00    -0.298 OA
ENDBRANCH   6  39
BRANCH   8  41
ATOM     41  O   UNL     1      62.969  28.641  49.402  1.00  0.00    -0.504 OA
ATOM     42  H   UNL     1      63.439  28.870  48.539  1.00  0.00     0.293 HD
ENDBRANCH   8  41
BRANCH   7  43
ATOM     43  O   UNL     1      60.143  28.304  49.216  1.00  0.00    -0.504 OA
ATOM     44  H   UNL     1      60.477  29.175  48.830  1.00  0.00     0.293 HD
ENDBRANCH   7  43
TORSDOF 11
ENDMDL
MODEL 3
REMARK VINA RESULT:    -5.175     10.044     13.993
REMARK INTER + INTRA:          -9.091
REMARK INTER:                  -7.789
REMARK INTRA:                  -1.302
REMARK UNBOUND:                -1.496
REMARK SMILES Cc1cc2c(C(C)C)c(O)c(O)c(C=O)c2c(O)c1-c1c(C)cc2c(C(C)C)c(O)c(O)c(C=O)c2c1O
REMARK SMILES IDX 1 1 2 2 3 3 4 4 16 5 13 6 11 7 9 8 5 9 17 10 19 11 20 12
REMARK SMILES IDX 37 13 21 14 36 15 23 16 22 17 24 18 33 19 25 20 31 21 29 22
REMARK SMILES IDX 38 23 34 25 35 26 26 27 27 28 28 29 32 30 30 32 18 34 6 36
REMARK SMILES IDX 7 37 8 38 14 39 15 40 10 41 12 43
REMARK H PARENT 38 24 32 31 30 33 18 35 10 42 12 44
REMARK Flexibility Score: inf
ROOT
ATOM      1  C   UNL     1      57.273  25.625  50.007  1.00  0.00     0.045 C 
ATOM      2  C   UNL     1      57.086  26.852  50.865  1.00  0.00    -0.039 A 
ATOM      3  C   UNL     1      55.805  27.382  51.028  1.00  0.00     0.013 A 
ATOM      4  C   UNL     1      55.563  28.511  51.842  1.00  0.00    -0.006 A 
ATOM      5  C   UNL     1      56.674  29.153  52.470  1.00  0.00     0.039 A 
ATOM      6  C   UNL     1      56.431  30.283  53.303  1.00  0.00     0.072 A 
ATOM      7  C   UNL     1      55.167  30.896  53.303  1.00  0.00     0.169 A 
ATOM      8  C   UNL     1      54.097  30.315  52.598  1.00  0.00     0.162 A 
ATOM      9  C   UNL     1      54.244  29.040  52.006  1.00  0.00     0.008 A 
ATOM     10  C   UNL     1      57.991  28.682  52.200  1.00  0.00     0.132 A 
ATOM     11  C   UNL     1      58.188  27.517  51.429  1.00  0.00     0.031 A 
ENDROOT
BRANCH  11  12
ATOM     12  C   UNL     1      59.563  27.019  51.160  1.00  0.00     0.031 A 
ATOM     13  C   UNL     1      60.113  25.988  51.950  1.00  0.00     0.132 A 
ATOM     14  C   UNL     1      60.305  27.552  50.093  1.00  0.00    -0.039 A 
ATOM     15  C   UNL     1      61.395  25.448  51.639  1.00  0.00     0.039 A 
ATOM     16  C   UNL     1      61.615  27.119  49.881  1.00  0.00     0.013 A 
ATOM     17  C   UNL     1      59.737  28.637  49.212  1.00  0.00     0.045 C 
ATOM     18  C   UNL     1      62.207  26.119  50.676  1.00  0.00    -0.006 A 
ATOM     19  C   UNL     1      61.902  24.274  52.271  1.00  0.00     0.072 A 
ATOM     20  C   UNL     1      63.578  25.751  50.512  1.00  0.00     0.008 A 
ATOM     21  C   UNL     1      63.194  23.819  51.963  1.00  0.00     0.169 A 
ATOM     22  C   UNL     1      64.016  24.530  51.082  1.00  0.00     0.162 A 
BRANCH  13  23
ATOM     23  O   UNL     1      59.403  25.526  53.065  1.00  0.00    -0.507 OA
ATOM     24  H   UNL     1      58.432  25.240  53.035  1.00  0.00     0.293 HD
ENDBRANCH  13  23
BRANCH  19  25
ATOM     25  C   UNL     1      61.060  23.414  53.136  1.00  0.00     0.264 C 
ATOM     26  O   UNL     1      61.232  23.386  54.384  1.00  0.00    -0.298 OA
ENDBRANCH  19  25
BRANCH  20  27
ATOM     27  C   UNL     1      64.623  26.656  49.830  1.00  0.00     0.017 C 
ATOM     28  C   UNL     1      65.242  27.726  50.750  1.00  0.00     0.012 C 
ATOM     29  C   UNL     1      64.125  27.235  48.499  1.00  0.00     0.012 C 
ENDBRANCH  20  27
BRANCH  21  30
ATOM     30  O   UNL     1      63.651  22.621  52.525  1.00  0.00    -0.504 OA
ATOM     31  H   UNL     1      64.528  22.547  53.029  1.00  0.00     0.293 HD
ENDBRANCH  21  30
BRANCH  22  32
ATOM     32  O   UNL     1      65.263  23.973  50.772  1.00  0.00    -0.504 OA
ATOM     33  H   UNL     1      66.094  24.093  51.335  1.00  0.00     0.293 HD
ENDBRANCH  22  32
ENDBRANCH  11  12
BRANCH  10  34
ATOM     34  O   UNL     1      59.104  29.404  52.650  1.00  0.00    -0.507 OA
ATOM     35  H   UNL     1      59.632  29.165  53.480  1.00  0.00     0.293 HD
ENDBRANCH  10  34
BRANCH   9  36
ATOM     36  C   UNL     1      53.000  28.287  51.502  1.00  0.00     0.017 C 
ATOM     37  C   UNL     1      52.885  26.912  52.170  1.00  0.00     0.012 C 
ATOM     38  C   UNL     1      52.918  28.171  49.967  1.00  0.00     0.012 C 
ENDBRANCH   9  36
BRANCH   6  39
ATOM     39  C   UNL     1      57.430  30.816  54.259  1.00  0.00     0.264 C 
ATOM     40  O   UNL     1      58.071  31.870  54.001  1.00  0.00    -0.298 OA
ENDBRANCH   6  39
BRANCH   8  41
ATOM     41  O   UNL     1      52.880  30.990  52.467  1.00  0.00    -0.504 OA
ATOM     42  H   UNL     1      52.177  30.771  51.778  1.00  0.00     0.293 HD
ENDBRANCH   8  41
BRANCH   7  43
ATOM     43  O   UNL     1      54.992  32.062  54.057  1.00  0.00    -0.504 OA
ATOM     44  H   UNL     1      55.604  32.864  54.019  1.00  0.00     0.293 HD
ENDBRANCH   7  43
TORSDOF 11
ENDMDL
MODEL 4
REMARK VINA RESULT:    -5.138      8.872     10.359
REMARK INTER + INTRA:          -9.037
REMARK INTER:                  -7.682
REMARK INTRA:                  -1.355
REMARK UNBOUND:                -1.496
REMARK SMILES Cc1cc2c(C(C)C)c(O)c(O)c(C=O)c2c(O)c1-c1c(C)cc2c(C(C)C)c(O)c(O)c(C=O)c2c1O
REMARK SMILES IDX 1 1 2 2 3 3 4 4 16 5 13 6 11 7 9 8 5 9 17 10 19 11 20 12
REMARK SMILES IDX 37 13 21 14 36 15 23 16 22 17 24 18 33 19 25 20 31 21 29 22
REMARK SMILES IDX 38 23 34 25 35 26 26 27 27 28 28 29 32 30 30 32 18 34 6 36
REMARK SMILES IDX 7 37 8 38 14 39 15 40 10 41 12 43
REMARK H PARENT 38 24 32 31 30 33 18 35 10 42 12 44
REMARK Flexibility Score: inf
ROOT
ATOM      1  C   UNL     1      64.496  29.947  52.663  1.00  0.00     0.045 C 
ATOM      2  C   UNL     1      65.180  30.297  51.363  1.00  0.00    -0.039 A 
ATOM      3  C   UNL     1      65.778  31.550  51.222  1.00  0.00     0.013 A 
ATOM      4  C   UNL     1      66.458  31.922  50.041  1.00  0.00    -0.006 A 
ATOM      5  C   UNL     1      66.484  31.004  48.947  1.00  0.00     0.039 A 
ATOM      6  C   UNL     1      67.181  31.372  47.760  1.00  0.00     0.072 A 
ATOM      7  C   UNL     1      67.613  32.696  47.583  1.00  0.00     0.169 A 
ATOM      8  C   UNL     1      67.494  33.628  48.630  1.00  0.00     0.162 A 
ATOM      9  C   UNL     1      67.073  33.207  49.912  1.00  0.00     0.008 A 
ATOM     10  C   UNL     1      65.765  29.778  49.053  1.00  0.00     0.132 A 
ATOM     11  C   UNL     1      65.148  29.416  50.269  1.00  0.00     0.031 A 
ENDROOT
BRANCH  11  12
ATOM     12  C   UNL     1      64.411  28.130  50.382  1.00  0.00     0.031 A 
ATOM     13  C   UNL     1      63.014  28.092  50.190  1.00  0.00     0.132 A 
ATOM     14  C   UNL     1      65.112  26.942  50.646  1.00  0.00    -0.039 A 
ATOM     15  C   UNL     1      62.317  26.849  50.210  1.00  0.00     0.039 A 
ATOM     16  C   UNL     1      64.406  25.747  50.805  1.00  0.00     0.013 A 
ATOM     17  C   UNL     1      66.609  26.941  50.830  1.00  0.00     0.045 C 
ATOM     18  C   UNL     1      63.007  25.683  50.659  1.00  0.00    -0.006 A 
ATOM     19  C   UNL     1      60.951  26.734  49.818  1.00  0.00     0.072 A 
ATOM     20  C   UNL     1      62.285  24.477  50.918  1.00  0.00     0.008 A 
ATOM     21  C   UNL     1      60.301  25.492  49.909  1.00  0.00     0.169 A 
ATOM     22  C   UNL     1      60.960  24.373  50.430  1.00  0.00     0.162 A 
BRANCH  13  23
ATOM     23  O   UNL     1      62.314  29.292  50.017  1.00  0.00    -0.507 OA
ATOM     24  H   UNL     1      62.450  30.112  50.596  1.00  0.00     0.293 HD
ENDBRANCH  13  23
BRANCH  19  25
ATOM     25  C   UNL     1      60.218  27.845  49.165  1.00  0.00     0.264 C 
ATOM     26  O   UNL     1      59.306  28.464  49.775  1.00  0.00    -0.298 OA
ENDBRANCH  19  25
BRANCH  20  27
ATOM     27  C   UNL     1      62.840  23.325  51.778  1.00  0.00     0.017 C 
ATOM     28  C   UNL     1      63.036  21.997  51.023  1.00  0.00     0.012 C 
ATOM     29  C   UNL     1      62.074  23.150  53.097  1.00  0.00     0.012 C 
ENDBRANCH  20  27
BRANCH  21  30
ATOM     30  O   UNL     1      58.986  25.371  49.444  1.00  0.00    -0.504 OA
ATOM     31  H   UNL     1      58.232  25.001  50.012  1.00  0.00     0.293 HD
ENDBRANCH  21  30
BRANCH  22  32
ATOM     32  O   UNL     1      60.266  23.156  50.422  1.00  0.00    -0.504 OA
ATOM     33  H   UNL     1      60.187  22.543  51.221  1.00  0.00     0.293 HD
ENDBRANCH  22  32
ENDBRANCH  11  12
BRANCH  10  34
ATOM     34  O   UNL     1      65.618  28.948  47.935  1.00  0.00    -0.507 OA
ATOM     35  H   UNL     1      64.955  29.119  47.189  1.00  0.00     0.293 HD
ENDBRANCH  10  34
BRANCH   9  36
ATOM     36  C   UNL     1      67.229  34.156  51.114  1.00  0.00     0.017 C 
ATOM     37  C   UNL     1      66.211  35.300  51.041  1.00  0.00     0.012 C 
ATOM     38  C   UNL     1      68.661  34.692  51.307  1.00  0.00     0.012 C 
ENDBRANCH   9  36
BRANCH   6  39
ATOM     39  C   UNL     1      67.562  30.400  46.710  1.00  0.00     0.264 C 
ATOM     40  O   UNL     1      68.773  30.208  46.416  1.00  0.00    -0.298 OA
ENDBRANCH   6  39
BRANCH   8  41
ATOM     41  O   UNL     1      67.782  34.979  48.418  1.00  0.00    -0.504 OA
ATOM     42  H   UNL     1      67.745  35.437  47.520  1.00  0.00     0.293 HD
ENDBRANCH   8  41
BRANCH   7  43
ATOM     43  O   UNL     1      68.207  33.046  46.365  1.00  0.00    -0.504 OA
ATOM     44  H   UNL     1      67.773  32.921  45.462  1.00  0.00     0.293 HD
ENDBRANCH   7  43
TORSDOF 11
ENDMDL
MODEL 5
REMARK VINA RESULT:    -5.114      8.372     10.473
REMARK INTER + INTRA:          -9.001
REMARK INTER:                  -7.436
REMARK INTRA:                  -1.565
REMARK UNBOUND:                -1.496
REMARK SMILES Cc1cc2c(C(C)C)c(O)c(O)c(C=O)c2c(O)c1-c1c(C)cc2c(C(C)C)c(O)c(O)c(C=O)c2c1O
REMARK SMILES IDX 1 1 2 2 3 3 4 4 16 5 13 6 11 7 9 8 5 9 17 10 19 11 20 12
REMARK SMILES IDX 37 13 21 14 36 15 23 16 22 17 24 18 33 19 25 20 31 21 29 22
REMARK SMILES IDX 38 23 34 25 35 26 26 27 27 28 28 29 32 30 30 32 18 34 6 36
REMARK SMILES IDX 7 37 8 38 14 39 15 40 10 41 12 43
REMARK H PARENT 38 24 32 31 30 33 18 35 10 42 12 44
REMARK Flexibility Score: inf
ROOT
ATOM      1  C   UNL     1      65.581  28.112  47.054  1.00  0.00     0.045 C 
ATOM      2  C   UNL     1      65.893  29.104  48.149  1.00  0.00    -0.039 A 
ATOM      3  C   UNL     1      66.695  30.210  47.860  1.00  0.00     0.013 A 
ATOM      4  C   UNL     1      66.996  31.187  48.834  1.00  0.00    -0.006 A 
ATOM      5  C   UNL     1      66.506  31.004  50.163  1.00  0.00     0.039 A 
ATOM      6  C   UNL     1      66.797  31.995  51.144  1.00  0.00     0.072 A 
ATOM      7  C   UNL     1      67.747  32.993  50.872  1.00  0.00     0.169 A 
ATOM      8  C   UNL     1      68.306  33.108  49.587  1.00  0.00     0.162 A 
ATOM      9  C   UNL     1      67.814  32.319  48.523  1.00  0.00     0.008 A 
ATOM     10  C   UNL     1      65.794  29.811  50.481  1.00  0.00     0.132 A 
ATOM     11  C   UNL     1      65.461  28.887  49.468  1.00  0.00     0.031 A 
ENDROOT
BRANCH  11  12
ATOM     12  C   UNL     1      64.705  27.650  49.799  1.00  0.00     0.031 A 
ATOM     13  C   UNL     1      63.295  27.670  49.843  1.00  0.00     0.132 A 
ATOM     14  C   UNL     1      65.395  26.450  50.036  1.00  0.00    -0.039 A 
ATOM     15  C   UNL     1      62.565  26.467  50.073  1.00  0.00     0.039 A 
ATOM     16  C   UNL     1      64.681  25.307  50.400  1.00  0.00     0.013 A 
ATOM     17  C   UNL     1      66.901  26.388  49.970  1.00  0.00     0.045 C 
ATOM     18  C   UNL     1      63.276  25.302  50.491  1.00  0.00    -0.006 A 
ATOM     19  C   UNL     1      61.150  26.393  49.921  1.00  0.00     0.072 A 
ATOM     20  C   UNL     1      62.563  24.154  50.957  1.00  0.00     0.008 A 
ATOM     21  C   UNL     1      60.478  25.195  50.213  1.00  0.00     0.169 A 
ATOM     22  C   UNL     1      61.172  24.083  50.703  1.00  0.00     0.162 A 
BRANCH  13  23
ATOM     23  O   UNL     1      62.621  28.888  49.696  1.00  0.00    -0.507 OA
ATOM     24  H   UNL     1      62.461  29.538  50.456  1.00  0.00     0.293 HD
ENDBRANCH  13  23
BRANCH  19  25
ATOM     25  C   UNL     1      60.360  27.491  49.314  1.00  0.00     0.264 C 
ATOM     26  O   UNL     1      59.585  28.194  50.016  1.00  0.00    -0.298 OA
ENDBRANCH  19  25
BRANCH  20  27
ATOM     27  C   UNL     1      63.211  23.039  51.800  1.00  0.00     0.017 C 
ATOM     28  C   UNL     1      63.298  21.671  51.097  1.00  0.00     0.012 C 
ATOM     29  C   UNL     1      62.615  22.943  53.212  1.00  0.00     0.012 C 
ENDBRANCH  20  27
BRANCH  21  30
ATOM     30  O   UNL     1      59.100  25.107  49.982  1.00  0.00    -0.504 OA
ATOM     31  H   UNL     1      58.516  24.389  50.395  1.00  0.00     0.293 HD
ENDBRANCH  21  30
BRANCH  22  32
ATOM     32  O   UNL     1      60.441  22.905  50.903  1.00  0.00    -0.504 OA
ATOM     33  H   UNL     1      59.515  22.872  51.305  1.00  0.00     0.293 HD
ENDBRANCH  22  32
ENDBRANCH  11  12
BRANCH  10  34
ATOM     34  O   UNL     1      65.465  29.519  51.811  1.00  0.00    -0.507 OA
ATOM     35  H   UNL     1      64.550  29.679  52.213  1.00  0.00     0.293 HD
ENDBRANCH  10  34
BRANCH   9  36
ATOM     36  C   UNL     1      68.215  32.656  47.076  1.00  0.00     0.017 C 
ATOM     37  C   UNL     1      69.684  32.299  46.819  1.00  0.00     0.012 C 
ATOM     38  C   UNL     1      67.913  34.110  46.664  1.00  0.00     0.012 C 
ENDBRANCH   9  36
BRANCH   6  39
ATOM     39  C   UNL     1      66.080  32.092  52.437  1.00  0.00     0.264 C 
ATOM     40  O   UNL     1      66.636  31.742  53.512  1.00  0.00    -0.298 OA
ENDBRANCH   6  39
BRANCH   8  41
ATOM     41  O   UNL     1      69.358  33.997  49.344  1.00  0.00    -0.504 OA
ATOM     42  H   UNL     1      69.241  34.943  49.014  1.00  0.00     0.293 HD
ENDBRANCH   8  41
BRANCH   7  43
ATOM     43  O   UNL     1      68.081  33.891  51.892  1.00  0.00    -0.504 OA
ATOM     44  H   UNL     1      68.808  34.588  51.823  1.00  0.00     0.293 HD
ENDBRANCH   7  43
TORSDOF 11
ENDMDL
MODEL 6
REMARK VINA RESULT:    -4.990      7.084     11.376
REMARK INTER + INTRA:          -8.819
REMARK INTER:                  -7.228
REMARK INTRA:                  -1.591
REMARK UNBOUND:                -1.496
REMARK SMILES Cc1cc2c(C(C)C)c(O)c(O)c(C=O)c2c(O)c1-c1c(C)cc2c(C(C)C)c(O)c(O)c(C=O)c2c1O
REMARK SMILES IDX 1 1 2 2 3 3 4 4 16 5 13 6 11 7 9 8 5 9 17 10 19 11 20 12
REMARK SMILES IDX 37 13 21 14 36 15 23 16 22 17 24 18 33 19 25 20 31 21 29 22
REMARK SMILES IDX 38 23 34 25 35 26 26 27 27 28 28 29 32 30 30 32 18 34 6 36
REMARK SMILES IDX 7 37 8 38 14 39 15 40 10 41 12 43
REMARK H PARENT 38 24 32 31 30 33 18 35 10 42 12 44
REMARK Flexibility Score: inf
ROOT
ATOM      1  C   UNL     1      57.632  33.435  57.872  1.00  0.00     0.045 C 
ATOM      2  C   UNL     1      57.523  32.480  56.708  1.00  0.00    -0.039 A 
ATOM      3  C   UNL     1      56.403  32.542  55.877  1.00  0.00     0.013 A 
ATOM      4  C   UNL     1      56.260  31.695  54.756  1.00  0.00    -0.006 A 
ATOM      5  C   UNL     1      57.267  30.715  54.504  1.00  0.00     0.039 A 
ATOM      6  C   UNL     1      57.131  29.868  53.367  1.00  0.00     0.072 A 
ATOM      7  C   UNL     1      55.918  29.832  52.660  1.00  0.00     0.169 A 
ATOM      8  C   UNL     1      54.886  30.734  52.977  1.00  0.00     0.162 A 
ATOM      9  C   UNL     1      55.110  31.773  53.908  1.00  0.00     0.008 A 
ATOM     10  C   UNL     1      58.344  30.573  55.427  1.00  0.00     0.132 A 
ATOM     11  C   UNL     1      58.485  31.477  56.502  1.00  0.00     0.031 A 
ENDROOT
BRANCH  11  12
ATOM     12  C   UNL     1      59.617  31.337  57.456  1.00  0.00     0.031 A 
ATOM     13  C   UNL     1      59.548  30.399  58.507  1.00  0.00     0.132 A 
ATOM     14  C   UNL     1      60.773  32.116  57.289  1.00  0.00    -0.039 A 
ATOM     15  C   UNL     1      60.666  30.200  59.369  1.00  0.00     0.039 A 
ATOM     16  C   UNL     1      61.809  32.018  58.221  1.00  0.00     0.013 A 
ATOM     17  C   UNL     1      60.891  33.109  56.160  1.00  0.00     0.045 C 
ATOM     18  C   UNL     1      61.754  31.120  59.304  1.00  0.00    -0.006 A 
ATOM     19  C   UNL     1      60.724  29.128  60.307  1.00  0.00     0.072 A 
ATOM     20  C   UNL     1      62.776  31.097  60.304  1.00  0.00     0.008 A 
ATOM     21  C   UNL     1      61.827  29.013  61.168  1.00  0.00     0.169 A 
ATOM     22  C   UNL     1      62.851  29.968  61.156  1.00  0.00     0.162 A 
BRANCH  13  23
ATOM     23  O   UNL     1      58.358  29.693  58.719  1.00  0.00    -0.507 OA
ATOM     24  H   UNL     1      58.269  28.921  59.368  1.00  0.00     0.293 HD
ENDBRANCH  13  23
BRANCH  19  25
ATOM     25  C   UNL     1      59.733  28.025  60.313  1.00  0.00     0.264 C 
ATOM     26  O   UNL     1      58.904  27.906  61.254  1.00  0.00    -0.298 OA
ENDBRANCH  19  25
BRANCH  20  27
ATOM     27  C   UNL     1      63.736  32.274  60.563  1.00  0.00     0.017 C 
ATOM     28  C   UNL     1      63.042  33.634  60.765  1.00  0.00     0.012 C 
ATOM     29  C   UNL     1      64.881  32.338  59.543  1.00  0.00     0.012 C 
ENDBRANCH  20  27
BRANCH  21  30
ATOM     30  O   UNL     1      61.915  27.912  62.028  1.00  0.00    -0.504 OA
ATOM     31  H   UNL     1      62.328  27.965  62.952  1.00  0.00     0.293 HD
ENDBRANCH  21  30
BRANCH  22  32
ATOM     32  O   UNL     1      63.950  29.744  61.995  1.00  0.00    -0.504 OA
ATOM     33  H   UNL     1      64.250  30.381  62.720  1.00  0.00     0.293 HD
ENDBRANCH  22  32
ENDBRANCH  11  12
BRANCH  10  34
ATOM     34  O   UNL     1      59.239  29.503  55.307  1.00  0.00    -0.507 OA
ATOM     35  H   UNL     1      59.998  29.476  54.637  1.00  0.00     0.293 HD
ENDBRANCH  10  34
BRANCH   9  36
ATOM     36  C   UNL     1      54.091  32.921  54.028  1.00  0.00     0.017 C 
ATOM     37  C   UNL     1      54.745  34.268  53.700  1.00  0.00     0.012 C 
ATOM     38  C   UNL     1      53.359  32.969  55.383  1.00  0.00     0.012 C 
ENDBRANCH   9  36
BRANCH   6  39
ATOM     39  C   UNL     1      58.247  29.063  52.816  1.00  0.00     0.264 C 
ATOM     40  O   UNL     1      58.274  27.812  52.962  1.00  0.00    -0.298 OA
ENDBRANCH   6  39
BRANCH   8  41
ATOM     41  O   UNL     1      53.625  30.611  52.385  1.00  0.00    -0.504 OA
ATOM     42  H   UNL     1      53.437  30.082  51.547  1.00  0.00     0.293 HD
ENDBRANCH   8  41
BRANCH   7  43
ATOM     43  O   UNL     1      55.786  28.919  51.608  1.00  0.00    -0.504 OA
ATOM     44  H   UNL     1      55.411  29.146  50.698  1.00  0.00     0.293 HD
ENDBRANCH   7  43
TORSDOF 11
ENDMDL
MODEL 7
REMARK VINA RESULT:    -4.978      3.872     11.008
REMARK INTER + INTRA:          -8.802
REMARK INTER:                  -7.278
REMARK INTRA:                  -1.524
REMARK UNBOUND:                -1.496
REMARK SMILES Cc1cc2c(C(C)C)c(O)c(O)c(C=O)c2c(O)c1-c1c(C)cc2c(C(C)C)c(O)c(O)c(C=O)c2c1O
REMARK SMILES IDX 1 1 2 2 3 3 4 4 16 5 13 6 11 7 9 8 5 9 17 10 19 11 20 12
REMARK SMILES IDX 37 13 21 14 36 15 23 16 22 17 24 18 33 19 25 20 31 21 29 22
REMARK SMILES IDX 38 23 34 25 35 26 26 27 27 28 28 29 32 30 30 32 18 34 6 36
REMARK SMILES IDX 7 37 8 38 14 39 15 40 10 41 12 43
REMARK H PARENT 38 24 32 31 30 33 18 35 10 42 12 44
REMARK Flexibility Score: inf
ROOT
ATOM      1  C   UNL     1      60.756  24.373  63.871  1.00  0.00     0.045 C 
ATOM      2  C   UNL     1      59.835  24.204  62.687  1.00  0.00    -0.039 A 
ATOM      3  C   UNL     1      58.648  23.486  62.842  1.00  0.00     0.013 A 
ATOM      4  C   UNL     1      57.732  23.321  61.779  1.00  0.00    -0.006 A 
ATOM      5  C   UNL     1      58.064  23.861  60.500  1.00  0.00     0.039 A 
ATOM      6  C   UNL     1      57.136  23.707  59.429  1.00  0.00     0.072 A 
ATOM      7  C   UNL     1      56.045  22.833  59.567  1.00  0.00     0.169 A 
ATOM      8  C   UNL     1      55.779  22.221  60.805  1.00  0.00     0.162 A 
ATOM      9  C   UNL     1      56.516  22.588  61.954  1.00  0.00     0.008 A 
ATOM     10  C   UNL     1      59.333  24.483  60.317  1.00  0.00     0.132 A 
ATOM     11  C   UNL     1      60.194  24.683  61.416  1.00  0.00     0.031 A 
ENDROOT
BRANCH  11  12
ATOM     12  C   UNL     1      61.512  25.346  61.226  1.00  0.00     0.031 A 
ATOM     13  C   UNL     1      61.613  26.752  61.276  1.00  0.00     0.132 A 
ATOM     14  C   UNL     1      62.665  24.568  61.031  1.00  0.00    -0.039 A 
ATOM     15  C   UNL     1      62.887  27.385  61.182  1.00  0.00     0.039 A 
ATOM     16  C   UNL     1      63.889  25.199  60.799  1.00  0.00     0.013 A 
ATOM     17  C   UNL     1      62.596  23.061  60.999  1.00  0.00     0.045 C 
ATOM     18  C   UNL     1      64.017  26.602  60.803  1.00  0.00    -0.006 A 
ATOM     19  C   UNL     1      63.066  28.777  61.434  1.00  0.00     0.072 A 
ATOM     20  C   UNL     1      65.253  27.237  60.469  1.00  0.00     0.008 A 
ATOM     21  C   UNL     1      64.335  29.357  61.275  1.00  0.00     0.169 A 
ATOM     22  C   UNL     1      65.420  28.599  60.820  1.00  0.00     0.162 A 
BRANCH  13  23
ATOM     23  O   UNL     1      60.447  27.520  61.380  1.00  0.00    -0.507 OA
ATOM     24  H   UNL     1      60.210  28.076  62.192  1.00  0.00     0.293 HD
ENDBRANCH  13  23
BRANCH  19  25
ATOM     25  C   UNL     1      61.994  29.622  62.012  1.00  0.00     0.264 C 
ATOM     26  O   UNL     1      61.409  30.492  61.313  1.00  0.00    -0.298 OA
ENDBRANCH  19  25
BRANCH  20  27
ATOM     27  C   UNL     1      66.372  26.547  59.667  1.00  0.00     0.017 C 
ATOM     28  C   UNL     1      67.676  26.315  60.453  1.00  0.00     0.012 C 
ATOM     29  C   UNL     1      66.613  27.204  58.301  1.00  0.00     0.012 C 
ENDBRANCH  20  27
BRANCH  21  30
ATOM     30  O   UNL     1      64.519  30.706  61.604  1.00  0.00    -0.504 OA
ATOM     31  H   UNL     1      64.045  31.461  61.122  1.00  0.00     0.293 HD
ENDBRANCH  21  30
BRANCH  22  32
ATOM     32  O   UNL     1      66.667  29.234  60.755  1.00  0.00    -0.504 OA
ATOM     33  H   UNL     1      67.536  28.809  61.046  1.00  0.00     0.293 HD
ENDBRANCH  22  32
ENDBRANCH  11  12
BRANCH  10  34
ATOM     34  O   UNL     1      59.758  24.853  59.035  1.00  0.00    -0.507 OA
ATOM     35  H   UNL     1      59.130  25.015  58.257  1.00  0.00     0.293 HD
ENDBRANCH  10  34
BRANCH   9  36
ATOM     36  C   UNL     1      56.030  22.143  63.345  1.00  0.00     0.017 C 
ATOM     37  C   UNL     1      55.660  23.356  64.208  1.00  0.00     0.012 C 
ATOM     38  C   UNL     1      57.010  21.210  64.082  1.00  0.00     0.012 C 
ENDBRANCH   9  36
BRANCH   6  39
ATOM     39  C   UNL     1      57.204  24.495  58.177  1.00  0.00     0.264 C 
ATOM     40  O   UNL     1      57.631  23.977  57.110  1.00  0.00    -0.298 OA
ENDBRANCH   6  39
BRANCH   8  41
ATOM     41  O   UNL     1      54.790  21.239  60.917  1.00  0.00    -0.504 OA
ATOM     42  H   UNL     1      53.975  21.179  60.326  1.00  0.00     0.293 HD
ENDBRANCH   8  41
BRANCH   7  43
ATOM     43  O   UNL     1      55.209  22.631  58.463  1.00  0.00    -0.504 OA
ATOM     44  H   UNL     1      55.522  22.287  57.566  1.00  0.00     0.293 HD
ENDBRANCH   7  43
TORSDOF 11
ENDMDL
MODEL 8
REMARK VINA RESULT:    -4.955      8.932     10.893
REMARK INTER + INTRA:          -8.768
REMARK INTER:                  -7.146
REMARK INTRA:                  -1.621
REMARK UNBOUND:                -1.496
REMARK SMILES Cc1cc2c(C(C)C)c(O)c(O)c(C=O)c2c(O)c1-c1c(C)cc2c(C(C)C)c(O)c(O)c(C=O)c2c1O
REMARK SMILES IDX 1 1 2 2 3 3 4 4 16 5 13 6 11 7 9 8 5 9 17 10 19 11 20 12
REMARK SMILES IDX 37 13 21 14 36 15 23 16 22 17 24 18 33 19 25 20 31 21 29 22
REMARK SMILES IDX 38 23 34 25 35 26 26 27 27 28 28 29 32 30 30 32 18 34 6 36
REMARK SMILES IDX 7 37 8 38 14 39 15 40 10 41 12 43
REMARK H PARENT 38 24 32 31 30 33 18 35 10 42 12 44
REMARK Flexibility Score: inf
ROOT
ATOM      1  C   UNL     1      60.836  25.650  50.000  1.00  0.00     0.045 C 
ATOM      2  C   UNL     1      61.650  26.920  50.033  1.00  0.00    -0.039 A 
ATOM      3  C   UNL     1      62.984  26.887  49.621  1.00  0.00     0.013 A 
ATOM      4  C   UNL     1      63.786  28.049  49.601  1.00  0.00    -0.006 A 
ATOM      5  C   UNL     1      63.226  29.277  50.066  1.00  0.00     0.039 A 
ATOM      6  C   UNL     1      64.030  30.453  50.034  1.00  0.00     0.072 A 
ATOM      7  C   UNL     1      65.409  30.354  49.788  1.00  0.00     0.169 A 
ATOM      8  C   UNL     1      65.978  29.119  49.428  1.00  0.00     0.162 A 
ATOM      9  C   UNL     1      65.150  28.003  49.170  1.00  0.00     0.008 A 
ATOM     10  C   UNL     1      61.905  29.279  50.602  1.00  0.00     0.132 A 
ATOM     11  C   UNL     1      61.113  28.112  50.550  1.00  0.00     0.031 A 
ENDROOT
BRANCH  11  12
ATOM     12  C   UNL     1      59.731  28.119  51.096  1.00  0.00     0.031 A 
ATOM     13  C   UNL     1      59.489  27.705  52.423  1.00  0.00     0.132 A 
ATOM     14  C   UNL     1      58.666  28.571  50.300  1.00  0.00    -0.039 A 
ATOM     15  C   UNL     1      58.179  27.794  52.977  1.00  0.00     0.039 A 
ATOM     16  C   UNL     1      57.364  28.523  50.801  1.00  0.00     0.013 A 
ATOM     17  C   UNL     1      58.893  29.046  48.886  1.00  0.00     0.045 C 
ATOM     18  C   UNL     1      57.084  28.078  52.108  1.00  0.00    -0.006 A 
ATOM     19  C   UNL     1      57.922  27.589  54.364  1.00  0.00     0.072 A 
ATOM     20  C   UNL     1      55.740  27.942  52.576  1.00  0.00     0.008 A 
ATOM     21  C   UNL     1      56.603  27.636  54.845  1.00  0.00     0.169 A 
ATOM     22  C   UNL     1      55.527  27.831  53.972  1.00  0.00     0.162 A 
BRANCH  13  23
ATOM     23  O   UNL     1      60.541  27.172  53.177  1.00  0.00    -0.507 OA
ATOM     24  H   UNL     1      60.634  27.293  54.178  1.00  0.00     0.293 HD
ENDBRANCH  13  23
BRANCH  19  25
ATOM     25  C   UNL     1      59.011  27.477  55.363  1.00  0.00     0.264 C 
ATOM     26  O   UNL     1      59.286  26.370  55.900  1.00  0.00    -0.298 OA
ENDBRANCH  19  25
BRANCH  20  27
ATOM     27  C   UNL     1      54.524  27.816  51.639  1.00  0.00     0.017 C 
ATOM     28  C   UNL     1      54.692  26.786  50.506  1.00  0.00     0.012 C 
ATOM     29  C   UNL     1      54.023  29.176  51.133  1.00  0.00     0.012 C 
ENDBRANCH  20  27
BRANCH  21  30
ATOM     30  O   UNL     1      56.369  27.516  56.220  1.00  0.00    -0.504 OA
ATOM     31  H   UNL     1      56.769  28.147  56.905  1.00  0.00     0.293 HD
ENDBRANCH  21  30
BRANCH  22  32
ATOM     32  O   UNL     1      54.250  27.937  54.537  1.00  0.00    -0.504 OA
ATOM     33  H   UNL     1      53.712  27.151  54.875  1.00  0.00     0.293 HD
ENDBRANCH  22  32
ENDBRANCH  11  12
BRANCH  10  34
ATOM     34  O   UNL     1      61.402  30.423  51.233  1.00  0.00    -0.507 OA
ATOM     35  H   UNL     1      60.422  30.681  51.233  1.00  0.00     0.293 HD
ENDBRANCH  10  34
BRANCH   9  36
ATOM     36  C   UNL     1      65.745  26.753  48.495  1.00  0.00     0.017 C 
ATOM     37  C   UNL     1      66.700  26.022  49.446  1.00  0.00     0.012 C 
ATOM     38  C   UNL     1      66.415  27.035  47.136  1.00  0.00     0.012 C 
ENDBRANCH   9  36
BRANCH   6  39
ATOM     39  C   UNL     1      63.473  31.820  50.164  1.00  0.00     0.264 C 
ATOM     40  O   UNL     1      63.627  32.482  51.225  1.00  0.00    -0.298 OA
ENDBRANCH   6  39
BRANCH   8  41
ATOM     41  O   UNL     1      67.364  28.976  49.326  1.00  0.00    -0.504 OA
ATOM     42  H   UNL     1      67.927  28.409  49.942  1.00  0.00     0.293 HD
ENDBRANCH   8  41
BRANCH   7  43
ATOM     43  O   UNL     1      66.184  31.517  49.860  1.00  0.00    -0.504 OA
ATOM     44  H   UNL     1      67.150  31.541  50.154  1.00  0.00     0.293 HD
ENDBRANCH   7  43
TORSDOF 11
ENDMDL
MODEL 9
REMARK VINA RESULT:    -4.943      5.187      9.805
REMARK INTER + INTRA:          -8.750
REMARK INTER:                  -7.140
REMARK INTRA:                  -1.610
REMARK UNBOUND:                -1.496
REMARK SMILES Cc1cc2c(C(C)C)c(O)c(O)c(C=O)c2c(O)c1-c1c(C)cc2c(C(C)C)c(O)c(O)c(C=O)c2c1O
REMARK SMILES IDX 1 1 2 2 3 3 4 4 16 5 13 6 11 7 9 8 5 9 17 10 19 11 20 12
REMARK SMILES IDX 37 13 21 14 36 15 23 16 22 17 24 18 33 19 25 20 31 21 29 22
REMARK SMILES IDX 38 23 34 25 35 26 26 27 27 28 28 29 32 30 30 32 18 34 6 36
REMARK SMILES IDX 7 37 8 38 14 39 15 40 10 41 12 43
REMARK H PARENT 38 24 32 31 30 33 18 35 10 42 12 44
REMARK Flexibility Score: inf
ROOT
ATOM      1  C   UNL     1      64.073  28.607  61.230  1.00  0.00     0.045 C 
ATOM      2  C   UNL     1      62.732  27.912  61.227  1.00  0.00    -0.039 A 
ATOM      3  C   UNL     1      62.658  26.572  61.608  1.00  0.00     0.013 A 
ATOM      4  C   UNL     1      61.429  25.877  61.654  1.00  0.00    -0.006 A 
ATOM      5  C   UNL     1      60.241  26.558  61.248  1.00  0.00     0.039 A 
ATOM      6  C   UNL     1      58.998  25.864  61.306  1.00  0.00     0.072 A 
ATOM      7  C   UNL     1      58.980  24.476  61.518  1.00  0.00     0.169 A 
ATOM      8  C   UNL     1      60.169  23.789  61.819  1.00  0.00     0.162 A 
ATOM      9  C   UNL     1      61.365  24.505  62.053  1.00  0.00     0.008 A 
ATOM     10  C   UNL     1      60.342  27.887  60.742  1.00  0.00     0.132 A 
ATOM     11  C   UNL     1      61.578  28.568  60.767  1.00  0.00     0.031 A 
ENDROOT
BRANCH  11  12
ATOM     12  C   UNL     1      61.678  29.959  60.253  1.00  0.00     0.031 A 
ATOM     13  C   UNL     1      62.086  30.197  58.923  1.00  0.00     0.132 A 
ATOM     14  C   UNL     1      61.333  31.039  61.081  1.00  0.00    -0.039 A 
ATOM     15  C   UNL     1      62.098  31.523  58.400  1.00  0.00     0.039 A 
ATOM     16  C   UNL     1      61.483  32.344  60.609  1.00  0.00     0.013 A 
ATOM     17  C   UNL     1      60.867  30.819  62.500  1.00  0.00     0.045 C 
ATOM     18  C   UNL     1      61.925  32.617  59.300  1.00  0.00    -0.006 A 
ATOM     19  C   UNL     1      62.299  31.795  57.015  1.00  0.00     0.072 A 
ATOM     20  C   UNL     1      62.166  33.955  58.859  1.00  0.00     0.008 A 
ATOM     21  C   UNL     1      62.355  33.124  56.565  1.00  0.00     0.169 A 
ATOM     22  C   UNL     1      62.269  34.191  57.466  1.00  0.00     0.162 A 
BRANCH  13  23
ATOM     23  O   UNL     1      62.514  29.122  58.135  1.00  0.00    -0.507 OA
ATOM     24  H   UNL     1      63.389  28.633  58.277  1.00  0.00     0.293 HD
ENDBRANCH  13  23
BRANCH  19  25
ATOM     25  C   UNL     1      62.299  30.724  55.990  1.00  0.00     0.264 C 
ATOM     26  O   UNL     1      63.368  30.372  55.422  1.00  0.00    -0.298 OA
ENDBRANCH  19  25
BRANCH  20  27
ATOM     27  C   UNL     1      62.413  35.133  59.820  1.00  0.00     0.017 C 
ATOM     28  C   UNL     1      63.510  34.883  60.872  1.00  0.00     0.012 C 
ATOM     29  C   UNL     1      61.115  35.677  60.435  1.00  0.00     0.012 C 
ENDBRANCH  20  27
BRANCH  21  30
ATOM     30  O   UNL     1      62.469  33.380  55.194  1.00  0.00    -0.504 OA
ATOM     31  H   UNL     1      63.361  33.488  54.725  1.00  0.00     0.293 HD
ENDBRANCH  21  30
BRANCH  22  32
ATOM     32  O   UNL     1      62.262  35.486  56.931  1.00  0.00    -0.504 OA
ATOM     33  H   UNL     1      62.081  35.699  55.961  1.00  0.00     0.293 HD
ENDBRANCH  22  32
ENDBRANCH  11  12
BRANCH  10  34
ATOM     34  O   UNL     1      59.228  28.508  60.165  1.00  0.00    -0.507 OA
ATOM     35  H   UNL     1      59.119  28.660  59.170  1.00  0.00     0.293 HD
ENDBRANCH  10  34
BRANCH   9  36
ATOM     36  C   UNL     1      62.578  23.782  62.667  1.00  0.00     0.017 C 
ATOM     37  C   UNL     1      63.186  22.791  61.667  1.00  0.00     0.012 C 
ATOM     38  C   UNL     1      62.283  23.103  64.019  1.00  0.00     0.012 C 
ENDBRANCH   9  36
BRANCH   6  39
ATOM     39  C   UNL     1      57.685  26.546  61.240  1.00  0.00     0.264 C 
ATOM     40  O   UNL     1      56.980  26.489  60.197  1.00  0.00    -0.298 OA
ENDBRANCH   6  39
BRANCH   8  41
ATOM     41  O   UNL     1      60.188  22.392  61.884  1.00  0.00    -0.504 OA
ATOM     42  H   UNL     1      60.030  21.858  62.725  1.00  0.00     0.293 HD
ENDBRANCH   8  41
BRANCH   7  43
ATOM     43  O   UNL     1      57.749  23.811  61.472  1.00  0.00    -0.504 OA
ATOM     44  H   UNL     1      57.577  22.900  61.872  1.00  0.00     0.293 HD
ENDBRANCH   7  43
TORSDOF 11
ENDMDL
