MODEL 1
REMARK VINA RESULT:    -5.213      0.000      0.000
REMARK INTER + INTRA:          -6.609
REMARK INTER:                  -6.279
REMARK INTRA:                  -0.330
REMARK UNBOUND:                -0.330
REMARK SMILES O=c1c(O)c(-c2ccc(O)c(O)c2)oc2cc(O)cc(O)c12
REMARK SMILES IDX 5 1 3 2 2 3 1 4 22 5 20 6 19 7 17 8 16 9 15 10 14 11 6 12
REMARK SMILES IDX 7 13 8 14 9 15 13 16 11 17 10 18 12 20 4 22 21 24 18 26
REMARK H PARENT 10 19 12 21 4 23 21 25 18 27
REMARK Flexibility Score: inf
ROOT
ATOM      1  C   UNL     1      64.127  51.407  35.531  1.00  0.00     0.180 A 
ATOM      2  C   UNL     1      63.783  52.763  35.664  1.00  0.00     0.208 A 
ATOM      3  C   UNL     1      62.985  53.363  34.678  1.00  0.00     0.238 A 
ATOM      4  O   UNL     1      62.635  54.563  34.830  1.00  0.00    -0.285 OA
ATOM      5  C   UNL     1      62.555  52.606  33.561  1.00  0.00     0.111 A 
ATOM      6  C   UNL     1      61.777  53.123  32.482  1.00  0.00     0.134 A 
ATOM      7  C   UNL     1      61.298  52.250  31.496  1.00  0.00     0.093 A 
ATOM      8  C   UNL     1      61.625  50.892  31.516  1.00  0.00     0.123 A 
ATOM      9  C   UNL     1      62.432  50.389  32.533  1.00  0.00     0.094 A 
ATOM     10  C   UNL     1      62.895  51.228  33.551  1.00  0.00     0.146 A 
ATOM     11  O   UNL     1      63.654  50.706  34.507  1.00  0.00    -0.452 OA
ENDROOT
BRANCH   1  12
ATOM     12  C   UNL     1      64.985  50.710  36.516  1.00  0.00     0.025 A 
ATOM     13  C   UNL     1      66.388  50.757  36.428  1.00  0.00     0.016 A 
ATOM     14  C   UNL     1      67.177  50.073  37.355  1.00  0.00     0.051 A 
ATOM     15  C   UNL     1      66.579  49.321  38.375  1.00  0.00     0.157 A 
ATOM     16  C   UNL     1      64.390  49.938  37.528  1.00  0.00     0.062 A 
ATOM     17  C   UNL     1      65.178  49.251  38.458  1.00  0.00     0.158 A 
BRANCH  15  18
ATOM     18  O   UNL     1      67.369  48.641  39.300  1.00  0.00    -0.504 OA
ATOM     19  H   UNL     1      67.487  48.980  40.248  1.00  0.00     0.293 HD
ENDBRANCH  15  18
BRANCH  17  20
ATOM     20  O   UNL     1      64.552  48.506  39.457  1.00  0.00    -0.504 OA
ATOM     21  H   UNL     1      64.547  48.802  40.426  1.00  0.00     0.293 HD
ENDBRANCH  17  20
ENDBRANCH   1  12
BRANCH   2  22
ATOM     22  O   UNL     1      64.200  53.487  36.785  1.00  0.00    -0.502 OA
ATOM     23  H   UNL     1      64.208  54.499  36.807  1.00  0.00     0.293 HD
ENDBRANCH   2  22
BRANCH   6  24
ATOM     24  O   UNL     1      61.472  54.477  32.319  1.00  0.00    -0.507 OA
ATOM     25  H   UNL     1      60.999  55.046  33.005  1.00  0.00     0.293 HD
ENDBRANCH   6  24
BRANCH   8  26
ATOM     26  O   UNL     1      61.157  50.034  30.523  1.00  0.00    -0.508 OA
ATOM     27  H   UNL     1      61.563  50.027  29.594  1.00  0.00     0.293 HD
ENDBRANCH   8  26
TORSDOF 6
ENDMDL
MODEL 2
REMARK VINA RESULT:    -5.079      1.901      6.756
REMARK INTER + INTRA:          -6.448
REMARK INTER:                  -6.143
REMARK INTRA:                  -0.305
REMARK UNBOUND:                -0.330
REMARK SMILES O=c1c(O)c(-c2ccc(O)c(O)c2)oc2cc(O)cc(O)c12
REMARK SMILES IDX 5 1 3 2 2 3 1 4 22 5 20 6 19 7 17 8 16 9 15 10 14 11 6 12
REMARK SMILES IDX 7 13 8 14 9 15 13 16 11 17 10 18 12 20 4 22 21 24 18 26
REMARK H PARENT 10 19 12 21 4 23 21 25 18 27
REMARK Flexibility Score: inf
ROOT
ATOM      1  C   UNL     1      64.050  51.380  35.669  1.00  0.00     0.180 A 
ATOM      2  C   UNL     1      65.015  52.401  35.701  1.00  0.00     0.208 A 
ATOM      3  C   UNL     1      65.838  52.527  36.830  1.00  0.00     0.238 A 
ATOM      4  O   UNL     1      66.737  53.408  36.829  1.00  0.00    -0.285 OA
ATOM      5  C   UNL     1      65.677  51.640  37.923  1.00  0.00     0.111 A 
ATOM      6  C   UNL     1      66.429  51.701  39.134  1.00  0.00     0.134 A 
ATOM      7  C   UNL     1      66.274  50.692  40.094  1.00  0.00     0.093 A 
ATOM      8  C   UNL     1      65.347  49.663  39.913  1.00  0.00     0.123 A 
ATOM      9  C   UNL     1      64.566  49.628  38.761  1.00  0.00     0.094 A 
ATOM     10  C   UNL     1      64.723  50.599  37.769  1.00  0.00     0.146 A 
ATOM     11  O   UNL     1      63.967  50.524  36.681  1.00  0.00    -0.452 OA
ENDROOT
BRANCH   1  12
ATOM     12  C   UNL     1      63.128  51.200  34.525  1.00  0.00     0.025 A 
ATOM     13  C   UNL     1      63.526  50.508  33.366  1.00  0.00     0.016 A 
ATOM     14  C   UNL     1      62.648  50.370  32.290  1.00  0.00     0.051 A 
ATOM     15  C   UNL     1      61.365  50.932  32.346  1.00  0.00     0.157 A 
ATOM     16  C   UNL     1      61.849  51.779  34.568  1.00  0.00     0.062 A 
ATOM     17  C   UNL     1      60.967  51.643  33.490  1.00  0.00     0.158 A 
BRANCH  15  18
ATOM     18  O   UNL     1      60.491  50.791  31.270  1.00  0.00    -0.504 OA
ATOM     19  H   UNL     1      60.434  51.490  30.538  1.00  0.00     0.293 HD
ENDBRANCH  15  18
BRANCH  17  20
ATOM     20  O   UNL     1      59.700  52.220  33.575  1.00  0.00    -0.504 OA
ATOM     21  H   UNL     1      59.568  53.198  33.802  1.00  0.00     0.293 HD
ENDBRANCH  17  20
ENDBRANCH   1  12
BRANCH   2  22
ATOM     22  O   UNL     1      65.173  53.252  34.602  1.00  0.00    -0.502 OA
ATOM     23  H   UNL     1      65.688  52.981  33.773  1.00  0.00     0.293 HD
ENDBRANCH   2  22
BRANCH   6  24
ATOM     24  O   UNL     1      67.313  52.736  39.453  1.00  0.00    -0.507 OA
ATOM     25  H   UNL     1      68.286  52.760  39.190  1.00  0.00     0.293 HD
ENDBRANCH   6  24
BRANCH   8  26
ATOM     26  O   UNL     1      65.189  48.672  40.880  1.00  0.00    -0.508 OA
ATOM     27  H   UNL     1      65.903  47.972  41.044  1.00  0.00     0.293 HD
ENDBRANCH   8  26
TORSDOF 6
ENDMDL
MODEL 3
REMARK VINA RESULT:    -4.901      2.149      7.537
REMARK INTER + INTRA:          -6.233
REMARK INTER:                  -5.943
REMARK INTRA:                  -0.290
REMARK UNBOUND:                -0.330
REMARK SMILES O=c1c(O)c(-c2ccc(O)c(O)c2)oc2cc(O)cc(O)c12
REMARK SMILES IDX 5 1 3 2 2 3 1 4 22 5 20 6 19 7 17 8 16 9 15 10 14 11 6 12
REMARK SMILES IDX 7 13 8 14 9 15 13 16 11 17 10 18 12 20 4 22 21 24 18 26
REMARK H PARENT 10 19 12 21 4 23 21 25 18 27
REMARK Flexibility Score: inf
ROOT
ATOM      1  C   UNL     1      65.595  50.854  37.601  1.00  0.00     0.180 A 
ATOM      2  C   UNL     1      65.216  50.868  38.954  1.00  0.00     0.208 A 
ATOM      3  C   UNL     1      65.970  50.132  39.881  1.00  0.00     0.238 A 
ATOM      4  O   UNL     1      65.658  50.192  41.099  1.00  0.00    -0.285 OA
ATOM      5  C   UNL     1      67.084  49.375  39.441  1.00  0.00     0.111 A 
ATOM      6  C   UNL     1      67.894  48.560  40.286  1.00  0.00     0.134 A 
ATOM      7  C   UNL     1      69.049  47.960  39.767  1.00  0.00     0.093 A 
ATOM      8  C   UNL     1      69.384  48.094  38.417  1.00  0.00     0.123 A 
ATOM      9  C   UNL     1      68.567  48.839  37.571  1.00  0.00     0.094 A 
ATOM     10  C   UNL     1      67.429  49.479  38.068  1.00  0.00     0.146 A 
ATOM     11  O   UNL     1      66.683  50.188  37.230  1.00  0.00    -0.452 OA
ENDROOT
BRANCH   1  12
ATOM     12  C   UNL     1      64.836  51.586  36.561  1.00  0.00     0.025 A 
ATOM     13  C   UNL     1      64.985  52.973  36.386  1.00  0.00     0.016 A 
ATOM     14  C   UNL     1      64.242  53.646  35.414  1.00  0.00     0.051 A 
ATOM     15  C   UNL     1      63.328  52.949  34.612  1.00  0.00     0.157 A 
ATOM     16  C   UNL     1      63.904  50.894  35.769  1.00  0.00     0.062 A 
ATOM     17  C   UNL     1      63.157  51.566  34.795  1.00  0.00     0.158 A 
BRANCH  15  18
ATOM     18  O   UNL     1      62.589  53.623  33.642  1.00  0.00    -0.504 OA
ATOM     19  H   UNL     1      62.212  53.142  32.834  1.00  0.00     0.293 HD
ENDBRANCH  15  18
BRANCH  17  20
ATOM     20  O   UNL     1      62.252  50.844  34.018  1.00  0.00    -0.504 OA
ATOM     21  H   UNL     1      61.251  50.980  34.092  1.00  0.00     0.293 HD
ENDBRANCH  17  20
ENDBRANCH   1  12
BRANCH   2  22
ATOM     22  O   UNL     1      64.127  51.639  39.371  1.00  0.00    -0.502 OA
ATOM     23  H   UNL     1      64.049  52.628  39.166  1.00  0.00     0.293 HD
ENDBRANCH   2  22
BRANCH   6  24
ATOM     24  O   UNL     1      67.598  48.287  41.625  1.00  0.00    -0.507 OA
ATOM     25  H   UNL     1      66.773  48.610  42.107  1.00  0.00     0.293 HD
ENDBRANCH   6  24
BRANCH   8  26
ATOM     26  O   UNL     1      70.526  47.481  37.905  1.00  0.00    -0.508 OA
ATOM     27  H   UNL     1      70.632  46.473  37.907  1.00  0.00     0.293 HD
ENDBRANCH   8  26
TORSDOF 6
ENDMDL
MODEL 4
REMARK VINA RESULT:    -4.875      1.723      3.646
REMARK INTER + INTRA:          -6.203
REMARK INTER:                  -5.914
REMARK INTRA:                  -0.289
REMARK UNBOUND:                -0.330
REMARK SMILES O=c1c(O)c(-c2ccc(O)c(O)c2)oc2cc(O)cc(O)c12
REMARK SMILES IDX 5 1 3 2 2 3 1 4 22 5 20 6 19 7 17 8 16 9 15 10 14 11 6 12
REMARK SMILES IDX 7 13 8 14 9 15 13 16 11 17 10 18 12 20 4 22 21 24 18 26
REMARK H PARENT 10 19 12 21 4 23 21 25 18 27
REMARK Flexibility Score: inf
ROOT
ATOM      1  C   UNL     1      64.099  52.158  35.970  1.00  0.00     0.180 A 
ATOM      2  C   UNL     1      63.285  51.791  34.885  1.00  0.00     0.208 A 
ATOM      3  C   UNL     1      62.475  52.764  34.280  1.00  0.00     0.238 A 
ATOM      4  O   UNL     1      61.791  52.443  33.274  1.00  0.00    -0.285 OA
ATOM      5  C   UNL     1      62.475  54.090  34.779  1.00  0.00     0.111 A 
ATOM      6  C   UNL     1      61.663  55.147  34.269  1.00  0.00     0.134 A 
ATOM      7  C   UNL     1      61.841  56.449  34.755  1.00  0.00     0.093 A 
ATOM      8  C   UNL     1      62.754  56.718  35.777  1.00  0.00     0.123 A 
ATOM      9  C   UNL     1      63.509  55.682  36.322  1.00  0.00     0.094 A 
ATOM     10  C   UNL     1      63.380  54.379  35.834  1.00  0.00     0.146 A 
ATOM     11  O   UNL     1      64.125  53.423  36.373  1.00  0.00    -0.452 OA
ENDROOT
BRANCH   1  12
ATOM     12  C   UNL     1      64.961  51.182  36.675  1.00  0.00     0.025 A 
ATOM     13  C   UNL     1      66.338  51.092  36.403  1.00  0.00     0.016 A 
ATOM     14  C   UNL     1      67.128  50.149  37.063  1.00  0.00     0.051 A 
ATOM     15  C   UNL     1      66.555  49.272  37.994  1.00  0.00     0.157 A 
ATOM     16  C   UNL     1      64.387  50.288  37.593  1.00  0.00     0.062 A 
ATOM     17  C   UNL     1      65.176  49.341  38.256  1.00  0.00     0.158 A 
BRANCH  15  18
ATOM     18  O   UNL     1      67.346  48.333  38.653  1.00  0.00    -0.504 OA
ATOM     19  H   UNL     1      68.244  48.582  39.050  1.00  0.00     0.293 HD
ENDBRANCH  15  18
BRANCH  17  20
ATOM     20  O   UNL     1      64.573  48.479  39.172  1.00  0.00    -0.504 OA
ATOM     21  H   UNL     1      63.578  48.502  39.359  1.00  0.00     0.293 HD
ENDBRANCH  17  20
ENDBRANCH   1  12
BRANCH   2  22
ATOM     22  O   UNL     1      63.318  50.482  34.393  1.00  0.00    -0.502 OA
ATOM     23  H   UNL     1      64.181  50.015  34.145  1.00  0.00     0.293 HD
ENDBRANCH   2  22
BRANCH   6  24
ATOM     24  O   UNL     1      60.658  54.969  33.314  1.00  0.00    -0.507 OA
ATOM     25  H   UNL     1      59.719  55.327  33.397  1.00  0.00     0.293 HD
ENDBRANCH   6  24
BRANCH   8  26
ATOM     26  O   UNL     1      62.914  58.014  36.265  1.00  0.00    -0.508 OA
ATOM     27  H   UNL     1      63.306  58.190  37.182  1.00  0.00     0.293 HD
ENDBRANCH   8  26
TORSDOF 6
ENDMDL
MODEL 5
REMARK VINA RESULT:    -4.849      1.780      6.963
REMARK INTER + INTRA:          -6.172
REMARK INTER:                  -5.974
REMARK INTRA:                  -0.198
REMARK UNBOUND:                -0.330
REMARK SMILES O=c1c(O)c(-c2ccc(O)c(O)c2)oc2cc(O)cc(O)c12
REMARK SMILES IDX 5 1 3 2 2 3 1 4 22 5 20 6 19 7 17 8 16 9 15 10 14 11 6 12
REMARK SMILES IDX 7 13 8 14 9 15 13 16 11 17 10 18 12 20 4 22 21 24 18 26
REMARK H PARENT 10 19 12 21 4 23 21 25 18 27
REMARK Flexibility Score: inf
ROOT
ATOM      1  C   UNL     1      64.151  51.076  35.211  1.00  0.00     0.180 A 
ATOM      2  C   UNL     1      65.481  51.422  34.917  1.00  0.00     0.208 A 
ATOM      3  C   UNL     1      66.467  51.236  35.898  1.00  0.00     0.238 A 
ATOM      4  O   UNL     1      67.664  51.496  35.609  1.00  0.00    -0.285 OA
ATOM      5  C   UNL     1      66.110  50.723  37.168  1.00  0.00     0.111 A 
ATOM      6  C   UNL     1      67.020  50.533  38.251  1.00  0.00     0.134 A 
ATOM      7  C   UNL     1      66.580  49.897  39.419  1.00  0.00     0.093 A 
ATOM      8  C   UNL     1      65.248  49.504  39.567  1.00  0.00     0.123 A 
ATOM      9  C   UNL     1      64.338  49.740  38.539  1.00  0.00     0.094 A 
ATOM     10  C   UNL     1      64.755  50.339  37.348  1.00  0.00     0.146 A 
ATOM     11  O   UNL     1      63.858  50.536  36.389  1.00  0.00    -0.452 OA
ENDROOT
BRANCH   1  12
ATOM     12  C   UNL     1      63.052  51.265  34.238  1.00  0.00     0.025 A 
ATOM     13  C   UNL     1      62.032  52.208  34.459  1.00  0.00     0.016 A 
ATOM     14  C   UNL     1      60.993  52.353  33.538  1.00  0.00     0.051 A 
ATOM     15  C   UNL     1      60.947  51.551  32.389  1.00  0.00     0.157 A 
ATOM     16  C   UNL     1      62.991  50.449  33.096  1.00  0.00     0.062 A 
ATOM     17  C   UNL     1      61.951  50.592  32.171  1.00  0.00     0.158 A 
BRANCH  15  18
ATOM     18  O   UNL     1      59.910  51.699  31.471  1.00  0.00    -0.504 OA
ATOM     19  H   UNL     1      59.409  50.899  31.103  1.00  0.00     0.293 HD
ENDBRANCH  15  18
BRANCH  17  20
ATOM     20  O   UNL     1      61.931  49.773  31.042  1.00  0.00    -0.504 OA
ATOM     21  H   UNL     1      61.078  49.583  30.530  1.00  0.00     0.293 HD
ENDBRANCH  17  20
ENDBRANCH   1  12
BRANCH   2  22
ATOM     22  O   UNL     1      65.817  51.906  33.648  1.00  0.00    -0.502 OA
ATOM     23  H   UNL     1      65.649  52.865  33.370  1.00  0.00     0.293 HD
ENDBRANCH   2  22
BRANCH   6  24
ATOM     24  O   UNL     1      68.347  50.970  38.241  1.00  0.00    -0.507 OA
ATOM     25  H   UNL     1      68.640  51.920  38.414  1.00  0.00     0.293 HD
ENDBRANCH   6  24
BRANCH   8  26
ATOM     26  O   UNL     1      64.815  48.885  40.738  1.00  0.00    -0.508 OA
ATOM     27  H   UNL     1      64.094  48.174  40.727  1.00  0.00     0.293 HD
ENDBRANCH   8  26
TORSDOF 6
ENDMDL
MODEL 6
REMARK VINA RESULT:    -4.830      2.747      3.504
REMARK INTER + INTRA:          -6.148
REMARK INTER:                  -6.004
REMARK INTRA:                  -0.145
REMARK UNBOUND:                -0.330
REMARK SMILES O=c1c(O)c(-c2ccc(O)c(O)c2)oc2cc(O)cc(O)c12
REMARK SMILES IDX 5 1 3 2 2 3 1 4 22 5 20 6 19 7 17 8 16 9 15 10 14 11 6 12
REMARK SMILES IDX 7 13 8 14 9 15 13 16 11 17 10 18 12 20 4 22 21 24 18 26
REMARK H PARENT 10 19 12 21 4 23 21 25 18 27
REMARK Flexibility Score: inf
ROOT
ATOM      1  C   UNL     1      65.056  51.094  35.895  1.00  0.00     0.180 A 
ATOM      2  C   UNL     1      63.801  51.045  35.263  1.00  0.00     0.208 A 
ATOM      3  C   UNL     1      63.738  51.132  33.864  1.00  0.00     0.238 A 
ATOM      4  O   UNL     1      62.617  51.033  33.301  1.00  0.00    -0.285 OA
ATOM      5  C   UNL     1      64.930  51.285  33.113  1.00  0.00     0.111 A 
ATOM      6  C   UNL     1      64.980  51.424  31.694  1.00  0.00     0.134 A 
ATOM      7  C   UNL     1      66.222  51.437  31.045  1.00  0.00     0.093 A 
ATOM      8  C   UNL     1      67.414  51.382  31.772  1.00  0.00     0.123 A 
ATOM      9  C   UNL     1      67.375  51.306  33.162  1.00  0.00     0.094 A 
ATOM     10  C   UNL     1      66.152  51.254  33.835  1.00  0.00     0.146 A 
ATOM     11  O   UNL     1      66.159  51.171  35.159  1.00  0.00    -0.452 OA
ENDROOT
BRANCH   1  12
ATOM     12  C   UNL     1      65.201  51.033  37.367  1.00  0.00     0.025 A 
ATOM     13  C   UNL     1      65.752  52.104  38.093  1.00  0.00     0.016 A 
ATOM     14  C   UNL     1      65.901  52.015  39.479  1.00  0.00     0.051 A 
ATOM     15  C   UNL     1      65.516  50.852  40.159  1.00  0.00     0.157 A 
ATOM     16  C   UNL     1      64.836  49.861  38.050  1.00  0.00     0.062 A 
ATOM     17  C   UNL     1      64.985  49.769  39.439  1.00  0.00     0.158 A 
BRANCH  15  18
ATOM     18  O   UNL     1      65.664  50.767  41.542  1.00  0.00    -0.504 OA
ATOM     19  H   UNL     1      65.210  50.038  42.080  1.00  0.00     0.293 HD
ENDBRANCH  15  18
BRANCH  17  20
ATOM     20  O   UNL     1      64.598  48.595  40.085  1.00  0.00    -0.504 OA
ATOM     21  H   UNL     1      63.906  47.967  39.693  1.00  0.00     0.293 HD
ENDBRANCH  17  20
ENDBRANCH   1  12
BRANCH   2  22
ATOM     22  O   UNL     1      62.639  50.872  36.022  1.00  0.00    -0.502 OA
ATOM     23  H   UNL     1      61.816  50.408  35.658  1.00  0.00     0.293 HD
ENDBRANCH   2  22
BRANCH   6  24
ATOM     24  O   UNL     1      63.852  51.579  30.884  1.00  0.00    -0.507 OA
ATOM     25  H   UNL     1      63.620  52.420  30.377  1.00  0.00     0.293 HD
ENDBRANCH   6  24
BRANCH   8  26
ATOM     26  O   UNL     1      68.646  51.411  31.120  1.00  0.00    -0.508 OA
ATOM     27  H   UNL     1      68.771  50.993  30.206  1.00  0.00     0.293 HD
ENDBRANCH   8  26
TORSDOF 6
ENDMDL
MODEL 7
REMARK VINA RESULT:    -4.798      1.493      2.111
REMARK INTER + INTRA:          -6.110
REMARK INTER:                  -5.811
REMARK INTRA:                  -0.299
REMARK UNBOUND:                -0.330
REMARK SMILES O=c1c(O)c(-c2ccc(O)c(O)c2)oc2cc(O)cc(O)c12
REMARK SMILES IDX 5 1 3 2 2 3 1 4 22 5 20 6 19 7 17 8 16 9 15 10 14 11 6 12
REMARK SMILES IDX 7 13 8 14 9 15 13 16 11 17 10 18 12 20 4 22 21 24 18 26
REMARK H PARENT 10 19 12 21 4 23 21 25 18 27
REMARK Flexibility Score: inf
ROOT
ATOM      1  C   UNL     1      63.256  51.121  34.374  1.00  0.00     0.180 A 
ATOM      2  C   UNL     1      62.347  52.189  34.274  1.00  0.00     0.208 A 
ATOM      3  C   UNL     1      61.422  52.200  33.219  1.00  0.00     0.238 A 
ATOM      4  O   UNL     1      60.575  53.130  33.167  1.00  0.00    -0.285 OA
ATOM      5  C   UNL     1      61.426  51.152  32.267  1.00  0.00     0.111 A 
ATOM      6  C   UNL     1      60.560  51.083  31.135  1.00  0.00     0.134 A 
ATOM      7  C   UNL     1      60.563  49.934  30.332  1.00  0.00     0.093 A 
ATOM      8  C   UNL     1      61.449  48.883  30.583  1.00  0.00     0.123 A 
ATOM      9  C   UNL     1      62.339  48.968  31.651  1.00  0.00     0.094 A 
ATOM     10  C   UNL     1      62.334  50.084  32.491  1.00  0.00     0.146 A 
ATOM     11  O   UNL     1      63.192  50.121  33.503  1.00  0.00    -0.452 OA
ENDROOT
BRANCH   1  12
ATOM     12  C   UNL     1      64.277  51.052  35.443  1.00  0.00     0.025 A 
ATOM     13  C   UNL     1      65.615  51.412  35.202  1.00  0.00     0.016 A 
ATOM     14  C   UNL     1      66.567  51.317  36.220  1.00  0.00     0.051 A 
ATOM     15  C   UNL     1      66.201  50.847  37.489  1.00  0.00     0.157 A 
ATOM     16  C   UNL     1      63.920  50.562  36.710  1.00  0.00     0.062 A 
ATOM     17  C   UNL     1      64.872  50.465  37.732  1.00  0.00     0.158 A 
BRANCH  15  18
ATOM     18  O   UNL     1      67.153  50.755  38.502  1.00  0.00    -0.504 OA
ATOM     19  H   UNL     1      67.492  49.858  38.831  1.00  0.00     0.293 HD
ENDBRANCH  15  18
BRANCH  17  20
ATOM     20  O   UNL     1      64.477  49.987  38.982  1.00  0.00    -0.504 OA
ATOM     21  H   UNL     1      65.148  49.694  39.682  1.00  0.00     0.293 HD
ENDBRANCH  17  20
ENDBRANCH   1  12
BRANCH   2  22
ATOM     22  O   UNL     1      62.345  53.202  35.238  1.00  0.00    -0.502 OA
ATOM     23  H   UNL     1      63.181  53.716  35.489  1.00  0.00     0.293 HD
ENDBRANCH   2  22
BRANCH   6  24
ATOM     24  O   UNL     1      59.703  52.115  30.742  1.00  0.00    -0.507 OA
ATOM     25  H   UNL     1      59.465  52.331  29.786  1.00  0.00     0.293 HD
ENDBRANCH   6  24
BRANCH   8  26
ATOM     26  O   UNL     1      61.457  47.751  29.770  1.00  0.00    -0.508 OA
ATOM     27  H   UNL     1      61.573  46.822  30.157  1.00  0.00     0.293 HD
ENDBRANCH   8  26
TORSDOF 6
ENDMDL
MODEL 8
REMARK VINA RESULT:    -4.744      2.482      7.065
REMARK INTER + INTRA:          -6.045
REMARK INTER:                  -5.742
REMARK INTRA:                  -0.303
REMARK UNBOUND:                -0.330
REMARK SMILES O=c1c(O)c(-c2ccc(O)c(O)c2)oc2cc(O)cc(O)c12
REMARK SMILES IDX 5 1 3 2 2 3 1 4 22 5 20 6 19 7 17 8 16 9 15 10 14 11 6 12
REMARK SMILES IDX 7 13 8 14 9 15 13 16 11 17 10 18 12 20 4 22 21 24 18 26
REMARK H PARENT 10 19 12 21 4 23 21 25 18 27
REMARK Flexibility Score: inf
ROOT
ATOM      1  C   UNL     1      65.322  51.423  37.030  1.00  0.00     0.180 A 
ATOM      2  C   UNL     1      65.014  52.607  37.720  1.00  0.00     0.208 A 
ATOM      3  C   UNL     1      65.268  52.679  39.099  1.00  0.00     0.238 A 
ATOM      4  O   UNL     1      65.041  53.761  39.701  1.00  0.00    -0.285 OA
ATOM      5  C   UNL     1      65.812  51.559  39.774  1.00  0.00     0.111 A 
ATOM      6  C   UNL     1      66.072  51.507  41.176  1.00  0.00     0.134 A 
ATOM      7  C   UNL     1      66.732  50.394  41.715  1.00  0.00     0.093 A 
ATOM      8  C   UNL     1      67.082  49.306  40.911  1.00  0.00     0.123 A 
ATOM      9  C   UNL     1      66.778  49.324  39.552  1.00  0.00     0.094 A 
ATOM     10  C   UNL     1      66.153  50.434  38.980  1.00  0.00     0.146 A 
ATOM     11  O   UNL     1      65.891  50.414  37.679  1.00  0.00    -0.452 OA
ENDROOT
BRANCH   1  12
ATOM     12  C   UNL     1      65.060  51.263  35.582  1.00  0.00     0.025 A 
ATOM     13  C   UNL     1      66.070  51.479  34.626  1.00  0.00     0.016 A 
ATOM     14  C   UNL     1      65.794  51.345  33.264  1.00  0.00     0.051 A 
ATOM     15  C   UNL     1      64.504  51.007  32.833  1.00  0.00     0.157 A 
ATOM     16  C   UNL     1      63.763  50.945  35.144  1.00  0.00     0.062 A 
ATOM     17  C   UNL     1      63.484  50.810  33.779  1.00  0.00     0.158 A 
BRANCH  15  18
ATOM     18  O   UNL     1      64.232  50.872  31.473  1.00  0.00    -0.504 OA
ATOM     19  H   UNL     1      64.535  51.566  30.800  1.00  0.00     0.293 HD
ENDBRANCH  15  18
BRANCH  17  20
ATOM     20  O   UNL     1      62.188  50.479  33.383  1.00  0.00    -0.504 OA
ATOM     21  H   UNL     1      61.906  49.522  33.211  1.00  0.00     0.293 HD
ENDBRANCH  17  20
ENDBRANCH   1  12
BRANCH   2  22
ATOM     22  O   UNL     1      64.498  53.709  37.030  1.00  0.00    -0.502 OA
ATOM     23  H   UNL     1      64.981  54.598  36.986  1.00  0.00     0.293 HD
ENDBRANCH   2  22
BRANCH   6  24
ATOM     24  O   UNL     1      65.682  52.499  42.081  1.00  0.00    -0.507 OA
ATOM     25  H   UNL     1      64.888  53.108  41.956  1.00  0.00     0.293 HD
ENDBRANCH   6  24
BRANCH   8  26
ATOM     26  O   UNL     1      67.725  48.197  41.458  1.00  0.00    -0.508 OA
ATOM     27  H   UNL     1      67.208  47.465  41.930  1.00  0.00     0.293 HD
ENDBRANCH   8  26
TORSDOF 6
ENDMDL
MODEL 9
REMARK VINA RESULT:    -4.738      2.077      2.631
REMARK INTER + INTRA:          -6.038
REMARK INTER:                  -5.791
REMARK INTRA:                  -0.247
REMARK UNBOUND:                -0.330
REMARK SMILES O=c1c(O)c(-c2ccc(O)c(O)c2)oc2cc(O)cc(O)c12
REMARK SMILES IDX 5 1 3 2 2 3 1 4 22 5 20 6 19 7 17 8 16 9 15 10 14 11 6 12
REMARK SMILES IDX 7 13 8 14 9 15 13 16 11 17 10 18 12 20 4 22 21 24 18 26
REMARK H PARENT 10 19 12 21 4 23 21 25 18 27
REMARK Flexibility Score: inf
ROOT
ATOM      1  C   UNL     1      64.633  51.233  35.949  1.00  0.00     0.180 A 
ATOM      2  C   UNL     1      65.661  51.158  34.994  1.00  0.00     0.208 A 
ATOM      3  C   UNL     1      65.332  51.224  33.632  1.00  0.00     0.238 A 
ATOM      4  O   UNL     1      66.262  51.212  32.783  1.00  0.00    -0.285 OA
ATOM      5  C   UNL     1      63.977  51.348  33.239  1.00  0.00     0.111 A 
ATOM      6  C   UNL     1      63.525  51.384  31.886  1.00  0.00     0.134 A 
ATOM      7  C   UNL     1      62.175  51.640  31.615  1.00  0.00     0.093 A 
ATOM      8  C   UNL     1      61.250  51.797  32.651  1.00  0.00     0.123 A 
ATOM      9  C   UNL     1      61.672  51.705  33.975  1.00  0.00     0.094 A 
ATOM     10  C   UNL     1      63.018  51.486  34.277  1.00  0.00     0.146 A 
ATOM     11  O   UNL     1      63.379  51.415  35.552  1.00  0.00    -0.452 OA
ENDROOT
BRANCH   1  12
ATOM     12  C   UNL     1      64.899  51.146  37.403  1.00  0.00     0.025 A 
ATOM     13  C   UNL     1      65.492  52.211  38.105  1.00  0.00     0.016 A 
ATOM     14  C   UNL     1      65.755  52.097  39.471  1.00  0.00     0.051 A 
ATOM     15  C   UNL     1      65.443  50.915  40.156  1.00  0.00     0.157 A 
ATOM     16  C   UNL     1      64.607  49.955  38.089  1.00  0.00     0.062 A 
ATOM     17  C   UNL     1      64.869  49.838  39.459  1.00  0.00     0.158 A 
BRANCH  15  18
ATOM     18  O   UNL     1      65.705  50.805  41.520  1.00  0.00    -0.504 OA
ATOM     19  H   UNL     1      66.652  50.752  41.876  1.00  0.00     0.293 HD
ENDBRANCH  15  18
BRANCH  17  20
ATOM     20  O   UNL     1      64.553  48.646  40.110  1.00  0.00    -0.504 OA
ATOM     21  H   UNL     1      65.236  48.132  40.653  1.00  0.00     0.293 HD
ENDBRANCH  17  20
ENDBRANCH   1  12
BRANCH   2  22
ATOM     22  O   UNL     1      66.995  51.058  35.403  1.00  0.00    -0.502 OA
ATOM     23  H   UNL     1      67.634  51.843  35.372  1.00  0.00     0.293 HD
ENDBRANCH   2  22
BRANCH   6  24
ATOM     24  O   UNL     1      64.349  51.149  30.781  1.00  0.00    -0.507 OA
ATOM     25  H   UNL     1      64.831  50.282  30.599  1.00  0.00     0.293 HD
ENDBRANCH   6  24
BRANCH   8  26
ATOM     26  O   UNL     1      59.906  52.036  32.373  1.00  0.00    -0.508 OA
ATOM     27  H   UNL     1      59.496  51.786  31.480  1.00  0.00     0.293 HD
ENDBRANCH   8  26
TORSDOF 6
ENDMDL
