MODEL 1
REMARK VINA RESULT:    24.290      0.000      0.000
REMARK INTER + INTRA:          33.217
REMARK INTER:                  33.521
REMARK INTRA:                  -0.303
REMARK UNBOUND:                -0.303
REMARK SMILES O=C([O-])[C@@H]1O[C@@H](Oc2cc3oc(-c4ccccc4)cc(=O)c3c(O)c2O)[C@H](O)[C@@H](O)[C@H]1O
REMARK SMILES IDX 7 1 6 2 4 3 31 4 5 5 29 6 27 7 2 8 1 9 3 10 32 11 30 13
REMARK SMILES IDX 28 15 8 17 25 18 9 19 23 20 10 21 22 22 11 23 20 24 12 25
REMARK SMILES IDX 19 26 21 27 26 28 24 30 13 32 14 33 18 34 15 35 17 36 16 37
REMARK H PARENT 32 12 30 14 28 16 26 29 24 31
REMARK Flexibility Score: inf
ROOT
ATOM      1  O   UNL     1      12.503  20.865   1.547  1.00  0.00    -0.458 OA
ENDROOT
BRANCH   1   2
ATOM      2  C   UNL     1      13.286  21.280   0.423  1.00  0.00     0.339 C 
ATOM      3  C   UNL     1      14.761  23.005  -0.290  1.00  0.00     0.199 C 
ATOM      4  C   UNL     1      13.808  23.457  -1.443  1.00  0.00     0.180 C 
ATOM      5  O   UNL     1      14.063  22.412   0.800  1.00  0.00    -0.328 OA
ATOM      6  C   UNL     1      12.356  23.058  -1.152  1.00  0.00     0.181 C 
ATOM      7  C   UNL     1      12.309  21.578  -0.749  1.00  0.00     0.214 C 
BRANCH   3   8
ATOM      8  C   UNL     1      15.913  22.150  -0.768  1.00  0.00     0.073 C 
ATOM      9  O   UNL     1      15.857  21.578  -1.887  1.00  0.00    -0.547 OA
ATOM     10  O   UNL     1      16.992  21.885   0.068  1.00  0.00    -0.547 OA
ENDBRANCH   3   8
BRANCH   4  11
ATOM     11  O   UNL     1      13.877  24.849  -1.628  1.00  0.00    -0.387 OA
ATOM     12  H   UNL     1      14.807  25.053  -1.914  1.00  0.00     0.211 HD
ENDBRANCH   4  11
BRANCH   6  13
ATOM     13  O   UNL     1      11.833  23.843  -0.107  1.00  0.00    -0.387 OA
ATOM     14  H   UNL     1      11.219  24.510  -0.516  1.00  0.00     0.211 HD
ENDBRANCH   6  13
BRANCH   7  15
ATOM     15  O   UNL     1      12.640  20.769  -1.850  1.00  0.00    -0.384 OA
ATOM     16  H   UNL     1      13.216  21.314  -2.448  1.00  0.00     0.211 HD
ENDBRANCH   7  15
ENDBRANCH   1   2
BRANCH   1  17
ATOM     17  C   UNL     1      12.837  21.012   2.904  1.00  0.00     0.172 A 
ATOM     18  C   UNL     1      12.606  20.016   3.879  1.00  0.00     0.201 A 
ATOM     19  C   UNL     1      13.414  22.224   3.283  1.00  0.00     0.098 A 
ATOM     20  C   UNL     1      13.060  20.212   5.208  1.00  0.00     0.176 A 
ATOM     21  C   UNL     1      13.824  22.448   4.594  1.00  0.00     0.146 A 
ATOM     22  C   UNL     1      13.661  21.442   5.570  1.00  0.00     0.111 A 
ATOM     23  O   UNL     1      14.378  23.615   4.907  1.00  0.00    -0.456 OA
ATOM     24  C   UNL     1      14.125  21.723   6.875  1.00  0.00     0.197 A 
ATOM     25  C   UNL     1      14.813  23.917   6.127  1.00  0.00     0.138 A 
ATOM     26  C   UNL     1      14.703  22.962   7.151  1.00  0.00     0.100 A 
ATOM     27  O   UNL     1      14.036  20.873   7.802  1.00  0.00    -0.289 OA
BRANCH  18  28
ATOM     28  O   UNL     1      11.889  18.875   3.519  1.00  0.00    -0.502 OA
ATOM     29  H   UNL     1      10.955  18.888   3.132  1.00  0.00     0.293 HD
ENDBRANCH  18  28
BRANCH  20  30
ATOM     30  O   UNL     1      12.939  19.203   6.170  1.00  0.00    -0.504 OA
ATOM     31  H   UNL     1      13.621  19.020   6.892  1.00  0.00     0.293 HD
ENDBRANCH  20  30
BRANCH  25  32
ATOM     32  C   UNL     1      15.418  25.256   6.358  1.00  0.00     0.017 A 
ATOM     33  C   UNL     1      16.661  25.562   5.772  1.00  0.00     0.012 A 
ATOM     34  C   UNL     1      14.768  26.246   7.122  1.00  0.00     0.012 A 
ATOM     35  C   UNL     1      17.246  26.818   5.960  1.00  0.00     0.001 A 
ATOM     36  C   UNL     1      15.359  27.500   7.307  1.00  0.00     0.001 A 
ATOM     37  C   UNL     1      16.596  27.785   6.728  1.00  0.00     0.000 A 
ENDBRANCH  25  32
ENDBRANCH   1  17
TORSDOF 9
ENDMDL
MODEL 2
REMARK VINA RESULT:    24.929      1.010      1.969
REMARK INTER + INTRA:          34.098
REMARK INTER:                  35.010
REMARK INTRA:                  -0.912
REMARK UNBOUND:                -0.303
REMARK SMILES O=C([O-])[C@@H]1O[C@@H](Oc2cc3oc(-c4ccccc4)cc(=O)c3c(O)c2O)[C@H](O)[C@@H](O)[C@H]1O
REMARK SMILES IDX 7 1 6 2 4 3 31 4 5 5 29 6 27 7 2 8 1 9 3 10 32 11 30 13
REMARK SMILES IDX 28 15 8 17 25 18 9 19 23 20 10 21 22 22 11 23 20 24 12 25
REMARK SMILES IDX 19 26 21 27 26 28 24 30 13 32 14 33 18 34 15 35 17 36 16 37
REMARK H PARENT 32 12 30 14 28 16 26 29 24 31
REMARK Flexibility Score: inf
ROOT
ATOM      1  O   UNL     1      12.873  21.207   1.077  1.00  0.00    -0.458 OA
ENDROOT
BRANCH   1   2
ATOM      2  C   UNL     1      13.510  22.012   0.080  1.00  0.00     0.339 C 
ATOM      3  C   UNL     1      13.036  23.287  -1.873  1.00  0.00     0.199 C 
ATOM      4  C   UNL     1      13.920  22.375  -2.783  1.00  0.00     0.180 C 
ATOM      5  O   UNL     1      12.506  22.593  -0.748  1.00  0.00    -0.328 OA
ATOM      6  C   UNL     1      14.077  20.973  -2.181  1.00  0.00     0.181 C 
ATOM      7  C   UNL     1      14.491  21.099  -0.708  1.00  0.00     0.214 C 
BRANCH   3   8
ATOM      8  C   UNL     1      13.716  24.580  -1.482  1.00  0.00     0.073 C 
ATOM      9  O   UNL     1      14.767  24.946  -2.068  1.00  0.00    -0.547 OA
ATOM     10  O   UNL     1      13.261  25.318  -0.395  1.00  0.00    -0.547 OA
ENDBRANCH   3   8
BRANCH   4  11
ATOM     11  O   UNL     1      13.361  22.267  -4.069  1.00  0.00    -0.387 OA
ATOM     12  H   UNL     1      12.784  21.458  -4.062  1.00  0.00     0.211 HD
ENDBRANCH   4  11
BRANCH   6  13
ATOM     13  O   UNL     1      12.862  20.267  -2.265  1.00  0.00    -0.387 OA
ATOM     14  H   UNL     1      12.912  19.689  -3.072  1.00  0.00     0.211 HD
ENDBRANCH   6  13
BRANCH   7  15
ATOM     15  O   UNL     1      15.792  21.625  -0.619  1.00  0.00    -0.384 OA
ATOM     16  H   UNL     1      16.199  21.255   0.208  1.00  0.00     0.211 HD
ENDBRANCH   7  15
ENDBRANCH   1   2
BRANCH   1  17
ATOM     17  C   UNL     1      13.076  21.273   2.466  1.00  0.00     0.172 A 
ATOM     18  C   UNL     1      12.739  20.230   3.356  1.00  0.00     0.201 A 
ATOM     19  C   UNL     1      13.629  22.452   2.966  1.00  0.00     0.098 A 
ATOM     20  C   UNL     1      13.065  20.345   4.732  1.00  0.00     0.176 A 
ATOM     21  C   UNL     1      13.912  22.597   4.321  1.00  0.00     0.146 A 
ATOM     22  C   UNL     1      13.644  21.542   5.219  1.00  0.00     0.111 A 
ATOM     23  O   UNL     1      14.448  23.735   4.750  1.00  0.00    -0.456 OA
ATOM     24  C   UNL     1      13.982  21.743   6.575  1.00  0.00     0.197 A 
ATOM     25  C   UNL     1      14.767  23.962   6.022  1.00  0.00     0.138 A 
ATOM     26  C   UNL     1      14.546  22.955   6.976  1.00  0.00     0.100 A 
ATOM     27  O   UNL     1      13.793  20.846   7.441  1.00  0.00    -0.289 OA
BRANCH  18  28
ATOM     28  O   UNL     1      12.046  19.123   2.866  1.00  0.00    -0.502 OA
ATOM     29  H   UNL     1      12.323  18.595   2.050  1.00  0.00     0.293 HD
ENDBRANCH  18  28
BRANCH  20  30
ATOM     30  O   UNL     1      12.839  19.287   5.620  1.00  0.00    -0.504 OA
ATOM     31  H   UNL     1      13.316  18.398   5.579  1.00  0.00     0.293 HD
ENDBRANCH  20  30
BRANCH  25  32
ATOM     32  C   UNL     1      15.363  25.275   6.384  1.00  0.00     0.017 A 
ATOM     33  C   UNL     1      16.614  25.637   5.849  1.00  0.00     0.012 A 
ATOM     34  C   UNL     1      14.698  26.189   7.226  1.00  0.00     0.012 A 
ATOM     35  C   UNL     1      17.191  26.871   6.161  1.00  0.00     0.001 A 
ATOM     36  C   UNL     1      15.281  27.422   7.535  1.00  0.00     0.001 A 
ATOM     37  C   UNL     1      16.526  27.762   7.005  1.00  0.00     0.000 A 
ENDBRANCH  25  32
ENDBRANCH   1  17
TORSDOF 9
ENDMDL
