MODEL 1
REMARK VINA RESULT:    -5.896      0.000      0.000
REMARK INTER + INTRA:          -7.140
REMARK INTER:                  -7.103
REMARK INTRA:                  -0.037
REMARK UNBOUND:                -0.037
REMARK SMILES O=c1c(O)c(-c2ccc(O)c(O)c2)oc2cc(O)cc(O)c12
REMARK SMILES IDX 5 1 3 2 2 3 1 4 22 5 20 6 19 7 17 8 16 9 15 10 14 11 6 12
REMARK SMILES IDX 7 13 8 14 9 15 13 16 11 17 10 18 12 20 4 22 21 24 18 26
REMARK H PARENT 10 19 12 21 4 23 21 25 18 27
REMARK Flexibility Score: inf
ROOT
ATOM      1  C   UNL     1      17.944  30.059  33.815  1.00  0.00     0.180 A 
ATOM      2  C   UNL     1      18.737  29.123  34.500  1.00  0.00     0.208 A 
ATOM      3  C   UNL     1      19.309  28.060  33.783  1.00  0.00     0.238 A 
ATOM      4  O   UNL     1      19.955  27.185  34.416  1.00  0.00    -0.285 OA
ATOM      5  C   UNL     1      19.129  27.977  32.381  1.00  0.00     0.111 A 
ATOM      6  C   UNL     1      19.700  26.968  31.546  1.00  0.00     0.134 A 
ATOM      7  C   UNL     1      19.366  26.926  30.188  1.00  0.00     0.093 A 
ATOM      8  C   UNL     1      18.533  27.893  29.620  1.00  0.00     0.123 A 
ATOM      9  C   UNL     1      18.015  28.913  30.414  1.00  0.00     0.094 A 
ATOM     10  C   UNL     1      18.299  28.960  31.781  1.00  0.00     0.146 A 
ATOM     11  O   UNL     1      17.766  29.937  32.505  1.00  0.00    -0.452 OA
ENDROOT
BRANCH   1  12
ATOM     12  C   UNL     1      17.296  31.198  34.504  1.00  0.00     0.025 A 
ATOM     13  C   UNL     1      17.434  32.491  33.977  1.00  0.00     0.016 A 
ATOM     14  C   UNL     1      16.813  33.579  34.598  1.00  0.00     0.051 A 
ATOM     15  C   UNL     1      16.035  33.388  35.743  1.00  0.00     0.157 A 
ATOM     16  C   UNL     1      16.494  31.006  35.644  1.00  0.00     0.062 A 
ATOM     17  C   UNL     1      15.869  32.096  36.267  1.00  0.00     0.158 A 
BRANCH  15  18
ATOM     18  O   UNL     1      15.430  34.493  36.343  1.00  0.00    -0.504 OA
ATOM     19  H   UNL     1      15.948  35.139  36.927  1.00  0.00     0.293 HD
ENDBRANCH  15  18
BRANCH  17  20
ATOM     20  O   UNL     1      15.082  31.896  37.400  1.00  0.00    -0.504 OA
ATOM     21  H   UNL     1      14.749  30.975  37.661  1.00  0.00     0.293 HD
ENDBRANCH  17  20
ENDBRANCH   1  12
BRANCH   2  22
ATOM     22  O   UNL     1      18.965  29.265  35.872  1.00  0.00    -0.502 OA
ATOM     23  H   UNL     1      18.215  29.409  36.537  1.00  0.00     0.293 HD
ENDBRANCH   2  22
BRANCH   6  24
ATOM     24  O   UNL     1      20.613  26.008  31.993  1.00  0.00    -0.507 OA
ATOM     25  H   UNL     1      20.410  25.285  32.666  1.00  0.00     0.293 HD
ENDBRANCH   6  24
BRANCH   8  26
ATOM     26  O   UNL     1      18.220  27.852  28.263  1.00  0.00    -0.508 OA
ATOM     27  H   UNL     1      18.457  28.615  27.640  1.00  0.00     0.293 HD
ENDBRANCH   8  26
TORSDOF 6
ENDMDL
MODEL 2
REMARK VINA RESULT:    -5.869      1.561      6.710
REMARK INTER + INTRA:          -7.107
REMARK INTER:                  -7.235
REMARK INTRA:                   0.128
REMARK UNBOUND:                -0.037
REMARK SMILES O=c1c(O)c(-c2ccc(O)c(O)c2)oc2cc(O)cc(O)c12
REMARK SMILES IDX 5 1 3 2 2 3 1 4 22 5 20 6 19 7 17 8 16 9 15 10 14 11 6 12
REMARK SMILES IDX 7 13 8 14 9 15 13 16 11 17 10 18 12 20 4 22 21 24 18 26
REMARK H PARENT 10 19 12 21 4 23 21 25 18 27
REMARK Flexibility Score: inf
ROOT
ATOM      1  C   UNL     1      17.872  30.381  32.347  1.00  0.00     0.180 A 
ATOM      2  C   UNL     1      18.420  29.734  33.468  1.00  0.00     0.208 A 
ATOM      3  C   UNL     1      18.207  30.283  34.743  1.00  0.00     0.238 A 
ATOM      4  O   UNL     1      18.764  29.740  35.732  1.00  0.00    -0.285 OA
ATOM      5  C   UNL     1      17.402  31.438  34.887  1.00  0.00     0.111 A 
ATOM      6  C   UNL     1      17.081  32.055  36.136  1.00  0.00     0.134 A 
ATOM      7  C   UNL     1      16.363  33.255  36.148  1.00  0.00     0.093 A 
ATOM      8  C   UNL     1      15.898  33.830  34.962  1.00  0.00     0.123 A 
ATOM      9  C   UNL     1      16.158  33.208  33.745  1.00  0.00     0.094 A 
ATOM     10  C   UNL     1      16.906  32.029  33.695  1.00  0.00     0.146 A 
ATOM     11  O   UNL     1      17.148  31.482  32.511  1.00  0.00    -0.452 OA
ENDROOT
BRANCH   1  12
ATOM     12  C   UNL     1      18.065  29.872  30.971  1.00  0.00     0.025 A 
ATOM     13  C   UNL     1      18.391  30.770  29.942  1.00  0.00     0.016 A 
ATOM     14  C   UNL     1      18.599  30.309  28.639  1.00  0.00     0.051 A 
ATOM     15  C   UNL     1      18.500  28.945  28.348  1.00  0.00     0.157 A 
ATOM     16  C   UNL     1      17.987  28.497  30.679  1.00  0.00     0.062 A 
ATOM     17  C   UNL     1      18.197  28.033  29.372  1.00  0.00     0.158 A 
BRANCH  15  18
ATOM     18  O   UNL     1      18.710  28.516  27.038  1.00  0.00    -0.504 OA
ATOM     19  H   UNL     1      19.606  28.157  26.726  1.00  0.00     0.293 HD
ENDBRANCH  15  18
BRANCH  17  20
ATOM     20  O   UNL     1      18.111  26.670  29.092  1.00  0.00    -0.504 OA
ATOM     21  H   UNL     1      18.211  25.971  29.818  1.00  0.00     0.293 HD
ENDBRANCH  17  20
ENDBRANCH   1  12
BRANCH   2  22
ATOM     22  O   UNL     1      19.149  28.551  33.311  1.00  0.00    -0.502 OA
ATOM     23  H   UNL     1      20.022  28.514  32.800  1.00  0.00     0.293 HD
ENDBRANCH   2  22
BRANCH   6  24
ATOM     24  O   UNL     1      17.419  31.519  37.383  1.00  0.00    -0.507 OA
ATOM     25  H   UNL     1      16.870  30.842  37.890  1.00  0.00     0.293 HD
ENDBRANCH   6  24
BRANCH   8  26
ATOM     26  O   UNL     1      15.169  35.018  34.986  1.00  0.00    -0.508 OA
ATOM     27  H   UNL     1      14.624  35.289  35.795  1.00  0.00     0.293 HD
ENDBRANCH   8  26
TORSDOF 6
ENDMDL
MODEL 3
REMARK VINA RESULT:    -5.812      1.874      3.570
REMARK INTER + INTRA:          -7.038
REMARK INTER:                  -6.708
REMARK INTRA:                  -0.330
REMARK UNBOUND:                -0.037
REMARK SMILES O=c1c(O)c(-c2ccc(O)c(O)c2)oc2cc(O)cc(O)c12
REMARK SMILES IDX 5 1 3 2 2 3 1 4 22 5 20 6 19 7 17 8 16 9 15 10 14 11 6 12
REMARK SMILES IDX 7 13 8 14 9 15 13 16 11 17 10 18 12 20 4 22 21 24 18 26
REMARK H PARENT 10 19 12 21 4 23 21 25 18 27
REMARK Flexibility Score: inf
ROOT
ATOM      1  C   UNL     1      17.505  31.034  35.058  1.00  0.00     0.180 A 
ATOM      2  C   UNL     1      17.307  31.236  33.681  1.00  0.00     0.208 A 
ATOM      3  C   UNL     1      17.815  30.291  32.774  1.00  0.00     0.238 A 
ATOM      4  O   UNL     1      17.700  30.518  31.542  1.00  0.00    -0.285 OA
ATOM      5  C   UNL     1      18.463  29.129  33.256  1.00  0.00     0.111 A 
ATOM      6  C   UNL     1      18.977  28.083  32.430  1.00  0.00     0.134 A 
ATOM      7  C   UNL     1      19.693  27.031  33.012  1.00  0.00     0.093 A 
ATOM      8  C   UNL     1      19.860  26.953  34.398  1.00  0.00     0.123 A 
ATOM      9  C   UNL     1      19.315  27.938  35.216  1.00  0.00     0.094 A 
ATOM     10  C   UNL     1      18.629  29.022  34.662  1.00  0.00     0.146 A 
ATOM     11  O   UNL     1      18.145  29.949  35.478  1.00  0.00    -0.452 OA
ENDROOT
BRANCH   1  12
ATOM     12  C   UNL     1      17.013  31.991  36.073  1.00  0.00     0.025 A 
ATOM     13  C   UNL     1      15.734  31.815  36.625  1.00  0.00     0.016 A 
ATOM     14  C   UNL     1      15.257  32.694  37.602  1.00  0.00     0.051 A 
ATOM     15  C   UNL     1      16.053  33.751  38.051  1.00  0.00     0.157 A 
ATOM     16  C   UNL     1      17.821  33.043  36.543  1.00  0.00     0.062 A 
ATOM     17  C   UNL     1      17.344  33.925  37.524  1.00  0.00     0.158 A 
BRANCH  15  18
ATOM     18  O   UNL     1      15.549  34.613  39.024  1.00  0.00    -0.504 OA
ATOM     19  H   UNL     1      16.143  35.037  39.728  1.00  0.00     0.293 HD
ENDBRANCH  15  18
BRANCH  17  20
ATOM     20  O   UNL     1      18.150  34.968  37.978  1.00  0.00    -0.504 OA
ATOM     21  H   UNL     1      17.929  35.936  37.777  1.00  0.00     0.293 HD
ENDBRANCH  17  20
ENDBRANCH   1  12
BRANCH   2  22
ATOM     22  O   UNL     1      16.598  32.352  33.229  1.00  0.00    -0.502 OA
ATOM     23  H   UNL     1      16.785  32.790  32.335  1.00  0.00     0.293 HD
ENDBRANCH   2  22
BRANCH   6  24
ATOM     24  O   UNL     1      18.790  28.016  31.045  1.00  0.00    -0.507 OA
ATOM     25  H   UNL     1      17.963  28.324  30.557  1.00  0.00     0.293 HD
ENDBRANCH   6  24
BRANCH   8  26
ATOM     26  O   UNL     1      20.560  25.892  34.970  1.00  0.00    -0.508 OA
ATOM     27  H   UNL     1      21.050  25.994  35.850  1.00  0.00     0.293 HD
ENDBRANCH   8  26
TORSDOF 6
ENDMDL
MODEL 4
REMARK VINA RESULT:    -5.765      2.203      7.663
REMARK INTER + INTRA:          -6.982
REMARK INTER:                  -6.897
REMARK INTRA:                  -0.085
REMARK UNBOUND:                -0.037
REMARK SMILES O=c1c(O)c(-c2ccc(O)c(O)c2)oc2cc(O)cc(O)c12
REMARK SMILES IDX 5 1 3 2 2 3 1 4 22 5 20 6 19 7 17 8 16 9 15 10 14 11 6 12
REMARK SMILES IDX 7 13 8 14 9 15 13 16 11 17 10 18 12 20 4 22 21 24 18 26
REMARK H PARENT 10 19 12 21 4 23 21 25 18 27
REMARK Flexibility Score: inf
ROOT
ATOM      1  C   UNL     1      18.447  28.963  30.237  1.00  0.00     0.180 A 
ATOM      2  C   UNL     1      18.687  30.186  29.588  1.00  0.00     0.208 A 
ATOM      3  C   UNL     1      18.442  31.384  30.280  1.00  0.00     0.238 A 
ATOM      4  O   UNL     1      18.588  32.473  29.668  1.00  0.00    -0.285 OA
ATOM      5  C   UNL     1      18.016  31.344  31.630  1.00  0.00     0.111 A 
ATOM      6  C   UNL     1      17.781  32.495  32.442  1.00  0.00     0.134 A 
ATOM      7  C   UNL     1      17.259  32.335  33.730  1.00  0.00     0.093 A 
ATOM      8  C   UNL     1      17.023  31.064  34.261  1.00  0.00     0.123 A 
ATOM      9  C   UNL     1      17.301  29.934  33.497  1.00  0.00     0.094 A 
ATOM     10  C   UNL     1      17.786  30.061  32.193  1.00  0.00     0.146 A 
ATOM     11  O   UNL     1      18.016  28.957  31.493  1.00  0.00    -0.452 OA
ENDROOT
BRANCH   1  12
ATOM     12  C   UNL     1      18.666  27.661  29.569  1.00  0.00     0.025 A 
ATOM     13  C   UNL     1      17.978  27.369  28.381  1.00  0.00     0.016 A 
ATOM     14  C   UNL     1      18.186  26.155  27.721  1.00  0.00     0.051 A 
ATOM     15  C   UNL     1      19.094  25.221  28.229  1.00  0.00     0.157 A 
ATOM     16  C   UNL     1      19.596  26.728  30.067  1.00  0.00     0.062 A 
ATOM     17  C   UNL     1      19.806  25.510  29.405  1.00  0.00     0.158 A 
BRANCH  15  18
ATOM     18  O   UNL     1      19.278  24.017  27.551  1.00  0.00    -0.504 OA
ATOM     19  H   UNL     1      20.162  23.771  27.120  1.00  0.00     0.293 HD
ENDBRANCH  15  18
BRANCH  17  20
ATOM     20  O   UNL     1      20.724  24.590  29.909  1.00  0.00    -0.504 OA
ATOM     21  H   UNL     1      21.237  23.962  29.302  1.00  0.00     0.293 HD
ENDBRANCH  17  20
ENDBRANCH   1  12
BRANCH   2  22
ATOM     22  O   UNL     1      19.180  30.204  28.281  1.00  0.00    -0.502 OA
ATOM     23  H   UNL     1      18.980  30.957  27.634  1.00  0.00     0.293 HD
ENDBRANCH   2  22
BRANCH   6  24
ATOM     24  O   UNL     1      18.066  33.805  32.044  1.00  0.00    -0.507 OA
ATOM     25  H   UNL     1      18.200  34.584  32.671  1.00  0.00     0.293 HD
ENDBRANCH   6  24
BRANCH   8  26
ATOM     26  O   UNL     1      16.519  30.915  35.552  1.00  0.00    -0.508 OA
ATOM     27  H   UNL     1      15.532  31.024  35.751  1.00  0.00     0.293 HD
ENDBRANCH   8  26
TORSDOF 6
ENDMDL
MODEL 5
REMARK VINA RESULT:    -5.758      1.529      2.549
REMARK INTER + INTRA:          -6.974
REMARK INTER:                  -6.982
REMARK INTRA:                   0.008
REMARK UNBOUND:                -0.037
REMARK SMILES O=c1c(O)c(-c2ccc(O)c(O)c2)oc2cc(O)cc(O)c12
REMARK SMILES IDX 5 1 3 2 2 3 1 4 22 5 20 6 19 7 17 8 16 9 15 10 14 11 6 12
REMARK SMILES IDX 7 13 8 14 9 15 13 16 11 17 10 18 12 20 4 22 21 24 18 26
REMARK H PARENT 10 19 12 21 4 23 21 25 18 27
REMARK Flexibility Score: inf
ROOT
ATOM      1  C   UNL     1      18.374  28.833  32.207  1.00  0.00     0.180 A 
ATOM      2  C   UNL     1      19.354  27.968  32.724  1.00  0.00     0.208 A 
ATOM      3  C   UNL     1      19.885  26.966  31.896  1.00  0.00     0.238 A 
ATOM      4  O   UNL     1      20.705  26.150  32.389  1.00  0.00    -0.285 OA
ATOM      5  C   UNL     1      19.473  26.877  30.544  1.00  0.00     0.111 A 
ATOM      6  C   UNL     1      19.978  25.931  29.601  1.00  0.00     0.134 A 
ATOM      7  C   UNL     1      19.419  25.868  28.320  1.00  0.00     0.093 A 
ATOM      8  C   UNL     1      18.418  26.758  27.925  1.00  0.00     0.123 A 
ATOM      9  C   UNL     1      17.957  27.721  28.819  1.00  0.00     0.094 A 
ATOM     10  C   UNL     1      18.467  27.785  30.118  1.00  0.00     0.146 A 
ATOM     11  O   UNL     1      17.984  28.704  30.944  1.00  0.00    -0.452 OA
ENDROOT
BRANCH   1  12
ATOM     12  C   UNL     1      17.756  29.902  33.022  1.00  0.00     0.025 A 
ATOM     13  C   UNL     1      17.215  29.587  34.278  1.00  0.00     0.016 A 
ATOM     14  C   UNL     1      16.647  30.585  35.075  1.00  0.00     0.051 A 
ATOM     15  C   UNL     1      16.623  31.912  34.636  1.00  0.00     0.157 A 
ATOM     16  C   UNL     1      17.751  31.242  32.591  1.00  0.00     0.062 A 
ATOM     17  C   UNL     1      17.182  32.245  33.391  1.00  0.00     0.158 A 
BRANCH  15  18
ATOM     18  O   UNL     1      16.046  32.885  35.451  1.00  0.00    -0.504 OA
ATOM     19  H   UNL     1      15.890  33.833  35.129  1.00  0.00     0.293 HD
ENDBRANCH  15  18
BRANCH  17  20
ATOM     20  O   UNL     1      17.175  33.568  32.953  1.00  0.00    -0.504 OA
ATOM     21  H   UNL     1      17.758  34.275  33.386  1.00  0.00     0.293 HD
ENDBRANCH  17  20
ENDBRANCH   1  12
BRANCH   2  22
ATOM     22  O   UNL     1      19.802  28.121  34.039  1.00  0.00    -0.502 OA
ATOM     23  H   UNL     1      19.435  27.571  34.807  1.00  0.00     0.293 HD
ENDBRANCH   2  22
BRANCH   6  24
ATOM     24  O   UNL     1      21.036  25.055  29.862  1.00  0.00    -0.507 OA
ATOM     25  H   UNL     1      20.937  24.121  30.231  1.00  0.00     0.293 HD
ENDBRANCH   6  24
BRANCH   8  26
ATOM     26  O   UNL     1      17.880  26.699  26.641  1.00  0.00    -0.508 OA
ATOM     27  H   UNL     1      17.285  25.931  26.350  1.00  0.00     0.293 HD
ENDBRANCH   8  26
TORSDOF 6
ENDMDL
MODEL 6
REMARK VINA RESULT:    -5.690      1.526      7.299
REMARK INTER + INTRA:          -6.891
REMARK INTER:                  -6.756
REMARK INTRA:                  -0.135
REMARK UNBOUND:                -0.037
REMARK SMILES O=c1c(O)c(-c2ccc(O)c(O)c2)oc2cc(O)cc(O)c12
REMARK SMILES IDX 5 1 3 2 2 3 1 4 22 5 20 6 19 7 17 8 16 9 15 10 14 11 6 12
REMARK SMILES IDX 7 13 8 14 9 15 13 16 11 17 10 18 12 20 4 22 21 24 18 26
REMARK H PARENT 10 19 12 21 4 23 21 25 18 27
REMARK Flexibility Score: inf
ROOT
ATOM      1  C   UNL     1      17.997  30.510  32.367  1.00  0.00     0.180 A 
ATOM      2  C   UNL     1      18.135  31.793  31.810  1.00  0.00     0.208 A 
ATOM      3  C   UNL     1      17.652  32.901  32.525  1.00  0.00     0.238 A 
ATOM      4  O   UNL     1      17.711  34.037  31.986  1.00  0.00    -0.285 OA
ATOM      5  C   UNL     1      17.088  32.720  33.811  1.00  0.00     0.111 A 
ATOM      6  C   UNL     1      16.608  33.776  34.644  1.00  0.00     0.134 A 
ATOM      7  C   UNL     1      15.974  33.468  35.853  1.00  0.00     0.093 A 
ATOM      8  C   UNL     1      15.860  32.146  36.291  1.00  0.00     0.123 A 
ATOM      9  C   UNL     1      16.374  31.113  35.512  1.00  0.00     0.094 A 
ATOM     10  C   UNL     1      16.978  31.385  34.282  1.00  0.00     0.146 A 
ATOM     11  O   UNL     1      17.434  30.368  33.562  1.00  0.00    -0.452 OA
ENDROOT
BRANCH   1  12
ATOM     12  C   UNL     1      18.467  29.293  31.669  1.00  0.00     0.025 A 
ATOM     13  C   UNL     1      19.398  28.452  32.299  1.00  0.00     0.016 A 
ATOM     14  C   UNL     1      19.841  27.286  31.668  1.00  0.00     0.051 A 
ATOM     15  C   UNL     1      19.349  26.935  30.408  1.00  0.00     0.157 A 
ATOM     16  C   UNL     1      17.958  28.926  30.409  1.00  0.00     0.062 A 
ATOM     17  C   UNL     1      18.400  27.756  29.776  1.00  0.00     0.158 A 
BRANCH  15  18
ATOM     18  O   UNL     1      19.812  25.768  29.801  1.00  0.00    -0.504 OA
ATOM     19  H   UNL     1      20.189  25.763  28.861  1.00  0.00     0.293 HD
ENDBRANCH  15  18
BRANCH  17  20
ATOM     20  O   UNL     1      17.895  27.405  28.525  1.00  0.00    -0.504 OA
ATOM     21  H   UNL     1      18.481  26.985  27.813  1.00  0.00     0.293 HD
ENDBRANCH  17  20
ENDBRANCH   1  12
BRANCH   2  22
ATOM     22  O   UNL     1      18.762  31.958  30.573  1.00  0.00    -0.502 OA
ATOM     23  H   UNL     1      19.539  31.381  30.275  1.00  0.00     0.293 HD
ENDBRANCH   2  22
BRANCH   6  24
ATOM     24  O   UNL     1      16.750  35.135  34.345  1.00  0.00    -0.507 OA
ATOM     25  H   UNL     1      16.636  35.888  35.007  1.00  0.00     0.293 HD
ENDBRANCH   6  24
BRANCH   8  26
ATOM     26  O   UNL     1      15.242  31.850  37.504  1.00  0.00    -0.508 OA
ATOM     27  H   UNL     1      14.665  31.025  37.619  1.00  0.00     0.293 HD
ENDBRANCH   8  26
TORSDOF 6
ENDMDL
MODEL 7
REMARK VINA RESULT:    -5.667      2.136      3.605
REMARK INTER + INTRA:          -6.864
REMARK INTER:                  -6.642
REMARK INTRA:                  -0.223
REMARK UNBOUND:                -0.037
REMARK SMILES O=c1c(O)c(-c2ccc(O)c(O)c2)oc2cc(O)cc(O)c12
REMARK SMILES IDX 5 1 3 2 2 3 1 4 22 5 20 6 19 7 17 8 16 9 15 10 14 11 6 12
REMARK SMILES IDX 7 13 8 14 9 15 13 16 11 17 10 18 12 20 4 22 21 24 18 26
REMARK H PARENT 10 19 12 21 4 23 21 25 18 27
REMARK Flexibility Score: inf
ROOT
ATOM      1  C   UNL     1      17.907  31.414  32.728  1.00  0.00     0.180 A 
ATOM      2  C   UNL     1      18.240  32.467  31.859  1.00  0.00     0.208 A 
ATOM      3  C   UNL     1      18.520  32.178  30.514  1.00  0.00     0.238 A 
ATOM      4  O   UNL     1      18.890  33.116  29.761  1.00  0.00    -0.285 OA
ATOM      5  C   UNL     1      18.408  30.848  30.040  1.00  0.00     0.111 A 
ATOM      6  C   UNL     1      18.624  30.447  28.687  1.00  0.00     0.134 A 
ATOM      7  C   UNL     1      18.588  29.088  28.356  1.00  0.00     0.093 A 
ATOM      8  C   UNL     1      18.282  28.120  29.316  1.00  0.00     0.123 A 
ATOM      9  C   UNL     1      18.016  28.506  30.626  1.00  0.00     0.094 A 
ATOM     10  C   UNL     1      18.081  29.851  30.997  1.00  0.00     0.146 A 
ATOM     11  O   UNL     1      17.841  30.172  32.262  1.00  0.00    -0.452 OA
ENDROOT
BRANCH   1  12
ATOM     12  C   UNL     1      17.613  31.637  34.161  1.00  0.00     0.025 A 
ATOM     13  C   UNL     1      16.406  32.250  34.531  1.00  0.00     0.016 A 
ATOM     14  C   UNL     1      16.098  32.451  35.879  1.00  0.00     0.051 A 
ATOM     15  C   UNL     1      16.982  32.031  36.877  1.00  0.00     0.157 A 
ATOM     16  C   UNL     1      18.492  31.196  35.168  1.00  0.00     0.062 A 
ATOM     17  C   UNL     1      18.184  31.396  36.521  1.00  0.00     0.158 A 
BRANCH  15  18
ATOM     18  O   UNL     1      16.649  32.249  38.213  1.00  0.00    -0.504 OA
ATOM     19  H   UNL     1      16.123  33.062  38.511  1.00  0.00     0.293 HD
ENDBRANCH  15  18
BRANCH  17  20
ATOM     20  O   UNL     1      19.064  30.961  37.511  1.00  0.00    -0.504 OA
ATOM     21  H   UNL     1      19.084  29.997  37.819  1.00  0.00     0.293 HD
ENDBRANCH  17  20
ENDBRANCH   1  12
BRANCH   2  22
ATOM     22  O   UNL     1      18.271  33.783  32.329  1.00  0.00    -0.502 OA
ATOM     23  H   UNL     1      17.437  34.274  32.630  1.00  0.00     0.293 HD
ENDBRANCH   2  22
BRANCH   6  24
ATOM     24  O   UNL     1      18.849  31.338  27.632  1.00  0.00    -0.507 OA
ATOM     25  H   UNL     1      19.525  31.204  26.896  1.00  0.00     0.293 HD
ENDBRANCH   6  24
BRANCH   8  26
ATOM     26  O   UNL     1      18.232  26.770  28.973  1.00  0.00    -0.508 OA
ATOM     27  H   UNL     1      18.977  26.329  28.447  1.00  0.00     0.293 HD
ENDBRANCH   8  26
TORSDOF 6
ENDMDL
MODEL 8
REMARK VINA RESULT:    -5.651      1.520      6.880
REMARK INTER + INTRA:          -6.845
REMARK INTER:                  -7.089
REMARK INTRA:                   0.244
REMARK UNBOUND:                -0.037
REMARK SMILES O=c1c(O)c(-c2ccc(O)c(O)c2)oc2cc(O)cc(O)c12
REMARK SMILES IDX 5 1 3 2 2 3 1 4 22 5 20 6 19 7 17 8 16 9 15 10 14 11 6 12
REMARK SMILES IDX 7 13 8 14 9 15 13 16 11 17 10 18 12 20 4 22 21 24 18 26
REMARK H PARENT 10 19 12 21 4 23 21 25 18 27
REMARK Flexibility Score: inf
ROOT
ATOM      1  C   UNL     1      18.568  28.452  31.251  1.00  0.00     0.180 A 
ATOM      2  C   UNL     1      19.415  27.809  32.170  1.00  0.00     0.208 A 
ATOM      3  C   UNL     1      19.442  28.258  33.501  1.00  0.00     0.238 A 
ATOM      4  O   UNL     1      20.258  27.726  34.299  1.00  0.00    -0.285 OA
ATOM      5  C   UNL     1      18.582  29.306  33.909  1.00  0.00     0.111 A 
ATOM      6  C   UNL     1      18.493  29.811  35.243  1.00  0.00     0.134 A 
ATOM      7  C   UNL     1      17.684  30.921  35.507  1.00  0.00     0.093 A 
ATOM      8  C   UNL     1      16.910  31.506  34.501  1.00  0.00     0.123 A 
ATOM      9  C   UNL     1      16.948  30.986  33.211  1.00  0.00     0.094 A 
ATOM     10  C   UNL     1      17.776  29.903  32.906  1.00  0.00     0.146 A 
ATOM     11  O   UNL     1      17.797  29.454  31.657  1.00  0.00    -0.452 OA
ENDROOT
BRANCH   1  12
ATOM     12  C   UNL     1      18.494  28.046  29.830  1.00  0.00     0.025 A 
ATOM     13  C   UNL     1      18.299  29.024  28.843  1.00  0.00     0.016 A 
ATOM     14  C   UNL     1      18.247  28.667  27.492  1.00  0.00     0.051 A 
ATOM     15  C   UNL     1      18.406  27.333  27.108  1.00  0.00     0.157 A 
ATOM     16  C   UNL     1      18.675  26.707  29.439  1.00  0.00     0.062 A 
ATOM     17  C   UNL     1      18.625  26.347  28.084  1.00  0.00     0.158 A 
BRANCH  15  18
ATOM     18  O   UNL     1      18.347  27.006  25.753  1.00  0.00    -0.504 OA
ATOM     19  H   UNL     1      18.225  27.711  25.035  1.00  0.00     0.293 HD
ENDBRANCH  15  18
BRANCH  17  20
ATOM     20  O   UNL     1      18.798  25.016  27.707  1.00  0.00    -0.504 OA
ATOM     21  H   UNL     1      18.046  24.341  27.780  1.00  0.00     0.293 HD
ENDBRANCH  17  20
ENDBRANCH   1  12
BRANCH   2  22
ATOM     22  O   UNL     1      20.200  26.727  31.764  1.00  0.00    -0.502 OA
ATOM     23  H   UNL     1      19.965  25.768  31.991  1.00  0.00     0.293 HD
ENDBRANCH   2  22
BRANCH   6  24
ATOM     24  O   UNL     1      19.154  29.247  36.339  1.00  0.00    -0.507 OA
ATOM     25  H   UNL     1      19.011  29.515  37.301  1.00  0.00     0.293 HD
ENDBRANCH   6  24
BRANCH   8  26
ATOM     26  O   UNL     1      16.094  32.601  34.779  1.00  0.00    -0.508 OA
ATOM     27  H   UNL     1      15.440  32.592  35.552  1.00  0.00     0.293 HD
ENDBRANCH   8  26
TORSDOF 6
ENDMDL
MODEL 9
REMARK VINA RESULT:    -5.613      2.204      4.173
REMARK INTER + INTRA:          -6.799
REMARK INTER:                  -7.051
REMARK INTRA:                   0.251
REMARK UNBOUND:                -0.037
REMARK SMILES O=c1c(O)c(-c2ccc(O)c(O)c2)oc2cc(O)cc(O)c12
REMARK SMILES IDX 5 1 3 2 2 3 1 4 22 5 20 6 19 7 17 8 16 9 15 10 14 11 6 12
REMARK SMILES IDX 7 13 8 14 9 15 13 16 11 17 10 18 12 20 4 22 21 24 18 26
REMARK H PARENT 10 19 12 21 4 23 21 25 18 27
REMARK Flexibility Score: inf
ROOT
ATOM      1  C   UNL     1      18.132  29.760  30.931  1.00  0.00     0.180 A 
ATOM      2  C   UNL     1      18.518  30.750  30.011  1.00  0.00     0.208 A 
ATOM      3  C   UNL     1      18.892  30.366  28.713  1.00  0.00     0.238 A 
ATOM      4  O   UNL     1      19.308  31.250  27.920  1.00  0.00    -0.285 OA
ATOM      5  C   UNL     1      18.821  29.004  28.333  1.00  0.00     0.111 A 
ATOM      6  C   UNL     1      19.132  28.507  27.030  1.00  0.00     0.134 A 
ATOM      7  C   UNL     1      19.127  27.127  26.799  1.00  0.00     0.093 A 
ATOM      8  C   UNL     1      18.761  26.228  27.805  1.00  0.00     0.123 A 
ATOM      9  C   UNL     1      18.403  26.707  29.062  1.00  0.00     0.094 A 
ATOM     10  C   UNL     1      18.434  28.076  29.335  1.00  0.00     0.146 A 
ATOM     11  O   UNL     1      18.106  28.486  30.554  1.00  0.00    -0.452 OA
ENDROOT
BRANCH   1  12
ATOM     12  C   UNL     1      17.739  30.084  32.320  1.00  0.00     0.025 A 
ATOM     13  C   UNL     1      18.055  29.189  33.353  1.00  0.00     0.016 A 
ATOM     14  C   UNL     1      17.713  29.484  34.676  1.00  0.00     0.051 A 
ATOM     15  C   UNL     1      17.064  30.683  34.987  1.00  0.00     0.157 A 
ATOM     16  C   UNL     1      17.105  31.300  32.638  1.00  0.00     0.062 A 
ATOM     17  C   UNL     1      16.763  31.598  33.965  1.00  0.00     0.158 A 
BRANCH  15  18
ATOM     18  O   UNL     1      16.733  30.949  36.315  1.00  0.00    -0.504 OA
ATOM     19  H   UNL     1      17.407  31.322  36.974  1.00  0.00     0.293 HD
ENDBRANCH  15  18
BRANCH  17  20
ATOM     20  O   UNL     1      16.129  32.802  34.270  1.00  0.00    -0.504 OA
ATOM     21  H   UNL     1      16.637  33.678  34.296  1.00  0.00     0.293 HD
ENDBRANCH  17  20
ENDBRANCH   1  12
BRANCH   2  22
ATOM     22  O   UNL     1      18.509  32.097  30.384  1.00  0.00    -0.502 OA
ATOM     23  H   UNL     1      17.775  32.735  30.101  1.00  0.00     0.293 HD
ENDBRANCH   2  22
BRANCH   6  24
ATOM     24  O   UNL     1      19.425  29.321  25.931  1.00  0.00    -0.507 OA
ATOM     25  H   UNL     1      19.926  29.023  25.108  1.00  0.00     0.293 HD
ENDBRANCH   6  24
BRANCH   8  26
ATOM     26  O   UNL     1      18.743  24.857  27.560  1.00  0.00    -0.508 OA
ATOM     27  H   UNL     1      18.533  24.190  28.293  1.00  0.00     0.293 HD
ENDBRANCH   8  26
TORSDOF 6
ENDMDL
