MODEL 1
REMARK VINA RESULT:    -4.570      0.000      0.000
REMARK INTER + INTRA:         -11.146
REMARK INTER:                  -8.844
REMARK INTRA:                  -2.302
REMARK UNBOUND:                -2.302
REMARK SMILES CCCCCCCCCCCCCCCCCC(=O)[O-]
REMARK SMILES IDX 10 1 11 2 12 3 13 4 14 5 15 6 16 7 17 8 18 9 19 10 20 11
REMARK SMILES IDX 9 12 8 13 7 14 6 15 5 16 4 17 3 18 2 19 1 20
REMARK H PARENT
REMARK Flexibility Score: inf
ROOT
ATOM      1  C   UNL     1       5.677  -5.309  32.366  1.00  0.00     0.000 C 
ENDROOT
BRANCH   1   2
ATOM      2  C   UNL     1       4.710  -6.288  33.052  1.00  0.00     0.000 C 
BRANCH   2   3
ATOM      3  C   UNL     1       4.679  -7.671  32.377  1.00  0.00     0.000 C 
BRANCH   3   4
ATOM      4  C   UNL     1       4.849  -7.652  30.846  1.00  0.00     0.000 C 
BRANCH   4   5
ATOM      5  C   UNL     1       5.850  -8.706  30.342  1.00  0.00     0.000 C 
BRANCH   5   6
ATOM      6  C   UNL     1       5.542  -9.173  28.910  1.00  0.00     0.000 C 
BRANCH   6   7
ATOM      7  C   UNL     1       6.751  -9.840  28.230  1.00  0.00     0.006 C 
BRANCH   7   8
ATOM      8  C   UNL     1       7.262  -9.028  27.033  1.00  0.00     0.053 C 
BRANCH   8   9
ATOM      9  C   UNL     1       8.619  -9.483  26.593  1.00  0.00     0.041 C 
ATOM     10  O   UNL     1       9.360 -10.125  27.385  1.00  0.00    -0.550 OA
ATOM     11  O   UNL     1       9.053  -9.230  25.299  1.00  0.00    -0.550 OA
ENDBRANCH   8   9
ENDBRANCH   7   8
ENDBRANCH   6   7
ENDBRANCH   5   6
ENDBRANCH   4   5
ENDBRANCH   3   4
ENDBRANCH   2   3
ENDBRANCH   1   2
BRANCH   1  12
ATOM     12  C   UNL     1       7.116  -5.432  32.892  1.00  0.00     0.000 C 
BRANCH  12  13
ATOM     13  C   UNL     1       8.073  -6.037  31.855  1.00  0.00    -0.000 C 
BRANCH  13  14
ATOM     14  C   UNL     1       7.688  -5.604  30.435  1.00  0.00    -0.000 C 
BRANCH  14  15
ATOM     15  C   UNL     1       8.512  -6.360  29.385  1.00  0.00    -0.000 C 
BRANCH  15  16
ATOM     16  C   UNL     1       8.551  -5.590  28.057  1.00  0.00    -0.000 C 
BRANCH  16  17
ATOM     17  C   UNL     1       7.296  -4.732  27.833  1.00  0.00    -0.000 C 
BRANCH  17  18
ATOM     18  C   UNL     1       6.111  -5.544  27.288  1.00  0.00    -0.000 C 
BRANCH  18  19
ATOM     19  C   UNL     1       6.109  -5.550  25.756  1.00  0.00    -0.003 C 
ATOM     20  C   UNL     1       5.000  -6.445  25.209  1.00  0.00     0.004 C 
ENDBRANCH  18  19
ENDBRANCH  17  18
ENDBRANCH  16  17
ENDBRANCH  15  16
ENDBRANCH  14  15
ENDBRANCH  13  14
ENDBRANCH  12  13
ENDBRANCH   1  12
TORSDOF 16
ENDMDL
MODEL 2
REMARK VINA RESULT:    -4.528      2.467      4.730
REMARK INTER + INTRA:         -11.065
REMARK INTER:                  -8.187
REMARK INTRA:                  -2.877
REMARK UNBOUND:                -2.302
REMARK SMILES CCCCCCCCCCCCCCCCCC(=O)[O-]
REMARK SMILES IDX 10 1 11 2 12 3 13 4 14 5 15 6 16 7 17 8 18 9 19 10 20 11
REMARK SMILES IDX 9 12 8 13 7 14 6 15 5 16 4 17 3 18 2 19 1 20
REMARK H PARENT
REMARK Flexibility Score: inf
ROOT
ATOM      1  C   UNL     1       6.027  -9.294  26.203  1.00  0.00     0.000 C 
ENDROOT
BRANCH   1   2
ATOM      2  C   UNL     1       4.856  -8.529  26.842  1.00  0.00     0.000 C 
BRANCH   2   3
ATOM      3  C   UNL     1       4.325  -9.203  28.119  1.00  0.00     0.000 C 
BRANCH   3   4
ATOM      4  C   UNL     1       5.398  -9.882  28.991  1.00  0.00     0.000 C 
BRANCH   4   5
ATOM      5  C   UNL     1       5.926  -8.969  30.110  1.00  0.00     0.000 C 
BRANCH   5   6
ATOM      6  C   UNL     1       4.859  -7.985  30.619  1.00  0.00     0.000 C 
BRANCH   6   7
ATOM      7  C   UNL     1       5.350  -7.138  31.806  1.00  0.00     0.006 C 
BRANCH   7   8
ATOM      8  C   UNL     1       6.052  -5.853  31.347  1.00  0.00     0.053 C 
BRANCH   8   9
ATOM      9  C   UNL     1       7.380  -5.677  32.018  1.00  0.00     0.041 C 
ATOM     10  O   UNL     1       8.334  -6.456  31.749  1.00  0.00    -0.550 OA
ATOM     11  O   UNL     1       7.576  -4.634  32.912  1.00  0.00    -0.550 OA
ENDBRANCH   8   9
ENDBRANCH   7   8
ENDBRANCH   6   7
ENDBRANCH   5   6
ENDBRANCH   4   5
ENDBRANCH   3   4
ENDBRANCH   2   3
ENDBRANCH   1   2
BRANCH   1  12
ATOM     12  C   UNL     1       7.303  -8.444  26.100  1.00  0.00     0.000 C 
BRANCH  12  13
ATOM     13  C   UNL     1       8.387  -8.886  27.094  1.00  0.00    -0.000 C 
BRANCH  13  14
ATOM     14  C   UNL     1       8.922  -7.691  27.891  1.00  0.00    -0.000 C 
BRANCH  14  15
ATOM     15  C   UNL     1       7.791  -6.723  28.260  1.00  0.00    -0.000 C 
BRANCH  15  16
ATOM     16  C   UNL     1       8.261  -5.264  28.162  1.00  0.00    -0.000 C 
BRANCH  16  17
ATOM     17  C   UNL     1       7.106  -4.287  27.893  1.00  0.00    -0.000 C 
BRANCH  17  18
ATOM     18  C   UNL     1       6.004  -4.898  27.015  1.00  0.00    -0.000 C 
BRANCH  18  19
ATOM     19  C   UNL     1       6.402  -4.868  25.535  1.00  0.00    -0.003 C 
ATOM     20  C   UNL     1       5.329  -5.513  24.662  1.00  0.00     0.004 C 
ENDBRANCH  18  19
ENDBRANCH  17  18
ENDBRANCH  16  17
ENDBRANCH  15  16
ENDBRANCH  14  15
ENDBRANCH  13  14
ENDBRANCH  12  13
ENDBRANCH   1  12
TORSDOF 16
ENDMDL
MODEL 3
REMARK VINA RESULT:    -4.520      1.685      4.345
REMARK INTER + INTRA:         -11.050
REMARK INTER:                  -8.569
REMARK INTRA:                  -2.481
REMARK UNBOUND:                -2.302
REMARK SMILES CCCCCCCCCCCCCCCCCC(=O)[O-]
REMARK SMILES IDX 10 1 11 2 12 3 13 4 14 5 15 6 16 7 17 8 18 9 19 10 20 11
REMARK SMILES IDX 9 12 8 13 7 14 6 15 5 16 4 17 3 18 2 19 1 20
REMARK H PARENT
REMARK Flexibility Score: inf
ROOT
ATOM      1  C   UNL     1       7.500  -5.199  31.887  1.00  0.00     0.000 C 
ENDROOT
BRANCH   1   2
ATOM      2  C   UNL     1       8.256  -6.373  31.241  1.00  0.00     0.000 C 
BRANCH   2   3
ATOM      3  C   UNL     1       8.341  -6.260  29.708  1.00  0.00     0.000 C 
BRANCH   3   4
ATOM      4  C   UNL     1       7.183  -5.488  29.047  1.00  0.00     0.000 C 
BRANCH   4   5
ATOM      5  C   UNL     1       7.668  -4.335  28.151  1.00  0.00     0.000 C 
BRANCH   5   6
ATOM      6  C   UNL     1       6.804  -4.168  26.890  1.00  0.00     0.000 C 
BRANCH   6   7
ATOM      7  C   UNL     1       6.079  -5.465  26.490  1.00  0.00     0.006 C 
BRANCH   7   8
ATOM      8  C   UNL     1       6.073  -5.679  24.971  1.00  0.00     0.053 C 
BRANCH   8   9
ATOM      9  C   UNL     1       5.286  -6.894  24.586  1.00  0.00     0.041 C 
ATOM     10  O   UNL     1       5.763  -7.726  23.769  1.00  0.00    -0.550 OA
ATOM     11  O   UNL     1       4.040  -7.125  25.154  1.00  0.00    -0.550 OA
ENDBRANCH   8   9
ENDBRANCH   7   8
ENDBRANCH   6   7
ENDBRANCH   5   6
ENDBRANCH   4   5
ENDBRANCH   3   4
ENDBRANCH   2   3
ENDBRANCH   1   2
BRANCH   1  12
ATOM     12  C   UNL     1       6.652  -5.634  33.093  1.00  0.00     0.000 C 
BRANCH  12  13
ATOM     13  C   UNL     1       5.171  -5.825  32.733  1.00  0.00    -0.000 C 
BRANCH  13  14
ATOM     14  C   UNL     1       4.865  -7.298  32.434  1.00  0.00    -0.000 C 
BRANCH  14  15
ATOM     15  C   UNL     1       4.697  -7.531  30.928  1.00  0.00    -0.000 C 
BRANCH  15  16
ATOM     16  C   UNL     1       5.647  -8.631  30.432  1.00  0.00    -0.000 C 
BRANCH  16  17
ATOM     17  C   UNL     1       5.496  -8.912  28.929  1.00  0.00    -0.000 C 
BRANCH  17  18
ATOM     18  C   UNL     1       6.726  -9.611  28.329  1.00  0.00    -0.000 C 
BRANCH  18  19
ATOM     19  C   UNL     1       7.180  -8.912  27.043  1.00  0.00    -0.003 C 
ATOM     20  C   UNL     1       8.676  -8.610  27.078  1.00  0.00     0.004 C 
ENDBRANCH  18  19
ENDBRANCH  17  18
ENDBRANCH  16  17
ENDBRANCH  15  16
ENDBRANCH  14  15
ENDBRANCH  13  14
ENDBRANCH  12  13
ENDBRANCH   1  12
TORSDOF 16
ENDMDL
MODEL 4
REMARK VINA RESULT:    -4.463      2.349      3.546
REMARK INTER + INTRA:         -10.940
REMARK INTER:                  -8.490
REMARK INTRA:                  -2.450
REMARK UNBOUND:                -2.302
REMARK SMILES CCCCCCCCCCCCCCCCCC(=O)[O-]
REMARK SMILES IDX 10 1 11 2 12 3 13 4 14 5 15 6 16 7 17 8 18 9 19 10 20 11
REMARK SMILES IDX 9 12 8 13 7 14 6 15 5 16 4 17 3 18 2 19 1 20
REMARK H PARENT
REMARK Flexibility Score: inf
ROOT
ATOM      1  C   UNL     1       4.890  -7.787  32.446  1.00  0.00     0.000 C 
ENDROOT
BRANCH   1   2
ATOM      2  C   UNL     1       4.720  -7.793  30.917  1.00  0.00     0.000 C 
BRANCH   2   3
ATOM      3  C   UNL     1       5.767  -8.665  30.201  1.00  0.00     0.000 C 
BRANCH   3   4
ATOM      4  C   UNL     1       5.836  -8.476  28.674  1.00  0.00     0.000 C 
BRANCH   4   5
ATOM      5  C   UNL     1       4.711  -7.579  28.130  1.00  0.00     0.000 C 
BRANCH   5   6
ATOM      6  C   UNL     1       5.159  -6.743  26.920  1.00  0.00     0.000 C 
BRANCH   6   7
ATOM      7  C   UNL     1       5.634  -7.610  25.741  1.00  0.00     0.006 C 
BRANCH   7   8
ATOM      8  C   UNL     1       6.041  -6.764  24.528  1.00  0.00     0.053 C 
BRANCH   8   9
ATOM      9  C   UNL     1       5.009  -6.816  23.444  1.00  0.00     0.041 C 
ATOM     10  O   UNL     1       4.015  -7.584  23.551  1.00  0.00    -0.550 OA
ATOM     11  O   UNL     1       5.125  -5.994  22.331  1.00  0.00    -0.550 OA
ENDBRANCH   8   9
ENDBRANCH   7   8
ENDBRANCH   6   7
ENDBRANCH   5   6
ENDBRANCH   4   5
ENDBRANCH   3   4
ENDBRANCH   2   3
ENDBRANCH   1   2
BRANCH   1  12
ATOM     12  C   UNL     1       4.756  -6.381  33.050  1.00  0.00     0.000 C 
BRANCH  12  13
ATOM     13  C   UNL     1       5.603  -5.337  32.308  1.00  0.00    -0.000 C 
BRANCH  13  14
ATOM     14  C   UNL     1       7.053  -5.350  32.808  1.00  0.00    -0.000 C 
BRANCH  14  15
ATOM     15  C   UNL     1       7.980  -6.032  31.795  1.00  0.00    -0.000 C 
BRANCH  15  16
ATOM     16  C   UNL     1       7.625  -5.619  30.359  1.00  0.00    -0.000 C 
BRANCH  16  17
ATOM     17  C   UNL     1       8.650  -6.117  29.329  1.00  0.00    -0.000 C 
BRANCH  17  18
ATOM     18  C   UNL     1       8.388  -5.568  27.918  1.00  0.00    -0.000 C 
BRANCH  18  19
ATOM     19  C   UNL     1       7.692  -4.204  27.982  1.00  0.00    -0.003 C 
ATOM     20  C   UNL     1       7.318  -3.710  26.587  1.00  0.00     0.004 C 
ENDBRANCH  18  19
ENDBRANCH  17  18
ENDBRANCH  16  17
ENDBRANCH  15  16
ENDBRANCH  14  15
ENDBRANCH  13  14
ENDBRANCH  12  13
ENDBRANCH   1  12
TORSDOF 16
ENDMDL
MODEL 5
REMARK VINA RESULT:    -4.423      2.417      5.531
REMARK INTER + INTRA:         -10.862
REMARK INTER:                  -8.060
REMARK INTRA:                  -2.803
REMARK UNBOUND:                -2.302
REMARK SMILES CCCCCCCCCCCCCCCCCC(=O)[O-]
REMARK SMILES IDX 10 1 11 2 12 3 13 4 14 5 15 6 16 7 17 8 18 9 19 10 20 11
REMARK SMILES IDX 9 12 8 13 7 14 6 15 5 16 4 17 3 18 2 19 1 20
REMARK H PARENT
REMARK Flexibility Score: inf
ROOT
ATOM      1  C   UNL     1       8.755  -6.380  28.888  1.00  0.00     0.000 C 
ENDROOT
BRANCH   1   2
ATOM      2  C   UNL     1       8.270  -5.336  27.868  1.00  0.00     0.000 C 
BRANCH   2   3
ATOM      3  C   UNL     1       6.954  -4.656  28.287  1.00  0.00     0.000 C 
BRANCH   3   4
ATOM      4  C   UNL     1       5.698  -5.161  27.552  1.00  0.00     0.000 C 
BRANCH   4   5
ATOM      5  C   UNL     1       5.962  -5.490  26.073  1.00  0.00     0.000 C 
BRANCH   5   6
ATOM      6  C   UNL     1       5.023  -6.583  25.537  1.00  0.00     0.000 C 
BRANCH   6   7
ATOM      7  C   UNL     1       5.675  -7.439  24.437  1.00  0.00     0.006 C 
BRANCH   7   8
ATOM      8  C   UNL     1       4.760  -7.608  23.217  1.00  0.00     0.053 C 
BRANCH   8   9
ATOM      9  C   UNL     1       4.763  -6.387  22.349  1.00  0.00     0.041 C 
ATOM     10  O   UNL     1       3.769  -5.612  22.342  1.00  0.00    -0.550 OA
ATOM     11  O   UNL     1       5.876  -6.084  21.576  1.00  0.00    -0.550 OA
ENDBRANCH   8   9
ENDBRANCH   7   8
ENDBRANCH   6   7
ENDBRANCH   5   6
ENDBRANCH   4   5
ENDBRANCH   3   4
ENDBRANCH   2   3
ENDBRANCH   1   2
BRANCH   1  12
ATOM     12  C   UNL     1       9.012  -7.754  28.250  1.00  0.00     0.000 C 
BRANCH  12  13
ATOM     13  C   UNL     1       7.894  -8.175  27.285  1.00  0.00    -0.000 C 
BRANCH  13  14
ATOM     14  C   UNL     1       7.149  -9.408  27.813  1.00  0.00    -0.000 C 
BRANCH  14  15
ATOM     15  C   UNL     1       5.694  -9.069  28.156  1.00  0.00    -0.000 C 
BRANCH  15  16
ATOM     16  C   UNL     1       5.466  -9.098  29.675  1.00  0.00    -0.000 C 
BRANCH  16  17
ATOM     17  C   UNL     1       5.378  -7.691  30.287  1.00  0.00    -0.000 C 
BRANCH  17  18
ATOM     18  C   UNL     1       6.431  -7.453  31.381  1.00  0.00    -0.000 C 
BRANCH  18  19
ATOM     19  C   UNL     1       6.230  -6.088  32.047  1.00  0.00    -0.003 C 
ATOM     20  C   UNL     1       7.564  -5.382  32.272  1.00  0.00     0.004 C 
ENDBRANCH  18  19
ENDBRANCH  17  18
ENDBRANCH  16  17
ENDBRANCH  15  16
ENDBRANCH  14  15
ENDBRANCH  13  14
ENDBRANCH  12  13
ENDBRANCH   1  12
TORSDOF 16
ENDMDL
MODEL 6
REMARK VINA RESULT:    -4.304      2.448      4.475
REMARK INTER + INTRA:         -10.632
REMARK INTER:                  -8.120
REMARK INTRA:                  -2.513
REMARK UNBOUND:                -2.302
REMARK SMILES CCCCCCCCCCCCCCCCCC(=O)[O-]
REMARK SMILES IDX 10 1 11 2 12 3 13 4 14 5 15 6 16 7 17 8 18 9 19 10 20 11
REMARK SMILES IDX 9 12 8 13 7 14 6 15 5 16 4 17 3 18 2 19 1 20
REMARK H PARENT
REMARK Flexibility Score: inf
ROOT
ATOM      1  C   UNL     1       5.608  -8.735  29.688  1.00  0.00     0.000 C 
ENDROOT
BRANCH   1   2
ATOM      2  C   UNL     1       4.504  -7.876  29.047  1.00  0.00     0.000 C 
BRANCH   2   3
ATOM      3  C   UNL     1       4.656  -7.749  27.520  1.00  0.00     0.000 C 
BRANCH   3   4
ATOM      4  C   UNL     1       5.774  -8.609  26.902  1.00  0.00     0.000 C 
BRANCH   4   5
ATOM      5  C   UNL     1       6.235  -8.094  25.528  1.00  0.00     0.000 C 
BRANCH   5   6
ATOM      6  C   UNL     1       5.121  -7.346  24.776  1.00  0.00     0.000 C 
BRANCH   6   7
ATOM      7  C   UNL     1       5.555  -5.944  24.314  1.00  0.00     0.006 C 
BRANCH   7   8
ATOM      8  C   UNL     1       6.251  -5.976  22.946  1.00  0.00     0.053 C 
BRANCH   8   9
ATOM      9  C   UNL     1       5.360  -6.545  21.885  1.00  0.00     0.041 C 
ATOM     10  O   UNL     1       5.686  -7.604  21.284  1.00  0.00    -0.550 OA
ATOM     11  O   UNL     1       4.154  -5.927  21.583  1.00  0.00    -0.550 OA
ENDBRANCH   8   9
ENDBRANCH   7   8
ENDBRANCH   6   7
ENDBRANCH   5   6
ENDBRANCH   4   5
ENDBRANCH   3   4
ENDBRANCH   2   3
ENDBRANCH   1   2
BRANCH   1  12
ATOM     12  C   UNL     1       5.932  -8.302  31.126  1.00  0.00     0.000 C 
BRANCH  12  13
ATOM     13  C   UNL     1       5.297  -6.953  31.494  1.00  0.00    -0.000 C 
BRANCH  13  14
ATOM     14  C   UNL     1       6.205  -6.158  32.440  1.00  0.00    -0.000 C 
BRANCH  14  15
ATOM     15  C   UNL     1       7.609  -5.993  31.847  1.00  0.00    -0.000 C 
BRANCH  15  16
ATOM     16  C   UNL     1       7.546  -5.349  30.454  1.00  0.00    -0.000 C 
BRANCH  16  17
ATOM     17  C   UNL     1       8.388  -6.103  29.413  1.00  0.00    -0.000 C 
BRANCH  17  18
ATOM     18  C   UNL     1       7.883  -5.895  27.977  1.00  0.00    -0.000 C 
BRANCH  18  19
ATOM     19  C   UNL     1       6.799  -4.812  27.929  1.00  0.00    -0.003 C 
ATOM     20  C   UNL     1       7.142  -3.733  26.906  1.00  0.00     0.004 C 
ENDBRANCH  18  19
ENDBRANCH  17  18
ENDBRANCH  16  17
ENDBRANCH  15  16
ENDBRANCH  14  15
ENDBRANCH  13  14
ENDBRANCH  12  13
ENDBRANCH   1  12
TORSDOF 16
ENDMDL
MODEL 7
REMARK VINA RESULT:    -4.302     11.016     14.280
REMARK INTER + INTRA:         -10.627
REMARK INTER:                  -8.351
REMARK INTRA:                  -2.276
REMARK UNBOUND:                -2.302
REMARK SMILES CCCCCCCCCCCCCCCCCC(=O)[O-]
REMARK SMILES IDX 10 1 11 2 12 3 13 4 14 5 15 6 16 7 17 8 18 9 19 10 20 11
REMARK SMILES IDX 9 12 8 13 7 14 6 15 5 16 4 17 3 18 2 19 1 20
REMARK H PARENT
REMARK Flexibility Score: inf
ROOT
ATOM      1  C   UNL     1      12.677  -6.871  17.718  1.00  0.00     0.000 C 
ENDROOT
BRANCH   1   2
ATOM      2  C   UNL     1      13.960  -6.172  17.240  1.00  0.00     0.000 C 
BRANCH   2   3
ATOM      3  C   UNL     1      14.878  -5.746  18.400  1.00  0.00     0.000 C 
BRANCH   3   4
ATOM      4  C   UNL     1      14.154  -5.130  19.612  1.00  0.00     0.000 C 
BRANCH   4   5
ATOM      5  C   UNL     1      14.428  -5.888  20.922  1.00  0.00     0.000 C 
BRANCH   5   6
ATOM      6  C   UNL     1      15.574  -6.903  20.785  1.00  0.00     0.000 C 
BRANCH   6   7
ATOM      7  C   UNL     1      15.095  -8.360  20.912  1.00  0.00     0.006 C 
BRANCH   7   8
ATOM      8  C   UNL     1      14.202  -8.570  22.142  1.00  0.00     0.053 C 
BRANCH   8   9
ATOM      9  C   UNL     1      14.999  -8.581  23.410  1.00  0.00     0.041 C 
ATOM     10  O   UNL     1      15.670  -9.600  23.729  1.00  0.00    -0.550 OA
ATOM     11  O   UNL     1      15.031  -7.456  24.223  1.00  0.00    -0.550 OA
ENDBRANCH   8   9
ENDBRANCH   7   8
ENDBRANCH   6   7
ENDBRANCH   5   6
ENDBRANCH   4   5
ENDBRANCH   3   4
ENDBRANCH   2   3
ENDBRANCH   1   2
BRANCH   1  12
ATOM     12  C   UNL     1      12.912  -8.341  18.101  1.00  0.00     0.000 C 
BRANCH  12  13
ATOM     13  C   UNL     1      13.461  -9.174  16.933  1.00  0.00    -0.000 C 
BRANCH  13  14
ATOM     14  C   UNL     1      14.814  -9.799  17.293  1.00  0.00    -0.000 C 
BRANCH  14  15
ATOM     15  C   UNL     1      15.765  -9.785  16.090  1.00  0.00    -0.000 C 
BRANCH  15  16
ATOM     16  C   UNL     1      14.983  -9.704  14.771  1.00  0.00    -0.000 C 
BRANCH  16  17
ATOM     17  C   UNL     1      15.880  -9.369  13.569  1.00  0.00    -0.000 C 
BRANCH  17  18
ATOM     18  C   UNL     1      15.529  -8.019  12.925  1.00  0.00    -0.000 C 
BRANCH  18  19
ATOM     19  C   UNL     1      14.724  -7.144  13.891  1.00  0.00    -0.003 C 
ATOM     20  C   UNL     1      13.390  -6.726  13.277  1.00  0.00     0.004 C 
ENDBRANCH  18  19
ENDBRANCH  17  18
ENDBRANCH  16  17
ENDBRANCH  15  16
ENDBRANCH  14  15
ENDBRANCH  13  14
ENDBRANCH  12  13
ENDBRANCH   1  12
TORSDOF 16
ENDMDL
MODEL 8
REMARK VINA RESULT:    -4.275     12.251     14.449
REMARK INTER + INTRA:         -10.575
REMARK INTER:                  -8.537
REMARK INTRA:                  -2.037
REMARK UNBOUND:                -2.302
REMARK SMILES CCCCCCCCCCCCCCCCCC(=O)[O-]
REMARK SMILES IDX 10 1 11 2 12 3 13 4 14 5 15 6 16 7 17 8 18 9 19 10 20 11
REMARK SMILES IDX 9 12 8 13 7 14 6 15 5 16 4 17 3 18 2 19 1 20
REMARK H PARENT
REMARK Flexibility Score: inf
ROOT
ATOM      1  C   UNL     1      14.330  -4.912  18.603  1.00  0.00     0.000 C 
ENDROOT
BRANCH   1   2
ATOM      2  C   UNL     1      14.303  -5.548  20.003  1.00  0.00     0.000 C 
BRANCH   2   3
ATOM      3  C   UNL     1      15.245  -6.759  20.129  1.00  0.00     0.000 C 
BRANCH   3   4
ATOM      4  C   UNL     1      14.606  -8.019  20.744  1.00  0.00     0.000 C 
BRANCH   4   5
ATOM      5  C   UNL     1      15.550  -8.758  21.707  1.00  0.00     0.000 C 
BRANCH   5   6
ATOM      6  C   UNL     1      16.526  -7.808  22.420  1.00  0.00     0.000 C 
BRANCH   6   7
ATOM      7  C   UNL     1      17.983  -8.301  22.362  1.00  0.00     0.006 C 
BRANCH   7   8
ATOM      8  C   UNL     1      18.988  -7.159  22.567  1.00  0.00     0.053 C 
BRANCH   8   9
ATOM      9  C   UNL     1      20.400  -7.625  22.389  1.00  0.00     0.041 C 
ATOM     10  O   UNL     1      20.707  -8.358  21.411  1.00  0.00    -0.550 OA
ATOM     11  O   UNL     1      21.384  -7.223  23.282  1.00  0.00    -0.550 OA
ENDBRANCH   8   9
ENDBRANCH   7   8
ENDBRANCH   6   7
ENDBRANCH   5   6
ENDBRANCH   4   5
ENDBRANCH   3   4
ENDBRANCH   2   3
ENDBRANCH   1   2
BRANCH   1  12
ATOM     12  C   UNL     1      14.202  -5.952  17.479  1.00  0.00     0.000 C 
BRANCH  12  13
ATOM     13  C   UNL     1      12.762  -6.460  17.307  1.00  0.00    -0.000 C 
BRANCH  13  14
ATOM     14  C   UNL     1      12.730  -7.988  17.185  1.00  0.00    -0.000 C 
BRANCH  14  15
ATOM     15  C   UNL     1      14.143  -8.557  17.007  1.00  0.00    -0.000 C 
BRANCH  15  16
ATOM     16  C   UNL     1      14.138  -9.747  16.036  1.00  0.00    -0.000 C 
BRANCH  16  17
ATOM     17  C   UNL     1      14.190  -9.312  14.563  1.00  0.00    -0.000 C 
BRANCH  17  18
ATOM     18  C   UNL     1      15.217  -8.197  14.310  1.00  0.00    -0.000 C 
BRANCH  18  19
ATOM     19  C   UNL     1      14.633  -7.109  13.403  1.00  0.00    -0.003 C 
ATOM     20  C   UNL     1      13.121  -6.993  13.583  1.00  0.00     0.004 C 
ENDBRANCH  18  19
ENDBRANCH  17  18
ENDBRANCH  16  17
ENDBRANCH  15  16
ENDBRANCH  14  15
ENDBRANCH  13  14
ENDBRANCH  12  13
ENDBRANCH   1  12
TORSDOF 16
ENDMDL
MODEL 9
REMARK VINA RESULT:    -4.261      2.290      6.070
REMARK INTER + INTRA:         -10.549
REMARK INTER:                  -8.111
REMARK INTRA:                  -2.438
REMARK UNBOUND:                -2.302
REMARK SMILES CCCCCCCCCCCCCCCCCC(=O)[O-]
REMARK SMILES IDX 10 1 11 2 12 3 13 4 14 5 15 6 16 7 17 8 18 9 19 10 20 11
REMARK SMILES IDX 9 12 8 13 7 14 6 15 5 16 4 17 3 18 2 19 1 20
REMARK H PARENT
REMARK Flexibility Score: inf
ROOT
ATOM      1  C   UNL     1       5.771  -8.977  25.233  1.00  0.00     0.000 C 
ENDROOT
BRANCH   1   2
ATOM      2  C   UNL     1       7.188  -8.382  25.180  1.00  0.00     0.000 C 
BRANCH   2   3
ATOM      3  C   UNL     1       8.251  -9.309  25.796  1.00  0.00     0.000 C 
BRANCH   3   4
ATOM      4  C   UNL     1       8.823  -8.837  27.146  1.00  0.00     0.000 C 
BRANCH   4   5
ATOM      5  C   UNL     1       8.060  -7.636  27.732  1.00  0.00     0.000 C 
BRANCH   5   6
ATOM      6  C   UNL     1       8.961  -6.725  28.582  1.00  0.00     0.000 C 
BRANCH   6   7
ATOM      7  C   UNL     1       8.469  -5.267  28.615  1.00  0.00     0.006 C 
BRANCH   7   8
ATOM      8  C   UNL     1       7.020  -5.135  28.126  1.00  0.00     0.053 C 
BRANCH   8   9
ATOM      9  C   UNL     1       6.916  -4.221  26.944  1.00  0.00     0.041 C 
ATOM     10  O   UNL     1       6.542  -4.669  25.827  1.00  0.00    -0.550 OA
ATOM     11  O   UNL     1       7.198  -2.868  27.082  1.00  0.00    -0.550 OA
ENDBRANCH   8   9
ENDBRANCH   7   8
ENDBRANCH   6   7
ENDBRANCH   5   6
ENDBRANCH   4   5
ENDBRANCH   3   4
ENDBRANCH   2   3
ENDBRANCH   1   2
BRANCH   1  12
ATOM     12  C   UNL     1       4.716  -7.954  25.684  1.00  0.00     0.000 C 
BRANCH  12  13
ATOM     13  C   UNL     1       4.318  -8.130  27.157  1.00  0.00    -0.000 C 
BRANCH  13  14
ATOM     14  C   UNL     1       4.907  -9.423  27.735  1.00  0.00    -0.000 C 
BRANCH  14  15
ATOM     15  C   UNL     1       4.713  -9.487  29.254  1.00  0.00    -0.000 C 
BRANCH  15  16
ATOM     16  C   UNL     1       5.819  -8.709  29.983  1.00  0.00    -0.000 C 
BRANCH  16  17
ATOM     17  C   UNL     1       5.344  -7.339  30.491  1.00  0.00    -0.000 C 
BRANCH  17  18
ATOM     18  C   UNL     1       5.552  -7.162  32.003  1.00  0.00    -0.000 C 
BRANCH  18  19
ATOM     19  C   UNL     1       6.125  -5.776  32.319  1.00  0.00    -0.003 C 
ATOM     20  C   UNL     1       7.645  -5.762  32.180  1.00  0.00     0.004 C 
ENDBRANCH  18  19
ENDBRANCH  17  18
ENDBRANCH  16  17
ENDBRANCH  15  16
ENDBRANCH  14  15
ENDBRANCH  13  14
ENDBRANCH  12  13
ENDBRANCH   1  12
TORSDOF 16
ENDMDL
