MODEL 1
REMARK VINA RESULT:    -6.067      0.000      0.000
REMARK INTER + INTRA:          -8.255
REMARK INTER:                  -7.662
REMARK INTRA:                  -0.593
REMARK UNBOUND:                -0.593
REMARK SMILES O=C(C=Cc1ccc(O)cc1)c1ccc(O)cc1O
REMARK SMILES IDX 4 1 3 2 5 3 6 4 7 5 8 6 11 7 10 8 9 9 2 11 1 12 12 13 18 14
REMARK SMILES IDX 13 15 17 16 14 17 15 18 19 19 16 21
REMARK H PARENT 9 10 19 20 16 22
REMARK Flexibility Score: inf
ROOT
ATOM      1  C   UNL     1      -5.089 -23.702  35.695  1.00  0.00     0.012 C 
ATOM      2  C   UNL     1      -4.995 -22.513  35.082  1.00  0.00     0.053 C 
ENDROOT
BRANCH   1   3
ATOM      3  C   UNL     1      -5.801 -24.872  35.125  1.00  0.00    -0.025 A 
ATOM      4  C   UNL     1      -6.262 -24.798  33.799  1.00  0.00     0.012 A 
ATOM      5  C   UNL     1      -6.945 -25.872  33.222  1.00  0.00     0.047 A 
ATOM      6  C   UNL     1      -7.186 -27.032  33.963  1.00  0.00     0.115 A 
ATOM      7  C   UNL     1      -6.061 -26.041  35.870  1.00  0.00     0.012 A 
ATOM      8  C   UNL     1      -6.745 -27.113  35.289  1.00  0.00     0.047 A 
BRANCH   6   9
ATOM      9  O   UNL     1      -7.867 -28.095  33.374  1.00  0.00    -0.508 OA
ATOM     10  H   UNL     1      -8.645 -27.941  32.742  1.00  0.00     0.293 HD
ENDBRANCH   6   9
ENDBRANCH   1   3
BRANCH   2  11
ATOM     11  C   UNL     1      -4.279 -21.363  35.672  1.00  0.00     0.189 C 
ATOM     12  O   UNL     1      -4.129 -21.331  36.923  1.00  0.00    -0.289 OA
BRANCH  11  13
ATOM     13  C   UNL     1      -3.738 -20.247  34.863  1.00  0.00     0.064 A 
ATOM     14  C   UNL     1      -2.516 -19.624  35.193  1.00  0.00     0.130 A 
ATOM     15  C   UNL     1      -4.478 -19.772  33.768  1.00  0.00     0.020 A 
ATOM     16  C   UNL     1      -2.034 -18.570  34.401  1.00  0.00     0.093 A 
ATOM     17  C   UNL     1      -3.993 -18.719  32.988  1.00  0.00     0.047 A 
ATOM     18  C   UNL     1      -2.767 -18.118  33.300  1.00  0.00     0.119 A 
BRANCH  14  19
ATOM     19  O   UNL     1      -1.793 -20.035  36.312  1.00  0.00    -0.507 OA
ATOM     20  H   UNL     1      -0.795 -20.203  36.269  1.00  0.00     0.293 HD
ENDBRANCH  14  19
BRANCH  18  21
ATOM     21  O   UNL     1      -2.273 -17.070  32.527  1.00  0.00    -0.508 OA
ATOM     22  H   UNL     1      -2.444 -16.103  32.775  1.00  0.00     0.293 HD
ENDBRANCH  18  21
ENDBRANCH  11  13
ENDBRANCH   2  11
TORSDOF 6
ENDMDL
MODEL 2
REMARK VINA RESULT:    -5.988      2.994      3.521
REMARK INTER + INTRA:          -8.156
REMARK INTER:                  -7.507
REMARK INTRA:                  -0.650
REMARK UNBOUND:                -0.593
REMARK SMILES O=C(C=Cc1ccc(O)cc1)c1ccc(O)cc1O
REMARK SMILES IDX 4 1 3 2 5 3 6 4 7 5 8 6 11 7 10 8 9 9 2 11 1 12 12 13 18 14
REMARK SMILES IDX 13 15 17 16 14 17 15 18 19 19 16 21
REMARK H PARENT 9 10 19 20 16 22
REMARK Flexibility Score: inf
ROOT
ATOM      1  C   UNL     1      -6.968 -23.716  34.633  1.00  0.00     0.012 C 
ATOM      2  C   UNL     1      -7.765 -22.654  34.447  1.00  0.00     0.053 C 
ENDROOT
BRANCH   1   3
ATOM      3  C   UNL     1      -7.398 -24.965  35.310  1.00  0.00    -0.025 A 
ATOM      4  C   UNL     1      -6.687 -26.149  35.049  1.00  0.00     0.012 A 
ATOM      5  C   UNL     1      -7.059 -27.351  35.657  1.00  0.00     0.047 A 
ATOM      6  C   UNL     1      -8.153 -27.391  36.526  1.00  0.00     0.115 A 
ATOM      7  C   UNL     1      -8.509 -25.016  36.177  1.00  0.00     0.012 A 
ATOM      8  C   UNL     1      -8.878 -26.221  36.782  1.00  0.00     0.047 A 
BRANCH   6   9
ATOM      9  O   UNL     1      -8.512 -28.596  37.125  1.00  0.00    -0.508 OA
ATOM     10  H   UNL     1      -7.847 -29.354  37.229  1.00  0.00     0.293 HD
ENDBRANCH   6   9
ENDBRANCH   1   3
BRANCH   2  11
ATOM     11  C   UNL     1      -7.311 -21.422  33.769  1.00  0.00     0.189 C 
ATOM     12  O   UNL     1      -7.345 -21.387  32.510  1.00  0.00    -0.289 OA
BRANCH  11  13
ATOM     13  C   UNL     1      -6.813 -20.234  34.500  1.00  0.00     0.064 A 
ATOM     14  C   UNL     1      -5.645 -19.556  34.093  1.00  0.00     0.130 A 
ATOM     15  C   UNL     1      -7.497 -19.798  35.646  1.00  0.00     0.020 A 
ATOM     16  C   UNL     1      -5.206 -18.432  34.810  1.00  0.00     0.093 A 
ATOM     17  C   UNL     1      -7.050 -18.681  36.357  1.00  0.00     0.047 A 
ATOM     18  C   UNL     1      -5.905 -17.993  35.938  1.00  0.00     0.119 A 
BRANCH  14  19
ATOM     19  O   UNL     1      -4.914 -20.006  32.995  1.00  0.00    -0.507 OA
ATOM     20  H   UNL     1      -5.332 -20.098  32.077  1.00  0.00     0.293 HD
ENDBRANCH  14  19
BRANCH  18  21
ATOM     21  O   UNL     1      -5.452 -16.876  36.637  1.00  0.00    -0.508 OA
ATOM     22  H   UNL     1      -6.080 -16.127  36.903  1.00  0.00     0.293 HD
ENDBRANCH  18  21
ENDBRANCH  11  13
ENDBRANCH   2  11
TORSDOF 6
ENDMDL
MODEL 3
REMARK VINA RESULT:    -5.950      2.208      7.828
REMARK INTER + INTRA:          -8.108
REMARK INTER:                  -7.489
REMARK INTRA:                  -0.619
REMARK UNBOUND:                -0.593
REMARK SMILES O=C(C=Cc1ccc(O)cc1)c1ccc(O)cc1O
REMARK SMILES IDX 4 1 3 2 5 3 6 4 7 5 8 6 11 7 10 8 9 9 2 11 1 12 12 13 18 14
REMARK SMILES IDX 13 15 17 16 14 17 15 18 19 19 16 21
REMARK H PARENT 9 10 19 20 16 22
REMARK Flexibility Score: inf
ROOT
ATOM      1  C   UNL     1      -5.947 -20.244  33.748  1.00  0.00     0.012 C 
ATOM      2  C   UNL     1      -6.317 -21.108  34.705  1.00  0.00     0.053 C 
ENDROOT
BRANCH   1   3
ATOM      3  C   UNL     1      -4.782 -19.333  33.862  1.00  0.00    -0.025 A 
ATOM      4  C   UNL     1      -3.545 -19.757  33.345  1.00  0.00     0.012 A 
ATOM      5  C   UNL     1      -2.417 -18.936  33.435  1.00  0.00     0.047 A 
ATOM      6  C   UNL     1      -2.505 -17.686  34.052  1.00  0.00     0.115 A 
ATOM      7  C   UNL     1      -4.858 -18.075  34.494  1.00  0.00     0.012 A 
ATOM      8  C   UNL     1      -3.728 -17.258  34.583  1.00  0.00     0.047 A 
BRANCH   6   9
ATOM      9  O   UNL     1      -1.373 -16.878  34.133  1.00  0.00    -0.508 OA
ATOM     10  H   UNL     1      -0.630 -16.937  33.447  1.00  0.00     0.293 HD
ENDBRANCH   6   9
ENDBRANCH   1   3
BRANCH   2  11
ATOM     11  C   UNL     1      -7.483 -22.006  34.566  1.00  0.00     0.189 C 
ATOM     12  O   UNL     1      -8.624 -21.486  34.443  1.00  0.00    -0.289 OA
BRANCH  11  13
ATOM     13  C   UNL     1      -7.371 -23.482  34.573  1.00  0.00     0.064 A 
ATOM     14  C   UNL     1      -7.878 -24.254  35.639  1.00  0.00     0.130 A 
ATOM     15  C   UNL     1      -6.711 -24.124  33.513  1.00  0.00     0.020 A 
ATOM     16  C   UNL     1      -7.755 -25.651  35.609  1.00  0.00     0.093 A 
ATOM     17  C   UNL     1      -6.588 -25.516  33.493  1.00  0.00     0.047 A 
ATOM     18  C   UNL     1      -7.114 -26.284  34.540  1.00  0.00     0.119 A 
BRANCH  14  19
ATOM     19  O   UNL     1      -8.483 -23.635  36.733  1.00  0.00    -0.507 OA
ATOM     20  H   UNL     1      -8.104 -23.719  37.669  1.00  0.00     0.293 HD
ENDBRANCH  14  19
BRANCH  18  21
ATOM     21  O   UNL     1      -7.001 -27.672  34.529  1.00  0.00    -0.508 OA
ATOM     22  H   UNL     1      -6.226 -28.137  34.070  1.00  0.00     0.293 HD
ENDBRANCH  18  21
ENDBRANCH  11  13
ENDBRANCH   2  11
TORSDOF 6
ENDMDL
MODEL 4
REMARK VINA RESULT:    -5.914      1.277      7.637
REMARK INTER + INTRA:          -8.063
REMARK INTER:                  -7.640
REMARK INTRA:                  -0.423
REMARK UNBOUND:                -0.593
REMARK SMILES O=C(C=Cc1ccc(O)cc1)c1ccc(O)cc1O
REMARK SMILES IDX 4 1 3 2 5 3 6 4 7 5 8 6 11 7 10 8 9 9 2 11 1 12 12 13 18 14
REMARK SMILES IDX 13 15 17 16 14 17 15 18 19 19 16 21
REMARK H PARENT 9 10 19 20 16 22
REMARK Flexibility Score: inf
ROOT
ATOM      1  C   UNL     1      -4.352 -21.458  35.595  1.00  0.00     0.012 C 
ATOM      2  C   UNL     1      -4.678 -22.624  35.018  1.00  0.00     0.053 C 
ENDROOT
BRANCH   1   3
ATOM      3  C   UNL     1      -3.847 -20.279  34.849  1.00  0.00    -0.025 A 
ATOM      4  C   UNL     1      -4.595 -19.803  33.758  1.00  0.00     0.012 A 
ATOM      5  C   UNL     1      -4.156 -18.700  33.020  1.00  0.00     0.047 A 
ATOM      6  C   UNL     1      -2.958 -18.063  33.354  1.00  0.00     0.115 A 
ATOM      7  C   UNL     1      -2.632 -19.639  35.169  1.00  0.00     0.012 A 
ATOM      8  C   UNL     1      -2.196 -18.537  34.428  1.00  0.00     0.047 A 
BRANCH   6   9
ATOM      9  O   UNL     1      -2.533 -16.965  32.610  1.00  0.00    -0.508 OA
ATOM     10  H   UNL     1      -1.551 -16.735  32.519  1.00  0.00     0.293 HD
ENDBRANCH   6   9
ENDBRANCH   1   3
BRANCH   2  11
ATOM     11  C   UNL     1      -5.179 -23.784  35.786  1.00  0.00     0.189 C 
ATOM     12  O   UNL     1      -4.986 -23.804  37.031  1.00  0.00    -0.289 OA
BRANCH  11  13
ATOM     13  C   UNL     1      -5.890 -24.921  35.159  1.00  0.00     0.064 A 
ATOM     14  C   UNL     1      -6.064 -26.145  35.839  1.00  0.00     0.130 A 
ATOM     15  C   UNL     1      -6.364 -24.792  33.843  1.00  0.00     0.020 A 
ATOM     16  C   UNL     1      -6.745 -27.200  35.212  1.00  0.00     0.093 A 
ATOM     17  C   UNL     1      -7.037 -25.850  33.225  1.00  0.00     0.047 A 
ATOM     18  C   UNL     1      -7.232 -27.055  33.910  1.00  0.00     0.119 A 
BRANCH  14  19
ATOM     19  O   UNL     1      -5.548 -26.319  37.122  1.00  0.00    -0.507 OA
ATOM     20  H   UNL     1      -4.755 -25.783  37.455  1.00  0.00     0.293 HD
ENDBRANCH  14  19
BRANCH  18  21
ATOM     21  O   UNL     1      -7.904 -28.115  33.305  1.00  0.00    -0.508 OA
ATOM     22  H   UNL     1      -7.558 -29.065  33.366  1.00  0.00     0.293 HD
ENDBRANCH  18  21
ENDBRANCH  11  13
ENDBRANCH   2  11
TORSDOF 6
ENDMDL
MODEL 5
REMARK VINA RESULT:    -5.871      2.251      7.875
REMARK INTER + INTRA:          -8.008
REMARK INTER:                  -7.619
REMARK INTRA:                  -0.389
REMARK UNBOUND:                -0.593
REMARK SMILES O=C(C=Cc1ccc(O)cc1)c1ccc(O)cc1O
REMARK SMILES IDX 4 1 3 2 5 3 6 4 7 5 8 6 11 7 10 8 9 9 2 11 1 12 12 13 18 14
REMARK SMILES IDX 13 15 17 16 14 17 15 18 19 19 16 21
REMARK H PARENT 9 10 19 20 16 22
REMARK Flexibility Score: inf
ROOT
ATOM      1  C   UNL     1      -5.895 -20.156  33.628  1.00  0.00     0.012 C 
ATOM      2  C   UNL     1      -6.206 -21.153  34.469  1.00  0.00     0.053 C 
ENDROOT
BRANCH   1   3
ATOM      3  C   UNL     1      -4.719 -19.268  33.797  1.00  0.00    -0.025 A 
ATOM      4  C   UNL     1      -3.482 -19.684  33.275  1.00  0.00     0.012 A 
ATOM      5  C   UNL     1      -2.345 -18.884  33.416  1.00  0.00     0.047 A 
ATOM      6  C   UNL     1      -2.423 -17.662  34.090  1.00  0.00     0.115 A 
ATOM      7  C   UNL     1      -4.787 -18.040  34.488  1.00  0.00     0.012 A 
ATOM      8  C   UNL     1      -3.647 -17.244  34.628  1.00  0.00     0.047 A 
BRANCH   6   9
ATOM      9  O   UNL     1      -1.282 -16.876  34.223  1.00  0.00    -0.508 OA
ATOM     10  H   UNL     1      -0.409 -17.129  33.774  1.00  0.00     0.293 HD
ENDBRANCH   6   9
ENDBRANCH   1   3
BRANCH   2  11
ATOM     11  C   UNL     1      -7.385 -22.025  34.277  1.00  0.00     0.189 C 
ATOM     12  O   UNL     1      -8.466 -21.493  33.908  1.00  0.00    -0.289 OA
BRANCH  11  13
ATOM     13  C   UNL     1      -7.353 -23.488  34.504  1.00  0.00     0.064 A 
ATOM     14  C   UNL     1      -6.661 -24.353  33.631  1.00  0.00     0.130 A 
ATOM     15  C   UNL     1      -8.062 -24.028  35.589  1.00  0.00     0.020 A 
ATOM     16  C   UNL     1      -6.652 -25.734  33.880  1.00  0.00     0.093 A 
ATOM     17  C   UNL     1      -8.051 -25.405  35.827  1.00  0.00     0.047 A 
ATOM     18  C   UNL     1      -7.343 -26.261  34.975  1.00  0.00     0.119 A 
BRANCH  14  19
ATOM     19  O   UNL     1      -6.002 -23.847  32.511  1.00  0.00    -0.507 OA
ATOM     20  H   UNL     1      -5.778 -24.432  31.716  1.00  0.00     0.293 HD
ENDBRANCH  14  19
BRANCH  18  21
ATOM     21  O   UNL     1      -7.322 -27.635  35.205  1.00  0.00    -0.508 OA
ATOM     22  H   UNL     1      -6.911 -28.025  36.045  1.00  0.00     0.293 HD
ENDBRANCH  18  21
ENDBRANCH  11  13
ENDBRANCH   2  11
TORSDOF 6
ENDMDL
MODEL 6
REMARK VINA RESULT:    -5.737      1.592      2.308
REMARK INTER + INTRA:          -7.839
REMARK INTER:                  -7.120
REMARK INTRA:                  -0.719
REMARK UNBOUND:                -0.593
REMARK SMILES O=C(C=Cc1ccc(O)cc1)c1ccc(O)cc1O
REMARK SMILES IDX 4 1 3 2 5 3 6 4 7 5 8 6 11 7 10 8 9 9 2 11 1 12 12 13 18 14
REMARK SMILES IDX 13 15 17 16 14 17 15 18 19 19 16 21
REMARK H PARENT 9 10 19 20 16 22
REMARK Flexibility Score: inf
ROOT
ATOM      1  C   UNL     1      -5.190 -22.439  34.353  1.00  0.00     0.012 C 
ATOM      2  C   UNL     1      -5.807 -21.357  34.851  1.00  0.00     0.053 C 
ENDROOT
BRANCH   1   3
ATOM      3  C   UNL     1      -5.668 -23.829  34.554  1.00  0.00    -0.025 A 
ATOM      4  C   UNL     1      -6.330 -24.472  33.493  1.00  0.00     0.012 A 
ATOM      5  C   UNL     1      -6.804 -25.778  33.638  1.00  0.00     0.047 A 
ATOM      6  C   UNL     1      -6.636 -26.458  34.847  1.00  0.00     0.115 A 
ATOM      7  C   UNL     1      -5.515 -24.517  35.775  1.00  0.00     0.012 A 
ATOM      8  C   UNL     1      -5.992 -25.823  35.916  1.00  0.00     0.047 A 
BRANCH   6   9
ATOM      9  O   UNL     1      -7.114 -27.760  34.976  1.00  0.00    -0.508 OA
ATOM     10  H   UNL     1      -8.038 -28.020  34.652  1.00  0.00     0.293 HD
ENDBRANCH   6   9
ENDBRANCH   1   3
BRANCH   2  11
ATOM     11  C   UNL     1      -5.308 -19.982  34.635  1.00  0.00     0.189 C 
ATOM     12  O   UNL     1      -6.152 -19.053  34.520  1.00  0.00    -0.289 OA
BRANCH  11  13
ATOM     13  C   UNL     1      -3.868 -19.650  34.541  1.00  0.00     0.064 A 
ATOM     14  C   UNL     1      -3.293 -19.204  33.333  1.00  0.00     0.130 A 
ATOM     15  C   UNL     1      -3.051 -19.822  35.670  1.00  0.00     0.020 A 
ATOM     16  C   UNL     1      -1.925 -18.897  33.284  1.00  0.00     0.093 A 
ATOM     17  C   UNL     1      -1.688 -19.518  35.611  1.00  0.00     0.047 A 
ATOM     18  C   UNL     1      -1.122 -19.051  34.418  1.00  0.00     0.119 A 
BRANCH  14  19
ATOM     19  O   UNL     1      -4.071 -19.085  32.182  1.00  0.00    -0.507 OA
ATOM     20  H   UNL     1      -3.696 -18.702  31.323  1.00  0.00     0.293 HD
ENDBRANCH  14  19
BRANCH  18  21
ATOM     21  O   UNL     1       0.234 -18.742  34.348  1.00  0.00    -0.508 OA
ATOM     22  H   UNL     1       0.742 -18.403  35.157  1.00  0.00     0.293 HD
ENDBRANCH  18  21
ENDBRANCH  11  13
ENDBRANCH   2  11
TORSDOF 6
ENDMDL
MODEL 7
REMARK VINA RESULT:    -5.690      2.031      2.696
REMARK INTER + INTRA:          -7.780
REMARK INTER:                  -7.321
REMARK INTRA:                  -0.459
REMARK UNBOUND:                -0.593
REMARK SMILES O=C(C=Cc1ccc(O)cc1)c1ccc(O)cc1O
REMARK SMILES IDX 4 1 3 2 5 3 6 4 7 5 8 6 11 7 10 8 9 9 2 11 1 12 12 13 18 14
REMARK SMILES IDX 13 15 17 16 14 17 15 18 19 19 16 21
REMARK H PARENT 9 10 19 20 16 22
REMARK Flexibility Score: inf
ROOT
ATOM      1  C   UNL     1      -5.861 -24.519  35.705  1.00  0.00     0.012 C 
ATOM      2  C   UNL     1      -6.070 -23.341  36.313  1.00  0.00     0.053 C 
ENDROOT
BRANCH   1   3
ATOM      3  C   UNL     1      -6.904 -25.562  35.543  1.00  0.00    -0.025 A 
ATOM      4  C   UNL     1      -7.937 -25.632  36.493  1.00  0.00     0.012 A 
ATOM      5  C   UNL     1      -8.937 -26.603  36.387  1.00  0.00     0.047 A 
ATOM      6  C   UNL     1      -8.914 -27.524  35.337  1.00  0.00     0.115 A 
ATOM      7  C   UNL     1      -6.880 -26.504  34.494  1.00  0.00     0.012 A 
ATOM      8  C   UNL     1      -7.882 -27.474  34.392  1.00  0.00     0.047 A 
BRANCH   6   9
ATOM      9  O   UNL     1      -9.918 -28.485  35.243  1.00  0.00    -0.508 OA
ATOM     10  H   UNL     1     -10.319 -28.914  36.069  1.00  0.00     0.293 HD
ENDBRANCH   6   9
ENDBRANCH   1   3
BRANCH   2  11
ATOM     11  C   UNL     1      -5.013 -22.319  36.460  1.00  0.00     0.189 C 
ATOM     12  O   UNL     1      -3.972 -22.624  37.102  1.00  0.00    -0.289 OA
BRANCH  11  13
ATOM     13  C   UNL     1      -5.125 -20.954  35.897  1.00  0.00     0.064 A 
ATOM     14  C   UNL     1      -4.953 -20.711  34.518  1.00  0.00     0.130 A 
ATOM     15  C   UNL     1      -5.368 -19.873  36.760  1.00  0.00     0.020 A 
ATOM     16  C   UNL     1      -5.068 -19.404  34.020  1.00  0.00     0.093 A 
ATOM     17  C   UNL     1      -5.476 -18.574  36.256  1.00  0.00     0.047 A 
ATOM     18  C   UNL     1      -5.331 -18.337  34.884  1.00  0.00     0.119 A 
BRANCH  14  19
ATOM     19  O   UNL     1      -4.649 -21.759  33.649  1.00  0.00    -0.507 OA
ATOM     20  H   UNL     1      -5.031 -22.688  33.781  1.00  0.00     0.293 HD
ENDBRANCH  14  19
BRANCH  18  21
ATOM     21  O   UNL     1      -5.441 -17.047  34.371  1.00  0.00    -0.508 OA
ATOM     22  H   UNL     1      -5.813 -16.286  34.927  1.00  0.00     0.293 HD
ENDBRANCH  18  21
ENDBRANCH  11  13
ENDBRANCH   2  11
TORSDOF 6
ENDMDL
MODEL 8
REMARK VINA RESULT:    -5.677      2.249      2.987
REMARK INTER + INTRA:          -7.763
REMARK INTER:                  -7.039
REMARK INTRA:                  -0.724
REMARK UNBOUND:                -0.593
REMARK SMILES O=C(C=Cc1ccc(O)cc1)c1ccc(O)cc1O
REMARK SMILES IDX 4 1 3 2 5 3 6 4 7 5 8 6 11 7 10 8 9 9 2 11 1 12 12 13 18 14
REMARK SMILES IDX 13 15 17 16 14 17 15 18 19 19 16 21
REMARK H PARENT 9 10 19 20 16 22
REMARK Flexibility Score: inf
ROOT
ATOM      1  C   UNL     1      -7.092 -23.281  34.965  1.00  0.00     0.012 C 
ATOM      2  C   UNL     1      -7.439 -22.233  35.726  1.00  0.00     0.053 C 
ENDROOT
BRANCH   1   3
ATOM      3  C   UNL     1      -7.590 -24.662  35.181  1.00  0.00    -0.025 A 
ATOM      4  C   UNL     1      -8.648 -24.861  36.085  1.00  0.00     0.012 A 
ATOM      5  C   UNL     1      -9.146 -26.144  36.327  1.00  0.00     0.047 A 
ATOM      6  C   UNL     1      -8.587 -27.249  35.679  1.00  0.00     0.115 A 
ATOM      7  C   UNL     1      -7.023 -25.784  34.542  1.00  0.00     0.012 A 
ATOM      8  C   UNL     1      -7.522 -27.066  34.789  1.00  0.00     0.047 A 
BRANCH   6   9
ATOM      9  O   UNL     1      -9.094 -28.522  35.931  1.00  0.00    -0.508 OA
ATOM     10  H   UNL     1      -8.493 -29.339  35.940  1.00  0.00     0.293 HD
ENDBRANCH   6   9
ENDBRANCH   1   3
BRANCH   2  11
ATOM     11  C   UNL     1      -6.928 -20.867  35.488  1.00  0.00     0.189 C 
ATOM     12  O   UNL     1      -7.763 -19.943  35.297  1.00  0.00    -0.289 OA
BRANCH  11  13
ATOM     13  C   UNL     1      -5.485 -20.538  35.457  1.00  0.00     0.064 A 
ATOM     14  C   UNL     1      -4.831 -20.210  34.251  1.00  0.00     0.130 A 
ATOM     15  C   UNL     1      -4.743 -20.594  36.648  1.00  0.00     0.020 A 
ATOM     16  C   UNL     1      -3.462 -19.902  34.262  1.00  0.00     0.093 A 
ATOM     17  C   UNL     1      -3.379 -20.291  36.649  1.00  0.00     0.047 A 
ATOM     18  C   UNL     1      -2.735 -19.940  35.456  1.00  0.00     0.119 A 
BRANCH  14  19
ATOM     19  O   UNL     1      -5.532 -20.207  33.046  1.00  0.00    -0.507 OA
ATOM     20  H   UNL     1      -6.204 -20.931  32.819  1.00  0.00     0.293 HD
ENDBRANCH  14  19
BRANCH  18  21
ATOM     21  O   UNL     1      -1.377 -19.632  35.445  1.00  0.00    -0.508 OA
ATOM     22  H   UNL     1      -1.023 -18.818  34.955  1.00  0.00     0.293 HD
ENDBRANCH  18  21
ENDBRANCH  11  13
ENDBRANCH   2  11
TORSDOF 6
ENDMDL
MODEL 9
REMARK VINA RESULT:    -5.639      2.039      2.361
REMARK INTER + INTRA:          -7.715
REMARK INTER:                  -7.085
REMARK INTRA:                  -0.630
REMARK UNBOUND:                -0.593
REMARK SMILES O=C(C=Cc1ccc(O)cc1)c1ccc(O)cc1O
REMARK SMILES IDX 4 1 3 2 5 3 6 4 7 5 8 6 11 7 10 8 9 9 2 11 1 12 12 13 18 14
REMARK SMILES IDX 13 15 17 16 14 17 15 18 19 19 16 21
REMARK H PARENT 9 10 19 20 16 22
REMARK Flexibility Score: inf
ROOT
ATOM      1  C   UNL     1      -7.306 -22.060  34.749  1.00  0.00     0.012 C 
ATOM      2  C   UNL     1      -6.333 -21.331  35.316  1.00  0.00     0.053 C 
ENDROOT
BRANCH   1   3
ATOM      3  C   UNL     1      -7.344 -23.543  34.764  1.00  0.00    -0.025 A 
ATOM      4  C   UNL     1      -8.144 -24.185  35.725  1.00  0.00     0.012 A 
ATOM      5  C   UNL     1      -8.206 -25.580  35.783  1.00  0.00     0.047 A 
ATOM      6  C   UNL     1      -7.461 -26.355  34.889  1.00  0.00     0.115 A 
ATOM      7  C   UNL     1      -6.585 -24.333  33.875  1.00  0.00     0.012 A 
ATOM      8  C   UNL     1      -6.649 -25.727  33.937  1.00  0.00     0.047 A 
BRANCH   6   9
ATOM      9  O   UNL     1      -7.534 -27.744  34.958  1.00  0.00    -0.508 OA
ATOM     10  H   UNL     1      -6.723 -28.306  35.192  1.00  0.00     0.293 HD
ENDBRANCH   6   9
ENDBRANCH   1   3
BRANCH   2  11
ATOM     11  C   UNL     1      -6.320 -19.853  35.287  1.00  0.00     0.189 C 
ATOM     12  O   UNL     1      -7.280 -19.238  35.823  1.00  0.00    -0.289 OA
BRANCH  11  13
ATOM     13  C   UNL     1      -5.238 -19.068  34.651  1.00  0.00     0.064 A 
ATOM     14  C   UNL     1      -4.753 -17.879  35.233  1.00  0.00     0.130 A 
ATOM     15  C   UNL     1      -4.712 -19.496  33.421  1.00  0.00     0.020 A 
ATOM     16  C   UNL     1      -3.724 -17.162  34.603  1.00  0.00     0.093 A 
ATOM     17  C   UNL     1      -3.691 -18.773  32.797  1.00  0.00     0.047 A 
ATOM     18  C   UNL     1      -3.192 -17.607  33.388  1.00  0.00     0.119 A 
BRANCH  14  19
ATOM     19  O   UNL     1      -5.301 -17.400  36.423  1.00  0.00    -0.507 OA
ATOM     20  H   UNL     1      -4.833 -17.523  37.313  1.00  0.00     0.293 HD
ENDBRANCH  14  19
BRANCH  18  21
ATOM     21  O   UNL     1      -2.172 -16.881  32.778  1.00  0.00    -0.508 OA
ATOM     22  H   UNL     1      -2.371 -16.173  32.079  1.00  0.00     0.293 HD
ENDBRANCH  18  21
ENDBRANCH  11  13
ENDBRANCH   2  11
TORSDOF 6
ENDMDL
