MODEL 1
REMARK VINA RESULT:    -2.675      0.000      0.000
REMARK INTER + INTRA:          -2.675
REMARK INTER:                  -2.675
REMARK INTRA:                   0.000
REMARK UNBOUND:                 0.000
REMARK SMILES CC(=O)[O-]
REMARK SMILES IDX 1 1 2 2 3 3 4 4
REMARK H PARENT
REMARK Flexibility Score: inf
ROOT
ATOM      1  C   UNL     1     -17.921  34.740  80.116  1.00  0.00     0.063 C 
ATOM      2  C   UNL     1     -17.145  35.803  80.819  1.00  0.00     0.038 C 
ATOM      3  O   UNL     1     -16.384  35.502  81.775  1.00  0.00    -0.550 OA
ATOM      4  O   UNL     1     -17.222  37.121  80.385  1.00  0.00    -0.550 OA
ENDROOT
TORSDOF 0
ENDMDL
MODEL 2
REMARK VINA RESULT:    -2.663     11.504     12.033
REMARK INTER + INTRA:          -2.663
REMARK INTER:                  -2.663
REMARK INTRA:                   0.000
REMARK UNBOUND:                 0.000
REMARK SMILES CC(=O)[O-]
REMARK SMILES IDX 1 1 2 2 3 3 4 4
REMARK H PARENT
REMARK Flexibility Score: inf
ROOT
ATOM      1  C   UNL     1     -22.423  28.041  90.071  1.00  0.00     0.063 C 
ATOM      2  C   UNL     1     -21.405  28.966  89.493  1.00  0.00     0.038 C 
ATOM      3  O   UNL     1     -21.769  29.963  88.816  1.00  0.00    -0.550 OA
ATOM      4  O   UNL     1     -20.055  28.759  89.746  1.00  0.00    -0.550 OA
ENDROOT
TORSDOF 0
ENDMDL
MODEL 3
REMARK VINA RESULT:    -2.650      0.128      1.624
REMARK INTER + INTRA:          -2.650
REMARK INTER:                  -2.650
REMARK INTRA:                   0.000
REMARK UNBOUND:                 0.000
REMARK SMILES CC(=O)[O-]
REMARK SMILES IDX 1 1 2 2 3 3 4 4
REMARK H PARENT
REMARK Flexibility Score: inf
ROOT
ATOM      1  C   UNL     1     -17.959  34.766  80.117  1.00  0.00     0.063 C 
ATOM      2  C   UNL     1     -17.114  35.779  80.815  1.00  0.00     0.038 C 
ATOM      3  O   UNL     1     -17.124  36.979  80.437  1.00  0.00    -0.550 OA
ATOM      4  O   UNL     1     -16.354  35.408  81.917  1.00  0.00    -0.550 OA
ENDROOT
TORSDOF 0
ENDMDL
MODEL 4
REMARK VINA RESULT:    -2.647      1.254      1.630
REMARK INTER + INTRA:          -2.647
REMARK INTER:                  -2.647
REMARK INTRA:                   0.000
REMARK UNBOUND:                 0.000
REMARK SMILES CC(=O)[O-]
REMARK SMILES IDX 1 1 2 2 3 3 4 4
REMARK H PARENT
REMARK Flexibility Score: inf
ROOT
ATOM      1  C   UNL     1     -17.991  34.913  80.103  1.00  0.00     0.063 C 
ATOM      2  C   UNL     1     -18.048  36.403  80.063  1.00  0.00     0.038 C 
ATOM      3  O   UNL     1     -17.157  37.085  80.634  1.00  0.00    -0.550 OA
ATOM      4  O   UNL     1     -19.056  37.041  79.351  1.00  0.00    -0.550 OA
ENDROOT
TORSDOF 0
ENDMDL
MODEL 5
REMARK VINA RESULT:    -2.621     11.408     11.924
REMARK INTER + INTRA:          -2.621
REMARK INTER:                  -2.621
REMARK INTRA:                   0.000
REMARK UNBOUND:                 0.000
REMARK SMILES CC(=O)[O-]
REMARK SMILES IDX 1 1 2 2 3 3 4 4
REMARK H PARENT
REMARK Flexibility Score: inf
ROOT
ATOM      1  C   UNL     1     -19.909  29.088  89.949  1.00  0.00     0.063 C 
ATOM      2  C   UNL     1     -21.272  28.973  89.353  1.00  0.00     0.038 C 
ATOM      3  O   UNL     1     -21.839  29.988  88.871  1.00  0.00    -0.550 OA
ATOM      4  O   UNL     1     -21.897  27.734  89.281  1.00  0.00    -0.550 OA
ENDROOT
TORSDOF 0
ENDMDL
MODEL 6
REMARK VINA RESULT:    -2.620      1.541      1.898
REMARK INTER + INTRA:          -2.620
REMARK INTER:                  -2.620
REMARK INTRA:                   0.000
REMARK UNBOUND:                 0.000
REMARK SMILES CC(=O)[O-]
REMARK SMILES IDX 1 1 2 2 3 3 4 4
REMARK H PARENT
REMARK Flexibility Score: inf
ROOT
ATOM      1  C   UNL     1     -18.619  36.918  79.432  1.00  0.00     0.063 C 
ATOM      2  C   UNL     1     -17.589  36.523  80.436  1.00  0.00     0.038 C 
ATOM      3  O   UNL     1     -17.234  37.335  81.330  1.00  0.00    -0.550 OA
ATOM      4  O   UNL     1     -17.059  35.239  80.421  1.00  0.00    -0.550 OA
ENDROOT
TORSDOF 0
ENDMDL
MODEL 7
REMARK VINA RESULT:    -2.601      1.498      1.575
REMARK INTER + INTRA:          -2.601
REMARK INTER:                  -2.601
REMARK INTRA:                   0.000
REMARK UNBOUND:                 0.000
REMARK SMILES CC(=O)[O-]
REMARK SMILES IDX 1 1 2 2 3 3 4 4
REMARK H PARENT
REMARK Flexibility Score: inf
ROOT
ATOM      1  C   UNL     1     -18.386  36.987  79.494  1.00  0.00     0.063 C 
ATOM      2  C   UNL     1     -17.477  36.536  80.587  1.00  0.00     0.038 C 
ATOM      3  O   UNL     1     -16.905  35.417  80.513  1.00  0.00    -0.550 OA
ATOM      4  O   UNL     1     -17.218  37.374  81.665  1.00  0.00    -0.550 OA
ENDROOT
TORSDOF 0
ENDMDL
MODEL 8
REMARK VINA RESULT:    -2.568     16.319     16.552
REMARK INTER + INTRA:          -2.568
REMARK INTER:                  -2.568
REMARK INTRA:                   0.000
REMARK UNBOUND:                 0.000
REMARK SMILES CC(=O)[O-]
REMARK SMILES IDX 1 1 2 2 3 3 4 4
REMARK H PARENT
REMARK Flexibility Score: inf
ROOT
ATOM      1  C   UNL     1     -27.479  44.303  90.684  1.00  0.00     0.063 C 
ATOM      2  C   UNL     1     -28.302  43.084  90.437  1.00  0.00     0.038 C 
ATOM      3  O   UNL     1     -29.060  42.640  91.339  1.00  0.00    -0.550 OA
ATOM      4  O   UNL     1     -28.273  42.466  89.194  1.00  0.00    -0.550 OA
ENDROOT
TORSDOF 0
ENDMDL
MODEL 9
REMARK VINA RESULT:    -2.490      1.523      2.148
REMARK INTER + INTRA:          -2.490
REMARK INTER:                  -2.490
REMARK INTRA:                   0.000
REMARK UNBOUND:                 0.000
REMARK SMILES CC(=O)[O-]
REMARK SMILES IDX 1 1 2 2 3 3 4 4
REMARK H PARENT
REMARK Flexibility Score: inf
ROOT
ATOM      1  C   UNL     1     -16.923  37.465  82.998  1.00  0.00     0.063 C 
ATOM      2  C   UNL     1     -16.811  36.633  81.764  1.00  0.00     0.038 C 
ATOM      3  O   UNL     1     -16.380  35.453  81.835  1.00  0.00    -0.550 OA
ATOM      4  O   UNL     1     -17.233  37.143  80.542  1.00  0.00    -0.550 OA
ENDROOT
TORSDOF 0
ENDMDL
