MODEL 1
REMARK VINA RESULT:    -5.500      0.000      0.000
REMARK INTER + INTRA:          -5.864
REMARK INTER:                  -5.822
REMARK INTRA:                  -0.042
REMARK UNBOUND:                -0.042
REMARK SMILES COc1ccc2ccc(=O)oc2c1
REMARK SMILES IDX 3 1 13 2 12 3 6 4 5 5 4 6 7 7 8 8 9 9 10 10 11 11 2 12 1 13
REMARK H PARENT
REMARK Flexibility Score: inf
ROOT
ATOM      1  C   UNL     1     -38.536  -4.468 -12.611  1.00  0.00     0.122 A 
ATOM      2  C   UNL     1     -37.689  -5.203 -13.451  1.00  0.00     0.094 A 
ATOM      3  C   UNL     1     -38.036  -6.496 -13.856  1.00  0.00     0.142 A 
ATOM      4  C   UNL     1     -39.249  -7.066 -13.416  1.00  0.00     0.018 A 
ATOM      5  C   UNL     1     -40.100  -6.337 -12.576  1.00  0.00     0.016 A 
ATOM      6  C   UNL     1     -39.746  -5.044 -12.175  1.00  0.00     0.047 A 
ATOM      7  C   UNL     1     -39.569  -8.361 -13.838  1.00  0.00     0.019 A 
ATOM      8  C   UNL     1     -38.688  -9.045 -14.675  1.00  0.00     0.094 A 
ATOM      9  C   UNL     1     -37.503  -8.416 -15.071  1.00  0.00     0.336 A 
ATOM     10  O   UNL     1     -36.694  -9.017 -15.826  1.00  0.00    -0.246 OA
ATOM     11  O   UNL     1     -37.223  -7.184 -14.655  1.00  0.00    -0.423 OA
ENDROOT
BRANCH   1  12
ATOM     12  O   UNL     1     -38.141  -3.176 -12.234  1.00  0.00    -0.497 OA
ATOM     13  C   UNL     1     -36.793  -2.717 -12.227  1.00  0.00     0.278 C 
ENDBRANCH   1  12
TORSDOF 1
ENDMDL
MODEL 2
REMARK VINA RESULT:    -5.453      1.636      2.488
REMARK INTER + INTRA:          -5.813
REMARK INTER:                  -5.783
REMARK INTRA:                  -0.031
REMARK UNBOUND:                -0.042
REMARK SMILES COc1ccc2ccc(=O)oc2c1
REMARK SMILES IDX 3 1 13 2 12 3 6 4 5 5 4 6 7 7 8 8 9 9 10 10 11 11 2 12 1 13
REMARK H PARENT
REMARK Flexibility Score: inf
ROOT
ATOM      1  C   UNL     1     -37.289  -4.291 -13.298  1.00  0.00     0.122 A 
ATOM      2  C   UNL     1     -38.448  -5.079 -13.304  1.00  0.00     0.094 A 
ATOM      3  C   UNL     1     -38.380  -6.440 -13.618  1.00  0.00     0.142 A 
ATOM      4  C   UNL     1     -37.136  -7.027 -13.931  1.00  0.00     0.018 A 
ATOM      5  C   UNL     1     -35.975  -6.244 -13.927  1.00  0.00     0.016 A 
ATOM      6  C   UNL     1     -36.050  -4.883 -13.613  1.00  0.00     0.047 A 
ATOM      7  C   UNL     1     -37.101  -8.390 -14.240  1.00  0.00     0.019 A 
ATOM      8  C   UNL     1     -38.285  -9.125 -14.230  1.00  0.00     0.094 A 
ATOM      9  C   UNL     1     -39.483  -8.476 -13.910  1.00  0.00     0.336 A 
ATOM     10  O   UNL     1     -40.563  -9.122 -13.896  1.00  0.00    -0.246 OA
ATOM     11  O   UNL     1     -39.489  -7.178 -13.620  1.00  0.00    -0.423 OA
ENDROOT
BRANCH   1  12
ATOM     12  O   UNL     1     -37.411  -2.931 -12.977  1.00  0.00    -0.497 OA
ATOM     13  C   UNL     1     -36.793  -2.311 -11.854  1.00  0.00     0.278 C 
ENDBRANCH   1  12
TORSDOF 1
ENDMDL
MODEL 3
REMARK VINA RESULT:    -5.346      3.815      4.796
REMARK INTER + INTRA:          -5.701
REMARK INTER:                  -5.663
REMARK INTRA:                  -0.038
REMARK UNBOUND:                -0.042
REMARK SMILES COc1ccc2ccc(=O)oc2c1
REMARK SMILES IDX 3 1 13 2 12 3 6 4 5 5 4 6 7 7 8 8 9 9 10 10 11 11 2 12 1 13
REMARK H PARENT
REMARK Flexibility Score: inf
ROOT
ATOM      1  C   UNL     1     -35.621  -3.766 -17.638  1.00  0.00     0.122 A 
ATOM      2  C   UNL     1     -35.731  -5.163 -17.624  1.00  0.00     0.094 A 
ATOM      3  C   UNL     1     -35.981  -5.844 -16.428  1.00  0.00     0.142 A 
ATOM      4  C   UNL     1     -36.122  -5.120 -15.225  1.00  0.00     0.018 A 
ATOM      5  C   UNL     1     -36.012  -3.724 -15.233  1.00  0.00     0.016 A 
ATOM      6  C   UNL     1     -35.763  -3.049 -16.433  1.00  0.00     0.047 A 
ATOM      7  C   UNL     1     -36.372  -5.829 -14.046  1.00  0.00     0.019 A 
ATOM      8  C   UNL     1     -36.472  -7.219 -14.091  1.00  0.00     0.094 A 
ATOM      9  C   UNL     1     -36.320  -7.870 -15.320  1.00  0.00     0.336 A 
ATOM     10  O   UNL     1     -36.407  -9.124 -15.382  1.00  0.00    -0.246 OA
ATOM     11  O   UNL     1     -36.084  -7.171 -16.428  1.00  0.00    -0.423 OA
ENDROOT
BRANCH   1  12
ATOM     12  O   UNL     1     -35.370  -3.131 -18.864  1.00  0.00    -0.497 OA
ATOM     13  C   UNL     1     -34.328  -3.500 -19.761  1.00  0.00     0.278 C 
ENDBRANCH   1  12
TORSDOF 1
ENDMDL
MODEL 4
REMARK VINA RESULT:    -5.329      2.078      3.147
REMARK INTER + INTRA:          -5.682
REMARK INTER:                  -5.643
REMARK INTRA:                  -0.039
REMARK UNBOUND:                -0.042
REMARK SMILES COc1ccc2ccc(=O)oc2c1
REMARK SMILES IDX 3 1 13 2 12 3 6 4 5 5 4 6 7 7 8 8 9 9 10 10 11 11 2 12 1 13
REMARK H PARENT
REMARK Flexibility Score: inf
ROOT
ATOM      1  C   UNL     1     -39.703  -6.605 -12.996  1.00  0.00     0.122 A 
ATOM      2  C   UNL     1     -38.762  -5.704 -13.514  1.00  0.00     0.094 A 
ATOM      3  C   UNL     1     -37.872  -6.105 -14.516  1.00  0.00     0.142 A 
ATOM      4  C   UNL     1     -37.920  -7.425 -15.010  1.00  0.00     0.018 A 
ATOM      5  C   UNL     1     -38.858  -8.329 -14.496  1.00  0.00     0.016 A 
ATOM      6  C   UNL     1     -39.745  -7.922 -13.494  1.00  0.00     0.047 A 
ATOM      7  C   UNL     1     -37.017  -7.796 -16.012  1.00  0.00     0.019 A 
ATOM      8  C   UNL     1     -36.103  -6.858 -16.490  1.00  0.00     0.094 A 
ATOM      9  C   UNL     1     -36.113  -5.566 -15.952  1.00  0.00     0.336 A 
ATOM     10  O   UNL     1     -35.295  -4.705 -16.370  1.00  0.00    -0.246 OA
ATOM     11  O   UNL     1     -36.982  -5.240 -15.000  1.00  0.00    -0.423 OA
ENDROOT
BRANCH   1  12
ATOM     12  O   UNL     1     -40.573  -6.153 -11.992  1.00  0.00    -0.497 OA
ATOM     13  C   UNL     1     -40.173  -5.360 -10.880  1.00  0.00     0.278 C 
ENDBRANCH   1  12
TORSDOF 1
ENDMDL
MODEL 5
REMARK VINA RESULT:    -5.307      2.287      5.157
REMARK INTER + INTRA:          -5.659
REMARK INTER:                  -5.625
REMARK INTRA:                  -0.035
REMARK UNBOUND:                -0.042
REMARK SMILES COc1ccc2ccc(=O)oc2c1
REMARK SMILES IDX 3 1 13 2 12 3 6 4 5 5 4 6 7 7 8 8 9 9 10 10 11 11 2 12 1 13
REMARK H PARENT
REMARK Flexibility Score: inf
ROOT
ATOM      1  C   UNL     1     -37.713  -7.984 -14.541  1.00  0.00     0.122 A 
ATOM      2  C   UNL     1     -37.847  -6.659 -14.106  1.00  0.00     0.094 A 
ATOM      3  C   UNL     1     -37.141  -5.629 -14.737  1.00  0.00     0.142 A 
ATOM      4  C   UNL     1     -36.288  -5.925 -15.820  1.00  0.00     0.018 A 
ATOM      5  C   UNL     1     -36.150  -7.248 -16.260  1.00  0.00     0.016 A 
ATOM      6  C   UNL     1     -36.859  -8.273 -15.624  1.00  0.00     0.047 A 
ATOM      7  C   UNL     1     -35.597  -4.874 -16.432  1.00  0.00     0.019 A 
ATOM      8  C   UNL     1     -35.769  -3.574 -15.956  1.00  0.00     0.094 A 
ATOM      9  C   UNL     1     -36.631  -3.356 -14.877  1.00  0.00     0.336 A 
ATOM     10  O   UNL     1     -36.800  -2.190 -14.433  1.00  0.00    -0.246 OA
ATOM     11  O   UNL     1     -37.277  -4.374 -14.314  1.00  0.00    -0.423 OA
ENDROOT
BRANCH   1  12
ATOM     12  O   UNL     1     -38.442  -8.980 -13.874  1.00  0.00    -0.497 OA
ATOM     13  C   UNL     1     -39.856  -9.125 -13.945  1.00  0.00     0.278 C 
ENDBRANCH   1  12
TORSDOF 1
ENDMDL
MODEL 6
REMARK VINA RESULT:    -5.303      2.502      3.949
REMARK INTER + INTRA:          -5.655
REMARK INTER:                  -5.622
REMARK INTRA:                  -0.033
REMARK UNBOUND:                -0.042
REMARK SMILES COc1ccc2ccc(=O)oc2c1
REMARK SMILES IDX 3 1 13 2 12 3 6 4 5 5 4 6 7 7 8 8 9 9 10 10 11 11 2 12 1 13
REMARK H PARENT
REMARK Flexibility Score: inf
ROOT
ATOM      1  C   UNL     1     -36.060  -5.544 -15.927  1.00  0.00     0.122 A 
ATOM      2  C   UNL     1     -36.938  -5.189 -14.894  1.00  0.00     0.094 A 
ATOM      3  C   UNL     1     -37.888  -6.101 -14.424  1.00  0.00     0.142 A 
ATOM      4  C   UNL     1     -37.965  -7.390 -14.993  1.00  0.00     0.018 A 
ATOM      5  C   UNL     1     -37.090  -7.750 -16.026  1.00  0.00     0.016 A 
ATOM      6  C   UNL     1     -36.142  -6.833 -16.491  1.00  0.00     0.047 A 
ATOM      7  C   UNL     1     -38.926  -8.280 -14.502  1.00  0.00     0.019 A 
ATOM      8  C   UNL     1     -39.773  -7.872 -13.473  1.00  0.00     0.094 A 
ATOM      9  C   UNL     1     -39.639  -6.579 -12.957  1.00  0.00     0.336 A 
ATOM     10  O   UNL     1     -40.395  -6.192 -12.027  1.00  0.00    -0.246 OA
ATOM     11  O   UNL     1     -38.717  -5.752 -13.442  1.00  0.00    -0.423 OA
ENDROOT
BRANCH   1  12
ATOM     12  O   UNL     1     -35.125  -4.592 -16.362  1.00  0.00    -0.497 OA
ATOM     13  C   UNL     1     -35.251  -3.829 -17.557  1.00  0.00     0.278 C 
ENDBRANCH   1  12
TORSDOF 1
ENDMDL
MODEL 7
REMARK VINA RESULT:    -5.297      1.563      5.088
REMARK INTER + INTRA:          -5.649
REMARK INTER:                  -5.607
REMARK INTRA:                  -0.042
REMARK UNBOUND:                -0.042
REMARK SMILES COc1ccc2ccc(=O)oc2c1
REMARK SMILES IDX 3 1 13 2 12 3 6 4 5 5 4 6 7 7 8 8 9 9 10 10 11 11 2 12 1 13
REMARK H PARENT
REMARK Flexibility Score: inf
ROOT
ATOM      1  C   UNL     1     -38.260  -7.959 -14.346  1.00  0.00     0.122 A 
ATOM      2  C   UNL     1     -38.757  -6.790 -13.754  1.00  0.00     0.094 A 
ATOM      3  C   UNL     1     -37.890  -5.757 -13.384  1.00  0.00     0.142 A 
ATOM      4  C   UNL     1     -36.504  -5.891 -13.608  1.00  0.00     0.018 A 
ATOM      5  C   UNL     1     -36.001  -7.057 -14.199  1.00  0.00     0.016 A 
ATOM      6  C   UNL     1     -36.874  -8.087 -14.566  1.00  0.00     0.047 A 
ATOM      7  C   UNL     1     -35.662  -4.840 -13.228  1.00  0.00     0.019 A 
ATOM      8  C   UNL     1     -36.212  -3.700 -12.643  1.00  0.00     0.094 A 
ATOM      9  C   UNL     1     -37.597  -3.638 -12.452  1.00  0.00     0.336 A 
ATOM     10  O   UNL     1     -38.113  -2.617 -11.926  1.00  0.00    -0.246 OA
ATOM     11  O   UNL     1     -38.375  -4.651 -12.823  1.00  0.00    -0.423 OA
ENDROOT
BRANCH   1  12
ATOM     12  O   UNL     1     -39.172  -8.966 -14.698  1.00  0.00    -0.497 OA
ATOM     13  C   UNL     1     -40.459  -9.125 -14.111  1.00  0.00     0.278 C 
ENDBRANCH   1  12
TORSDOF 1
ENDMDL
MODEL 8
REMARK VINA RESULT:    -5.240      1.113      4.587
REMARK INTER + INTRA:          -5.588
REMARK INTER:                  -5.546
REMARK INTRA:                  -0.042
REMARK UNBOUND:                -0.042
REMARK SMILES COc1ccc2ccc(=O)oc2c1
REMARK SMILES IDX 3 1 13 2 12 3 6 4 5 5 4 6 7 7 8 8 9 9 10 10 11 11 2 12 1 13
REMARK H PARENT
REMARK Flexibility Score: inf
ROOT
ATOM      1  C   UNL     1     -38.346  -7.822 -14.306  1.00  0.00     0.122 A 
ATOM      2  C   UNL     1     -37.569  -6.669 -14.131  1.00  0.00     0.094 A 
ATOM      3  C   UNL     1     -38.054  -5.592 -13.382  1.00  0.00     0.142 A 
ATOM      4  C   UNL     1     -39.335  -5.666 -12.796  1.00  0.00     0.018 A 
ATOM      5  C   UNL     1     -40.116  -6.817 -12.967  1.00  0.00     0.016 A 
ATOM      6  C   UNL     1     -39.624  -7.890 -13.718  1.00  0.00     0.047 A 
ATOM      7  C   UNL     1     -39.793  -4.574 -12.051  1.00  0.00     0.019 A 
ATOM      8  C   UNL     1     -38.977  -3.452 -11.911  1.00  0.00     0.094 A 
ATOM      9  C   UNL     1     -37.718  -3.449 -12.521  1.00  0.00     0.336 A 
ATOM     10  O   UNL     1     -36.967  -2.445 -12.406  1.00  0.00    -0.246 OA
ATOM     11  O   UNL     1     -37.307  -4.501 -13.224  1.00  0.00    -0.423 OA
ENDROOT
BRANCH   1  12
ATOM     12  O   UNL     1     -37.813  -8.873 -15.067  1.00  0.00    -0.497 OA
ATOM     13  C   UNL     1     -36.429  -9.029 -15.365  1.00  0.00     0.278 C 
ENDBRANCH   1  12
TORSDOF 1
ENDMDL
MODEL 9
REMARK VINA RESULT:    -5.201      3.217      5.059
REMARK INTER + INTRA:          -5.547
REMARK INTER:                  -5.514
REMARK INTRA:                  -0.033
REMARK UNBOUND:                -0.042
REMARK SMILES COc1ccc2ccc(=O)oc2c1
REMARK SMILES IDX 3 1 13 2 12 3 6 4 5 5 4 6 7 7 8 8 9 9 10 10 11 11 2 12 1 13
REMARK H PARENT
REMARK Flexibility Score: inf
ROOT
ATOM      1  C   UNL     1     -37.114  -7.588 -14.642  1.00  0.00     0.122 A 
ATOM      2  C   UNL     1     -36.779  -7.405 -15.990  1.00  0.00     0.094 A 
ATOM      3  C   UNL     1     -36.204  -6.206 -16.424  1.00  0.00     0.142 A 
ATOM      4  C   UNL     1     -35.959  -5.171 -15.497  1.00  0.00     0.018 A 
ATOM      5  C   UNL     1     -36.292  -5.348 -14.148  1.00  0.00     0.016 A 
ATOM      6  C   UNL     1     -36.867  -6.550 -13.722  1.00  0.00     0.047 A 
ATOM      7  C   UNL     1     -35.383  -3.983 -15.960  1.00  0.00     0.019 A 
ATOM      8  C   UNL     1     -35.070  -3.857 -17.313  1.00  0.00     0.094 A 
ATOM      9  C   UNL     1     -35.342  -4.926 -18.174  1.00  0.00     0.336 A 
ATOM     10  O   UNL     1     -35.067  -4.831 -19.399  1.00  0.00    -0.246 OA
ATOM     11  O   UNL     1     -35.890  -6.044 -17.708  1.00  0.00    -0.423 OA
ENDROOT
BRANCH   1  12
ATOM     12  O   UNL     1     -37.688  -8.810 -14.260  1.00  0.00    -0.497 OA
ATOM     13  C   UNL     1     -39.089  -9.041 -14.153  1.00  0.00     0.278 C 
ENDBRANCH   1  12
TORSDOF 1
ENDMDL
