MODEL 1
REMARK VINA RESULT:    -7.720      0.000      0.000
REMARK INTER + INTRA:          -9.986
REMARK INTER:                  -9.526
REMARK INTRA:                  -0.460
REMARK UNBOUND:                -0.460
REMARK SMILES COc1ccc(-c2cc3cc(O)c(OC)cc3o2)c(O)c1
REMARK SMILES IDX 7 1 8 2 9 3 10 4 11 5 13 6 16 7 17 8 18 9 6 10 3 11 21 12
REMARK SMILES IDX 4 13 19 14 5 15 2 16 1 17 20 18 12 20 14 22 15 23
REMARK H PARENT 20 19 12 21
REMARK Flexibility Score: inf
ROOT
ATOM      1  C   UNL     1     -11.422 -66.431 -32.950  1.00  0.00     0.139 A 
ATOM      2  C   UNL     1     -10.899 -67.160 -31.880  1.00  0.00     0.060 A 
ATOM      3  C   UNL     1      -9.603 -66.714 -31.765  1.00  0.00     0.025 A 
ATOM      4  C   UNL     1      -8.594 -67.069 -30.876  1.00  0.00     0.062 A 
ATOM      5  C   UNL     1      -7.344 -66.427 -31.006  1.00  0.00     0.158 A 
ATOM      6  C   UNL     1      -7.137 -65.452 -32.015  1.00  0.00     0.164 A 
ATOM      7  C   UNL     1      -8.195 -65.121 -32.899  1.00  0.00     0.098 A 
ATOM      8  C   UNL     1      -9.412 -65.775 -32.739  1.00  0.00     0.138 A 
ATOM      9  O   UNL     1     -10.506 -65.616 -33.444  1.00  0.00    -0.456 OA
ENDROOT
BRANCH   1  10
ATOM     10  C   UNL     1     -12.793 -66.563 -33.493  1.00  0.00     0.059 A 
ATOM     11  C   UNL     1     -15.453 -66.898 -34.382  1.00  0.00     0.122 A 
ATOM     12  C   UNL     1     -14.382 -67.408 -35.137  1.00  0.00     0.093 A 
ATOM     13  C   UNL     1     -15.184 -66.213 -33.196  1.00  0.00     0.047 A 
ATOM     14  C   UNL     1     -13.058 -67.230 -34.714  1.00  0.00     0.130 A 
ATOM     15  C   UNL     1     -13.871 -66.046 -32.754  1.00  0.00     0.020 A 
BRANCH  11  16
ATOM     16  O   UNL     1     -16.791 -67.047 -34.777  1.00  0.00    -0.497 OA
ATOM     17  C   UNL     1     -17.340 -66.515 -35.979  1.00  0.00     0.278 C 
ENDBRANCH  11  16
BRANCH  14  18
ATOM     18  O   UNL     1     -12.041 -67.704 -35.546  1.00  0.00    -0.507 OA
ATOM     19  H   UNL     1     -11.082 -67.814 -35.248  1.00  0.00     0.293 HD
ENDBRANCH  14  18
ENDBRANCH   1  10
BRANCH   5  20
ATOM     20  O   UNL     1      -6.301 -66.750 -30.140  1.00  0.00    -0.504 OA
ATOM     21  H   UNL     1      -6.400 -66.659 -29.135  1.00  0.00     0.293 HD
ENDBRANCH   5  20
BRANCH   6  22
ATOM     22  O   UNL     1      -5.877 -64.842 -32.103  1.00  0.00    -0.493 OA
ATOM     23  C   UNL     1      -4.842 -65.261 -32.987  1.00  0.00     0.278 C 
ENDBRANCH   6  22
TORSDOF 5
ENDMDL
MODEL 2
REMARK VINA RESULT:    -7.597      1.217      2.400
REMARK INTER + INTRA:          -9.834
REMARK INTER:                  -9.348
REMARK INTRA:                  -0.485
REMARK UNBOUND:                -0.460
REMARK SMILES COc1ccc(-c2cc3cc(O)c(OC)cc3o2)c(O)c1
REMARK SMILES IDX 7 1 8 2 9 3 10 4 11 5 13 6 16 7 17 8 18 9 6 10 3 11 21 12
REMARK SMILES IDX 4 13 19 14 5 15 2 16 1 17 20 18 12 20 14 22 15 23
REMARK H PARENT 20 19 12 21
REMARK Flexibility Score: inf
ROOT
ATOM      1  C   UNL     1     -11.163 -66.451 -33.370  1.00  0.00     0.139 A 
ATOM      2  C   UNL     1     -10.275 -65.492 -33.861  1.00  0.00     0.060 A 
ATOM      3  C   UNL     1      -9.195 -65.561 -33.011  1.00  0.00     0.025 A 
ATOM      4  C   UNL     1      -8.000 -64.851 -33.000  1.00  0.00     0.062 A 
ATOM      5  C   UNL     1      -7.066 -65.148 -31.985  1.00  0.00     0.158 A 
ATOM      6  C   UNL     1      -7.349 -66.141 -31.014  1.00  0.00     0.164 A 
ATOM      7  C   UNL     1      -8.582 -66.841 -31.065  1.00  0.00     0.098 A 
ATOM      8  C   UNL     1      -9.476 -66.520 -32.080  1.00  0.00     0.138 A 
ATOM      9  O   UNL     1     -10.657 -67.044 -32.303  1.00  0.00    -0.456 OA
ENDROOT
BRANCH   1  10
ATOM     10  C   UNL     1     -12.501 -66.752 -33.929  1.00  0.00     0.059 A 
ATOM     11  C   UNL     1     -15.007 -67.236 -35.140  1.00  0.00     0.122 A 
ATOM     12  C   UNL     1     -14.932 -66.581 -33.898  1.00  0.00     0.093 A 
ATOM     13  C   UNL     1     -13.829 -67.656 -35.760  1.00  0.00     0.047 A 
ATOM     14  C   UNL     1     -13.694 -66.353 -33.281  1.00  0.00     0.130 A 
ATOM     15  C   UNL     1     -12.589 -67.418 -35.164  1.00  0.00     0.020 A 
BRANCH  11  16
ATOM     16  O   UNL     1     -16.226 -67.490 -35.784  1.00  0.00    -0.497 OA
ATOM     17  C   UNL     1     -16.861 -66.592 -36.690  1.00  0.00     0.278 C 
ENDBRANCH  11  16
BRANCH  14  18
ATOM     18  O   UNL     1     -13.699 -65.758 -32.017  1.00  0.00    -0.507 OA
ATOM     19  H   UNL     1     -14.435 -65.894 -31.339  1.00  0.00     0.293 HD
ENDBRANCH  14  18
ENDBRANCH   1  10
BRANCH   5  20
ATOM     20  O   UNL     1      -5.854 -64.462 -31.930  1.00  0.00    -0.504 OA
ATOM     21  H   UNL     1      -5.433 -64.063 -32.761  1.00  0.00     0.293 HD
ENDBRANCH   5  20
BRANCH   6  22
ATOM     22  O   UNL     1      -6.389 -66.400 -30.025  1.00  0.00    -0.493 OA
ATOM     23  C   UNL     1      -6.510 -66.002 -28.663  1.00  0.00     0.278 C 
ENDBRANCH   6  22
TORSDOF 5
ENDMDL
MODEL 3
REMARK VINA RESULT:    -7.588      1.147      7.769
REMARK INTER + INTRA:          -9.823
REMARK INTER:                  -9.362
REMARK INTRA:                  -0.462
REMARK UNBOUND:                -0.460
REMARK SMILES COc1ccc(-c2cc3cc(O)c(OC)cc3o2)c(O)c1
REMARK SMILES IDX 7 1 8 2 9 3 10 4 11 5 13 6 16 7 17 8 18 9 6 10 3 11 21 12
REMARK SMILES IDX 4 13 19 14 5 15 2 16 1 17 20 18 12 20 14 22 15 23
REMARK H PARENT 20 19 12 21
REMARK Flexibility Score: inf
ROOT
ATOM      1  C   UNL     1     -11.518 -66.503 -33.054  1.00  0.00     0.139 A 
ATOM      2  C   UNL     1     -12.681 -66.130 -32.377  1.00  0.00     0.060 A 
ATOM      3  C   UNL     1     -13.695 -66.401 -33.266  1.00  0.00     0.025 A 
ATOM      4  C   UNL     1     -15.072 -66.242 -33.152  1.00  0.00     0.062 A 
ATOM      5  C   UNL     1     -15.872 -66.615 -34.252  1.00  0.00     0.158 A 
ATOM      6  C   UNL     1     -15.279 -67.136 -35.430  1.00  0.00     0.164 A 
ATOM      7  C   UNL     1     -13.870 -67.282 -35.502  1.00  0.00     0.098 A 
ATOM      8  C   UNL     1     -13.115 -66.903 -34.397  1.00  0.00     0.138 A 
ATOM      9  O   UNL     1     -11.813 -66.956 -34.260  1.00  0.00    -0.456 OA
ENDROOT
BRANCH   1  10
ATOM     10  C   UNL     1     -10.139 -66.383 -32.528  1.00  0.00     0.059 A 
ATOM     11  C   UNL     1      -7.578 -66.128 -31.365  1.00  0.00     0.122 A 
ATOM     12  C   UNL     1      -7.973 -65.272 -32.408  1.00  0.00     0.093 A 
ATOM     13  C   UNL     1      -8.461 -67.114 -30.921  1.00  0.00     0.047 A 
ATOM     14  C   UNL     1      -9.235 -65.403 -33.003  1.00  0.00     0.130 A 
ATOM     15  C   UNL     1      -9.728 -67.242 -31.494  1.00  0.00     0.020 A 
BRANCH  11  16
ATOM     16  O   UNL     1      -6.321 -66.035 -30.749  1.00  0.00    -0.497 OA
ATOM     17  C   UNL     1      -5.769 -64.831 -30.224  1.00  0.00     0.278 C 
ENDBRANCH  11  16
BRANCH  14  18
ATOM     18  O   UNL     1      -9.536 -64.563 -34.078  1.00  0.00    -0.507 OA
ATOM     19  H   UNL     1      -9.801 -64.901 -34.992  1.00  0.00     0.293 HD
ENDBRANCH  14  18
ENDBRANCH   1  10
BRANCH   5  20
ATOM     20  O   UNL     1     -17.257 -66.474 -34.187  1.00  0.00    -0.504 OA
ATOM     21  H   UNL     1     -17.818 -67.037 -33.558  1.00  0.00     0.293 HD
ENDBRANCH   5  20
BRANCH   6  22
ATOM     22  O   UNL     1     -16.118 -67.493 -36.497  1.00  0.00    -0.493 OA
ATOM     23  C   UNL     1     -16.514 -66.606 -37.538  1.00  0.00     0.278 C 
ENDBRANCH   6  22
TORSDOF 5
ENDMDL
MODEL 4
REMARK VINA RESULT:    -7.176      1.434      7.881
REMARK INTER + INTRA:          -9.315
REMARK INTER:                  -8.818
REMARK INTRA:                  -0.497
REMARK UNBOUND:                -0.460
REMARK SMILES COc1ccc(-c2cc3cc(O)c(OC)cc3o2)c(O)c1
REMARK SMILES IDX 7 1 8 2 9 3 10 4 11 5 13 6 16 7 17 8 18 9 6 10 3 11 21 12
REMARK SMILES IDX 4 13 19 14 5 15 2 16 1 17 20 18 12 20 14 22 15 23
REMARK H PARENT 20 19 12 21
REMARK Flexibility Score: inf
ROOT
ATOM      1  C   UNL     1     -10.830 -66.375 -33.093  1.00  0.00     0.139 A 
ATOM      2  C   UNL     1     -11.068 -66.968 -34.335  1.00  0.00     0.060 A 
ATOM      3  C   UNL     1     -12.439 -67.017 -34.433  1.00  0.00     0.025 A 
ATOM      4  C   UNL     1     -13.262 -67.496 -35.446  1.00  0.00     0.062 A 
ATOM      5  C   UNL     1     -14.658 -67.410 -35.257  1.00  0.00     0.158 A 
ATOM      6  C   UNL     1     -15.191 -66.849 -34.069  1.00  0.00     0.164 A 
ATOM      7  C   UNL     1     -14.313 -66.372 -33.063  1.00  0.00     0.098 A 
ATOM      8  C   UNL     1     -12.944 -66.474 -33.285  1.00  0.00     0.138 A 
ATOM      9  O   UNL     1     -11.973 -66.096 -32.490  1.00  0.00    -0.456 OA
ENDROOT
BRANCH   1  10
ATOM     10  C   UNL     1      -9.497 -66.118 -32.503  1.00  0.00     0.059 A 
ATOM     11  C   UNL     1      -6.884 -65.658 -31.534  1.00  0.00     0.122 A 
ATOM     12  C   UNL     1      -7.691 -66.656 -30.958  1.00  0.00     0.093 A 
ATOM     13  C   UNL     1      -7.396 -64.889 -32.580  1.00  0.00     0.047 A 
ATOM     14  C   UNL     1      -8.995 -66.879 -31.419  1.00  0.00     0.130 A 
ATOM     15  C   UNL     1      -8.687 -65.114 -33.061  1.00  0.00     0.020 A 
BRANCH  11  16
ATOM     16  O   UNL     1      -5.577 -65.399 -31.094  1.00  0.00    -0.497 OA
ATOM     17  C   UNL     1      -5.227 -65.089 -29.748  1.00  0.00     0.278 C 
ENDBRANCH  11  16
BRANCH  14  18
ATOM     18  O   UNL     1      -9.763 -67.839 -30.757  1.00  0.00    -0.507 OA
ATOM     19  H   UNL     1     -10.374 -67.626 -29.981  1.00  0.00     0.293 HD
ENDBRANCH  14  18
ENDBRANCH   1  10
BRANCH   5  20
ATOM     20  O   UNL     1     -15.525 -67.878 -36.243  1.00  0.00    -0.504 OA
ATOM     21  H   UNL     1     -16.278 -67.303 -36.603  1.00  0.00     0.293 HD
ENDBRANCH   5  20
BRANCH   6  22
ATOM     22  O   UNL     1     -16.586 -66.785 -33.929  1.00  0.00    -0.493 OA
ATOM     23  C   UNL     1     -17.338 -67.576 -33.015  1.00  0.00     0.278 C 
ENDBRANCH   6  22
TORSDOF 5
ENDMDL
MODEL 5
REMARK VINA RESULT:    -7.153      3.863      6.436
REMARK INTER + INTRA:          -9.286
REMARK INTER:                  -8.685
REMARK INTRA:                  -0.601
REMARK UNBOUND:                -0.460
REMARK SMILES COc1ccc(-c2cc3cc(O)c(OC)cc3o2)c(O)c1
REMARK SMILES IDX 7 1 8 2 9 3 10 4 11 5 13 6 16 7 17 8 18 9 6 10 3 11 21 12
REMARK SMILES IDX 4 13 19 14 5 15 2 16 1 17 20 18 12 20 14 22 15 23
REMARK H PARENT 20 19 12 21
REMARK Flexibility Score: inf
ROOT
ATOM      1  C   UNL     1      -9.044 -66.756 -31.157  1.00  0.00     0.139 A 
ATOM      2  C   UNL     1     -10.046 -66.470 -32.087  1.00  0.00     0.060 A 
ATOM      3  C   UNL     1      -9.440 -65.638 -32.998  1.00  0.00     0.025 A 
ATOM      4  C   UNL     1      -9.936 -65.032 -34.147  1.00  0.00     0.062 A 
ATOM      5  C   UNL     1      -9.059 -64.216 -34.893  1.00  0.00     0.158 A 
ATOM      6  C   UNL     1      -7.718 -64.029 -34.474  1.00  0.00     0.164 A 
ATOM      7  C   UNL     1      -7.255 -64.667 -33.295  1.00  0.00     0.098 A 
ATOM      8  C   UNL     1      -8.149 -65.464 -32.587  1.00  0.00     0.138 A 
ATOM      9  O   UNL     1      -7.924 -66.134 -31.483  1.00  0.00    -0.456 OA
ENDROOT
BRANCH   1  10
ATOM     10  C   UNL     1      -9.202 -67.602 -29.953  1.00  0.00     0.059 A 
ATOM     11  C   UNL     1      -9.662 -69.147 -27.633  1.00  0.00     0.122 A 
ATOM     12  C   UNL     1      -8.562 -68.275 -27.699  1.00  0.00     0.093 A 
ATOM     13  C   UNL     1     -10.516 -69.250 -28.733  1.00  0.00     0.047 A 
ATOM     14  C   UNL     1      -8.314 -67.518 -28.852  1.00  0.00     0.130 A 
ATOM     15  C   UNL     1     -10.290 -68.488 -29.881  1.00  0.00     0.020 A 
BRANCH  11  16
ATOM     16  O   UNL     1      -9.938 -69.927 -26.501  1.00  0.00    -0.497 OA
ATOM     17  C   UNL     1      -9.179 -71.065 -26.102  1.00  0.00     0.278 C 
ENDBRANCH  11  16
BRANCH  14  18
ATOM     18  O   UNL     1      -7.166 -66.723 -28.874  1.00  0.00    -0.507 OA
ATOM     19  H   UNL     1      -6.386 -66.853 -28.244  1.00  0.00     0.293 HD
ENDBRANCH  14  18
ENDBRANCH   1  10
BRANCH   5  20
ATOM     20  O   UNL     1      -9.509 -63.587 -36.052  1.00  0.00    -0.504 OA
ATOM     21  H   UNL     1     -10.068 -64.079 -36.740  1.00  0.00     0.293 HD
ENDBRANCH   5  20
BRANCH   6  22
ATOM     22  O   UNL     1      -6.885 -63.209 -35.250  1.00  0.00    -0.493 OA
ATOM     23  C   UNL     1      -5.838 -63.689 -36.086  1.00  0.00     0.278 C 
ENDBRANCH   6  22
TORSDOF 5
ENDMDL
MODEL 6
REMARK VINA RESULT:    -6.702      5.246      7.265
REMARK INTER + INTRA:          -8.729
REMARK INTER:                  -8.174
REMARK INTRA:                  -0.555
REMARK UNBOUND:                -0.460
REMARK SMILES COc1ccc(-c2cc3cc(O)c(OC)cc3o2)c(O)c1
REMARK SMILES IDX 7 1 8 2 9 3 10 4 11 5 13 6 16 7 17 8 18 9 6 10 3 11 21 12
REMARK SMILES IDX 4 13 19 14 5 15 2 16 1 17 20 18 12 20 14 22 15 23
REMARK H PARENT 20 19 12 21
REMARK Flexibility Score: inf
ROOT
ATOM      1  C   UNL     1      -7.101 -65.241 -32.486  1.00  0.00     0.139 A 
ATOM      2  C   UNL     1      -8.116 -64.605 -33.205  1.00  0.00     0.060 A 
ATOM      3  C   UNL     1      -7.512 -64.220 -34.380  1.00  0.00     0.025 A 
ATOM      4  C   UNL     1      -8.021 -63.551 -35.487  1.00  0.00     0.062 A 
ATOM      5  C   UNL     1      -7.144 -63.291 -36.561  1.00  0.00     0.158 A 
ATOM      6  C   UNL     1      -5.789 -63.704 -36.500  1.00  0.00     0.164 A 
ATOM      7  C   UNL     1      -5.313 -64.384 -35.350  1.00  0.00     0.098 A 
ATOM      8  C   UNL     1      -6.208 -64.623 -34.313  1.00  0.00     0.138 A 
ATOM      9  O   UNL     1      -5.973 -65.229 -33.175  1.00  0.00    -0.456 OA
ENDROOT
BRANCH   1  10
ATOM     10  C   UNL     1      -7.238 -65.819 -31.130  1.00  0.00     0.059 A 
ATOM     11  C   UNL     1      -7.671 -66.880 -28.548  1.00  0.00     0.122 A 
ATOM     12  C   UNL     1      -6.723 -65.861 -28.749  1.00  0.00     0.093 A 
ATOM     13  C   UNL     1      -8.385 -67.370 -29.643  1.00  0.00     0.047 A 
ATOM     14  C   UNL     1      -6.488 -65.341 -30.029  1.00  0.00     0.130 A 
ATOM     15  C   UNL     1      -8.173 -66.847 -30.920  1.00  0.00     0.020 A 
BRANCH  11  16
ATOM     16  O   UNL     1      -7.927 -67.432 -27.284  1.00  0.00    -0.497 OA
ATOM     17  C   UNL     1      -9.228 -67.725 -26.783  1.00  0.00     0.278 C 
ENDBRANCH  11  16
BRANCH  14  18
ATOM     18  O   UNL     1      -5.485 -64.379 -30.165  1.00  0.00    -0.507 OA
ATOM     19  H   UNL     1      -5.381 -63.590 -29.542  1.00  0.00     0.293 HD
ENDBRANCH  14  18
ENDBRANCH   1  10
BRANCH   5  20
ATOM     20  O   UNL     1      -7.606 -62.623 -37.693  1.00  0.00    -0.504 OA
ATOM     21  H   UNL     1      -7.992 -63.125 -38.485  1.00  0.00     0.293 HD
ENDBRANCH   5  20
BRANCH   6  22
ATOM     22  O   UNL     1      -4.956 -63.422 -37.594  1.00  0.00    -0.493 OA
ATOM     23  C   UNL     1      -3.989 -64.325 -38.120  1.00  0.00     0.278 C 
ENDBRANCH   6  22
TORSDOF 5
ENDMDL
MODEL 7
REMARK VINA RESULT:    -6.661      4.969      6.705
REMARK INTER + INTRA:          -8.680
REMARK INTER:                  -8.078
REMARK INTRA:                  -0.601
REMARK UNBOUND:                -0.460
REMARK SMILES COc1ccc(-c2cc3cc(O)c(OC)cc3o2)c(O)c1
REMARK SMILES IDX 7 1 8 2 9 3 10 4 11 5 13 6 16 7 17 8 18 9 6 10 3 11 21 12
REMARK SMILES IDX 4 13 19 14 5 15 2 16 1 17 20 18 12 20 14 22 15 23
REMARK H PARENT 20 19 12 21
REMARK Flexibility Score: inf
ROOT
ATOM      1  C   UNL     1      -6.910 -65.357 -31.749  1.00  0.00     0.139 A 
ATOM      2  C   UNL     1      -6.043 -64.939 -30.737  1.00  0.00     0.060 A 
ATOM      3  C   UNL     1      -6.469 -65.617 -29.620  1.00  0.00     0.025 A 
ATOM      4  C   UNL     1      -5.991 -65.611 -28.314  1.00  0.00     0.062 A 
ATOM      5  C   UNL     1      -6.648 -66.426 -27.368  1.00  0.00     0.158 A 
ATOM      6  C   UNL     1      -7.758 -67.222 -27.749  1.00  0.00     0.164 A 
ATOM      7  C   UNL     1      -8.211 -67.197 -29.093  1.00  0.00     0.098 A 
ATOM      8  C   UNL     1      -7.538 -66.381 -29.996  1.00  0.00     0.138 A 
ATOM      9  O   UNL     1      -7.794 -66.216 -31.271  1.00  0.00    -0.456 OA
ENDROOT
BRANCH   1  10
ATOM     10  C   UNL     1      -6.882 -64.892 -33.154  1.00  0.00     0.059 A 
ATOM     11  C   UNL     1      -6.705 -63.890 -35.789  1.00  0.00     0.122 A 
ATOM     12  C   UNL     1      -7.927 -63.851 -35.095  1.00  0.00     0.093 A 
ATOM     13  C   UNL     1      -5.585 -64.441 -35.165  1.00  0.00     0.047 A 
ATOM     14  C   UNL     1      -8.029 -64.363 -33.794  1.00  0.00     0.130 A 
ATOM     15  C   UNL     1      -5.669 -64.938 -33.863  1.00  0.00     0.020 A 
BRANCH  11  16
ATOM     16  O   UNL     1      -6.565 -63.396 -37.094  1.00  0.00    -0.497 OA
ATOM     17  C   UNL     1      -7.544 -62.610 -37.768  1.00  0.00     0.278 C 
ENDBRANCH  11  16
BRANCH  14  18
ATOM     18  O   UNL     1      -9.288 -64.354 -33.190  1.00  0.00    -0.507 OA
ATOM     19  H   UNL     1      -9.554 -64.983 -32.446  1.00  0.00     0.293 HD
ENDBRANCH  14  18
ENDBRANCH   1  10
BRANCH   5  20
ATOM     20  O   UNL     1      -6.206 -66.454 -26.046  1.00  0.00    -0.504 OA
ATOM     21  H   UNL     1      -5.825 -65.629 -25.597  1.00  0.00     0.293 HD
ENDBRANCH   5  20
BRANCH   6  22
ATOM     22  O   UNL     1      -8.376 -68.016 -26.772  1.00  0.00    -0.493 OA
ATOM     23  C   UNL     1      -9.610 -67.694 -26.138  1.00  0.00     0.278 C 
ENDBRANCH   6  22
TORSDOF 5
ENDMDL
MODEL 8
REMARK VINA RESULT:    -6.604      5.394      7.220
REMARK INTER + INTRA:          -8.609
REMARK INTER:                  -8.033
REMARK INTRA:                  -0.575
REMARK UNBOUND:                -0.460
REMARK SMILES COc1ccc(-c2cc3cc(O)c(OC)cc3o2)c(O)c1
REMARK SMILES IDX 7 1 8 2 9 3 10 4 11 5 13 6 16 7 17 8 18 9 6 10 3 11 21 12
REMARK SMILES IDX 4 13 19 14 5 15 2 16 1 17 20 18 12 20 14 22 15 23
REMARK H PARENT 20 19 12 21
REMARK Flexibility Score: inf
ROOT
ATOM      1  C   UNL     1      -7.215 -66.037 -31.108  1.00  0.00     0.139 A 
ATOM      2  C   UNL     1      -8.267 -66.952 -31.018  1.00  0.00     0.060 A 
ATOM      3  C   UNL     1      -8.386 -67.204 -29.672  1.00  0.00     0.025 A 
ATOM      4  C   UNL     1      -9.261 -68.029 -28.975  1.00  0.00     0.062 A 
ATOM      5  C   UNL     1      -9.139 -68.083 -27.570  1.00  0.00     0.158 A 
ATOM      6  C   UNL     1      -8.152 -67.315 -26.903  1.00  0.00     0.164 A 
ATOM      7  C   UNL     1      -7.280 -66.487 -27.655  1.00  0.00     0.098 A 
ATOM      8  C   UNL     1      -7.431 -66.460 -29.037  1.00  0.00     0.138 A 
ATOM      9  O   UNL     1      -6.736 -65.769 -29.906  1.00  0.00    -0.456 OA
ENDROOT
BRANCH   1  10
ATOM     10  C   UNL     1      -6.676 -65.465 -32.362  1.00  0.00     0.059 A 
ATOM     11  C   UNL     1      -5.770 -64.463 -34.843  1.00  0.00     0.122 A 
ATOM     12  C   UNL     1      -4.898 -65.179 -34.005  1.00  0.00     0.093 A 
ATOM     13  C   UNL     1      -7.084 -64.241 -34.428  1.00  0.00     0.047 A 
ATOM     14  C   UNL     1      -5.333 -65.665 -32.764  1.00  0.00     0.130 A 
ATOM     15  C   UNL     1      -7.535 -64.735 -33.202  1.00  0.00     0.020 A 
BRANCH  11  16
ATOM     16  O   UNL     1      -5.370 -63.954 -36.088  1.00  0.00    -0.497 OA
ATOM     17  C   UNL     1      -6.266 -63.547 -37.117  1.00  0.00     0.278 C 
ENDBRANCH  11  16
BRANCH  14  18
ATOM     18  O   UNL     1      -4.395 -66.309 -31.954  1.00  0.00    -0.507 OA
ATOM     19  H   UNL     1      -3.493 -65.916 -31.724  1.00  0.00     0.293 HD
ENDBRANCH  14  18
ENDBRANCH   1  10
BRANCH   5  20
ATOM     20  O   UNL     1      -9.993 -68.896 -26.827  1.00  0.00    -0.504 OA
ATOM     21  H   UNL     1     -10.877 -69.221 -27.203  1.00  0.00     0.293 HD
ENDBRANCH   5  20
BRANCH   6  22
ATOM     22  O   UNL     1      -8.071 -67.403 -25.505  1.00  0.00    -0.493 OA
ATOM     23  C   UNL     1      -8.429 -66.354 -24.612  1.00  0.00     0.278 C 
ENDBRANCH   6  22
TORSDOF 5
ENDMDL
MODEL 9
REMARK VINA RESULT:    -6.488      4.850      6.687
REMARK INTER + INTRA:          -8.465
REMARK INTER:                  -7.880
REMARK INTRA:                  -0.585
REMARK UNBOUND:                -0.460
REMARK SMILES COc1ccc(-c2cc3cc(O)c(OC)cc3o2)c(O)c1
REMARK SMILES IDX 7 1 8 2 9 3 10 4 11 5 13 6 16 7 17 8 18 9 6 10 3 11 21 12
REMARK SMILES IDX 4 13 19 14 5 15 2 16 1 17 20 18 12 20 14 22 15 23
REMARK H PARENT 20 19 12 21
REMARK Flexibility Score: inf
ROOT
ATOM      1  C   UNL     1      -7.270 -65.756 -31.798  1.00  0.00     0.139 A 
ATOM      2  C   UNL     1      -5.962 -65.782 -32.286  1.00  0.00     0.060 A 
ATOM      3  C   UNL     1      -6.023 -65.075 -33.464  1.00  0.00     0.025 A 
ATOM      4  C   UNL     1      -5.033 -64.761 -34.389  1.00  0.00     0.062 A 
ATOM      5  C   UNL     1      -5.405 -64.008 -35.522  1.00  0.00     0.158 A 
ATOM      6  C   UNL     1      -6.748 -63.590 -35.700  1.00  0.00     0.164 A 
ATOM      7  C   UNL     1      -7.724 -63.932 -34.730  1.00  0.00     0.098 A 
ATOM      8  C   UNL     1      -7.319 -64.675 -33.626  1.00  0.00     0.138 A 
ATOM      9  O   UNL     1      -8.057 -65.091 -32.626  1.00  0.00    -0.456 OA
ENDROOT
BRANCH   1  10
ATOM     10  C   UNL     1      -7.738 -66.405 -30.553  1.00  0.00     0.059 A 
ATOM     11  C   UNL     1      -8.469 -67.706 -28.154  1.00  0.00     0.122 A 
ATOM     12  C   UNL     1      -9.135 -68.004 -29.356  1.00  0.00     0.093 A 
ATOM     13  C   UNL     1      -7.451 -66.750 -28.159  1.00  0.00     0.047 A 
ATOM     14  C   UNL     1      -8.793 -67.351 -30.547  1.00  0.00     0.130 A 
ATOM     15  C   UNL     1      -7.088 -66.106 -29.343  1.00  0.00     0.020 A 
BRANCH  11  16
ATOM     16  O   UNL     1      -8.789 -68.332 -26.940  1.00  0.00    -0.497 OA
ATOM     17  C   UNL     1     -10.025 -68.169 -26.251  1.00  0.00     0.278 C 
ENDBRANCH  11  16
BRANCH  14  18
ATOM     18  O   UNL     1      -9.541 -67.646 -31.689  1.00  0.00    -0.507 OA
ATOM     19  H   UNL     1      -9.246 -67.410 -32.625  1.00  0.00     0.293 HD
ENDBRANCH  14  18
ENDBRANCH   1  10
BRANCH   5  20
ATOM     20  O   UNL     1      -4.449 -63.670 -36.479  1.00  0.00    -0.504 OA
ATOM     21  H   UNL     1      -4.246 -62.703 -36.706  1.00  0.00     0.293 HD
ENDBRANCH   5  20
BRANCH   6  22
ATOM     22  O   UNL     1      -7.067 -62.842 -36.844  1.00  0.00    -0.493 OA
ATOM     23  C   UNL     1      -7.624 -63.393 -38.033  1.00  0.00     0.278 C 
ENDBRANCH   6  22
TORSDOF 5
ENDMDL
