MODEL 1
REMARK VINA RESULT:    -8.090      0.000      0.000
REMARK INTER + INTRA:          -9.229
REMARK INTER:                  -8.800
REMARK INTRA:                  -0.429
REMARK UNBOUND:                -0.429
REMARK SMILES C=C(C)[C@H]1CC[C@@]2(C)CC[C@@]3(C)[C@H](CC[C@H]4[C@@]5(C)CC[C@H](O)C(C)(C)[C@H]5CC[C@]43C)[C@@H]12
REMARK SMILES IDX 4 1 5 2 6 3 7 4 31 5 13 6 14 7 15 8 16 9 17 10 19 11 20 12
REMARK SMILES IDX 21 13 23 14 26 15 27 16 28 17 29 18 11 19 10 20 9 21 12 22
REMARK SMILES IDX 30 23 24 24 25 25 18 26 8 27 2 28 3 29 1 30 22 31
REMARK H PARENT 22 32
REMARK Flexibility Score: inf
ROOT
ATOM      1  C   UNL     1     181.009 173.164 178.157  1.00  0.00     0.018 C 
ATOM      2  C   UNL     1     181.797 171.907 177.830  1.00  0.00     0.009 C 
ATOM      3  C   UNL     1     182.167 171.357 179.179  1.00  0.00     0.008 C 
ATOM      4  C   UNL     1     182.424 172.587 180.090  1.00  0.00    -0.029 C 
ATOM      5  C   UNL     1     181.708 173.820 179.403  1.00  0.00     0.006 C 
ATOM      6  C   UNL     1     182.683 175.031 179.102  1.00  0.00    -0.000 C 
ATOM      7  C   UNL     1     181.988 176.318 178.601  1.00  0.00     0.005 C 
ATOM      8  C   UNL     1     181.469 177.220 179.701  1.00  0.00     0.005 C 
ATOM      9  C   UNL     1     182.577 177.723 180.669  1.00  0.00     0.002 C 
ATOM     10  C   UNL     1     182.071 178.859 181.724  1.00  0.00    -0.026 C 
ATOM     11  C   UNL     1     180.811 179.606 181.160  1.00  0.00     0.010 C 
ATOM     12  C   UNL     1     180.127 180.567 182.125  1.00  0.00     0.033 C 
ATOM     13  C   UNL     1     179.648 179.818 183.364  1.00  0.00     0.120 C 
ATOM     14  C   UNL     1     180.824 179.152 184.133  1.00  0.00    -0.006 C 
ATOM     15  C   UNL     1     181.732 178.254 183.162  1.00  0.00     0.003 C 
ATOM     16  C   UNL     1     181.239 176.798 182.992  1.00  0.00     0.005 C 
ATOM     17  C   UNL     1     182.291 175.858 182.354  1.00  0.00     0.008 C 
ATOM     18  C   UNL     1     183.295 176.478 181.321  1.00  0.00    -0.024 C 
ATOM     19  C   UNL     1     183.782 175.391 180.200  1.00  0.00    -0.024 C 
ATOM     20  C   UNL     1     184.328 174.086 180.896  1.00  0.00     0.008 C 
ATOM     21  C   UNL     1     183.955 172.789 180.188  1.00  0.00     0.007 C 
ATOM     22  C   UNL     1     184.999 175.971 179.389  1.00  0.00     0.012 C 
ATOM     23  C   UNL     1     184.578 176.941 182.096  1.00  0.00     0.012 C 
ATOM     24  C   UNL     1     180.216 178.310 185.289  1.00  0.00     0.014 C 
ATOM     25  C   UNL     1     181.694 180.234 184.843  1.00  0.00     0.014 C 
ATOM     26  C   UNL     1     183.221 179.912 181.846  1.00  0.00     0.012 C 
ATOM     27  C   UNL     1     181.824 172.255 181.481  1.00  0.00     0.011 C 
ENDROOT
BRANCH   1  28
ATOM     28  C   UNL     1     180.689 173.984 176.907  1.00  0.00    -0.077 C 
ATOM     29  C   UNL     1     179.382 174.735 176.828  1.00  0.00     0.039 C 
ATOM     30  C   UNL     1     181.505 174.026 175.837  1.00  0.00     0.008 C 
ENDBRANCH   1  28
BRANCH  13  31
ATOM     31  O   UNL     1     178.951 180.722 184.189  1.00  0.00    -0.393 OA
ATOM     32  H   UNL     1     178.407 180.187 184.824  1.00  0.00     0.210 HD
ENDBRANCH  13  31
TORSDOF 2
ENDMDL
MODEL 2
REMARK VINA RESULT:    -8.017      2.383      7.725
REMARK INTER + INTRA:          -9.149
REMARK INTER:                  -8.769
REMARK INTRA:                  -0.380
REMARK UNBOUND:                -0.429
REMARK SMILES C=C(C)[C@H]1CC[C@@]2(C)CC[C@@]3(C)[C@H](CC[C@H]4[C@@]5(C)CC[C@H](O)C(C)(C)[C@H]5CC[C@]43C)[C@@H]12
REMARK SMILES IDX 4 1 5 2 6 3 7 4 31 5 13 6 14 7 15 8 16 9 17 10 19 11 20 12
REMARK SMILES IDX 21 13 23 14 26 15 27 16 28 17 29 18 11 19 10 20 9 21 12 22
REMARK SMILES IDX 30 23 24 24 25 25 18 26 8 27 2 28 3 29 1 30 22 31
REMARK H PARENT 22 32
REMARK Flexibility Score: inf
ROOT
ATOM      1  C   UNL     1     179.898 181.172 184.287  1.00  0.00     0.018 C 
ATOM      2  C   UNL     1     180.070 182.680 184.216  1.00  0.00     0.009 C 
ATOM      3  C   UNL     1     180.167 182.958 182.742  1.00  0.00     0.008 C 
ATOM      4  C   UNL     1     180.926 181.754 182.125  1.00  0.00    -0.029 C 
ATOM      5  C   UNL     1     180.810 180.563 183.161  1.00  0.00     0.006 C 
ATOM      6  C   UNL     1     182.211 179.990 183.627  1.00  0.00    -0.000 C 
ATOM      7  C   UNL     1     182.136 178.712 184.493  1.00  0.00     0.005 C 
ATOM      8  C   UNL     1     182.054 177.423 183.704  1.00  0.00     0.005 C 
ATOM      9  C   UNL     1     183.270 177.189 182.763  1.00  0.00     0.002 C 
ATOM     10  C   UNL     1     183.300 175.712 182.071  1.00  0.00    -0.026 C 
ATOM     11  C   UNL     1     182.483 174.688 182.935  1.00  0.00     0.010 C 
ATOM     12  C   UNL     1     182.277 173.313 182.309  1.00  0.00     0.033 C 
ATOM     13  C   UNL     1     181.521 173.443 180.991  1.00  0.00     0.120 C 
ATOM     14  C   UNL     1     182.297 174.309 179.958  1.00  0.00    -0.006 C 
ATOM     15  C   UNL     1     182.732 175.722 180.579  1.00  0.00     0.003 C 
ATOM     16  C   UNL     1     181.662 176.832 180.455  1.00  0.00     0.005 C 
ATOM     17  C   UNL     1     182.208 178.254 180.729  1.00  0.00     0.008 C 
ATOM     18  C   UNL     1     183.383 178.400 181.758  1.00  0.00    -0.024 C 
ATOM     19  C   UNL     1     183.357 179.844 182.528  1.00  0.00    -0.024 C 
ATOM     20  C   UNL     1     183.289 181.025 181.485  1.00  0.00     0.008 C 
ATOM     21  C   UNL     1     182.395 182.186 181.904  1.00  0.00     0.007 C 
ATOM     22  C   UNL     1     184.705 180.055 183.309  1.00  0.00     0.012 C 
ATOM     23  C   UNL     1     184.739 178.325 180.973  1.00  0.00     0.012 C 
ATOM     24  C   UNL     1     181.384 174.488 178.712  1.00  0.00     0.014 C 
ATOM     25  C   UNL     1     183.546 173.539 179.430  1.00  0.00     0.014 C 
ATOM     26  C   UNL     1     184.790 175.239 182.072  1.00  0.00     0.012 C 
ATOM     27  C   UNL     1     180.240 181.430 180.772  1.00  0.00     0.011 C 
ENDROOT
BRANCH   1  28
ATOM     28  C   UNL     1     179.962 180.653 185.724  1.00  0.00    -0.077 C 
ATOM     29  C   UNL     1     180.853 181.349 186.724  1.00  0.00     0.039 C 
ATOM     30  C   UNL     1     179.293 179.559 186.131  1.00  0.00     0.008 C 
ENDBRANCH   1  28
BRANCH  13  31
ATOM     31  O   UNL     1     181.279 172.150 180.487  1.00  0.00    -0.393 OA
ATOM     32  H   UNL     1     181.733 171.506 181.091  1.00  0.00     0.210 HD
ENDBRANCH  13  31
TORSDOF 2
ENDMDL
MODEL 3
REMARK VINA RESULT:    -7.767      5.235      8.878
REMARK INTER + INTRA:          -8.878
REMARK INTER:                  -8.449
REMARK INTRA:                  -0.429
REMARK UNBOUND:                -0.429
REMARK SMILES C=C(C)[C@H]1CC[C@@]2(C)CC[C@@]3(C)[C@H](CC[C@H]4[C@@]5(C)CC[C@H](O)C(C)(C)[C@H]5CC[C@]43C)[C@@H]12
REMARK SMILES IDX 4 1 5 2 6 3 7 4 31 5 13 6 14 7 15 8 16 9 17 10 19 11 20 12
REMARK SMILES IDX 21 13 23 14 26 15 27 16 28 17 29 18 11 19 10 20 9 21 12 22
REMARK SMILES IDX 30 23 24 24 25 25 18 26 8 27 2 28 3 29 1 30 22 31
REMARK H PARENT 22 32
REMARK Flexibility Score: inf
ROOT
ATOM      1  C   UNL     1     182.250 179.399 184.870  1.00  0.00     0.018 C 
ATOM      2  C   UNL     1     181.191 178.368 185.224  1.00  0.00     0.009 C 
ATOM      3  C   UNL     1     180.492 178.113 183.919  1.00  0.00     0.008 C 
ATOM      4  C   UNL     1     180.469 179.472 183.169  1.00  0.00    -0.029 C 
ATOM      5  C   UNL     1     181.596 180.370 183.821  1.00  0.00     0.006 C 
ATOM      6  C   UNL     1     181.060 181.750 184.383  1.00  0.00    -0.000 C 
ATOM      7  C   UNL     1     182.158 182.729 184.860  1.00  0.00     0.005 C 
ATOM      8  C   UNL     1     182.750 183.591 183.765  1.00  0.00     0.005 C 
ATOM      9  C   UNL     1     181.705 184.491 183.046  1.00  0.00     0.002 C 
ATOM     10  C   UNL     1     182.358 185.574 182.016  1.00  0.00    -0.026 C 
ATOM     11  C   UNL     1     183.846 185.878 182.415  1.00  0.00     0.010 C 
ATOM     12  C   UNL     1     184.631 186.734 181.427  1.00  0.00     0.033 C 
ATOM     13  C   UNL     1     184.696 186.047 180.068  1.00  0.00     0.120 C 
ATOM     14  C   UNL     1     183.281 185.823 179.461  1.00  0.00    -0.006 C 
ATOM     15  C   UNL     1     182.303 185.087 180.497  1.00  0.00     0.003 C 
ATOM     16  C   UNL     1     182.379 183.543 180.460  1.00  0.00     0.005 C 
ATOM     17  C   UNL     1     181.205 182.846 181.191  1.00  0.00     0.008 C 
ATOM     18  C   UNL     1     180.577 183.577 182.428  1.00  0.00    -0.024 C 
ATOM     19  C   UNL     1     179.965 182.528 183.524  1.00  0.00    -0.024 C 
ATOM     20  C   UNL     1     178.976 181.516 182.827  1.00  0.00     0.008 C 
ATOM     21  C   UNL     1     179.061 180.088 183.353  1.00  0.00     0.007 C 
ATOM     22  C   UNL     1     179.093 183.305 184.577  1.00  0.00     0.012 C 
ATOM     23  C   UNL     1     179.382 184.461 181.925  1.00  0.00     0.012 C 
ATOM     24  C   UNL     1     183.453 185.002 178.152  1.00  0.00     0.014 C 
ATOM     25  C   UNL     1     182.664 187.180 179.002  1.00  0.00     0.014 C 
ATOM     26  C   UNL     1     181.552 186.903 182.180  1.00  0.00     0.012 C 
ATOM     27  C   UNL     1     180.745 179.170 181.673  1.00  0.00     0.011 C 
ENDROOT
BRANCH   1  28
ATOM     28  C   UNL     1     182.965 179.938 186.110  1.00  0.00    -0.077 C 
ATOM     29  C   UNL     1     184.424 180.315 186.018  1.00  0.00     0.039 C 
ATOM     30  C   UNL     1     182.361 180.044 187.308  1.00  0.00     0.008 C 
ENDBRANCH   1  28
BRANCH  13  31
ATOM     31  O   UNL     1     185.496 186.828 179.212  1.00  0.00    -0.393 OA
ATOM     32  H   UNL     1     186.187 186.230 178.822  1.00  0.00     0.210 HD
ENDBRANCH  13  31
TORSDOF 2
ENDMDL
MODEL 4
REMARK VINA RESULT:    -7.696      3.880      7.925
REMARK INTER + INTRA:          -8.800
REMARK INTER:                  -8.367
REMARK INTRA:                  -0.433
REMARK UNBOUND:                -0.429
REMARK SMILES C=C(C)[C@H]1CC[C@@]2(C)CC[C@@]3(C)[C@H](CC[C@H]4[C@@]5(C)CC[C@H](O)C(C)(C)[C@H]5CC[C@]43C)[C@@H]12
REMARK SMILES IDX 4 1 5 2 6 3 7 4 31 5 13 6 14 7 15 8 16 9 17 10 19 11 20 12
REMARK SMILES IDX 21 13 23 14 26 15 27 16 28 17 29 18 11 19 10 20 9 21 12 22
REMARK SMILES IDX 30 23 24 24 25 25 18 26 8 27 2 28 3 29 1 30 22 31
REMARK H PARENT 22 32
REMARK Flexibility Score: inf
ROOT
ATOM      1  C   UNL     1     182.019 179.640 181.282  1.00  0.00     0.018 C 
ATOM      2  C   UNL     1     180.677 179.624 180.570  1.00  0.00     0.009 C 
ATOM      3  C   UNL     1     180.111 180.988 180.847  1.00  0.00     0.008 C 
ATOM      4  C   UNL     1     180.568 181.362 182.282  1.00  0.00    -0.029 C 
ATOM      5  C   UNL     1     181.808 180.438 182.619  1.00  0.00     0.006 C 
ATOM      6  C   UNL     1     181.612 179.570 183.929  1.00  0.00    -0.000 C 
ATOM      7  C   UNL     1     182.868 178.796 184.391  1.00  0.00     0.005 C 
ATOM      8  C   UNL     1     183.816 179.597 185.258  1.00  0.00     0.005 C 
ATOM      9  C   UNL     1     183.170 180.116 186.574  1.00  0.00     0.002 C 
ATOM     10  C   UNL     1     184.229 180.794 187.612  1.00  0.00    -0.026 C 
ATOM     11  C   UNL     1     185.677 180.247 187.348  1.00  0.00     0.010 C 
ATOM     12  C   UNL     1     186.793 180.934 188.128  1.00  0.00     0.033 C 
ATOM     13  C   UNL     1     186.839 182.419 187.785  1.00  0.00     0.120 C 
ATOM     14  C   UNL     1     185.510 183.142 188.148  1.00  0.00    -0.006 C 
ATOM     15  C   UNL     1     184.238 182.388 187.527  1.00  0.00     0.003 C 
ATOM     16  C   UNL     1     183.881 182.817 186.085  1.00  0.00     0.005 C 
ATOM     17  C   UNL     1     182.474 182.358 185.631  1.00  0.00     0.008 C 
ATOM     18  C   UNL     1     181.921 181.012 186.214  1.00  0.00    -0.024 C 
ATOM     19  C   UNL     1     180.901 180.260 185.179  1.00  0.00    -0.024 C 
ATOM     20  C   UNL     1     179.768 181.248 184.705  1.00  0.00     0.008 C 
ATOM     21  C   UNL     1     179.379 181.105 183.238  1.00  0.00     0.007 C 
ATOM     22  C   UNL     1     180.153 179.093 185.922  1.00  0.00     0.012 C 
ATOM     23  C   UNL     1     181.099 181.335 187.511  1.00  0.00     0.012 C 
ATOM     24  C   UNL     1     185.614 184.606 187.637  1.00  0.00     0.014 C 
ATOM     25  C   UNL     1     185.365 183.269 189.696  1.00  0.00     0.014 C 
ATOM     26  C   UNL     1     183.814 180.337 189.049  1.00  0.00     0.012 C 
ATOM     27  C   UNL     1     180.941 182.868 182.262  1.00  0.00     0.011 C 
ENDROOT
BRANCH   1  28
ATOM     28  C   UNL     1     182.689 178.266 181.277  1.00  0.00    -0.077 C 
ATOM     29  C   UNL     1     184.194 178.175 181.211  1.00  0.00     0.039 C 
ATOM     30  C   UNL     1     181.988 177.117 181.278  1.00  0.00     0.008 C 
ENDBRANCH   1  28
BRANCH  13  31
ATOM     31  O   UNL     1     187.931 182.998 188.459  1.00  0.00    -0.393 OA
ATOM     32  H   UNL     1     187.964 183.957 188.204  1.00  0.00     0.210 HD
ENDBRANCH  13  31
TORSDOF 2
ENDMDL
MODEL 5
REMARK VINA RESULT:    -7.588      2.707      7.818
REMARK INTER + INTRA:          -8.683
REMARK INTER:                  -8.262
REMARK INTRA:                  -0.421
REMARK UNBOUND:                -0.429
REMARK SMILES C=C(C)[C@H]1CC[C@@]2(C)CC[C@@]3(C)[C@H](CC[C@H]4[C@@]5(C)CC[C@H](O)C(C)(C)[C@H]5CC[C@]43C)[C@@H]12
REMARK SMILES IDX 4 1 5 2 6 3 7 4 31 5 13 6 14 7 15 8 16 9 17 10 19 11 20 12
REMARK SMILES IDX 21 13 23 14 26 15 27 16 28 17 29 18 11 19 10 20 9 21 12 22
REMARK SMILES IDX 30 23 24 24 25 25 18 26 8 27 2 28 3 29 1 30 22 31
REMARK H PARENT 22 32
REMARK Flexibility Score: inf
ROOT
ATOM      1  C   UNL     1     182.197 183.039 182.598  1.00  0.00     0.018 C 
ATOM      2  C   UNL     1     181.880 183.952 183.770  1.00  0.00     0.009 C 
ATOM      3  C   UNL     1     182.724 183.404 184.887  1.00  0.00     0.008 C 
ATOM      4  C   UNL     1     182.749 181.864 184.692  1.00  0.00    -0.029 C 
ATOM      5  C   UNL     1     182.347 181.589 183.187  1.00  0.00     0.006 C 
ATOM      6  C   UNL     1     181.092 180.636 183.030  1.00  0.00    -0.000 C 
ATOM      7  C   UNL     1     180.784 180.198 181.580  1.00  0.00     0.005 C 
ATOM      8  C   UNL     1     181.560 178.986 181.111  1.00  0.00     0.005 C 
ATOM      9  C   UNL     1     181.305 177.713 181.968  1.00  0.00     0.002 C 
ATOM     10  C   UNL     1     181.963 176.354 181.352  1.00  0.00    -0.026 C 
ATOM     11  C   UNL     1     182.167 176.501 179.802  1.00  0.00     0.010 C 
ATOM     12  C   UNL     1     182.943 175.374 179.129  1.00  0.00     0.033 C 
ATOM     13  C   UNL     1     184.342 175.267 179.726  1.00  0.00     0.120 C 
ATOM     14  C   UNL     1     184.303 174.955 181.249  1.00  0.00    -0.006 C 
ATOM     15  C   UNL     1     183.354 175.980 182.039  1.00  0.00     0.003 C 
ATOM     16  C   UNL     1     184.057 177.280 182.494  1.00  0.00     0.005 C 
ATOM     17  C   UNL     1     183.251 178.088 183.540  1.00  0.00     0.008 C 
ATOM     18  C   UNL     1     181.686 178.018 183.469  1.00  0.00    -0.024 C 
ATOM     19  C   UNL     1     180.979 179.389 184.017  1.00  0.00    -0.024 C 
ATOM     20  C   UNL     1     181.524 179.756 185.451  1.00  0.00     0.008 C 
ATOM     21  C   UNL     1     181.734 181.247 185.683  1.00  0.00     0.007 C 
ATOM     22  C   UNL     1     179.435 179.153 184.206  1.00  0.00     0.012 C 
ATOM     23  C   UNL     1     181.200 176.851 184.397  1.00  0.00     0.012 C 
ATOM     24  C   UNL     1     185.763 175.002 181.779  1.00  0.00     0.014 C 
ATOM     25  C   UNL     1     183.838 173.486 181.493  1.00  0.00     0.014 C 
ATOM     26  C   UNL     1     180.929 175.204 181.578  1.00  0.00     0.012 C 
ATOM     27  C   UNL     1     184.190 181.389 185.016  1.00  0.00     0.011 C 
ENDROOT
BRANCH   1  28
ATOM     28  C   UNL     1     181.296 183.314 181.394  1.00  0.00    -0.077 C 
ATOM     29  C   UNL     1     181.827 183.077 180.001  1.00  0.00     0.039 C 
ATOM     30  C   UNL     1     180.052 183.815 181.518  1.00  0.00     0.008 C 
ENDBRANCH   1  28
BRANCH  13  31
ATOM     31  O   UNL     1     185.051 174.274 179.024  1.00  0.00    -0.393 OA
ATOM     32  H   UNL     1     184.581 173.412 179.171  1.00  0.00     0.210 HD
ENDBRANCH  13  31
TORSDOF 2
ENDMDL
MODEL 6
REMARK VINA RESULT:    -7.191      2.701      5.421
REMARK INTER + INTRA:          -8.250
REMARK INTER:                  -7.819
REMARK INTRA:                  -0.432
REMARK UNBOUND:                -0.429
REMARK SMILES C=C(C)[C@H]1CC[C@@]2(C)CC[C@@]3(C)[C@H](CC[C@H]4[C@@]5(C)CC[C@H](O)C(C)(C)[C@H]5CC[C@]43C)[C@@H]12
REMARK SMILES IDX 4 1 5 2 6 3 7 4 31 5 13 6 14 7 15 8 16 9 17 10 19 11 20 12
REMARK SMILES IDX 21 13 23 14 26 15 27 16 28 17 29 18 11 19 10 20 9 21 12 22
REMARK SMILES IDX 30 23 24 24 25 25 18 26 8 27 2 28 3 29 1 30 22 31
REMARK H PARENT 22 32
REMARK Flexibility Score: inf
ROOT
ATOM      1  C   UNL     1     183.431 175.561 181.123  1.00  0.00     0.018 C 
ATOM      2  C   UNL     1     183.537 175.448 179.611  1.00  0.00     0.009 C 
ATOM      3  C   UNL     1     184.662 176.381 179.262  1.00  0.00     0.008 C 
ATOM      4  C   UNL     1     184.558 177.572 180.252  1.00  0.00    -0.029 C 
ATOM      5  C   UNL     1     183.694 177.069 181.479  1.00  0.00     0.006 C 
ATOM      6  C   UNL     1     182.412 177.957 181.757  1.00  0.00    -0.000 C 
ATOM      7  C   UNL     1     181.647 177.607 183.055  1.00  0.00     0.005 C 
ATOM      8  C   UNL     1     182.184 178.279 184.301  1.00  0.00     0.005 C 
ATOM      9  C   UNL     1     182.154 179.833 184.234  1.00  0.00     0.002 C 
ATOM     10  C   UNL     1     182.526 180.566 185.642  1.00  0.00    -0.026 C 
ATOM     11  C   UNL     1     182.243 179.604 186.849  1.00  0.00     0.010 C 
ATOM     12  C   UNL     1     182.719 180.098 188.211  1.00  0.00     0.033 C 
ATOM     13  C   UNL     1     184.229 180.314 188.195  1.00  0.00     0.120 C 
ATOM     14  C   UNL     1     184.653 181.379 187.145  1.00  0.00    -0.006 C 
ATOM     15  C   UNL     1     184.045 181.056 185.696  1.00  0.00     0.003 C 
ATOM     16  C   UNL     1     184.911 180.106 184.836  1.00  0.00     0.005 C 
ATOM     17  C   UNL     1     184.508 180.081 183.341  1.00  0.00     0.008 C 
ATOM     18  C   UNL     1     182.997 180.310 182.988  1.00  0.00    -0.024 C 
ATOM     19  C   UNL     1     182.558 179.538 181.614  1.00  0.00    -0.024 C 
ATOM     20  C   UNL     1     183.539 179.907 180.435  1.00  0.00     0.008 C 
ATOM     21  C   UNL     1     183.876 178.745 179.508  1.00  0.00     0.007 C 
ATOM     22  C   UNL     1     181.142 180.041 181.150  1.00  0.00     0.012 C 
ATOM     23  C   UNL     1     182.775 181.844 182.742  1.00  0.00     0.012 C 
ATOM     24  C   UNL     1     186.207 181.421 187.116  1.00  0.00     0.014 C 
ATOM     25  C   UNL     1     184.223 182.804 187.609  1.00  0.00     0.014 C 
ATOM     26  C   UNL     1     181.565 181.791 185.786  1.00  0.00     0.012 C 
ATOM     27  C   UNL     1     186.005 177.949 180.663  1.00  0.00     0.011 C 
ENDROOT
BRANCH   1  28
ATOM     28  C   UNL     1     182.212 174.819 181.671  1.00  0.00    -0.077 C 
ATOM     29  C   UNL     1     182.302 174.137 183.015  1.00  0.00     0.039 C 
ATOM     30  C   UNL     1     181.063 174.700 180.980  1.00  0.00     0.008 C 
ENDBRANCH   1  28
BRANCH  13  31
ATOM     31  O   UNL     1     184.638 180.688 189.490  1.00  0.00    -0.393 OA
ATOM     32  H   UNL     1     184.180 181.539 189.713  1.00  0.00     0.210 HD
ENDBRANCH  13  31
TORSDOF 2
ENDMDL
MODEL 7
REMARK VINA RESULT:    -7.099      1.662      3.036
REMARK INTER + INTRA:          -8.150
REMARK INTER:                  -7.810
REMARK INTRA:                  -0.340
REMARK UNBOUND:                -0.429
REMARK SMILES C=C(C)[C@H]1CC[C@@]2(C)CC[C@@]3(C)[C@H](CC[C@H]4[C@@]5(C)CC[C@H](O)C(C)(C)[C@H]5CC[C@]43C)[C@@H]12
REMARK SMILES IDX 4 1 5 2 6 3 7 4 31 5 13 6 14 7 15 8 16 9 17 10 19 11 20 12
REMARK SMILES IDX 21 13 23 14 26 15 27 16 28 17 29 18 11 19 10 20 9 21 12 22
REMARK SMILES IDX 30 23 24 24 25 25 18 26 8 27 2 28 3 29 1 30 22 31
REMARK H PARENT 22 32
REMARK Flexibility Score: inf
ROOT
ATOM      1  C   UNL     1     183.814 172.288 180.180  1.00  0.00     0.018 C 
ATOM      2  C   UNL     1     184.702 171.727 179.082  1.00  0.00     0.009 C 
ATOM      3  C   UNL     1     186.006 172.447 179.276  1.00  0.00     0.008 C 
ATOM      4  C   UNL     1     185.642 173.881 179.744  1.00  0.00    -0.029 C 
ATOM      5  C   UNL     1     184.163 173.815 180.302  1.00  0.00     0.006 C 
ATOM      6  C   UNL     1     183.170 174.820 179.584  1.00  0.00    -0.000 C 
ATOM      7  C   UNL     1     181.766 174.915 180.224  1.00  0.00     0.005 C 
ATOM      8  C   UNL     1     181.666 175.893 181.375  1.00  0.00     0.005 C 
ATOM      9  C   UNL     1     182.019 177.356 180.984  1.00  0.00     0.002 C 
ATOM     10  C   UNL     1     181.711 178.450 182.154  1.00  0.00    -0.026 C 
ATOM     11  C   UNL     1     180.610 177.907 183.132  1.00  0.00     0.010 C 
ATOM     12  C   UNL     1     180.358 178.752 184.376  1.00  0.00     0.033 C 
ATOM     13  C   UNL     1     181.633 178.864 185.204  1.00  0.00     0.120 C 
ATOM     14  C   UNL     1     182.785 179.544 184.410  1.00  0.00    -0.006 C 
ATOM     15  C   UNL     1     183.015 178.843 182.986  1.00  0.00     0.003 C 
ATOM     16  C   UNL     1     183.977 177.632 183.017  1.00  0.00     0.005 C 
ATOM     17  C   UNL     1     184.464 177.190 181.615  1.00  0.00     0.008 C 
ATOM     18  C   UNL     1     183.487 177.393 180.405  1.00  0.00    -0.024 C 
ATOM     19  C   UNL     1     183.714 176.276 179.231  1.00  0.00    -0.024 C 
ATOM     20  C   UNL     1     185.232 176.221 178.807  1.00  0.00     0.008 C 
ATOM     21  C   UNL     1     185.757 174.819 178.519  1.00  0.00     0.007 C 
ATOM     22  C   UNL     1     182.935 176.702 177.933  1.00  0.00     0.012 C 
ATOM     23  C   UNL     1     183.779 178.795 179.765  1.00  0.00     0.012 C 
ATOM     24  C   UNL     1     184.065 179.484 185.291  1.00  0.00     0.014 C 
ATOM     25  C   UNL     1     182.497 181.065 184.227  1.00  0.00     0.014 C 
ATOM     26  C   UNL     1     181.125 179.717 181.450  1.00  0.00     0.012 C 
ATOM     27  C   UNL     1     186.669 174.276 180.837  1.00  0.00     0.011 C 
ENDROOT
BRANCH   1  28
ATOM     28  C   UNL     1     182.366 171.815 180.048  1.00  0.00    -0.077 C 
ATOM     29  C   UNL     1     181.823 171.465 178.683  1.00  0.00     0.039 C 
ATOM     30  C   UNL     1     181.526 171.744 181.097  1.00  0.00     0.008 C 
ENDBRANCH   1  28
BRANCH  13  31
ATOM     31  O   UNL     1     181.338 179.579 186.381  1.00  0.00    -0.393 OA
ATOM     32  H   UNL     1     180.472 180.042 186.239  1.00  0.00     0.210 HD
ENDBRANCH  13  31
TORSDOF 2
ENDMDL
MODEL 8
REMARK VINA RESULT:    -7.080      5.445     10.507
REMARK INTER + INTRA:          -8.130
REMARK INTER:                  -7.698
REMARK INTRA:                  -0.432
REMARK UNBOUND:                -0.429
REMARK SMILES C=C(C)[C@H]1CC[C@@]2(C)CC[C@@]3(C)[C@H](CC[C@H]4[C@@]5(C)CC[C@H](O)C(C)(C)[C@H]5CC[C@]43C)[C@@H]12
REMARK SMILES IDX 4 1 5 2 6 3 7 4 31 5 13 6 14 7 15 8 16 9 17 10 19 11 20 12
REMARK SMILES IDX 21 13 23 14 26 15 27 16 28 17 29 18 11 19 10 20 9 21 12 22
REMARK SMILES IDX 30 23 24 24 25 25 18 26 8 27 2 28 3 29 1 30 22 31
REMARK H PARENT 22 32
REMARK Flexibility Score: inf
ROOT
ATOM      1  C   UNL     1     188.258 184.210 186.287  1.00  0.00     0.018 C 
ATOM      2  C   UNL     1     189.398 184.288 187.289  1.00  0.00     0.009 C 
ATOM      3  C   UNL     1     189.729 182.848 187.565  1.00  0.00     0.008 C 
ATOM      4  C   UNL     1     188.382 182.079 187.518  1.00  0.00    -0.029 C 
ATOM      5  C   UNL     1     187.365 182.991 186.718  1.00  0.00     0.006 C 
ATOM      6  C   UNL     1     186.051 183.338 187.531  1.00  0.00    -0.000 C 
ATOM      7  C   UNL     1     184.958 184.070 186.719  1.00  0.00     0.005 C 
ATOM      8  C   UNL     1     184.038 183.156 185.937  1.00  0.00     0.005 C 
ATOM      9  C   UNL     1     183.258 182.147 186.827  1.00  0.00     0.002 C 
ATOM     10  C   UNL     1     182.111 181.305 186.028  1.00  0.00    -0.026 C 
ATOM     11  C   UNL     1     181.647 182.092 184.752  1.00  0.00     0.010 C 
ATOM     12  C   UNL     1     180.711 181.336 183.815  1.00  0.00     0.033 C 
ATOM     13  C   UNL     1     181.389 180.070 183.301  1.00  0.00     0.120 C 
ATOM     14  C   UNL     1     181.766 179.101 184.458  1.00  0.00    -0.006 C 
ATOM     15  C   UNL     1     182.604 179.847 185.605  1.00  0.00     0.003 C 
ATOM     16  C   UNL     1     184.130 179.881 185.361  1.00  0.00     0.005 C 
ATOM     17  C   UNL     1     184.950 180.278 186.613  1.00  0.00     0.008 C 
ATOM     18  C   UNL     1     184.290 181.268 187.635  1.00  0.00    -0.024 C 
ATOM     19  C   UNL     1     185.399 182.183 188.417  1.00  0.00    -0.024 C 
ATOM     20  C   UNL     1     186.513 181.272 189.060  1.00  0.00     0.008 C 
ATOM     21  C   UNL     1     187.923 181.845 188.977  1.00  0.00     0.007 C 
ATOM     22  C   UNL     1     184.719 182.927 189.625  1.00  0.00     0.012 C 
ATOM     23  C   UNL     1     183.542 180.425 188.727  1.00  0.00     0.012 C 
ATOM     24  C   UNL     1     182.566 177.919 183.842  1.00  0.00     0.014 C 
ATOM     25  C   UNL     1     180.485 178.446 185.059  1.00  0.00     0.014 C 
ATOM     26  C   UNL     1     180.878 181.197 186.982  1.00  0.00     0.012 C 
ATOM     27  C   UNL     1     188.654 180.730 186.804  1.00  0.00     0.011 C 
ENDROOT
BRANCH   1  28
ATOM     28  C   UNL     1     187.643 185.582 186.008  1.00  0.00    -0.077 C 
ATOM     29  C   UNL     1     187.107 185.886 184.630  1.00  0.00     0.039 C 
ATOM     30  C   UNL     1     187.604 186.562 186.930  1.00  0.00     0.008 C 
ENDBRANCH   1  28
BRANCH  13  31
ATOM     31  O   UNL     1     180.527 179.446 182.379  1.00  0.00    -0.393 OA
ATOM     32  H   UNL     1     180.137 180.158 181.808  1.00  0.00     0.210 HD
ENDBRANCH  13  31
TORSDOF 2
ENDMDL
MODEL 9
REMARK VINA RESULT:    -6.930      6.747      9.381
REMARK INTER + INTRA:          -7.967
REMARK INTER:                  -7.537
REMARK INTRA:                  -0.430
REMARK UNBOUND:                -0.429
REMARK SMILES C=C(C)[C@H]1CC[C@@]2(C)CC[C@@]3(C)[C@H](CC[C@H]4[C@@]5(C)CC[C@H](O)C(C)(C)[C@H]5CC[C@]43C)[C@@H]12
REMARK SMILES IDX 4 1 5 2 6 3 7 4 31 5 13 6 14 7 15 8 16 9 17 10 19 11 20 12
REMARK SMILES IDX 21 13 23 14 26 15 27 16 28 17 29 18 11 19 10 20 9 21 12 22
REMARK SMILES IDX 30 23 24 24 25 25 18 26 8 27 2 28 3 29 1 30 22 31
REMARK H PARENT 22 32
REMARK Flexibility Score: inf
ROOT
ATOM      1  C   UNL     1     180.153 181.565 185.030  1.00  0.00     0.018 C 
ATOM      2  C   UNL     1     179.766 180.151 184.632  1.00  0.00     0.009 C 
ATOM      3  C   UNL     1     180.486 179.290 185.631  1.00  0.00     0.008 C 
ATOM      4  C   UNL     1     181.836 180.000 185.919  1.00  0.00    -0.029 C 
ATOM      5  C   UNL     1     181.659 181.508 185.475  1.00  0.00     0.006 C 
ATOM      6  C   UNL     1     182.725 181.982 184.404  1.00  0.00    -0.000 C 
ATOM      7  C   UNL     1     182.699 183.495 184.085  1.00  0.00     0.005 C 
ATOM      8  C   UNL     1     183.512 184.351 185.033  1.00  0.00     0.005 C 
ATOM      9  C   UNL     1     185.022 183.982 185.067  1.00  0.00     0.002 C 
ATOM     10  C   UNL     1     185.942 185.027 185.916  1.00  0.00    -0.026 C 
ATOM     11  C   UNL     1     185.246 186.432 185.989  1.00  0.00     0.010 C 
ATOM     12  C   UNL     1     185.912 187.450 186.909  1.00  0.00     0.033 C 
ATOM     13  C   UNL     1     185.944 186.926 188.340  1.00  0.00     0.120 C 
ATOM     14  C   UNL     1     186.753 185.602 188.457  1.00  0.00    -0.006 C 
ATOM     15  C   UNL     1     186.254 184.509 187.394  1.00  0.00     0.003 C 
ATOM     16  C   UNL     1     185.074 183.636 187.881  1.00  0.00     0.005 C 
ATOM     17  C   UNL     1     184.835 182.376 187.013  1.00  0.00     0.008 C 
ATOM     18  C   UNL     1     185.173 182.468 185.484  1.00  0.00    -0.024 C 
ATOM     19  C   UNL     1     184.228 181.483 184.580  1.00  0.00    -0.024 C 
ATOM     20  C   UNL     1     184.269 180.010 185.143  1.00  0.00     0.008 C 
ATOM     21  C   UNL     1     182.931 179.280 185.097  1.00  0.00     0.007 C 
ATOM     22  C   UNL     1     184.804 181.387 183.119  1.00  0.00     0.012 C 
ATOM     23  C   UNL     1     186.655 181.996 185.276  1.00  0.00     0.012 C 
ATOM     24  C   UNL     1     186.608 185.088 189.917  1.00  0.00     0.014 C 
ATOM     25  C   UNL     1     188.277 185.877 188.279  1.00  0.00     0.014 C 
ATOM     26  C   UNL     1     187.277 185.209 185.122  1.00  0.00     0.012 C 
ATOM     27  C   UNL     1     182.108 179.858 187.439  1.00  0.00     0.011 C 
ENDROOT
BRANCH   1  28
ATOM     28  C   UNL     1     179.665 182.601 184.017  1.00  0.00    -0.077 C 
ATOM     29  C   UNL     1     179.232 183.964 184.501  1.00  0.00     0.039 C 
ATOM     30  C   UNL     1     179.553 182.335 182.703  1.00  0.00     0.008 C 
ENDBRANCH   1  28
BRANCH  13  31
ATOM     31  O   UNL     1     186.489 187.926 189.169  1.00  0.00    -0.393 OA
ATOM     32  H   UNL     1     185.952 187.948 190.002  1.00  0.00     0.210 HD
ENDBRANCH  13  31
TORSDOF 2
ENDMDL
