MODEL 1
REMARK VINA RESULT:    -4.527      0.000      0.000
REMARK INTER + INTRA:         -10.267
REMARK INTER:                  -8.233
REMARK INTRA:                  -2.034
REMARK UNBOUND:                -2.034
REMARK SMILES CCCCCCCCCCCCCCCC(=O)[O-]
REMARK SMILES IDX 9 1 10 2 11 3 12 4 13 5 14 6 15 7 16 8 17 9 18 10 8 11 7 12
REMARK SMILES IDX 6 13 5 14 4 15 3 16 2 17 1 18
REMARK H PARENT
REMARK Flexibility Score: inf
ROOT
ATOM      1  C   UNL     1     206.362 203.416 157.518  1.00  0.00     0.000 C 
ENDROOT
BRANCH   1   2
ATOM      2  C   UNL     1     205.515 204.249 156.542  1.00  0.00     0.000 C 
BRANCH   2   3
ATOM      3  C   UNL     1     204.196 204.727 157.171  1.00  0.00     0.000 C 
BRANCH   3   4
ATOM      4  C   UNL     1     203.902 206.206 156.869  1.00  0.00     0.000 C 
BRANCH   4   5
ATOM      5  C   UNL     1     204.982 206.862 155.991  1.00  0.00     0.000 C 
BRANCH   5   6
ATOM      6  C   UNL     1     205.424 208.252 156.493  1.00  0.00     0.006 C 
BRANCH   6   7
ATOM      7  C   UNL     1     205.355 208.369 158.022  1.00  0.00     0.053 C 
BRANCH   7   8
ATOM      8  C   UNL     1     205.571 209.786 158.449  1.00  0.00     0.041 C 
ATOM      9  O   UNL     1     204.638 210.432 158.992  1.00  0.00    -0.550 OA
ATOM     10  O   UNL     1     206.789 210.409 158.202  1.00  0.00    -0.550 OA
ENDBRANCH   7   8
ENDBRANCH   6   7
ENDBRANCH   5   6
ENDBRANCH   4   5
ENDBRANCH   3   4
ENDBRANCH   2   3
ENDBRANCH   1   2
BRANCH   1  11
ATOM     11  C   UNL     1     205.943 203.611 158.986  1.00  0.00     0.000 C 
BRANCH  11  12
ATOM     12  C   UNL     1     206.473 204.902 159.644  1.00  0.00    -0.000 C 
BRANCH  12  13
ATOM     13  C   UNL     1     207.976 205.177 159.432  1.00  0.00    -0.000 C 
BRANCH  13  14
ATOM     14  C   UNL     1     208.296 206.494 158.701  1.00  0.00    -0.000 C 
BRANCH  14  15
ATOM     15  C   UNL     1     208.574 206.289 157.202  1.00  0.00    -0.000 C 
BRANCH  15  16
ATOM     16  C   UNL     1     209.062 207.572 156.511  1.00  0.00    -0.000 C 
BRANCH  16  17
ATOM     17  C   UNL     1     209.444 207.342 155.042  1.00  0.00    -0.003 C 
ATOM     18  C   UNL     1     210.902 206.912 154.913  1.00  0.00     0.004 C 
ENDBRANCH  16  17
ENDBRANCH  15  16
ENDBRANCH  14  15
ENDBRANCH  13  14
ENDBRANCH  12  13
ENDBRANCH  11  12
ENDBRANCH   1  11
TORSDOF 14
ENDMDL
MODEL 2
REMARK VINA RESULT:    -4.519      2.492      4.768
REMARK INTER + INTRA:         -10.252
REMARK INTER:                  -7.744
REMARK INTRA:                  -2.507
REMARK UNBOUND:                -2.034
REMARK SMILES CCCCCCCCCCCCCCCC(=O)[O-]
REMARK SMILES IDX 9 1 10 2 11 3 12 4 13 5 14 6 15 7 16 8 17 9 18 10 8 11 7 12
REMARK SMILES IDX 6 13 5 14 4 15 3 16 2 17 1 18
REMARK H PARENT
REMARK Flexibility Score: inf
ROOT
ATOM      1  C   UNL     1     205.510 203.645 158.565  1.00  0.00     0.000 C 
ENDROOT
BRANCH   1   2
ATOM      2  C   UNL     1     206.506 203.999 159.682  1.00  0.00     0.000 C 
BRANCH   2   3
ATOM      3  C   UNL     1     206.950 205.470 159.629  1.00  0.00     0.000 C 
BRANCH   3   4
ATOM      4  C   UNL     1     208.359 205.640 159.038  1.00  0.00     0.000 C 
BRANCH   4   5
ATOM      5  C   UNL     1     208.429 206.745 157.970  1.00  0.00     0.000 C 
BRANCH   5   6
ATOM      6  C   UNL     1     208.910 206.242 156.592  1.00  0.00     0.006 C 
BRANCH   6   7
ATOM      7  C   UNL     1     209.259 207.395 155.641  1.00  0.00     0.053 C 
BRANCH   7   8
ATOM      8  C   UNL     1     210.683 207.292 155.196  1.00  0.00     0.041 C 
ATOM      9  O   UNL     1     210.984 206.589 154.196  1.00  0.00    -0.550 OA
ATOM     10  O   UNL     1     211.684 207.933 155.914  1.00  0.00    -0.550 OA
ENDBRANCH   7   8
ENDBRANCH   6   7
ENDBRANCH   5   6
ENDBRANCH   4   5
ENDBRANCH   3   4
ENDBRANCH   2   3
ENDBRANCH   1   2
BRANCH   1  11
ATOM     11  C   UNL     1     206.207 203.212 157.262  1.00  0.00     0.000 C 
BRANCH  11  12
ATOM     12  C   UNL     1     205.979 204.154 156.063  1.00  0.00    -0.000 C 
BRANCH  12  13
ATOM     13  C   UNL     1     205.206 205.450 156.384  1.00  0.00    -0.000 C 
BRANCH  13  14
ATOM     14  C   UNL     1     205.375 206.577 155.350  1.00  0.00    -0.000 C 
BRANCH  14  15
ATOM     15  C   UNL     1     205.489 207.967 156.000  1.00  0.00    -0.000 C 
BRANCH  15  16
ATOM     16  C   UNL     1     205.203 207.938 157.510  1.00  0.00    -0.000 C 
BRANCH  16  17
ATOM     17  C   UNL     1     205.452 209.294 158.184  1.00  0.00    -0.003 C 
ATOM     18  C   UNL     1     206.742 209.932 157.679  1.00  0.00     0.004 C 
ENDBRANCH  16  17
ENDBRANCH  15  16
ENDBRANCH  14  15
ENDBRANCH  13  14
ENDBRANCH  12  13
ENDBRANCH  11  12
ENDBRANCH   1  11
TORSDOF 14
ENDMDL
MODEL 3
REMARK VINA RESULT:    -4.500      1.145      3.412
REMARK INTER + INTRA:         -10.217
REMARK INTER:                  -7.601
REMARK INTRA:                  -2.616
REMARK UNBOUND:                -2.034
REMARK SMILES CCCCCCCCCCCCCCCC(=O)[O-]
REMARK SMILES IDX 9 1 10 2 11 3 12 4 13 5 14 6 15 7 16 8 17 9 18 10 8 11 7 12
REMARK SMILES IDX 6 13 5 14 4 15 3 16 2 17 1 18
REMARK H PARENT
REMARK Flexibility Score: inf
ROOT
ATOM      1  C   UNL     1     208.433 206.217 156.100  1.00  0.00     0.000 C 
ENDROOT
BRANCH   1   2
ATOM      2  C   UNL     1     207.687 206.798 154.886  1.00  0.00     0.000 C 
BRANCH   2   3
ATOM      3  C   UNL     1     206.298 206.169 154.695  1.00  0.00     0.000 C 
BRANCH   3   4
ATOM      4  C   UNL     1     205.167 207.070 155.216  1.00  0.00     0.000 C 
BRANCH   4   5
ATOM      5  C   UNL     1     204.691 206.676 156.625  1.00  0.00     0.000 C 
BRANCH   5   6
ATOM      6  C   UNL     1     204.934 207.768 157.687  1.00  0.00     0.006 C 
BRANCH   6   7
ATOM      7  C   UNL     1     205.604 209.016 157.096  1.00  0.00     0.053 C 
BRANCH   7   8
ATOM      8  C   UNL     1     206.011 209.956 158.185  1.00  0.00     0.041 C 
ATOM      9  O   UNL     1     207.128 210.536 158.137  1.00  0.00    -0.550 OA
ATOM     10  O   UNL     1     205.179 210.155 159.280  1.00  0.00    -0.550 OA
ENDBRANCH   7   8
ENDBRANCH   6   7
ENDBRANCH   5   6
ENDBRANCH   4   5
ENDBRANCH   3   4
ENDBRANCH   2   3
ENDBRANCH   1   2
BRANCH   1  11
ATOM     11  C   UNL     1     208.633 207.250 157.225  1.00  0.00     0.000 C 
BRANCH  11  12
ATOM     12  C   UNL     1     208.434 206.699 158.651  1.00  0.00    -0.000 C 
BRANCH  12  13
ATOM     13  C   UNL     1     208.047 205.208 158.731  1.00  0.00    -0.000 C 
BRANCH  13  14
ATOM     14  C   UNL     1     206.675 204.929 159.372  1.00  0.00    -0.000 C 
BRANCH  14  15
ATOM     15  C   UNL     1     206.067 203.592 158.914  1.00  0.00    -0.000 C 
BRANCH  15  16
ATOM     16  C   UNL     1     205.848 203.532 157.394  1.00  0.00    -0.000 C 
BRANCH  16  17
ATOM     17  C   UNL     1     206.459 202.276 156.758  1.00  0.00    -0.003 C 
ATOM     18  C   UNL     1     207.649 202.629 155.873  1.00  0.00     0.004 C 
ENDBRANCH  16  17
ENDBRANCH  15  16
ENDBRANCH  14  15
ENDBRANCH  13  14
ENDBRANCH  12  13
ENDBRANCH  11  12
ENDBRANCH   1  11
TORSDOF 14
ENDMDL
MODEL 4
REMARK VINA RESULT:    -4.473      3.030      5.544
REMARK INTER + INTRA:         -10.168
REMARK INTER:                  -7.575
REMARK INTRA:                  -2.593
REMARK UNBOUND:                -2.034
REMARK SMILES CCCCCCCCCCCCCCCC(=O)[O-]
REMARK SMILES IDX 9 1 10 2 11 3 12 4 13 5 14 6 15 7 16 8 17 9 18 10 8 11 7 12
REMARK SMILES IDX 6 13 5 14 4 15 3 16 2 17 1 18
REMARK H PARENT
REMARK Flexibility Score: inf
ROOT
ATOM      1  C   UNL     1     208.762 207.354 157.219  1.00  0.00     0.000 C 
ENDROOT
BRANCH   1   2
ATOM      2  C   UNL     1     208.575 206.690 158.594  1.00  0.00     0.000 C 
BRANCH   2   3
ATOM      3  C   UNL     1     208.024 205.259 158.485  1.00  0.00     0.000 C 
BRANCH   3   4
ATOM      4  C   UNL     1     206.902 204.981 159.497  1.00  0.00     0.000 C 
BRANCH   4   5
ATOM      5  C   UNL     1     206.059 203.747 159.131  1.00  0.00     0.000 C 
BRANCH   5   6
ATOM      6  C   UNL     1     205.785 203.615 157.618  1.00  0.00     0.006 C 
BRANCH   6   7
ATOM      7  C   UNL     1     206.377 202.327 157.029  1.00  0.00     0.053 C 
BRANCH   7   8
ATOM      8  C   UNL     1     207.131 202.625 155.772  1.00  0.00     0.041 C 
ATOM      9  O   UNL     1     208.377 202.453 155.727  1.00  0.00    -0.550 OA
ATOM     10  O   UNL     1     206.465 203.140 154.667  1.00  0.00    -0.550 OA
ENDBRANCH   7   8
ENDBRANCH   6   7
ENDBRANCH   5   6
ENDBRANCH   4   5
ENDBRANCH   3   4
ENDBRANCH   2   3
ENDBRANCH   1   2
BRANCH   1  11
ATOM     11  C   UNL     1     208.584 206.365 156.052  1.00  0.00     0.000 C 
BRANCH  11  12
ATOM     12  C   UNL     1     207.508 206.767 155.023  1.00  0.00    -0.000 C 
BRANCH  12  13
ATOM     13  C   UNL     1     206.061 206.399 155.409  1.00  0.00    -0.000 C 
BRANCH  13  14
ATOM     14  C   UNL     1     205.235 207.555 156.001  1.00  0.00    -0.000 C 
BRANCH  14  15
ATOM     15  C   UNL     1     205.026 207.418 157.520  1.00  0.00    -0.000 C 
BRANCH  15  16
ATOM     16  C   UNL     1     205.309 208.726 158.275  1.00  0.00    -0.000 C 
BRANCH  16  17
ATOM     17  C   UNL     1     205.956 209.795 157.383  1.00  0.00    -0.003 C 
ATOM     18  C   UNL     1     207.120 210.477 158.095  1.00  0.00     0.004 C 
ENDBRANCH  16  17
ENDBRANCH  15  16
ENDBRANCH  14  15
ENDBRANCH  13  14
ENDBRANCH  12  13
ENDBRANCH  11  12
ENDBRANCH   1  11
TORSDOF 14
ENDMDL
MODEL 5
REMARK VINA RESULT:    -4.425      3.803      6.168
REMARK INTER + INTRA:         -10.081
REMARK INTER:                  -7.691
REMARK INTRA:                  -2.390
REMARK UNBOUND:                -2.034
REMARK SMILES CCCCCCCCCCCCCCCC(=O)[O-]
REMARK SMILES IDX 9 1 10 2 11 3 12 4 13 5 14 6 15 7 16 8 17 9 18 10 8 11 7 12
REMARK SMILES IDX 6 13 5 14 4 15 3 16 2 17 1 18
REMARK H PARENT
REMARK Flexibility Score: inf
ROOT
ATOM      1  C   UNL     1     207.829 205.181 158.357  1.00  0.00     0.000 C 
ENDROOT
BRANCH   1   2
ATOM      2  C   UNL     1     206.649 204.608 159.160  1.00  0.00     0.000 C 
BRANCH   2   3
ATOM      3  C   UNL     1     206.081 203.324 158.535  1.00  0.00     0.000 C 
BRANCH   3   4
ATOM      4  C   UNL     1     206.179 203.322 157.001  1.00  0.00     0.000 C 
BRANCH   4   5
ATOM      5  C   UNL     1     206.650 201.972 156.434  1.00  0.00     0.000 C 
BRANCH   5   6
ATOM      6  C   UNL     1     207.722 202.105 155.333  1.00  0.00     0.006 C 
BRANCH   6   7
ATOM      7  C   UNL     1     209.062 202.613 155.882  1.00  0.00     0.053 C 
BRANCH   7   8
ATOM      8  C   UNL     1     210.186 202.195 154.988  1.00  0.00     0.041 C 
ATOM      9  O   UNL     1     211.325 202.714 155.119  1.00  0.00    -0.550 OA
ATOM     10  O   UNL     1     209.963 201.268 153.977  1.00  0.00    -0.550 OA
ENDBRANCH   7   8
ENDBRANCH   6   7
ENDBRANCH   5   6
ENDBRANCH   4   5
ENDBRANCH   3   4
ENDBRANCH   2   3
ENDBRANCH   1   2
BRANCH   1  11
ATOM     11  C   UNL     1     207.862 206.720 158.362  1.00  0.00     0.000 C 
BRANCH  11  12
ATOM     12  C   UNL     1     207.726 207.374 156.972  1.00  0.00    -0.000 C 
BRANCH  12  13
ATOM     13  C   UNL     1     207.855 206.408 155.777  1.00  0.00    -0.000 C 
BRANCH  13  14
ATOM     14  C   UNL     1     206.579 206.250 154.931  1.00  0.00    -0.000 C 
BRANCH  14  15
ATOM     15  C   UNL     1     205.514 207.312 155.259  1.00  0.00    -0.000 C 
BRANCH  15  16
ATOM     16  C   UNL     1     204.167 206.692 155.662  1.00  0.00    -0.000 C 
BRANCH  16  17
ATOM     17  C   UNL     1     204.097 206.355 157.158  1.00  0.00    -0.003 C 
ATOM     18  C   UNL     1     203.029 205.301 157.437  1.00  0.00     0.004 C 
ENDBRANCH  16  17
ENDBRANCH  15  16
ENDBRANCH  14  15
ENDBRANCH  13  14
ENDBRANCH  12  13
ENDBRANCH  11  12
ENDBRANCH   1  11
TORSDOF 14
ENDMDL
MODEL 6
REMARK VINA RESULT:    -4.356      1.314      2.602
REMARK INTER + INTRA:          -9.956
REMARK INTER:                  -7.492
REMARK INTRA:                  -2.464
REMARK UNBOUND:                -2.034
REMARK SMILES CCCCCCCCCCCCCCCC(=O)[O-]
REMARK SMILES IDX 9 1 10 2 11 3 12 4 13 5 14 6 15 7 16 8 17 9 18 10 8 11 7 12
REMARK SMILES IDX 6 13 5 14 4 15 3 16 2 17 1 18
REMARK H PARENT
REMARK Flexibility Score: inf
ROOT
ATOM      1  C   UNL     1     205.933 203.838 158.981  1.00  0.00     0.000 C 
ENDROOT
BRANCH   1   2
ATOM      2  C   UNL     1     204.659 204.296 158.251  1.00  0.00     0.000 C 
BRANCH   2   3
ATOM      3  C   UNL     1     204.752 205.752 157.765  1.00  0.00     0.000 C 
BRANCH   3   4
ATOM      4  C   UNL     1     203.830 206.033 156.568  1.00  0.00     0.000 C 
BRANCH   4   5
ATOM      5  C   UNL     1     204.420 207.062 155.589  1.00  0.00     0.000 C 
BRANCH   5   6
ATOM      6  C   UNL     1     205.635 207.826 156.155  1.00  0.00     0.006 C 
BRANCH   6   7
ATOM      7  C   UNL     1     205.304 209.288 156.482  1.00  0.00     0.053 C 
BRANCH   7   8
ATOM      8  C   UNL     1     205.979 209.707 157.750  1.00  0.00     0.041 C 
ATOM      9  O   UNL     1     207.234 209.774 157.805  1.00  0.00    -0.550 OA
ATOM     10  O   UNL     1     205.223 209.974 158.885  1.00  0.00    -0.550 OA
ENDBRANCH   7   8
ENDBRANCH   6   7
ENDBRANCH   5   6
ENDBRANCH   4   5
ENDBRANCH   3   4
ENDBRANCH   2   3
ENDBRANCH   1   2
BRANCH   1  11
ATOM     11  C   UNL     1     206.676 204.999 159.667  1.00  0.00     0.000 C 
BRANCH  11  12
ATOM     12  C   UNL     1     208.114 205.235 159.163  1.00  0.00    -0.000 C 
BRANCH  12  13
ATOM     13  C   UNL     1     208.275 206.390 158.154  1.00  0.00    -0.000 C 
BRANCH  13  14
ATOM     14  C   UNL     1     208.689 205.958 156.736  1.00  0.00    -0.000 C 
BRANCH  14  15
ATOM     15  C   UNL     1     208.236 204.528 156.395  1.00  0.00    -0.000 C 
BRANCH  15  16
ATOM     16  C   UNL     1     207.083 204.500 155.380  1.00  0.00    -0.000 C 
BRANCH  16  17
ATOM     17  C   UNL     1     206.432 203.114 155.264  1.00  0.00    -0.003 C 
ATOM     18  C   UNL     1     207.199 202.075 156.076  1.00  0.00     0.004 C 
ENDBRANCH  16  17
ENDBRANCH  15  16
ENDBRANCH  14  15
ENDBRANCH  13  14
ENDBRANCH  12  13
ENDBRANCH  11  12
ENDBRANCH   1  11
TORSDOF 14
ENDMDL
MODEL 7
REMARK VINA RESULT:    -4.341      1.701      2.854
REMARK INTER + INTRA:          -9.928
REMARK INTER:                  -7.772
REMARK INTRA:                  -2.156
REMARK UNBOUND:                -2.034
REMARK SMILES CCCCCCCCCCCCCCCC(=O)[O-]
REMARK SMILES IDX 9 1 10 2 11 3 12 4 13 5 14 6 15 7 16 8 17 9 18 10 8 11 7 12
REMARK SMILES IDX 6 13 5 14 4 15 3 16 2 17 1 18
REMARK H PARENT
REMARK Flexibility Score: inf
ROOT
ATOM      1  C   UNL     1     206.463 201.617 157.287  1.00  0.00     0.000 C 
ENDROOT
BRANCH   1   2
ATOM      2  C   UNL     1     205.993 202.146 158.653  1.00  0.00     0.000 C 
BRANCH   2   3
ATOM      3  C   UNL     1     205.690 203.653 158.626  1.00  0.00     0.000 C 
BRANCH   3   4
ATOM      4  C   UNL     1     206.680 204.467 159.475  1.00  0.00     0.000 C 
BRANCH   4   5
ATOM      5  C   UNL     1     206.472 205.986 159.341  1.00  0.00     0.000 C 
BRANCH   5   6
ATOM      6  C   UNL     1     205.451 206.374 158.252  1.00  0.00     0.006 C 
BRANCH   6   7
ATOM      7  C   UNL     1     205.149 207.879 158.246  1.00  0.00     0.053 C 
BRANCH   7   8
ATOM      8  C   UNL     1     205.709 208.519 157.015  1.00  0.00     0.041 C 
ATOM      9  O   UNL     1     206.572 209.431 157.113  1.00  0.00    -0.550 OA
ATOM     10  O   UNL     1     205.241 208.145 155.762  1.00  0.00    -0.550 OA
ENDBRANCH   7   8
ENDBRANCH   6   7
ENDBRANCH   5   6
ENDBRANCH   4   5
ENDBRANCH   3   4
ENDBRANCH   2   3
ENDBRANCH   1   2
BRANCH   1  11
ATOM     11  C   UNL     1     205.999 202.501 156.115  1.00  0.00     0.000 C 
BRANCH  11  12
ATOM     12  C   UNL     1     207.129 202.985 155.183  1.00  0.00    -0.000 C 
BRANCH  12  13
ATOM     13  C   UNL     1     208.541 202.973 155.803  1.00  0.00    -0.000 C 
BRANCH  13  14
ATOM     14  C   UNL     1     208.917 204.246 156.582  1.00  0.00    -0.000 C 
BRANCH  14  15
ATOM     15  C   UNL     1     208.185 205.497 156.064  1.00  0.00    -0.000 C 
BRANCH  15  16
ATOM     16  C   UNL     1     208.909 206.800 156.436  1.00  0.00    -0.000 C 
BRANCH  16  17
ATOM     17  C   UNL     1     209.486 207.524 155.211  1.00  0.00    -0.003 C 
ATOM     18  C   UNL     1     210.884 207.013 154.877  1.00  0.00     0.004 C 
ENDBRANCH  16  17
ENDBRANCH  15  16
ENDBRANCH  14  15
ENDBRANCH  13  14
ENDBRANCH  12  13
ENDBRANCH  11  12
ENDBRANCH   1  11
TORSDOF 14
ENDMDL
MODEL 8
REMARK VINA RESULT:    -4.332      1.640      4.256
REMARK INTER + INTRA:          -9.911
REMARK INTER:                  -7.700
REMARK INTRA:                  -2.211
REMARK UNBOUND:                -2.034
REMARK SMILES CCCCCCCCCCCCCCCC(=O)[O-]
REMARK SMILES IDX 9 1 10 2 11 3 12 4 13 5 14 6 15 7 16 8 17 9 18 10 8 11 7 12
REMARK SMILES IDX 6 13 5 14 4 15 3 16 2 17 1 18
REMARK H PARENT
REMARK Flexibility Score: inf
ROOT
ATOM      1  C   UNL     1     206.789 206.162 154.886  1.00  0.00     0.000 C 
ENDROOT
BRANCH   1   2
ATOM      2  C   UNL     1     208.088 206.853 155.335  1.00  0.00     0.000 C 
BRANCH   2   3
ATOM      3  C   UNL     1     208.462 206.512 156.786  1.00  0.00     0.000 C 
BRANCH   3   4
ATOM      4  C   UNL     1     208.028 207.603 157.778  1.00  0.00     0.000 C 
BRANCH   4   5
ATOM      5  C   UNL     1     207.888 208.986 157.120  1.00  0.00     0.000 C 
BRANCH   5   6
ATOM      6  C   UNL     1     206.956 209.945 157.891  1.00  0.00     0.006 C 
BRANCH   6   7
ATOM      7  C   UNL     1     205.474 209.684 157.590  1.00  0.00     0.053 C 
BRANCH   7   8
ATOM      8  C   UNL     1     204.686 209.616 158.860  1.00  0.00     0.041 C 
ATOM      9  O   UNL     1     204.000 210.603 159.232  1.00  0.00    -0.550 OA
ATOM     10  O   UNL     1     204.749 208.480 159.657  1.00  0.00    -0.550 OA
ENDBRANCH   7   8
ENDBRANCH   6   7
ENDBRANCH   5   6
ENDBRANCH   4   5
ENDBRANCH   3   4
ENDBRANCH   2   3
ENDBRANCH   1   2
BRANCH   1  11
ATOM     11  C   UNL     1     205.599 207.135 154.793  1.00  0.00     0.000 C 
BRANCH  11  12
ATOM     12  C   UNL     1     204.366 206.730 155.626  1.00  0.00    -0.000 C 
BRANCH  12  13
ATOM     13  C   UNL     1     204.673 206.229 157.052  1.00  0.00    -0.000 C 
BRANCH  13  14
ATOM     14  C   UNL     1     203.965 204.920 157.444  1.00  0.00    -0.000 C 
BRANCH  14  15
ATOM     15  C   UNL     1     204.883 203.956 158.216  1.00  0.00    -0.000 C 
BRANCH  15  16
ATOM     16  C   UNL     1     206.266 203.808 157.563  1.00  0.00    -0.000 C 
BRANCH  16  17
ATOM     17  C   UNL     1     206.238 202.903 156.323  1.00  0.00    -0.003 C 
ATOM     18  C   UNL     1     206.628 201.471 156.677  1.00  0.00     0.004 C 
ENDBRANCH  16  17
ENDBRANCH  15  16
ENDBRANCH  14  15
ENDBRANCH  13  14
ENDBRANCH  12  13
ENDBRANCH  11  12
ENDBRANCH   1  11
TORSDOF 14
ENDMDL
MODEL 9
REMARK VINA RESULT:    -4.315      1.336      3.569
REMARK INTER + INTRA:          -9.880
REMARK INTER:                  -7.279
REMARK INTRA:                  -2.601
REMARK UNBOUND:                -2.034
REMARK SMILES CCCCCCCCCCCCCCCC(=O)[O-]
REMARK SMILES IDX 9 1 10 2 11 3 12 4 13 5 14 6 15 7 16 8 17 9 18 10 8 11 7 12
REMARK SMILES IDX 6 13 5 14 4 15 3 16 2 17 1 18
REMARK H PARENT
REMARK Flexibility Score: inf
ROOT
ATOM      1  C   UNL     1     208.349 206.736 158.622  1.00  0.00     0.000 C 
ENDROOT
BRANCH   1   2
ATOM      2  C   UNL     1     208.889 207.159 157.245  1.00  0.00     0.000 C 
BRANCH   2   3
ATOM      3  C   UNL     1     208.348 206.279 156.107  1.00  0.00     0.000 C 
BRANCH   3   4
ATOM      4  C   UNL     1     207.183 206.940 155.354  1.00  0.00     0.000 C 
BRANCH   4   5
ATOM      5  C   UNL     1     205.806 206.506 155.886  1.00  0.00     0.000 C 
BRANCH   5   6
ATOM      6  C   UNL     1     205.197 207.496 156.901  1.00  0.00     0.006 C 
BRANCH   6   7
ATOM      7  C   UNL     1     205.479 208.958 156.531  1.00  0.00     0.053 C 
BRANCH   7   8
ATOM      8  C   UNL     1     205.952 209.719 157.728  1.00  0.00     0.041 C 
ATOM      9  O   UNL     1     207.136 210.144 157.780  1.00  0.00    -0.550 OA
ATOM     10  O   UNL     1     205.102 209.915 158.810  1.00  0.00    -0.550 OA
ENDBRANCH   7   8
ENDBRANCH   6   7
ENDBRANCH   5   6
ENDBRANCH   4   5
ENDBRANCH   3   4
ENDBRANCH   2   3
ENDBRANCH   1   2
BRANCH   1  11
ATOM     11  C   UNL     1     207.993 205.240 158.687  1.00  0.00     0.000 C 
BRANCH  11  12
ATOM     12  C   UNL     1     206.685 204.918 159.438  1.00  0.00    -0.000 C 
BRANCH  12  13
ATOM     13  C   UNL     1     205.687 204.031 158.666  1.00  0.00    -0.000 C 
BRANCH  13  14
ATOM     14  C   UNL     1     205.974 202.521 158.737  1.00  0.00    -0.000 C 
BRANCH  14  15
ATOM     15  C   UNL     1     206.347 201.922 157.369  1.00  0.00    -0.000 C 
BRANCH  15  16
ATOM     16  C   UNL     1     205.966 202.842 156.199  1.00  0.00    -0.000 C 
BRANCH  16  17
ATOM     17  C   UNL     1     207.087 202.968 155.157  1.00  0.00    -0.003 C 
ATOM     18  C   UNL     1     208.426 202.516 155.732  1.00  0.00     0.004 C 
ENDBRANCH  16  17
ENDBRANCH  15  16
ENDBRANCH  14  15
ENDBRANCH  13  14
ENDBRANCH  12  13
ENDBRANCH  11  12
ENDBRANCH   1  11
TORSDOF 14
ENDMDL
