MODEL 1
REMARK VINA RESULT:    -3.967      0.000      0.000
REMARK INTER + INTRA:          -9.094
REMARK INTER:                  -7.213
REMARK INTRA:                  -1.881
REMARK UNBOUND:                -1.881
REMARK SMILES CCCCCCCCCCCCCCCC(=O)[O-]
REMARK SMILES IDX 9 1 10 2 11 3 12 4 13 5 14 6 15 7 16 8 17 9 18 10 8 11 7 12
REMARK SMILES IDX 6 13 5 14 4 15 3 16 2 17 1 18
REMARK H PARENT
REMARK Flexibility Score: inf
ROOT
ATOM      1  C   UNL     1      17.424   1.616  -1.560  1.00  0.00     0.000 C 
ENDROOT
BRANCH   1   2
ATOM      2  C   UNL     1      18.464   0.608  -1.030  1.00  0.00     0.000 C 
BRANCH   2   3
ATOM      3  C   UNL     1      19.485   1.231  -0.053  1.00  0.00     0.000 C 
BRANCH   3   4
ATOM      4  C   UNL     1      19.555   0.467   1.280  1.00  0.00     0.000 C 
BRANCH   4   5
ATOM      5  C   UNL     1      19.821  -1.034   1.092  1.00  0.00     0.000 C 
BRANCH   5   6
ATOM      6  C   UNL     1      18.759  -1.913   1.774  1.00  0.00     0.006 C 
BRANCH   6   7
ATOM      7  C   UNL     1      18.483  -3.201   0.988  1.00  0.00     0.053 C 
BRANCH   7   8
ATOM      8  C   UNL     1      17.795  -2.923  -0.313  1.00  0.00     0.041 C 
ATOM      9  O   UNL     1      16.616  -2.482  -0.327  1.00  0.00    -0.550 OA
ATOM     10  O   UNL     1      18.468  -3.124  -1.512  1.00  0.00    -0.550 OA
ENDBRANCH   7   8
ENDBRANCH   6   7
ENDBRANCH   5   6
ENDBRANCH   4   5
ENDBRANCH   3   4
ENDBRANCH   2   3
ENDBRANCH   1   2
BRANCH   1  11
ATOM     11  C   UNL     1      17.803   3.092  -1.353  1.00  0.00     0.000 C 
BRANCH  11  12
ATOM     12  C   UNL     1      16.825   3.828  -0.422  1.00  0.00    -0.000 C 
BRANCH  12  13
ATOM     13  C   UNL     1      17.427   4.115   0.964  1.00  0.00    -0.000 C 
BRANCH  13  14
ATOM     14  C   UNL     1      18.814   4.790   0.909  1.00  0.00    -0.000 C 
BRANCH  14  15
ATOM     15  C   UNL     1      19.714   4.377   2.087  1.00  0.00    -0.000 C 
BRANCH  15  16
ATOM     16  C   UNL     1      18.900   4.019   3.348  1.00  0.00    -0.000 C 
BRANCH  16  17
ATOM     17  C   UNL     1      19.455   2.808   4.116  1.00  0.00    -0.003 C 
ATOM     18  C   UNL     1      18.389   1.763   4.438  1.00  0.00     0.004 C 
ENDBRANCH  16  17
ENDBRANCH  15  16
ENDBRANCH  14  15
ENDBRANCH  13  14
ENDBRANCH  12  13
ENDBRANCH  11  12
ENDBRANCH   1  11
TORSDOF 14
ENDMDL
MODEL 2
REMARK VINA RESULT:    -3.955      6.136      7.665
REMARK INTER + INTRA:          -9.072
REMARK INTER:                  -7.223
REMARK INTRA:                  -1.849
REMARK UNBOUND:                -1.881
REMARK SMILES CCCCCCCCCCCCCCCC(=O)[O-]
REMARK SMILES IDX 9 1 10 2 11 3 12 4 13 5 14 6 15 7 16 8 17 9 18 10 8 11 7 12
REMARK SMILES IDX 6 13 5 14 4 15 3 16 2 17 1 18
REMARK H PARENT
REMARK Flexibility Score: inf
ROOT
ATOM      1  C   UNL     1      23.975   1.190   3.500  1.00  0.00     0.000 C 
ENDROOT
BRANCH   1   2
ATOM      2  C   UNL     1      23.577   1.163   2.010  1.00  0.00     0.000 C 
BRANCH   2   3
ATOM      3  C   UNL     1      23.803  -0.207   1.336  1.00  0.00     0.000 C 
BRANCH   3   4
ATOM      4  C   UNL     1      22.852  -1.287   1.882  1.00  0.00     0.000 C 
BRANCH   4   5
ATOM      5  C   UNL     1      23.368  -2.713   1.635  1.00  0.00     0.000 C 
BRANCH   5   6
ATOM      6  C   UNL     1      23.802  -3.418   2.931  1.00  0.00     0.006 C 
BRANCH   6   7
ATOM      7  C   UNL     1      25.204  -2.988   3.382  1.00  0.00     0.053 C 
BRANCH   7   8
ATOM      8  C   UNL     1      25.153  -2.095   4.584  1.00  0.00     0.041 C 
ATOM      9  O   UNL     1      24.087  -1.982   5.246  1.00  0.00    -0.550 OA
ATOM     10  O   UNL     1      26.292  -1.411   4.990  1.00  0.00    -0.550 OA
ENDBRANCH   7   8
ENDBRANCH   6   7
ENDBRANCH   5   6
ENDBRANCH   4   5
ENDBRANCH   3   4
ENDBRANCH   2   3
ENDBRANCH   1   2
BRANCH   1  11
ATOM     11  C   UNL     1      25.316   1.883   3.791  1.00  0.00     0.000 C 
BRANCH  11  12
ATOM     12  C   UNL     1      25.172   3.405   3.950  1.00  0.00    -0.000 C 
BRANCH  12  13
ATOM     13  C   UNL     1      25.474   4.171   2.650  1.00  0.00    -0.000 C 
BRANCH  13  14
ATOM     14  C   UNL     1      26.759   3.699   1.939  1.00  0.00    -0.000 C 
BRANCH  14  15
ATOM     15  C   UNL     1      26.469   3.037   0.580  1.00  0.00    -0.000 C 
BRANCH  15  16
ATOM     16  C   UNL     1      25.433   3.828  -0.247  1.00  0.00    -0.000 C 
BRANCH  16  17
ATOM     17  C   UNL     1      24.524   2.937  -1.110  1.00  0.00    -0.003 C 
ATOM     18  C   UNL     1      25.227   1.682  -1.621  1.00  0.00     0.004 C 
ENDBRANCH  16  17
ENDBRANCH  15  16
ENDBRANCH  14  15
ENDBRANCH  13  14
ENDBRANCH  12  13
ENDBRANCH  11  12
ENDBRANCH   1  11
TORSDOF 14
ENDMDL
MODEL 3
REMARK VINA RESULT:    -3.950      3.244      6.189
REMARK INTER + INTRA:          -9.064
REMARK INTER:                  -7.308
REMARK INTRA:                  -1.756
REMARK UNBOUND:                -1.881
REMARK SMILES CCCCCCCCCCCCCCCC(=O)[O-]
REMARK SMILES IDX 9 1 10 2 11 3 12 4 13 5 14 6 15 7 16 8 17 9 18 10 8 11 7 12
REMARK SMILES IDX 6 13 5 14 4 15 3 16 2 17 1 18
REMARK H PARENT
REMARK Flexibility Score: inf
ROOT
ATOM      1  C   UNL     1      19.041   0.859  -0.494  1.00  0.00     0.000 C 
ENDROOT
BRANCH   1   2
ATOM      2  C   UNL     1      19.218   2.098   0.407  1.00  0.00     0.000 C 
BRANCH   2   3
ATOM      3  C   UNL     1      20.105   1.840   1.645  1.00  0.00     0.000 C 
BRANCH   3   4
ATOM      4  C   UNL     1      19.281   1.408   2.870  1.00  0.00     0.000 C 
BRANCH   4   5
ATOM      5  C   UNL     1      19.402   2.391   4.045  1.00  0.00     0.000 C 
BRANCH   5   6
ATOM      6  C   UNL     1      18.035   2.890   4.542  1.00  0.00     0.006 C 
BRANCH   6   7
ATOM      7  C   UNL     1      17.304   3.726   3.483  1.00  0.00     0.053 C 
BRANCH   7   8
ATOM      8  C   UNL     1      18.044   4.988   3.161  1.00  0.00     0.041 C 
ATOM      9  O   UNL     1      18.614   5.122   2.045  1.00  0.00    -0.550 OA
ATOM     10  O   UNL     1      18.080   6.027   4.081  1.00  0.00    -0.550 OA
ENDBRANCH   7   8
ENDBRANCH   6   7
ENDBRANCH   5   6
ENDBRANCH   4   5
ENDBRANCH   3   4
ENDBRANCH   2   3
ENDBRANCH   1   2
BRANCH   1  11
ATOM     11  C   UNL     1      17.690   0.788  -1.224  1.00  0.00     0.000 C 
BRANCH  11  12
ATOM     12  C   UNL     1      17.313  -0.645  -1.631  1.00  0.00    -0.000 C 
BRANCH  12  13
ATOM     13  C   UNL     1      18.425  -1.663  -1.321  1.00  0.00    -0.000 C 
BRANCH  13  14
ATOM     14  C   UNL     1      17.894  -3.030  -0.838  1.00  0.00    -0.000 C 
BRANCH  14  15
ATOM     15  C   UNL     1      18.498  -3.448   0.514  1.00  0.00    -0.000 C 
BRANCH  15  16
ATOM     16  C   UNL     1      18.668  -2.252   1.475  1.00  0.00    -0.000 C 
BRANCH  16  17
ATOM     17  C   UNL     1      20.116  -2.045   1.949  1.00  0.00    -0.003 C 
ATOM     18  C   UNL     1      21.120  -2.928   1.212  1.00  0.00     0.004 C 
ENDBRANCH  16  17
ENDBRANCH  15  16
ENDBRANCH  14  15
ENDBRANCH  13  14
ENDBRANCH  12  13
ENDBRANCH  11  12
ENDBRANCH   1  11
TORSDOF 14
ENDMDL
MODEL 4
REMARK VINA RESULT:    -3.910      5.126      7.103
REMARK INTER + INTRA:          -8.991
REMARK INTER:                  -7.300
REMARK INTRA:                  -1.692
REMARK UNBOUND:                -1.881
REMARK SMILES CCCCCCCCCCCCCCCC(=O)[O-]
REMARK SMILES IDX 9 1 10 2 11 3 12 4 13 5 14 6 15 7 16 8 17 9 18 10 8 11 7 12
REMARK SMILES IDX 6 13 5 14 4 15 3 16 2 17 1 18
REMARK H PARENT
REMARK Flexibility Score: inf
ROOT
ATOM      1  C   UNL     1      24.642  -1.557   4.727  1.00  0.00     0.000 C 
ENDROOT
BRANCH   1   2
ATOM      2  C   UNL     1      25.456  -2.736   4.156  1.00  0.00     0.000 C 
BRANCH   2   3
ATOM      3  C   UNL     1      24.750  -4.101   4.301  1.00  0.00     0.000 C 
BRANCH   3   4
ATOM      4  C   UNL     1      23.500  -4.206   3.409  1.00  0.00     0.000 C 
BRANCH   4   5
ATOM      5  C   UNL     1      23.806  -3.955   1.925  1.00  0.00     0.000 C 
BRANCH   5   6
ATOM      6  C   UNL     1      22.704  -3.142   1.224  1.00  0.00     0.006 C 
BRANCH   6   7
ATOM      7  C   UNL     1      21.510  -2.870   2.148  1.00  0.00     0.053 C 
BRANCH   7   8
ATOM      8  C   UNL     1      20.406  -2.150   1.436  1.00  0.00     0.041 C 
ATOM      9  O   UNL     1      20.097  -0.974   1.767  1.00  0.00    -0.550 OA
ATOM     10  O   UNL     1      19.738  -2.767   0.386  1.00  0.00    -0.550 OA
ENDBRANCH   7   8
ENDBRANCH   6   7
ENDBRANCH   5   6
ENDBRANCH   4   5
ENDBRANCH   3   4
ENDBRANCH   2   3
ENDBRANCH   1   2
BRANCH   1  11
ATOM     11  C   UNL     1      25.362  -0.200   4.679  1.00  0.00     0.000 C 
BRANCH  11  12
ATOM     12  C   UNL     1      24.731   0.768   3.665  1.00  0.00    -0.000 C 
BRANCH  12  13
ATOM     13  C   UNL     1      23.536   0.151   2.918  1.00  0.00    -0.000 C 
BRANCH  13  14
ATOM     14  C   UNL     1      23.653   0.245   1.382  1.00  0.00    -0.000 C 
BRANCH  14  15
ATOM     15  C   UNL     1      23.893   1.687   0.899  1.00  0.00    -0.000 C 
BRANCH  15  16
ATOM     16  C   UNL     1      24.624   1.736  -0.459  1.00  0.00    -0.000 C 
BRANCH  16  17
ATOM     17  C   UNL     1      26.067   2.255  -0.363  1.00  0.00    -0.003 C 
ATOM     18  C   UNL     1      26.252   3.315   0.721  1.00  0.00     0.004 C 
ENDBRANCH  16  17
ENDBRANCH  15  16
ENDBRANCH  14  15
ENDBRANCH  13  14
ENDBRANCH  12  13
ENDBRANCH  11  12
ENDBRANCH   1  11
TORSDOF 14
ENDMDL
MODEL 5
REMARK VINA RESULT:    -3.873      4.329      5.279
REMARK INTER + INTRA:          -8.922
REMARK INTER:                  -7.187
REMARK INTRA:                  -1.735
REMARK UNBOUND:                -1.881
REMARK SMILES CCCCCCCCCCCCCCCC(=O)[O-]
REMARK SMILES IDX 9 1 10 2 11 3 12 4 13 5 14 6 15 7 16 8 17 9 18 10 8 11 7 12
REMARK SMILES IDX 6 13 5 14 4 15 3 16 2 17 1 18
REMARK H PARENT
REMARK Flexibility Score: inf
ROOT
ATOM      1  C   UNL     1      21.602   2.252  -0.394  1.00  0.00     0.000 C 
ENDROOT
BRANCH   1   2
ATOM      2  C   UNL     1      22.808   2.480   0.539  1.00  0.00     0.000 C 
BRANCH   2   3
ATOM      3  C   UNL     1      23.789   1.288   0.580  1.00  0.00     0.000 C 
BRANCH   3   4
ATOM      4  C   UNL     1      23.677   0.487   1.889  1.00  0.00     0.000 C 
BRANCH   4   5
ATOM      5  C   UNL     1      22.867  -0.809   1.725  1.00  0.00     0.000 C 
BRANCH   5   6
ATOM      6  C   UNL     1      23.349  -1.929   2.662  1.00  0.00     0.006 C 
BRANCH   6   7
ATOM      7  C   UNL     1      24.253  -1.397   3.782  1.00  0.00     0.053 C 
BRANCH   7   8
ATOM      8  C   UNL     1      25.008  -2.500   4.459  1.00  0.00     0.041 C 
ATOM      9  O   UNL     1      24.424  -3.263   5.274  1.00  0.00    -0.550 OA
ATOM     10  O   UNL     1      26.351  -2.702   4.169  1.00  0.00    -0.550 OA
ENDBRANCH   7   8
ENDBRANCH   6   7
ENDBRANCH   5   6
ENDBRANCH   4   5
ENDBRANCH   3   4
ENDBRANCH   2   3
ENDBRANCH   1   2
BRANCH   1  11
ATOM     11  C   UNL     1      20.233   2.326   0.302  1.00  0.00     0.000 C 
BRANCH  11  12
ATOM     12  C   UNL     1      19.812   0.985   0.923  1.00  0.00    -0.000 C 
BRANCH  12  13
ATOM     13  C   UNL     1      19.464   1.104   2.417  1.00  0.00    -0.000 C 
BRANCH  13  14
ATOM     14  C   UNL     1      20.415   2.033   3.201  1.00  0.00    -0.000 C 
BRANCH  14  15
ATOM     15  C   UNL     1      19.678   3.228   3.833  1.00  0.00    -0.000 C 
BRANCH  15  16
ATOM     16  C   UNL     1      18.293   2.834   4.388  1.00  0.00    -0.000 C 
BRANCH  16  17
ATOM     17  C   UNL     1      17.153   3.748   3.908  1.00  0.00    -0.003 C 
ATOM     18  C   UNL     1      17.197   4.020   2.406  1.00  0.00     0.004 C 
ENDBRANCH  16  17
ENDBRANCH  15  16
ENDBRANCH  14  15
ENDBRANCH  13  14
ENDBRANCH  12  13
ENDBRANCH  11  12
ENDBRANCH   1  11
TORSDOF 14
ENDMDL
MODEL 6
REMARK VINA RESULT:    -3.845      3.117      4.601
REMARK INTER + INTRA:          -8.873
REMARK INTER:                  -6.798
REMARK INTRA:                  -2.076
REMARK UNBOUND:                -1.881
REMARK SMILES CCCCCCCCCCCCCCCC(=O)[O-]
REMARK SMILES IDX 9 1 10 2 11 3 12 4 13 5 14 6 15 7 16 8 17 9 18 10 8 11 7 12
REMARK SMILES IDX 6 13 5 14 4 15 3 16 2 17 1 18
REMARK H PARENT
REMARK Flexibility Score: inf
ROOT
ATOM      1  C   UNL     1      18.548  -1.469  -1.495  1.00  0.00     0.000 C 
ENDROOT
BRANCH   1   2
ATOM      2  C   UNL     1      17.942  -2.815  -1.047  1.00  0.00     0.000 C 
BRANCH   2   3
ATOM      3  C   UNL     1      18.595  -3.391   0.229  1.00  0.00     0.000 C 
BRANCH   3   4
ATOM      4  C   UNL     1      18.307  -2.528   1.470  1.00  0.00     0.000 C 
BRANCH   4   5
ATOM      5  C   UNL     1      19.587  -2.043   2.166  1.00  0.00     0.000 C 
BRANCH   5   6
ATOM      6  C   UNL     1      20.864  -2.470   1.422  1.00  0.00     0.006 C 
BRANCH   6   7
ATOM      7  C   UNL     1      22.067  -1.589   1.785  1.00  0.00     0.053 C 
BRANCH   7   8
ATOM      8  C   UNL     1      23.157  -2.378   2.443  1.00  0.00     0.041 C 
ATOM      9  O   UNL     1      24.364  -2.146   2.166  1.00  0.00    -0.550 OA
ATOM     10  O   UNL     1      22.840  -3.350   3.383  1.00  0.00    -0.550 OA
ENDBRANCH   7   8
ENDBRANCH   6   7
ENDBRANCH   5   6
ENDBRANCH   4   5
ENDBRANCH   3   4
ENDBRANCH   2   3
ENDBRANCH   1   2
BRANCH   1  11
ATOM     11  C   UNL     1      17.541  -0.310  -1.574  1.00  0.00     0.000 C 
BRANCH  11  12
ATOM     12  C   UNL     1      18.069   0.977  -0.921  1.00  0.00    -0.000 C 
BRANCH  12  13
ATOM     13  C   UNL     1      19.370   0.753  -0.131  1.00  0.00    -0.000 C 
BRANCH  13  14
ATOM     14  C   UNL     1      19.365   1.407   1.267  1.00  0.00    -0.000 C 
BRANCH  14  15
ATOM     15  C   UNL     1      20.662   2.184   1.555  1.00  0.00    -0.000 C 
BRANCH  15  16
ATOM     16  C   UNL     1      21.762   1.895   0.511  1.00  0.00    -0.000 C 
BRANCH  16  17
ATOM     17  C   UNL     1      22.176   3.130  -0.305  1.00  0.00    -0.003 C 
ATOM     18  C   UNL     1      21.875   2.990  -1.796  1.00  0.00     0.004 C 
ENDBRANCH  16  17
ENDBRANCH  15  16
ENDBRANCH  14  15
ENDBRANCH  13  14
ENDBRANCH  12  13
ENDBRANCH  11  12
ENDBRANCH   1  11
TORSDOF 14
ENDMDL
MODEL 7
REMARK VINA RESULT:    -3.835      4.247      5.808
REMARK INTER + INTRA:          -8.854
REMARK INTER:                  -6.435
REMARK INTRA:                  -2.419
REMARK UNBOUND:                -1.881
REMARK SMILES CCCCCCCCCCCCCCCC(=O)[O-]
REMARK SMILES IDX 9 1 10 2 11 3 12 4 13 5 14 6 15 7 16 8 17 9 18 10 8 11 7 12
REMARK SMILES IDX 6 13 5 14 4 15 3 16 2 17 1 18
REMARK H PARENT
REMARK Flexibility Score: inf
ROOT
ATOM      1  C   UNL     1      22.012   4.066   2.873  1.00  0.00     0.000 C 
ENDROOT
BRANCH   1   2
ATOM      2  C   UNL     1      22.607   3.244   4.034  1.00  0.00     0.000 C 
BRANCH   2   3
ATOM      3  C   UNL     1      22.985   1.800   3.637  1.00  0.00     0.000 C 
BRANCH   3   4
ATOM      4  C   UNL     1      23.708   1.741   2.280  1.00  0.00     0.000 C 
BRANCH   4   5
ATOM      5  C   UNL     1      23.550   0.382   1.582  1.00  0.00     0.000 C 
BRANCH   5   6
ATOM      6  C   UNL     1      23.076  -0.724   2.540  1.00  0.00     0.006 C 
BRANCH   6   7
ATOM      7  C   UNL     1      24.219  -1.660   2.954  1.00  0.00     0.053 C 
BRANCH   7   8
ATOM      8  C   UNL     1      24.570  -1.505   4.402  1.00  0.00     0.041 C 
ATOM      9  O   UNL     1      23.997  -2.213   5.273  1.00  0.00    -0.550 OA
ATOM     10  O   UNL     1      25.550  -0.599   4.786  1.00  0.00    -0.550 OA
ENDBRANCH   7   8
ENDBRANCH   6   7
ENDBRANCH   5   6
ENDBRANCH   4   5
ENDBRANCH   3   4
ENDBRANCH   2   3
ENDBRANCH   1   2
BRANCH   1  11
ATOM     11  C   UNL     1      20.904   5.049   3.287  1.00  0.00     0.000 C 
BRANCH  11  12
ATOM     12  C   UNL     1      19.995   4.483   4.390  1.00  0.00    -0.000 C 
BRANCH  12  13
ATOM     13  C   UNL     1      18.507   4.499   4.001  1.00  0.00    -0.000 C 
BRANCH  13  14
ATOM     14  C   UNL     1      17.949   3.107   3.635  1.00  0.00    -0.000 C 
BRANCH  14  15
ATOM     15  C   UNL     1      18.932   1.973   3.975  1.00  0.00    -0.000 C 
BRANCH  15  16
ATOM     16  C   UNL     1      19.463   1.262   2.712  1.00  0.00    -0.000 C 
BRANCH  16  17
ATOM     17  C   UNL     1      19.249   2.063   1.418  1.00  0.00    -0.003 C 
ATOM     18  C   UNL     1      20.335   1.815   0.373  1.00  0.00     0.004 C 
ENDBRANCH  16  17
ENDBRANCH  15  16
ENDBRANCH  14  15
ENDBRANCH  13  14
ENDBRANCH  12  13
ENDBRANCH  11  12
ENDBRANCH   1  11
TORSDOF 14
ENDMDL
MODEL 8
REMARK VINA RESULT:    -3.830      4.270      6.624
REMARK INTER + INTRA:          -8.844
REMARK INTER:                  -7.355
REMARK INTRA:                  -1.490
REMARK UNBOUND:                -1.881
REMARK SMILES CCCCCCCCCCCCCCCC(=O)[O-]
REMARK SMILES IDX 9 1 10 2 11 3 12 4 13 5 14 6 15 7 16 8 17 9 18 10 8 11 7 12
REMARK SMILES IDX 6 13 5 14 4 15 3 16 2 17 1 18
REMARK H PARENT
REMARK Flexibility Score: inf
ROOT
ATOM      1  C   UNL     1      23.966  -3.282   3.243  1.00  0.00     0.000 C 
ENDROOT
BRANCH   1   2
ATOM      2  C   UNL     1      24.001  -3.261   1.702  1.00  0.00     0.000 C 
BRANCH   2   3
ATOM      3  C   UNL     1      22.637  -2.930   1.059  1.00  0.00     0.000 C 
BRANCH   3   4
ATOM      4  C   UNL     1      21.701  -2.189   2.029  1.00  0.00     0.000 C 
BRANCH   4   5
ATOM      5  C   UNL     1      20.215  -2.445   1.735  1.00  0.00     0.000 C 
BRANCH   5   6
ATOM      6  C   UNL     1      19.389  -1.148   1.689  1.00  0.00     0.006 C 
BRANCH   6   7
ATOM      7  C   UNL     1      19.031  -0.741   0.254  1.00  0.00     0.053 C 
BRANCH   7   8
ATOM      8  C   UNL     1      18.309  -1.834  -0.472  1.00  0.00     0.041 C 
ATOM      9  O   UNL     1      17.172  -2.211  -0.083  1.00  0.00    -0.550 OA
ATOM     10  O   UNL     1      18.880  -2.416  -1.597  1.00  0.00    -0.550 OA
ENDBRANCH   7   8
ENDBRANCH   6   7
ENDBRANCH   5   6
ENDBRANCH   4   5
ENDBRANCH   3   4
ENDBRANCH   2   3
ENDBRANCH   1   2
BRANCH   1  11
ATOM     11  C   UNL     1      25.345  -3.415   3.912  1.00  0.00     0.000 C 
BRANCH  11  12
ATOM     12  C   UNL     1      25.766  -2.138   4.657  1.00  0.00    -0.000 C 
BRANCH  12  13
ATOM     13  C   UNL     1      24.617  -1.125   4.796  1.00  0.00    -0.000 C 
BRANCH  13  14
ATOM     14  C   UNL     1      24.868   0.201   4.048  1.00  0.00    -0.000 C 
BRANCH  14  15
ATOM     15  C   UNL     1      23.724   0.556   3.082  1.00  0.00    -0.000 C 
BRANCH  15  16
ATOM     16  C   UNL     1      24.164   1.562   1.998  1.00  0.00    -0.000 C 
BRANCH  16  17
ATOM     17  C   UNL     1      23.607   1.244   0.600  1.00  0.00    -0.003 C 
ATOM     18  C   UNL     1      24.699   1.016  -0.442  1.00  0.00     0.004 C 
ENDBRANCH  16  17
ENDBRANCH  15  16
ENDBRANCH  14  15
ENDBRANCH  13  14
ENDBRANCH  12  13
ENDBRANCH  11  12
ENDBRANCH   1  11
TORSDOF 14
ENDMDL
MODEL 9
REMARK VINA RESULT:    -3.792      2.601      3.613
REMARK INTER + INTRA:          -8.776
REMARK INTER:                  -7.178
REMARK INTRA:                  -1.597
REMARK UNBOUND:                -1.881
REMARK SMILES CCCCCCCCCCCCCCCC(=O)[O-]
REMARK SMILES IDX 9 1 10 2 11 3 12 4 13 5 14 6 15 7 16 8 17 9 18 10 8 11 7 12
REMARK SMILES IDX 6 13 5 14 4 15 3 16 2 17 1 18
REMARK H PARENT
REMARK Flexibility Score: inf
ROOT
ATOM      1  C   UNL     1      17.862   0.840  -1.249  1.00  0.00     0.000 C 
ENDROOT
BRANCH   1   2
ATOM      2  C   UNL     1      17.460  -0.649  -1.251  1.00  0.00     0.000 C 
BRANCH   2   3
ATOM      3  C   UNL     1      18.622  -1.602  -0.895  1.00  0.00     0.000 C 
BRANCH   3   4
ATOM      4  C   UNL     1      18.284  -2.509   0.300  1.00  0.00     0.000 C 
BRANCH   4   5
ATOM      5  C   UNL     1      18.953  -2.048   1.604  1.00  0.00     0.000 C 
BRANCH   5   6
ATOM      6  C   UNL     1      20.488  -2.106   1.534  1.00  0.00     0.006 C 
BRANCH   6   7
ATOM      7  C   UNL     1      21.059  -3.284   2.335  1.00  0.00     0.053 C 
BRANCH   7   8
ATOM      8  C   UNL     1      22.554  -3.229   2.417  1.00  0.00     0.041 C 
ATOM      9  O   UNL     1      23.117  -2.762   3.443  1.00  0.00    -0.550 OA
ATOM     10  O   UNL     1      23.325  -3.721   1.372  1.00  0.00    -0.550 OA
ENDBRANCH   7   8
ENDBRANCH   6   7
ENDBRANCH   5   6
ENDBRANCH   4   5
ENDBRANCH   3   4
ENDBRANCH   2   3
ENDBRANCH   1   2
BRANCH   1  11
ATOM     11  C   UNL     1      19.190   1.142  -0.535  1.00  0.00     0.000 C 
BRANCH  11  12
ATOM     12  C   UNL     1      19.002   2.011   0.719  1.00  0.00    -0.000 C 
BRANCH  12  13
ATOM     13  C   UNL     1      19.820   1.506   1.920  1.00  0.00    -0.000 C 
BRANCH  13  14
ATOM     14  C   UNL     1      19.003   1.404   3.226  1.00  0.00    -0.000 C 
BRANCH  14  15
ATOM     15  C   UNL     1      19.191   2.633   4.133  1.00  0.00    -0.000 C 
BRANCH  15  16
ATOM     16  C   UNL     1      17.865   3.379   4.390  1.00  0.00    -0.000 C 
BRANCH  16  17
ATOM     17  C   UNL     1      17.900   4.858   3.971  1.00  0.00    -0.003 C 
ATOM     18  C   UNL     1      17.794   5.056   2.461  1.00  0.00     0.004 C 
ENDBRANCH  16  17
ENDBRANCH  15  16
ENDBRANCH  14  15
ENDBRANCH  13  14
ENDBRANCH  12  13
ENDBRANCH  11  12
ENDBRANCH   1  11
TORSDOF 14
ENDMDL
