MODEL 1
REMARK VINA RESULT:    -4.369      0.000      0.000
REMARK INTER + INTRA:         -16.690
REMARK INTER:                 -11.522
REMARK INTRA:                  -5.168
REMARK UNBOUND:                -5.168
REMARK SMILES CCCCCCCCCCCCCCCCCCCCCCCCCCCCCC(=O)[O-]
REMARK SMILES IDX 16 1 17 2 18 3 19 4 20 5 21 6 22 7 23 8 24 9 25 10 26 11
REMARK SMILES IDX 27 12 28 13 29 14 30 15 31 16 32 17 15 18 14 19 13 20 12 21
REMARK SMILES IDX 11 22 10 23 9 24 8 25 7 26 6 27 5 28 4 29 3 30 2 31 1 32
REMARK H PARENT
REMARK Flexibility Score: inf
ROOT
ATOM      1  C   UNL     1       4.887  84.752  62.802  1.00  0.00     0.000 C 
ENDROOT
BRANCH   1   2
ATOM      2  C   UNL     1       4.964  85.788  61.663  1.00  0.00     0.000 C 
BRANCH   2   3
ATOM      3  C   UNL     1       4.237  87.115  61.974  1.00  0.00     0.000 C 
BRANCH   3   4
ATOM      4  C   UNL     1       4.198  88.077  60.770  1.00  0.00     0.000 C 
BRANCH   4   5
ATOM      5  C   UNL     1       3.127  89.171  60.920  1.00  0.00     0.000 C 
BRANCH   5   6
ATOM      6  C   UNL     1       2.458  89.162  62.306  1.00  0.00     0.000 C 
BRANCH   6   7
ATOM      7  C   UNL     1       0.921  89.083  62.219  1.00  0.00     0.000 C 
BRANCH   7   8
ATOM      8  C   UNL     1       0.389  87.723  61.727  1.00  0.00     0.000 C 
BRANCH   8   9
ATOM      9  C   UNL     1       0.828  86.559  62.633  1.00  0.00     0.000 C 
BRANCH   9  10
ATOM     10  C   UNL     1       0.974  85.236  61.864  1.00  0.00     0.000 C 
BRANCH  10  11
ATOM     11  C   UNL     1       1.337  85.449  60.386  1.00  0.00     0.000 C 
BRANCH  11  12
ATOM     12  C   UNL     1       2.253  84.325  59.878  1.00  0.00     0.000 C 
BRANCH  12  13
ATOM     13  C   UNL     1       2.267  83.102  60.809  1.00  0.00     0.006 C 
BRANCH  13  14
ATOM     14  C   UNL     1       3.501  82.210  60.603  1.00  0.00     0.053 C 
BRANCH  14  15
ATOM     15  C   UNL     1       3.103  80.774  60.475  1.00  0.00     0.041 C 
ATOM     16  O   UNL     1       3.955  79.905  60.149  1.00  0.00    -0.550 OA
ATOM     17  O   UNL     1       1.784  80.394  60.699  1.00  0.00    -0.550 OA
ENDBRANCH  14  15
ENDBRANCH  13  14
ENDBRANCH  12  13
ENDBRANCH  11  12
ENDBRANCH  10  11
ENDBRANCH   9  10
ENDBRANCH   8   9
ENDBRANCH   7   8
ENDBRANCH   6   7
ENDBRANCH   5   6
ENDBRANCH   4   5
ENDBRANCH   3   4
ENDBRANCH   2   3
ENDBRANCH   1   2
BRANCH   1  18
ATOM     18  C   UNL     1       4.134  85.225  64.061  1.00  0.00     0.000 C 
BRANCH  18  19
ATOM     19  C   UNL     1       3.165  84.196  64.672  1.00  0.00     0.000 C 
BRANCH  19  20
ATOM     20  C   UNL     1       3.437  82.722  64.305  1.00  0.00     0.000 C 
BRANCH  20  21
ATOM     21  C   UNL     1       2.167  81.855  64.164  1.00  0.00     0.000 C 
BRANCH  21  22
ATOM     22  C   UNL     1       2.445  80.348  64.311  1.00  0.00     0.000 C 
BRANCH  22  23
ATOM     23  C   UNL     1       3.936  80.030  64.515  1.00  0.00     0.000 C 
BRANCH  23  24
ATOM     24  C   UNL     1       4.481  79.042  63.471  1.00  0.00    -0.000 C 
BRANCH  24  25
ATOM     25  C   UNL     1       6.005  79.145  63.283  1.00  0.00    -0.000 C 
BRANCH  25  26
ATOM     26  C   UNL     1       6.804  78.153  64.155  1.00  0.00    -0.000 C 
BRANCH  26  27
ATOM     27  C   UNL     1       5.957  76.931  64.563  1.00  0.00    -0.000 C 
BRANCH  27  28
ATOM     28  C   UNL     1       5.887  76.746  66.090  1.00  0.00    -0.000 C 
BRANCH  28  29
ATOM     29  C   UNL     1       7.033  77.458  66.847  1.00  0.00    -0.000 C 
BRANCH  29  30
ATOM     30  C   UNL     1       6.543  78.545  67.823  1.00  0.00    -0.000 C 
BRANCH  30  31
ATOM     31  C   UNL     1       5.046  78.879  67.700  1.00  0.00    -0.003 C 
ATOM     32  C   UNL     1       4.199  78.224  68.791  1.00  0.00     0.004 C 
ENDBRANCH  30  31
ENDBRANCH  29  30
ENDBRANCH  28  29
ENDBRANCH  27  28
ENDBRANCH  26  27
ENDBRANCH  25  26
ENDBRANCH  24  25
ENDBRANCH  23  24
ENDBRANCH  22  23
ENDBRANCH  21  22
ENDBRANCH  20  21
ENDBRANCH  19  20
ENDBRANCH  18  19
ENDBRANCH   1  18
TORSDOF 28
ENDMDL
MODEL 2
REMARK VINA RESULT:    -4.294      3.028      6.814
REMARK INTER + INTRA:         -16.490
REMARK INTER:                 -12.286
REMARK INTRA:                  -4.204
REMARK UNBOUND:                -5.168
REMARK SMILES CCCCCCCCCCCCCCCCCCCCCCCCCCCCCC(=O)[O-]
REMARK SMILES IDX 16 1 17 2 18 3 19 4 20 5 21 6 22 7 23 8 24 9 25 10 26 11
REMARK SMILES IDX 27 12 28 13 29 14 30 15 31 16 32 17 15 18 14 19 13 20 12 21
REMARK SMILES IDX 11 22 10 23 9 24 8 25 7 26 6 27 5 28 4 29 3 30 2 31 1 32
REMARK H PARENT
REMARK Flexibility Score: inf
ROOT
ATOM      1  C   UNL     1       7.128  78.002  64.636  1.00  0.00     0.000 C 
ENDROOT
BRANCH   1   2
ATOM      2  C   UNL     1       5.688  77.616  64.247  1.00  0.00     0.000 C 
BRANCH   2   3
ATOM      3  C   UNL     1       5.086  78.491  63.125  1.00  0.00     0.000 C 
BRANCH   3   4
ATOM      4  C   UNL     1       4.757  79.923  63.590  1.00  0.00     0.000 C 
BRANCH   4   5
ATOM      5  C   UNL     1       3.245  80.207  63.610  1.00  0.00     0.000 C 
BRANCH   5   6
ATOM      6  C   UNL     1       2.844  81.357  62.670  1.00  0.00     0.000 C 
BRANCH   6   7
ATOM      7  C   UNL     1       2.111  82.495  63.409  1.00  0.00     0.000 C 
BRANCH   7   8
ATOM      8  C   UNL     1       2.798  82.940  64.714  1.00  0.00     0.000 C 
BRANCH   8   9
ATOM      9  C   UNL     1       3.194  84.427  64.691  1.00  0.00     0.000 C 
BRANCH   9  10
ATOM     10  C   UNL     1       4.610  84.651  64.138  1.00  0.00     0.000 C 
BRANCH  10  11
ATOM     11  C   UNL     1       4.605  85.324  62.756  1.00  0.00     0.000 C 
BRANCH  11  12
ATOM     12  C   UNL     1       3.544  86.433  62.690  1.00  0.00     0.000 C 
BRANCH  12  13
ATOM     13  C   UNL     1       3.886  87.523  61.661  1.00  0.00     0.006 C 
BRANCH  13  14
ATOM     14  C   UNL     1       3.319  88.900  62.041  1.00  0.00     0.053 C 
BRANCH  14  15
ATOM     15  C   UNL     1       1.971  89.107  61.426  1.00  0.00     0.041 C 
ATOM     16  O   UNL     1       1.844  89.140  60.173  1.00  0.00    -0.550 OA
ATOM     17  O   UNL     1       0.855  89.281  62.236  1.00  0.00    -0.550 OA
ENDBRANCH  14  15
ENDBRANCH  13  14
ENDBRANCH  12  13
ENDBRANCH  11  12
ENDBRANCH  10  11
ENDBRANCH   9  10
ENDBRANCH   8   9
ENDBRANCH   7   8
ENDBRANCH   6   7
ENDBRANCH   5   6
ENDBRANCH   4   5
ENDBRANCH   3   4
ENDBRANCH   2   3
ENDBRANCH   1   2
BRANCH   1  18
ATOM     18  C   UNL     1       7.435  77.931  66.144  1.00  0.00     0.000 C 
BRANCH  18  19
ATOM     19  C   UNL     1       6.732  76.791  66.904  1.00  0.00     0.000 C 
BRANCH  19  20
ATOM     20  C   UNL     1       5.695  77.230  67.959  1.00  0.00     0.000 C 
BRANCH  20  21
ATOM     21  C   UNL     1       5.803  78.711  68.381  1.00  0.00     0.000 C 
BRANCH  21  22
ATOM     22  C   UNL     1       4.663  79.582  67.819  1.00  0.00     0.000 C 
BRANCH  22  23
ATOM     23  C   UNL     1       3.587  78.764  67.088  1.00  0.00     0.000 C 
BRANCH  23  24
ATOM     24  C   UNL     1       2.242  79.504  66.989  1.00  0.00    -0.000 C 
BRANCH  24  25
ATOM     25  C   UNL     1       2.240  80.850  67.734  1.00  0.00    -0.000 C 
BRANCH  25  26
ATOM     26  C   UNL     1       1.305  80.876  68.962  1.00  0.00    -0.000 C 
BRANCH  26  27
ATOM     27  C   UNL     1       1.859  80.033  70.128  1.00  0.00    -0.000 C 
BRANCH  27  28
ATOM     28  C   UNL     1       0.945  78.846  70.483  1.00  0.00    -0.000 C 
BRANCH  28  29
ATOM     29  C   UNL     1       1.443  77.497  69.912  1.00  0.00    -0.000 C 
BRANCH  29  30
ATOM     30  C   UNL     1       0.526  76.918  68.817  1.00  0.00    -0.000 C 
BRANCH  30  31
ATOM     31  C   UNL     1       0.973  75.548  68.276  1.00  0.00    -0.003 C 
ATOM     32  C   UNL     1       2.490  75.360  68.314  1.00  0.00     0.004 C 
ENDBRANCH  30  31
ENDBRANCH  29  30
ENDBRANCH  28  29
ENDBRANCH  27  28
ENDBRANCH  26  27
ENDBRANCH  25  26
ENDBRANCH  24  25
ENDBRANCH  23  24
ENDBRANCH  22  23
ENDBRANCH  21  22
ENDBRANCH  20  21
ENDBRANCH  19  20
ENDBRANCH  18  19
ENDBRANCH   1  18
TORSDOF 28
ENDMDL
MODEL 3
REMARK VINA RESULT:    -4.286      2.887      9.379
REMARK INTER + INTRA:         -16.469
REMARK INTER:                 -12.204
REMARK INTRA:                  -4.265
REMARK UNBOUND:                -5.168
REMARK SMILES CCCCCCCCCCCCCCCCCCCCCCCCCCCCCC(=O)[O-]
REMARK SMILES IDX 16 1 17 2 18 3 19 4 20 5 21 6 22 7 23 8 24 9 25 10 26 11
REMARK SMILES IDX 27 12 28 13 29 14 30 15 31 16 32 17 15 18 14 19 13 20 12 21
REMARK SMILES IDX 11 22 10 23 9 24 8 25 7 26 6 27 5 28 4 29 3 30 2 31 1 32
REMARK H PARENT
REMARK Flexibility Score: inf
ROOT
ATOM      1  C   UNL     1       4.811  78.750  63.484  1.00  0.00     0.000 C 
ENDROOT
BRANCH   1   2
ATOM      2  C   UNL     1       6.267  79.064  63.087  1.00  0.00     0.000 C 
BRANCH   2   3
ATOM      3  C   UNL     1       7.322  78.373  63.979  1.00  0.00     0.000 C 
BRANCH   3   4
ATOM      4  C   UNL     1       6.727  77.262  64.865  1.00  0.00     0.000 C 
BRANCH   4   5
ATOM      5  C   UNL     1       6.949  77.520  66.366  1.00  0.00     0.000 C 
BRANCH   5   6
ATOM      6  C   UNL     1       5.885  76.842  67.248  1.00  0.00     0.000 C 
BRANCH   6   7
ATOM      7  C   UNL     1       5.347  77.779  68.348  1.00  0.00     0.000 C 
BRANCH   7   8
ATOM      8  C   UNL     1       5.305  79.265  67.942  1.00  0.00     0.000 C 
BRANCH   8   9
ATOM      9  C   UNL     1       3.866  79.793  67.800  1.00  0.00     0.000 C 
BRANCH   9  10
ATOM     10  C   UNL     1       3.222  80.121  69.156  1.00  0.00     0.000 C 
BRANCH  10  11
ATOM     11  C   UNL     1       2.177  79.077  69.581  1.00  0.00     0.000 C 
BRANCH  11  12
ATOM     12  C   UNL     1       1.247  78.724  68.411  1.00  0.00     0.000 C 
BRANCH  12  13
ATOM     13  C   UNL     1       1.120  77.208  68.188  1.00  0.00     0.006 C 
BRANCH  13  14
ATOM     14  C   UNL     1       2.149  76.399  68.994  1.00  0.00     0.053 C 
BRANCH  14  15
ATOM     15  C   UNL     1       2.440  75.093  68.324  1.00  0.00     0.041 C 
ATOM     16  O   UNL     1       1.621  74.606  67.501  1.00  0.00    -0.550 OA
ATOM     17  O   UNL     1       3.610  74.403  68.622  1.00  0.00    -0.550 OA
ENDBRANCH  14  15
ENDBRANCH  13  14
ENDBRANCH  12  13
ENDBRANCH  11  12
ENDBRANCH  10  11
ENDBRANCH   9  10
ENDBRANCH   8   9
ENDBRANCH   7   8
ENDBRANCH   6   7
ENDBRANCH   5   6
ENDBRANCH   4   5
ENDBRANCH   3   4
ENDBRANCH   2   3
ENDBRANCH   1   2
BRANCH   1  18
ATOM     18  C   UNL     1       4.067  79.900  64.190  1.00  0.00     0.000 C 
BRANCH  18  19
ATOM     19  C   UNL     1       2.594  80.079  63.779  1.00  0.00     0.000 C 
BRANCH  19  20
ATOM     20  C   UNL     1       1.554  79.819  64.889  1.00  0.00     0.000 C 
BRANCH  20  21
ATOM     21  C   UNL     1       0.700  81.050  65.264  1.00  0.00     0.000 C 
BRANCH  21  22
ATOM     22  C   UNL     1       1.337  81.912  66.369  1.00  0.00     0.000 C 
BRANCH  22  23
ATOM     23  C   UNL     1       1.694  83.330  65.893  1.00  0.00     0.000 C 
BRANCH  23  24
ATOM     24  C   UNL     1       1.305  83.580  64.426  1.00  0.00    -0.000 C 
BRANCH  24  25
ATOM     25  C   UNL     1       2.521  83.806  63.511  1.00  0.00    -0.000 C 
BRANCH  25  26
ATOM     26  C   UNL     1       3.841  84.028  64.281  1.00  0.00    -0.000 C 
BRANCH  26  27
ATOM     27  C   UNL     1       4.716  85.114  63.624  1.00  0.00    -0.000 C 
BRANCH  27  28
ATOM     28  C   UNL     1       3.882  86.170  62.875  1.00  0.00    -0.000 C 
BRANCH  28  29
ATOM     29  C   UNL     1       4.509  86.604  61.529  1.00  0.00    -0.000 C 
BRANCH  29  30
ATOM     30  C   UNL     1       3.915  87.910  60.967  1.00  0.00    -0.000 C 
BRANCH  30  31
ATOM     31  C   UNL     1       3.351  88.861  62.037  1.00  0.00    -0.003 C 
ATOM     32  C   UNL     1       1.842  89.069  61.911  1.00  0.00     0.004 C 
ENDBRANCH  30  31
ENDBRANCH  29  30
ENDBRANCH  28  29
ENDBRANCH  27  28
ENDBRANCH  26  27
ENDBRANCH  25  26
ENDBRANCH  24  25
ENDBRANCH  23  24
ENDBRANCH  22  23
ENDBRANCH  21  22
ENDBRANCH  20  21
ENDBRANCH  19  20
ENDBRANCH  18  19
ENDBRANCH   1  18
TORSDOF 28
ENDMDL
MODEL 4
REMARK VINA RESULT:    -4.281      3.389      9.791
REMARK INTER + INTRA:         -16.458
REMARK INTER:                 -12.191
REMARK INTRA:                  -4.267
REMARK UNBOUND:                -5.168
REMARK SMILES CCCCCCCCCCCCCCCCCCCCCCCCCCCCCC(=O)[O-]
REMARK SMILES IDX 16 1 17 2 18 3 19 4 20 5 21 6 22 7 23 8 24 9 25 10 26 11
REMARK SMILES IDX 27 12 28 13 29 14 30 15 31 16 32 17 15 18 14 19 13 20 12 21
REMARK SMILES IDX 11 22 10 23 9 24 8 25 7 26 6 27 5 28 4 29 3 30 2 31 1 32
REMARK H PARENT
REMARK Flexibility Score: inf
ROOT
ATOM      1  C   UNL     1       5.676  77.618  63.887  1.00  0.00     0.000 C 
ENDROOT
BRANCH   1   2
ATOM      2  C   UNL     1       7.150  78.068  63.945  1.00  0.00     0.000 C 
BRANCH   2   3
ATOM      3  C   UNL     1       7.661  78.355  65.374  1.00  0.00     0.000 C 
BRANCH   3   4
ATOM      4  C   UNL     1       6.811  77.677  66.465  1.00  0.00     0.000 C 
BRANCH   4   5
ATOM      5  C   UNL     1       6.521  78.609  67.655  1.00  0.00     0.000 C 
BRANCH   5   6
ATOM      6  C   UNL     1       5.218  78.246  68.390  1.00  0.00     0.000 C 
BRANCH   6   7
ATOM      7  C   UNL     1       4.505  77.032  67.762  1.00  0.00     0.000 C 
BRANCH   7   8
ATOM      8  C   UNL     1       4.921  75.676  68.364  1.00  0.00     0.000 C 
BRANCH   8   9
ATOM      9  C   UNL     1       3.711  74.822  68.779  1.00  0.00     0.000 C 
BRANCH   9  10
ATOM     10  C   UNL     1       2.548  74.923  67.779  1.00  0.00     0.000 C 
BRANCH  10  11
ATOM     11  C   UNL     1       1.211  75.257  68.460  1.00  0.00     0.000 C 
BRANCH  11  12
ATOM     12  C   UNL     1       0.973  76.774  68.484  1.00  0.00     0.000 C 
BRANCH  12  13
ATOM     13  C   UNL     1       1.123  77.379  69.890  1.00  0.00     0.006 C 
BRANCH  13  14
ATOM     14  C   UNL     1       1.965  78.664  69.899  1.00  0.00     0.053 C 
BRANCH  14  15
ATOM     15  C   UNL     1       1.422  79.646  70.889  1.00  0.00     0.041 C 
ATOM     16  O   UNL     1       1.538  79.431  72.125  1.00  0.00    -0.550 OA
ATOM     17  O   UNL     1       0.772  80.794  70.447  1.00  0.00    -0.550 OA
ENDBRANCH  14  15
ENDBRANCH  13  14
ENDBRANCH  12  13
ENDBRANCH  11  12
ENDBRANCH  10  11
ENDBRANCH   9  10
ENDBRANCH   8   9
ENDBRANCH   7   8
ENDBRANCH   6   7
ENDBRANCH   5   6
ENDBRANCH   4   5
ENDBRANCH   3   4
ENDBRANCH   2   3
ENDBRANCH   1   2
BRANCH   1  18
ATOM     18  C   UNL     1       4.789  78.422  62.918  1.00  0.00     0.000 C 
BRANCH  18  19
ATOM     19  C   UNL     1       4.581  79.902  63.292  1.00  0.00     0.000 C 
BRANCH  19  20
ATOM     20  C   UNL     1       4.060  80.163  64.721  1.00  0.00     0.000 C 
BRANCH  20  21
ATOM     21  C   UNL     1       2.561  79.851  64.919  1.00  0.00     0.000 C 
BRANCH  21  22
ATOM     22  C   UNL     1       2.166  79.704  66.401  1.00  0.00     0.000 C 
BRANCH  22  23
ATOM     23  C   UNL     1       2.088  81.051  67.137  1.00  0.00     0.000 C 
BRANCH  23  24
ATOM     24  C   UNL     1       1.000  81.977  66.568  1.00  0.00    -0.000 C 
BRANCH  24  25
ATOM     25  C   UNL     1       1.515  83.394  66.262  1.00  0.00    -0.000 C 
BRANCH  25  26
ATOM     26  C   UNL     1       1.940  83.592  64.791  1.00  0.00    -0.000 C 
BRANCH  26  27
ATOM     27  C   UNL     1       3.460  83.815  64.654  1.00  0.00    -0.000 C 
BRANCH  27  28
ATOM     28  C   UNL     1       3.960  83.601  63.213  1.00  0.00    -0.000 C 
BRANCH  28  29
ATOM     29  C   UNL     1       4.770  84.797  62.662  1.00  0.00    -0.000 C 
BRANCH  29  30
ATOM     30  C   UNL     1       4.107  86.163  62.927  1.00  0.00    -0.000 C 
BRANCH  30  31
ATOM     31  C   UNL     1       3.920  87.031  61.670  1.00  0.00    -0.003 C 
ATOM     32  C   UNL     1       3.310  88.398  61.977  1.00  0.00     0.004 C 
ENDBRANCH  30  31
ENDBRANCH  29  30
ENDBRANCH  28  29
ENDBRANCH  27  28
ENDBRANCH  26  27
ENDBRANCH  25  26
ENDBRANCH  24  25
ENDBRANCH  23  24
ENDBRANCH  22  23
ENDBRANCH  21  22
ENDBRANCH  20  21
ENDBRANCH  19  20
ENDBRANCH  18  19
ENDBRANCH   1  18
TORSDOF 28
ENDMDL
MODEL 5
REMARK VINA RESULT:    -4.267      2.306      9.202
REMARK INTER + INTRA:         -16.421
REMARK INTER:                 -11.869
REMARK INTRA:                  -4.552
REMARK UNBOUND:                -5.168
REMARK SMILES CCCCCCCCCCCCCCCCCCCCCCCCCCCCCC(=O)[O-]
REMARK SMILES IDX 16 1 17 2 18 3 19 4 20 5 21 6 22 7 23 8 24 9 25 10 26 11
REMARK SMILES IDX 27 12 28 13 29 14 30 15 31 16 32 17 15 18 14 19 13 20 12 21
REMARK SMILES IDX 11 22 10 23 9 24 8 25 7 26 6 27 5 28 4 29 3 30 2 31 1 32
REMARK H PARENT
REMARK Flexibility Score: inf
ROOT
ATOM      1  C   UNL     1       1.546  77.072  69.402  1.00  0.00     0.000 C 
ENDROOT
BRANCH   1   2
ATOM      2  C   UNL     1       1.178  76.033  68.324  1.00  0.00     0.000 C 
BRANCH   2   3
ATOM      3  C   UNL     1       2.136  74.823  68.267  1.00  0.00     0.000 C 
BRANCH   3   4
ATOM      4  C   UNL     1       3.532  75.186  67.725  1.00  0.00     0.000 C 
BRANCH   4   5
ATOM      5  C   UNL     1       4.630  75.083  68.798  1.00  0.00     0.000 C 
BRANCH   5   6
ATOM      6  C   UNL     1       5.782  76.078  68.567  1.00  0.00     0.000 C 
BRANCH   6   7
ATOM      7  C   UNL     1       5.286  77.530  68.418  1.00  0.00     0.000 C 
BRANCH   7   8
ATOM      8  C   UNL     1       6.270  78.457  67.679  1.00  0.00     0.000 C 
BRANCH   8   9
ATOM      9  C   UNL     1       7.272  77.676  66.810  1.00  0.00     0.000 C 
BRANCH   9  10
ATOM     10  C   UNL     1       7.100  77.962  65.310  1.00  0.00     0.000 C 
BRANCH  10  11
ATOM     11  C   UNL     1       5.948  77.161  64.684  1.00  0.00     0.000 C 
BRANCH  11  12
ATOM     12  C   UNL     1       5.257  77.968  63.575  1.00  0.00     0.000 C 
BRANCH  12  13
ATOM     13  C   UNL     1       5.870  79.365  63.385  1.00  0.00     0.006 C 
BRANCH  13  14
ATOM     14  C   UNL     1       6.025  79.752  61.906  1.00  0.00     0.053 C 
BRANCH  14  15
ATOM     15  C   UNL     1       7.379  79.373  61.397  1.00  0.00     0.041 C 
ATOM     16  O   UNL     1       7.494  78.695  60.341  1.00  0.00    -0.550 OA
ATOM     17  O   UNL     1       8.518  79.752  62.099  1.00  0.00    -0.550 OA
ENDBRANCH  14  15
ENDBRANCH  13  14
ENDBRANCH  12  13
ENDBRANCH  11  12
ENDBRANCH  10  11
ENDBRANCH   9  10
ENDBRANCH   8   9
ENDBRANCH   7   8
ENDBRANCH   6   7
ENDBRANCH   5   6
ENDBRANCH   4   5
ENDBRANCH   3   4
ENDBRANCH   2   3
ENDBRANCH   1   2
BRANCH   1  18
ATOM     18  C   UNL     1       1.614  78.528  68.904  1.00  0.00     0.000 C 
BRANCH  18  19
ATOM     19  C   UNL     1       2.014  78.699  67.426  1.00  0.00     0.000 C 
BRANCH  19  20
ATOM     20  C   UNL     1       2.818  79.974  67.094  1.00  0.00     0.000 C 
BRANCH  20  21
ATOM     21  C   UNL     1       1.967  81.138  66.542  1.00  0.00     0.000 C 
BRANCH  21  22
ATOM     22  C   UNL     1       0.632  80.674  65.932  1.00  0.00     0.000 C 
BRANCH  22  23
ATOM     23  C   UNL     1       0.596  80.798  64.400  1.00  0.00     0.000 C 
BRANCH  23  24
ATOM     24  C   UNL     1       1.573  79.835  63.703  1.00  0.00    -0.000 C 
BRANCH  24  25
ATOM     25  C   UNL     1       2.558  80.553  62.764  1.00  0.00    -0.000 C 
BRANCH  25  26
ATOM     26  C   UNL     1       2.544  82.089  62.912  1.00  0.00    -0.000 C 
BRANCH  26  27
ATOM     27  C   UNL     1       3.790  82.609  63.657  1.00  0.00    -0.000 C 
BRANCH  27  28
ATOM     28  C   UNL     1       3.474  83.809  64.568  1.00  0.00    -0.000 C 
BRANCH  28  29
ATOM     29  C   UNL     1       4.212  85.104  64.154  1.00  0.00    -0.000 C 
BRANCH  29  30
ATOM     30  C   UNL     1       4.985  84.973  62.827  1.00  0.00    -0.000 C 
BRANCH  30  31
ATOM     31  C   UNL     1       4.528  85.950  61.729  1.00  0.00    -0.003 C 
ATOM     32  C   UNL     1       3.792  87.168  62.286  1.00  0.00     0.004 C 
ENDBRANCH  30  31
ENDBRANCH  29  30
ENDBRANCH  28  29
ENDBRANCH  27  28
ENDBRANCH  26  27
ENDBRANCH  25  26
ENDBRANCH  24  25
ENDBRANCH  23  24
ENDBRANCH  22  23
ENDBRANCH  21  22
ENDBRANCH  20  21
ENDBRANCH  19  20
ENDBRANCH  18  19
ENDBRANCH   1  18
TORSDOF 28
ENDMDL
MODEL 6
REMARK VINA RESULT:    -4.221      3.158      6.386
REMARK INTER + INTRA:         -16.299
REMARK INTER:                 -12.022
REMARK INTRA:                  -4.277
REMARK UNBOUND:                -5.168
REMARK SMILES CCCCCCCCCCCCCCCCCCCCCCCCCCCCCC(=O)[O-]
REMARK SMILES IDX 16 1 17 2 18 3 19 4 20 5 21 6 22 7 23 8 24 9 25 10 26 11
REMARK SMILES IDX 27 12 28 13 29 14 30 15 31 16 32 17 15 18 14 19 13 20 12 21
REMARK SMILES IDX 11 22 10 23 9 24 8 25 7 26 6 27 5 28 4 29 3 30 2 31 1 32
REMARK H PARENT
REMARK Flexibility Score: inf
ROOT
ATOM      1  C   UNL     1       3.915  80.107  65.448  1.00  0.00     0.000 C 
ENDROOT
BRANCH   1   2
ATOM      2  C   UNL     1       2.786  79.530  66.325  1.00  0.00     0.000 C 
BRANCH   2   3
ATOM      3  C   UNL     1       2.106  80.574  67.237  1.00  0.00     0.000 C 
BRANCH   3   4
ATOM      4  C   UNL     1       0.586  80.676  67.006  1.00  0.00     0.000 C 
BRANCH   4   5
ATOM      5  C   UNL     1       0.131  82.109  66.679  1.00  0.00     0.000 C 
BRANCH   5   6
ATOM      6  C   UNL     1       1.150  83.172  67.125  1.00  0.00     0.000 C 
BRANCH   6   7
ATOM      7  C   UNL     1       1.762  83.938  65.936  1.00  0.00     0.000 C 
BRANCH   7   8
ATOM      8  C   UNL     1       1.401  83.351  64.557  1.00  0.00     0.000 C 
BRANCH   8   9
ATOM      9  C   UNL     1       2.595  83.354  63.587  1.00  0.00     0.000 C 
BRANCH   9  10
ATOM     10  C   UNL     1       3.921  83.697  64.284  1.00  0.00     0.000 C 
BRANCH  10  11
ATOM     11  C   UNL     1       4.562  84.982  63.735  1.00  0.00     0.000 C 
BRANCH  11  12
ATOM     12  C   UNL     1       3.640  85.660  62.710  1.00  0.00     0.000 C 
BRANCH  12  13
ATOM     13  C   UNL     1       4.258  86.930  62.102  1.00  0.00     0.006 C 
BRANCH  13  14
ATOM     14  C   UNL     1       3.297  88.129  62.125  1.00  0.00     0.053 C 
BRANCH  14  15
ATOM     15  C   UNL     1       3.561  89.042  60.970  1.00  0.00     0.041 C 
ATOM     16  O   UNL     1       3.762  90.271  61.165  1.00  0.00    -0.550 OA
ATOM     17  O   UNL     1       3.568  88.541  59.673  1.00  0.00    -0.550 OA
ENDBRANCH  14  15
ENDBRANCH  13  14
ENDBRANCH  12  13
ENDBRANCH  11  12
ENDBRANCH  10  11
ENDBRANCH   9  10
ENDBRANCH   8   9
ENDBRANCH   7   8
ENDBRANCH   6   7
ENDBRANCH   5   6
ENDBRANCH   4   5
ENDBRANCH   3   4
ENDBRANCH   2   3
ENDBRANCH   1   2
BRANCH   1  18
ATOM     18  C   UNL     1       3.981  79.539  64.017  1.00  0.00     0.000 C 
BRANCH  18  19
ATOM     19  C   UNL     1       5.286  78.801  63.663  1.00  0.00     0.000 C 
BRANCH  19  20
ATOM     20  C   UNL     1       5.722  77.701  64.653  1.00  0.00     0.000 C 
BRANCH  20  21
ATOM     21  C   UNL     1       7.116  77.921  65.278  1.00  0.00     0.000 C 
BRANCH  21  22
ATOM     22  C   UNL     1       7.189  77.496  66.756  1.00  0.00     0.000 C 
BRANCH  22  23
ATOM     23  C   UNL     1       6.474  78.478  67.699  1.00  0.00     0.000 C 
BRANCH  23  24
ATOM     24  C   UNL     1       5.266  77.846  68.411  1.00  0.00    -0.000 C 
BRANCH  24  25
ATOM     25  C   UNL     1       5.279  76.308  68.368  1.00  0.00    -0.000 C 
BRANCH  25  26
ATOM     26  C   UNL     1       4.052  75.699  67.656  1.00  0.00    -0.000 C 
BRANCH  26  27
ATOM     27  C   UNL     1       2.917  75.367  68.646  1.00  0.00    -0.000 C 
BRANCH  27  28
ATOM     28  C   UNL     1       1.538  75.823  68.134  1.00  0.00    -0.000 C 
BRANCH  28  29
ATOM     29  C   UNL     1       1.154  77.248  68.595  1.00  0.00    -0.000 C 
BRANCH  29  30
ATOM     30  C   UNL     1       1.871  77.691  69.885  1.00  0.00    -0.000 C 
BRANCH  30  31
ATOM     31  C   UNL     1       1.579  79.142  70.307  1.00  0.00    -0.003 C 
ATOM     32  C   UNL     1       1.211  79.267  71.786  1.00  0.00     0.004 C 
ENDBRANCH  30  31
ENDBRANCH  29  30
ENDBRANCH  28  29
ENDBRANCH  27  28
ENDBRANCH  26  27
ENDBRANCH  25  26
ENDBRANCH  24  25
ENDBRANCH  23  24
ENDBRANCH  22  23
ENDBRANCH  21  22
ENDBRANCH  20  21
ENDBRANCH  19  20
ENDBRANCH  18  19
ENDBRANCH   1  18
TORSDOF 28
ENDMDL
MODEL 7
REMARK VINA RESULT:    -4.199      2.919      5.542
REMARK INTER + INTRA:         -16.240
REMARK INTER:                 -11.510
REMARK INTRA:                  -4.730
REMARK UNBOUND:                -5.168
REMARK SMILES CCCCCCCCCCCCCCCCCCCCCCCCCCCCCC(=O)[O-]
REMARK SMILES IDX 16 1 17 2 18 3 19 4 20 5 21 6 22 7 23 8 24 9 25 10 26 11
REMARK SMILES IDX 27 12 28 13 29 14 30 15 31 16 32 17 15 18 14 19 13 20 12 21
REMARK SMILES IDX 11 22 10 23 9 24 8 25 7 26 6 27 5 28 4 29 3 30 2 31 1 32
REMARK H PARENT
REMARK Flexibility Score: inf
ROOT
ATOM      1  C   UNL     1       3.196  80.374  62.088  1.00  0.00     0.000 C 
ENDROOT
BRANCH   1   2
ATOM      2  C   UNL     1       4.074  81.622  61.874  1.00  0.00     0.000 C 
BRANCH   2   3
ATOM      3  C   UNL     1       3.404  82.722  61.021  1.00  0.00     0.000 C 
BRANCH   3   4
ATOM      4  C   UNL     1       1.865  82.635  61.030  1.00  0.00     0.000 C 
BRANCH   4   5
ATOM      5  C   UNL     1       1.213  83.771  61.837  1.00  0.00     0.000 C 
BRANCH   5   6
ATOM      6  C   UNL     1       1.032  83.416  63.324  1.00  0.00     0.000 C 
BRANCH   6   7
ATOM      7  C   UNL     1       1.844  84.339  64.254  1.00  0.00     0.000 C 
BRANCH   7   8
ATOM      8  C   UNL     1       3.180  83.737  64.727  1.00  0.00     0.000 C 
BRANCH   8   9
ATOM      9  C   UNL     1       4.394  84.556  64.253  1.00  0.00     0.000 C 
BRANCH   9  10
ATOM     10  C   UNL     1       3.989  85.782  63.419  1.00  0.00     0.000 C 
BRANCH  10  11
ATOM     11  C   UNL     1       4.650  85.798  62.032  1.00  0.00     0.000 C 
BRANCH  11  12
ATOM     12  C   UNL     1       4.391  87.131  61.316  1.00  0.00     0.000 C 
BRANCH  12  13
ATOM     13  C   UNL     1       3.002  87.714  61.627  1.00  0.00     0.006 C 
BRANCH  13  14
ATOM     14  C   UNL     1       3.058  89.185  62.067  1.00  0.00     0.053 C 
BRANCH  14  15
ATOM     15  C   UNL     1       3.049  90.095  60.880  1.00  0.00     0.041 C 
ATOM     16  O   UNL     1       4.123  90.606  60.463  1.00  0.00    -0.550 OA
ATOM     17  O   UNL     1       1.851  90.396  60.241  1.00  0.00    -0.550 OA
ENDBRANCH  14  15
ENDBRANCH  13  14
ENDBRANCH  12  13
ENDBRANCH  11  12
ENDBRANCH  10  11
ENDBRANCH   9  10
ENDBRANCH   8   9
ENDBRANCH   7   8
ENDBRANCH   6   7
ENDBRANCH   5   6
ENDBRANCH   4   5
ENDBRANCH   3   4
ENDBRANCH   2   3
ENDBRANCH   1   2
BRANCH   1  18
ATOM     18  C   UNL     1       2.783  80.112  63.549  1.00  0.00     0.000 C 
BRANCH  18  19
ATOM     19  C   UNL     1       3.947  79.849  64.523  1.00  0.00     0.000 C 
BRANCH  19  20
ATOM     20  C   UNL     1       5.222  79.249  63.894  1.00  0.00     0.000 C 
BRANCH  20  21
ATOM     21  C   UNL     1       5.208  77.710  63.768  1.00  0.00     0.000 C 
BRANCH  21  22
ATOM     22  C   UNL     1       6.210  77.018  64.711  1.00  0.00     0.000 C 
BRANCH  22  23
ATOM     23  C   UNL     1       7.229  77.993  65.323  1.00  0.00     0.000 C 
BRANCH  23  24
ATOM     24  C   UNL     1       7.329  77.866  66.853  1.00  0.00    -0.000 C 
BRANCH  24  25
ATOM     25  C   UNL     1       6.471  76.721  67.419  1.00  0.00    -0.000 C 
BRANCH  25  26
ATOM     26  C   UNL     1       5.396  77.192  68.423  1.00  0.00    -0.000 C 
BRANCH  26  27
ATOM     27  C   UNL     1       4.945  78.640  68.149  1.00  0.00    -0.000 C 
BRANCH  27  28
ATOM     28  C   UNL     1       3.530  78.928  68.684  1.00  0.00    -0.000 C 
BRANCH  28  29
ATOM     29  C   UNL     1       2.422  78.158  67.929  1.00  0.00    -0.000 C 
BRANCH  29  30
ATOM     30  C   UNL     1       1.447  79.076  67.165  1.00  0.00    -0.000 C 
BRANCH  30  31
ATOM     31  C   UNL     1       1.653  80.578  67.429  1.00  0.00    -0.003 C 
ATOM     32  C   UNL     1       0.838  81.464  66.487  1.00  0.00     0.004 C 
ENDBRANCH  30  31
ENDBRANCH  29  30
ENDBRANCH  28  29
ENDBRANCH  27  28
ENDBRANCH  26  27
ENDBRANCH  25  26
ENDBRANCH  24  25
ENDBRANCH  23  24
ENDBRANCH  22  23
ENDBRANCH  21  22
ENDBRANCH  20  21
ENDBRANCH  19  20
ENDBRANCH  18  19
ENDBRANCH   1  18
TORSDOF 28
ENDMDL
MODEL 8
REMARK VINA RESULT:    -4.187      2.830      9.493
REMARK INTER + INTRA:         -16.208
REMARK INTER:                 -11.434
REMARK INTRA:                  -4.775
REMARK UNBOUND:                -5.168
REMARK SMILES CCCCCCCCCCCCCCCCCCCCCCCCCCCCCC(=O)[O-]
REMARK SMILES IDX 16 1 17 2 18 3 19 4 20 5 21 6 22 7 23 8 24 9 25 10 26 11
REMARK SMILES IDX 27 12 28 13 29 14 30 15 31 16 32 17 15 18 14 19 13 20 12 21
REMARK SMILES IDX 11 22 10 23 9 24 8 25 7 26 6 27 5 28 4 29 3 30 2 31 1 32
REMARK H PARENT
REMARK Flexibility Score: inf
ROOT
ATOM      1  C   UNL     1       4.820  78.816  63.497  1.00  0.00     0.000 C 
ENDROOT
BRANCH   1   2
ATOM      2  C   UNL     1       5.648  77.706  64.173  1.00  0.00     0.000 C 
BRANCH   2   3
ATOM      3  C   UNL     1       6.892  78.224  64.928  1.00  0.00     0.000 C 
BRANCH   3   4
ATOM      4  C   UNL     1       7.110  77.523  66.282  1.00  0.00     0.000 C 
BRANCH   4   5
ATOM      5  C   UNL     1       6.619  78.367  67.472  1.00  0.00     0.000 C 
BRANCH   5   6
ATOM      6  C   UNL     1       5.411  77.739  68.188  1.00  0.00     0.000 C 
BRANCH   6   7
ATOM      7  C   UNL     1       5.070  76.335  67.649  1.00  0.00     0.000 C 
BRANCH   7   8
ATOM      8  C   UNL     1       4.204  75.489  68.602  1.00  0.00     0.000 C 
BRANCH   8   9
ATOM      9  C   UNL     1       3.184  74.617  67.850  1.00  0.00     0.000 C 
BRANCH   9  10
ATOM     10  C   UNL     1       1.730  75.000  68.172  1.00  0.00     0.000 C 
BRANCH  10  11
ATOM     11  C   UNL     1       1.535  76.518  68.308  1.00  0.00     0.000 C 
BRANCH  11  12
ATOM     12  C   UNL     1       0.844  76.866  69.634  1.00  0.00     0.000 C 
BRANCH  12  13
ATOM     13  C   UNL     1       1.349  78.186  70.240  1.00  0.00     0.006 C 
BRANCH  13  14
ATOM     14  C   UNL     1       2.129  79.045  69.232  1.00  0.00     0.053 C 
BRANCH  14  15
ATOM     15  C   UNL     1       1.351  80.269  68.865  1.00  0.00     0.041 C 
ATOM     16  O   UNL     1       1.813  81.414  69.118  1.00  0.00    -0.550 OA
ATOM     17  O   UNL     1       0.106  80.148  68.258  1.00  0.00    -0.550 OA
ENDBRANCH  14  15
ENDBRANCH  13  14
ENDBRANCH  12  13
ENDBRANCH  11  12
ENDBRANCH  10  11
ENDBRANCH   9  10
ENDBRANCH   8   9
ENDBRANCH   7   8
ENDBRANCH   6   7
ENDBRANCH   5   6
ENDBRANCH   4   5
ENDBRANCH   3   4
ENDBRANCH   2   3
ENDBRANCH   1   2
BRANCH   1  18
ATOM     18  C   UNL     1       4.510  80.031  64.392  1.00  0.00     0.000 C 
BRANCH  18  19
ATOM     19  C   UNL     1       3.498  79.772  65.524  1.00  0.00     0.000 C 
BRANCH  19  20
ATOM     20  C   UNL     1       2.096  80.382  65.321  1.00  0.00     0.000 C 
BRANCH  20  21
ATOM     21  C   UNL     1       1.254  79.695  64.224  1.00  0.00     0.000 C 
BRANCH  21  22
ATOM     22  C   UNL     1       0.708  80.682  63.176  1.00  0.00     0.000 C 
BRANCH  22  23
ATOM     23  C   UNL     1       1.792  81.198  62.216  1.00  0.00     0.000 C 
BRANCH  23  24
ATOM     24  C   UNL     1       2.001  82.719  62.318  1.00  0.00    -0.000 C 
BRANCH  24  25
ATOM     25  C   UNL     1       1.070  83.387  63.345  1.00  0.00    -0.000 C 
BRANCH  25  26
ATOM     26  C   UNL     1       1.798  84.357  64.300  1.00  0.00    -0.000 C 
BRANCH  26  27
ATOM     27  C   UNL     1       3.241  83.902  64.596  1.00  0.00    -0.000 C 
BRANCH  27  28
ATOM     28  C   UNL     1       4.283  84.982  64.249  1.00  0.00    -0.000 C 
BRANCH  28  29
ATOM     29  C   UNL     1       4.929  84.786  62.858  1.00  0.00    -0.000 C 
BRANCH  29  30
ATOM     30  C   UNL     1       4.657  85.949  61.884  1.00  0.00    -0.000 C 
BRANCH  30  31
ATOM     31  C   UNL     1       3.746  87.051  62.453  1.00  0.00    -0.003 C 
ATOM     32  C   UNL     1       2.356  87.060  61.815  1.00  0.00     0.004 C 
ENDBRANCH  30  31
ENDBRANCH  29  30
ENDBRANCH  28  29
ENDBRANCH  27  28
ENDBRANCH  26  27
ENDBRANCH  25  26
ENDBRANCH  24  25
ENDBRANCH  23  24
ENDBRANCH  22  23
ENDBRANCH  21  22
ENDBRANCH  20  21
ENDBRANCH  19  20
ENDBRANCH  18  19
ENDBRANCH   1  18
TORSDOF 28
ENDMDL
MODEL 9
REMARK VINA RESULT:    -4.181      1.083      2.565
REMARK INTER + INTRA:         -16.193
REMARK INTER:                 -11.568
REMARK INTRA:                  -4.624
REMARK UNBOUND:                -5.168
REMARK SMILES CCCCCCCCCCCCCCCCCCCCCCCCCCCCCC(=O)[O-]
REMARK SMILES IDX 16 1 17 2 18 3 19 4 20 5 21 6 22 7 23 8 24 9 25 10 26 11
REMARK SMILES IDX 27 12 28 13 29 14 30 15 31 16 32 17 15 18 14 19 13 20 12 21
REMARK SMILES IDX 11 22 10 23 9 24 8 25 7 26 6 27 5 28 4 29 3 30 2 31 1 32
REMARK H PARENT
REMARK Flexibility Score: inf
ROOT
ATOM      1  C   UNL     1       4.858  85.128  62.598  1.00  0.00     0.000 C 
ENDROOT
BRANCH   1   2
ATOM      2  C   UNL     1       4.466  86.285  61.658  1.00  0.00     0.000 C 
BRANCH   2   3
ATOM      3  C   UNL     1       3.751  87.455  62.369  1.00  0.00     0.000 C 
BRANCH   3   4
ATOM      4  C   UNL     1       3.588  88.696  61.470  1.00  0.00     0.000 C 
BRANCH   4   5
ATOM      5  C   UNL     1       2.130  88.921  61.029  1.00  0.00     0.000 C 
BRANCH   5   6
ATOM      6  C   UNL     1       1.139  88.864  62.205  1.00  0.00     0.000 C 
BRANCH   6   7
ATOM      7  C   UNL     1      -0.095  87.992  61.894  1.00  0.00     0.000 C 
BRANCH   7   8
ATOM      8  C   UNL     1      -0.446  86.982  63.003  1.00  0.00     0.000 C 
BRANCH   8   9
ATOM      9  C   UNL     1       0.625  85.887  63.160  1.00  0.00     0.000 C 
BRANCH   9  10
ATOM     10  C   UNL     1       0.906  85.145  61.844  1.00  0.00     0.000 C 
BRANCH  10  11
ATOM     11  C   UNL     1       0.235  83.764  61.790  1.00  0.00     0.000 C 
BRANCH  11  12
ATOM     12  C   UNL     1       1.271  82.643  61.965  1.00  0.00     0.000 C 
BRANCH  12  13
ATOM     13  C   UNL     1       2.480  82.797  61.028  1.00  0.00     0.006 C 
BRANCH  13  14
ATOM     14  C   UNL     1       3.591  81.775  61.316  1.00  0.00     0.053 C 
BRANCH  14  15
ATOM     15  C   UNL     1       3.180  80.406  60.874  1.00  0.00     0.041 C 
ATOM     16  O   UNL     1       2.823  79.546  61.723  1.00  0.00    -0.550 OA
ATOM     17  O   UNL     1       3.208  80.072  59.525  1.00  0.00    -0.550 OA
ENDBRANCH  14  15
ENDBRANCH  13  14
ENDBRANCH  12  13
ENDBRANCH  11  12
ENDBRANCH  10  11
ENDBRANCH   9  10
ENDBRANCH   8   9
ENDBRANCH   7   8
ENDBRANCH   6   7
ENDBRANCH   5   6
ENDBRANCH   4   5
ENDBRANCH   3   4
ENDBRANCH   2   3
ENDBRANCH   1   2
BRANCH   1  18
ATOM     18  C   UNL     1       4.136  85.124  63.959  1.00  0.00     0.000 C 
BRANCH  18  19
ATOM     19  C   UNL     1       3.785  83.730  64.512  1.00  0.00     0.000 C 
BRANCH  19  20
ATOM     20  C   UNL     1       2.445  83.629  65.270  1.00  0.00     0.000 C 
BRANCH  20  21
ATOM     21  C   UNL     1       2.103  82.211  65.775  1.00  0.00     0.000 C 
BRANCH  21  22
ATOM     22  C   UNL     1       2.823  81.100  64.988  1.00  0.00     0.000 C 
BRANCH  22  23
ATOM     23  C   UNL     1       3.738  80.236  65.870  1.00  0.00     0.000 C 
BRANCH  23  24
ATOM     24  C   UNL     1       2.966  79.471  66.958  1.00  0.00    -0.000 C 
BRANCH  24  25
ATOM     25  C   UNL     1       3.871  78.576  67.822  1.00  0.00    -0.000 C 
BRANCH  25  26
ATOM     26  C   UNL     1       5.306  79.122  67.985  1.00  0.00    -0.000 C 
BRANCH  26  27
ATOM     27  C   UNL     1       6.356  77.993  67.990  1.00  0.00    -0.000 C 
BRANCH  27  28
ATOM     28  C   UNL     1       7.120  77.894  66.656  1.00  0.00    -0.000 C 
BRANCH  28  29
ATOM     29  C   UNL     1       6.282  77.272  65.515  1.00  0.00    -0.000 C 
BRANCH  29  30
ATOM     30  C   UNL     1       6.377  78.050  64.188  1.00  0.00    -0.000 C 
BRANCH  30  31
ATOM     31  C   UNL     1       7.803  78.488  63.812  1.00  0.00    -0.003 C 
ATOM     32  C   UNL     1       7.864  79.232  62.478  1.00  0.00     0.004 C 
ENDBRANCH  30  31
ENDBRANCH  29  30
ENDBRANCH  28  29
ENDBRANCH  27  28
ENDBRANCH  26  27
ENDBRANCH  25  26
ENDBRANCH  24  25
ENDBRANCH  23  24
ENDBRANCH  22  23
ENDBRANCH  21  22
ENDBRANCH  20  21
ENDBRANCH  19  20
ENDBRANCH  18  19
ENDBRANCH   1  18
TORSDOF 28
ENDMDL
