MODEL 1
REMARK VINA RESULT:     5.837      0.000      0.000
REMARK INTER + INTRA:           6.007
REMARK INTER:                   6.007
REMARK INTRA:                   0.000
REMARK UNBOUND:                 0.000
REMARK SMILES Nc1ncnc2nc[nH]c12
REMARK SMILES IDX 8 1 7 2 6 3 5 4 4 5 3 6 2 7 10 8 9 9 1 11
REMARK H PARENT 9 10 1 12 1 13
REMARK Flexibility Score: inf
ROOT
ATOM      1  C   UNL     1     -21.150  -3.486 -11.516  1.00  0.00     0.199 A 
ATOM      2  N   UNL     1     -21.139  -2.559 -10.520  1.00  0.00    -0.217 NA
ATOM      3  C   UNL     1     -20.008  -1.880 -10.774  1.00  0.00     0.182 A 
ATOM      4  N   UNL     1     -19.517  -0.834 -10.068  1.00  0.00    -0.215 NA
ATOM      5  C   UNL     1     -18.342  -0.269 -10.483  1.00  0.00     0.226 A 
ATOM      6  N   UNL     1     -17.687  -0.756 -11.585  1.00  0.00    -0.217 NA
ATOM      7  C   UNL     1     -18.180  -1.812 -12.299  1.00  0.00     0.152 A 
ATOM      8  C   UNL     1     -19.377  -2.376 -11.864  1.00  0.00     0.127 A 
ATOM      9  N   UNL     1     -20.085  -3.400 -12.354  1.00  0.00    -0.340 N 
ATOM     10  H   UNL     1     -19.879  -3.998 -13.184  1.00  0.00     0.168 HD
ENDROOT
BRANCH   7  11
ATOM     11  N   UNL     1     -17.480  -2.303 -13.442  1.00  0.00    -0.382 N 
ATOM     12  H   UNL     1     -17.005  -1.655 -14.109  1.00  0.00     0.158 HD
ATOM     13  H   UNL     1     -17.436  -3.329 -13.628  1.00  0.00     0.158 HD
ENDBRANCH   7  11
TORSDOF 1
ENDMDL
MODEL 2
REMARK VINA RESULT:     6.100      0.696      2.431
REMARK INTER + INTRA:           6.279
REMARK INTER:                   6.279
REMARK INTRA:                   0.000
REMARK UNBOUND:                 0.000
REMARK SMILES Nc1ncnc2nc[nH]c12
REMARK SMILES IDX 8 1 7 2 6 3 5 4 4 5 3 6 2 7 10 8 9 9 1 11
REMARK H PARENT 9 10 1 12 1 13
REMARK Flexibility Score: inf
ROOT
ATOM      1  C   UNL     1     -21.395  -3.312 -11.432  1.00  0.00     0.199 A 
ATOM      2  N   UNL     1     -20.474  -3.727 -12.344  1.00  0.00    -0.217 NA
ATOM      3  C   UNL     1     -19.474  -2.849 -12.161  1.00  0.00     0.182 A 
ATOM      4  N   UNL     1     -18.296  -2.814 -12.829  1.00  0.00    -0.215 NA
ATOM      5  C   UNL     1     -17.397  -1.838 -12.501  1.00  0.00     0.226 A 
ATOM      6  N   UNL     1     -17.689  -0.923 -11.521  1.00  0.00    -0.217 NA
ATOM      7  C   UNL     1     -18.877  -0.956 -10.846  1.00  0.00     0.152 A 
ATOM      8  C   UNL     1     -19.782  -1.957 -11.192  1.00  0.00     0.127 A 
ATOM      9  N   UNL     1     -21.001  -2.231 -10.712  1.00  0.00    -0.340 N 
ATOM     10  H   UNL     1     -21.533  -1.738  -9.961  1.00  0.00     0.168 HD
ENDROOT
BRANCH   7  11
ATOM     11  N   UNL     1     -19.158   0.006  -9.830  1.00  0.00    -0.382 N 
ATOM     12  H   UNL     1     -18.902  -0.164  -8.833  1.00  0.00     0.158 HD
ATOM     13  H   UNL     1     -19.632   0.904 -10.077  1.00  0.00     0.158 HD
ENDBRANCH   7  11
TORSDOF 1
ENDMDL
MODEL 3
REMARK VINA RESULT:     6.912      1.095      3.826
REMARK INTER + INTRA:           7.114
REMARK INTER:                   7.114
REMARK INTRA:                   0.000
REMARK UNBOUND:                 0.000
REMARK SMILES Nc1ncnc2nc[nH]c12
REMARK SMILES IDX 8 1 7 2 6 3 5 4 4 5 3 6 2 7 10 8 9 9 1 11
REMARK H PARENT 9 10 1 12 1 13
REMARK Flexibility Score: inf
ROOT
ATOM      1  C   UNL     1     -17.768   0.331 -10.700  1.00  0.00     0.199 A 
ATOM      2  N   UNL     1     -17.511  -0.389 -11.826  1.00  0.00    -0.217 NA
ATOM      3  C   UNL     1     -18.418  -1.376 -11.748  1.00  0.00     0.182 A 
ATOM      4  N   UNL     1     -18.594  -2.385 -12.634  1.00  0.00    -0.215 NA
ATOM      5  C   UNL     1     -19.577  -3.302 -12.382  1.00  0.00     0.226 A 
ATOM      6  N   UNL     1     -20.358  -3.195 -11.260  1.00  0.00    -0.217 NA
ATOM      7  C   UNL     1     -20.183  -2.178 -10.364  1.00  0.00     0.152 A 
ATOM      8  C   UNL     1     -19.178  -1.252 -10.635  1.00  0.00     0.127 A 
ATOM      9  N   UNL     1     -18.783  -0.171  -9.951  1.00  0.00    -0.340 N 
ATOM     10  H   UNL     1     -19.158   0.206  -9.053  1.00  0.00     0.168 HD
ENDROOT
BRANCH   7  11
ATOM     11  N   UNL     1     -21.008  -2.086  -9.202  1.00  0.00    -0.382 N 
ATOM     12  H   UNL     1     -22.000  -1.768  -9.263  1.00  0.00     0.158 HD
ATOM     13  H   UNL     1     -20.622  -2.340  -8.266  1.00  0.00     0.158 HD
ENDBRANCH   7  11
TORSDOF 1
ENDMDL
MODEL 4
REMARK VINA RESULT:     7.346      0.923      2.992
REMARK INTER + INTRA:           7.561
REMARK INTER:                   7.561
REMARK INTRA:                   0.000
REMARK UNBOUND:                 0.000
REMARK SMILES Nc1ncnc2nc[nH]c12
REMARK SMILES IDX 8 1 7 2 6 3 5 4 4 5 3 6 2 7 10 8 9 9 1 11
REMARK H PARENT 9 10 1 12 1 13
REMARK Flexibility Score: inf
ROOT
ATOM      1  C   UNL     1     -17.484  -1.006 -12.551  1.00  0.00     0.199 A 
ATOM      2  N   UNL     1     -17.609  -0.514 -11.288  1.00  0.00    -0.217 NA
ATOM      3  C   UNL     1     -18.693  -1.163 -10.834  1.00  0.00     0.182 A 
ATOM      4  N   UNL     1     -19.258  -1.037  -9.610  1.00  0.00    -0.215 NA
ATOM      5  C   UNL     1     -20.366  -1.788  -9.329  1.00  0.00     0.226 A 
ATOM      6  N   UNL     1     -20.885  -2.642 -10.269  1.00  0.00    -0.217 NA
ATOM      7  C   UNL     1     -20.318  -2.770 -11.505  1.00  0.00     0.152 A 
ATOM      8  C   UNL     1     -19.189  -2.000 -11.775  1.00  0.00     0.127 A 
ATOM      9  N   UNL     1     -18.435  -1.917 -12.879  1.00  0.00    -0.340 N 
ATOM     10  H   UNL     1     -18.543  -2.428 -13.782  1.00  0.00     0.168 HD
ENDROOT
BRANCH   7  11
ATOM     11  N   UNL     1     -20.875  -3.666 -12.468  1.00  0.00    -0.382 N 
ATOM     12  H   UNL     1     -20.696  -3.547 -13.489  1.00  0.00     0.158 HD
ATOM     13  H   UNL     1     -21.477  -4.460 -12.156  1.00  0.00     0.158 HD
ENDBRANCH   7  11
TORSDOF 1
ENDMDL
MODEL 5
REMARK VINA RESULT:     7.503      1.141      2.938
REMARK INTER + INTRA:           7.723
REMARK INTER:                   7.723
REMARK INTRA:                   0.000
REMARK UNBOUND:                 0.000
REMARK SMILES Nc1ncnc2nc[nH]c12
REMARK SMILES IDX 8 1 7 2 6 3 5 4 4 5 3 6 2 7 10 8 9 9 1 11
REMARK H PARENT 9 10 1 12 1 13
REMARK Flexibility Score: inf
ROOT
ATOM      1  C   UNL     1     -17.456  -0.343 -11.437  1.00  0.00     0.199 A 
ATOM      2  N   UNL     1     -18.411  -0.184 -10.480  1.00  0.00    -0.217 NA
ATOM      3  C   UNL     1     -19.250  -1.199 -10.741  1.00  0.00     0.182 A 
ATOM      4  N   UNL     1     -20.388  -1.502 -10.071  1.00  0.00    -0.215 NA
ATOM      5  C   UNL     1     -21.116  -2.581 -10.487  1.00  0.00     0.226 A 
ATOM      6  N   UNL     1     -20.697  -3.332 -11.557  1.00  0.00    -0.217 NA
ATOM      7  C   UNL     1     -19.550  -3.029 -12.235  1.00  0.00     0.152 A 
ATOM      8  C   UNL     1     -18.820  -1.927 -11.798  1.00  0.00     0.127 A 
ATOM      9  N   UNL     1     -17.679  -1.401 -12.259  1.00  0.00    -0.340 N 
ATOM     10  H   UNL     1     -17.090  -1.719 -13.059  1.00  0.00     0.168 HD
ENDROOT
BRANCH   7  11
ATOM     11  N   UNL     1     -19.135  -3.825 -13.346  1.00  0.00    -0.382 N 
ATOM     12  H   UNL     1     -18.396  -3.495 -14.005  1.00  0.00     0.158 HD
ATOM     13  H   UNL     1     -19.573  -4.758 -13.513  1.00  0.00     0.158 HD
ENDBRANCH   7  11
TORSDOF 1
ENDMDL
MODEL 6
REMARK VINA RESULT:     7.691      1.182      3.747
REMARK INTER + INTRA:           7.916
REMARK INTER:                   7.916
REMARK INTRA:                   0.000
REMARK UNBOUND:                 0.000
REMARK SMILES Nc1ncnc2nc[nH]c12
REMARK SMILES IDX 8 1 7 2 6 3 5 4 4 5 3 6 2 7 10 8 9 9 1 11
REMARK H PARENT 9 10 1 12 1 13
REMARK Flexibility Score: inf
ROOT
ATOM      1  C   UNL     1     -17.400  -0.448 -11.813  1.00  0.00     0.199 A 
ATOM      2  N   UNL     1     -18.167  -1.094 -12.733  1.00  0.00    -0.217 NA
ATOM      3  C   UNL     1     -19.111  -1.666 -11.967  1.00  0.00     0.182 A 
ATOM      4  N   UNL     1     -20.139  -2.438 -12.392  1.00  0.00    -0.215 NA
ATOM      5  C   UNL     1     -21.004  -2.935 -11.457  1.00  0.00     0.226 A 
ATOM      6  N   UNL     1     -20.826  -2.653 -10.126  1.00  0.00    -0.217 NA
ATOM      7  C   UNL     1     -19.789  -1.875  -9.694  1.00  0.00     0.152 A 
ATOM      8  C   UNL     1     -18.918  -1.377 -10.659  1.00  0.00     0.127 A 
ATOM      9  N   UNL     1     -17.833  -0.601 -10.535  1.00  0.00    -0.340 N 
ATOM     10  H   UNL     1     -17.412  -0.203  -9.668  1.00  0.00     0.168 HD
ENDROOT
BRANCH   7  11
ATOM     11  N   UNL     1     -19.624  -1.596  -8.304  1.00  0.00    -0.382 N 
ATOM     12  H   UNL     1     -19.906  -0.678  -7.896  1.00  0.00     0.158 HD
ATOM     13  H   UNL     1     -19.214  -2.318  -7.671  1.00  0.00     0.158 HD
ENDBRANCH   7  11
TORSDOF 1
ENDMDL
MODEL 7
REMARK VINA RESULT:     8.451     13.675     14.605
REMARK INTER + INTRA:           8.698
REMARK INTER:                   8.698
REMARK INTRA:                   0.000
REMARK UNBOUND:                 0.000
REMARK SMILES Nc1ncnc2nc[nH]c12
REMARK SMILES IDX 8 1 7 2 6 3 5 4 4 5 3 6 2 7 10 8 9 9 1 11
REMARK H PARENT 9 10 1 12 1 13
REMARK Flexibility Score: inf
ROOT
ATOM      1  C   UNL     1     -29.669  -2.074 -20.732  1.00  0.00     0.199 A 
ATOM      2  N   UNL     1     -30.867  -1.628 -21.202  1.00  0.00    -0.217 NA
ATOM      3  C   UNL     1     -30.668  -0.302 -21.279  1.00  0.00     0.182 A 
ATOM      4  N   UNL     1     -31.562   0.627 -21.695  1.00  0.00    -0.215 NA
ATOM      5  C   UNL     1     -31.174   1.938 -21.703  1.00  0.00     0.226 A 
ATOM      6  N   UNL     1     -29.912   2.293 -21.300  1.00  0.00    -0.217 NA
ATOM      7  C   UNL     1     -29.009   1.358 -20.879  1.00  0.00     0.152 A 
ATOM      8  C   UNL     1     -29.419   0.027 -20.877  1.00  0.00     0.127 A 
ATOM      9  N   UNL     1     -28.763  -1.085 -20.523  1.00  0.00    -0.340 N 
ATOM     10  H   UNL     1     -27.786  -1.182 -20.170  1.00  0.00     0.168 HD
ENDROOT
BRANCH   7  11
ATOM     11  N   UNL     1     -27.701   1.752 -20.463  1.00  0.00    -0.382 N 
ATOM     12  H   UNL     1     -26.919   1.849 -21.147  1.00  0.00     0.158 HD
ATOM     13  H   UNL     1     -27.510   1.948 -19.456  1.00  0.00     0.158 HD
ENDBRANCH   7  11
TORSDOF 1
ENDMDL
