MODEL 1
REMARK VINA RESULT:    -4.634      0.000      0.000
REMARK INTER + INTRA:         -15.794
REMARK INTER:                 -12.219
REMARK INTRA:                  -3.576
REMARK UNBOUND:                -3.576
REMARK SMILES CCCCCCCCCCCCCCCCCCCCCCCCCCCCCC(=O)[O-]
REMARK SMILES IDX 16 1 17 2 18 3 19 4 20 5 21 6 22 7 23 8 24 9 25 10 26 11
REMARK SMILES IDX 27 12 28 13 29 14 30 15 31 16 32 17 15 18 14 19 13 20 12 21
REMARK SMILES IDX 11 22 10 23 9 24 8 25 7 26 6 27 5 28 4 29 3 30 2 31 1 32
REMARK H PARENT
REMARK Flexibility Score: inf
ROOT
ATOM      1  C   UNL     1     192.442  -1.547 104.810  1.00  0.00     0.000 C 
ENDROOT
BRANCH   1   2
ATOM      2  C   UNL     1     192.734  -0.779 106.113  1.00  0.00     0.000 C 
BRANCH   2   3
ATOM      3  C   UNL     1     191.619   0.181 106.571  1.00  0.00     0.000 C 
BRANCH   3   4
ATOM      4  C   UNL     1     191.661   1.539 105.849  1.00  0.00     0.000 C 
BRANCH   4   5
ATOM      5  C   UNL     1     193.093   2.085 105.691  1.00  0.00     0.000 C 
BRANCH   5   6
ATOM      6  C   UNL     1     193.547   2.323 104.237  1.00  0.00     0.000 C 
BRANCH   6   7
ATOM      7  C   UNL     1     192.696   1.620 103.163  1.00  0.00     0.000 C 
BRANCH   7   8
ATOM      8  C   UNL     1     193.480   1.119 101.932  1.00  0.00     0.000 C 
BRANCH   8   9
ATOM      9  C   UNL     1     192.619   0.809 100.695  1.00  0.00     0.000 C 
BRANCH   9  10
ATOM     10  C   UNL     1     191.830   2.027 100.195  1.00  0.00     0.000 C 
BRANCH  10  11
ATOM     11  C   UNL     1     192.715   2.939  99.335  1.00  0.00     0.000 C 
BRANCH  11  12
ATOM     12  C   UNL     1     191.885   4.045  98.669  1.00  0.00     0.000 C 
BRANCH  12  13
ATOM     13  C   UNL     1     190.533   3.542  98.130  1.00  0.00     0.006 C 
BRANCH  13  14
ATOM     14  C   UNL     1     190.022   4.319  96.903  1.00  0.00     0.053 C 
BRANCH  14  15
ATOM     15  C   UNL     1     188.704   3.809  96.399  1.00  0.00     0.041 C 
ATOM     16  O   UNL     1     188.301   4.115  95.245  1.00  0.00    -0.550 OA
ATOM     17  O   UNL     1     187.904   3.024  97.220  1.00  0.00    -0.550 OA
ENDBRANCH  14  15
ENDBRANCH  13  14
ENDBRANCH  12  13
ENDBRANCH  11  12
ENDBRANCH  10  11
ENDBRANCH   9  10
ENDBRANCH   8   9
ENDBRANCH   7   8
ENDBRANCH   6   7
ENDBRANCH   5   6
ENDBRANCH   4   5
ENDBRANCH   3   4
ENDBRANCH   2   3
ENDBRANCH   1   2
BRANCH   1  18
ATOM     18  C   UNL     1     193.709  -2.125 104.157  1.00  0.00     0.000 C 
BRANCH  18  19
ATOM     19  C   UNL     1     193.490  -2.512 102.686  1.00  0.00     0.000 C 
BRANCH  19  20
ATOM     20  C   UNL     1     192.005  -2.476 102.282  1.00  0.00     0.000 C 
BRANCH  20  21
ATOM     21  C   UNL     1     191.663  -3.490 101.176  1.00  0.00     0.000 C 
BRANCH  21  22
ATOM     22  C   UNL     1     191.363  -4.918 101.677  1.00  0.00     0.000 C 
BRANCH  22  23
ATOM     23  C   UNL     1     190.604  -5.816 100.679  1.00  0.00     0.000 C 
BRANCH  23  24
ATOM     24  C   UNL     1     189.231  -6.314 101.161  1.00  0.00    -0.000 C 
BRANCH  24  25
ATOM     25  C   UNL     1     189.310  -7.659 101.902  1.00  0.00    -0.000 C 
BRANCH  25  26
ATOM     26  C   UNL     1     188.277  -7.778 103.039  1.00  0.00    -0.000 C 
BRANCH  26  27
ATOM     27  C   UNL     1     188.865  -8.098 104.429  1.00  0.00    -0.000 C 
BRANCH  27  28
ATOM     28  C   UNL     1     188.303  -7.251 105.587  1.00  0.00    -0.000 C 
BRANCH  28  29
ATOM     29  C   UNL     1     188.267  -5.732 105.324  1.00  0.00    -0.000 C 
BRANCH  29  30
ATOM     30  C   UNL     1     189.377  -4.926 106.023  1.00  0.00    -0.000 C 
BRANCH  30  31
ATOM     31  C   UNL     1     190.573  -4.637 105.105  1.00  0.00    -0.003 C 
ATOM     32  C   UNL     1     191.894  -4.915 105.817  1.00  0.00     0.004 C 
ENDBRANCH  30  31
ENDBRANCH  29  30
ENDBRANCH  28  29
ENDBRANCH  27  28
ENDBRANCH  26  27
ENDBRANCH  25  26
ENDBRANCH  24  25
ENDBRANCH  23  24
ENDBRANCH  22  23
ENDBRANCH  21  22
ENDBRANCH  20  21
ENDBRANCH  19  20
ENDBRANCH  18  19
ENDBRANCH   1  18
TORSDOF 28
ENDMDL
MODEL 2
REMARK VINA RESULT:    -4.608      3.202      9.232
REMARK INTER + INTRA:         -15.726
REMARK INTER:                 -11.996
REMARK INTRA:                  -3.730
REMARK UNBOUND:                -3.576
REMARK SMILES CCCCCCCCCCCCCCCCCCCCCCCCCCCCCC(=O)[O-]
REMARK SMILES IDX 16 1 17 2 18 3 19 4 20 5 21 6 22 7 23 8 24 9 25 10 26 11
REMARK SMILES IDX 27 12 28 13 29 14 30 15 31 16 32 17 15 18 14 19 13 20 12 21
REMARK SMILES IDX 11 22 10 23 9 24 8 25 7 26 6 27 5 28 4 29 3 30 2 31 1 32
REMARK H PARENT
REMARK Flexibility Score: inf
ROOT
ATOM      1  C   UNL     1     191.969   2.145 105.279  1.00  0.00     0.000 C 
ENDROOT
BRANCH   1   2
ATOM      2  C   UNL     1     192.358   1.257 106.477  1.00  0.00     0.000 C 
BRANCH   2   3
ATOM      3  C   UNL     1     191.613  -0.089 106.562  1.00  0.00     0.000 C 
BRANCH   3   4
ATOM      4  C   UNL     1     192.545  -1.301 106.393  1.00  0.00     0.000 C 
BRANCH   4   5
ATOM      5  C   UNL     1     191.881  -2.461 105.626  1.00  0.00     0.000 C 
BRANCH   5   6
ATOM      6  C   UNL     1     192.038  -2.408 104.093  1.00  0.00     0.000 C 
BRANCH   6   7
ATOM      7  C   UNL     1     193.439  -2.007 103.594  1.00  0.00     0.000 C 
BRANCH   7   8
ATOM      8  C   UNL     1     193.657  -2.154 102.073  1.00  0.00     0.000 C 
BRANCH   8   9
ATOM      9  C   UNL     1     192.372  -2.338 101.247  1.00  0.00     0.000 C 
BRANCH   9  10
ATOM     10  C   UNL     1     192.398  -3.601 100.375  1.00  0.00     0.000 C 
BRANCH  10  11
ATOM     11  C   UNL     1     191.439  -4.666 100.923  1.00  0.00     0.000 C 
BRANCH  11  12
ATOM     12  C   UNL     1     192.152  -5.588 101.922  1.00  0.00     0.000 C 
BRANCH  12  13
ATOM     13  C   UNL     1     191.181  -6.467 102.732  1.00  0.00     0.006 C 
BRANCH  13  14
ATOM     14  C   UNL     1     189.770  -5.868 102.878  1.00  0.00     0.053 C 
BRANCH  14  15
ATOM     15  C   UNL     1     188.709  -6.720 102.248  1.00  0.00     0.041 C 
ATOM     16  O   UNL     1     188.055  -7.542 102.945  1.00  0.00    -0.550 OA
ATOM     17  O   UNL     1     188.467  -6.633 100.883  1.00  0.00    -0.550 OA
ENDBRANCH  14  15
ENDBRANCH  13  14
ENDBRANCH  12  13
ENDBRANCH  11  12
ENDBRANCH  10  11
ENDBRANCH   9  10
ENDBRANCH   8   9
ENDBRANCH   7   8
ENDBRANCH   6   7
ENDBRANCH   5   6
ENDBRANCH   4   5
ENDBRANCH   3   4
ENDBRANCH   2   3
ENDBRANCH   1   2
BRANCH   1  18
ATOM     18  C   UNL     1     190.943   1.479 104.347  1.00  0.00     0.000 C 
BRANCH  18  19
ATOM     19  C   UNL     1     191.543   1.100 102.984  1.00  0.00     0.000 C 
BRANCH  19  20
ATOM     20  C   UNL     1     192.972   1.640 102.798  1.00  0.00     0.000 C 
BRANCH  20  21
ATOM     21  C   UNL     1     193.471   1.520 101.348  1.00  0.00     0.000 C 
BRANCH  21  22
ATOM     22  C   UNL     1     192.398   1.086 100.328  1.00  0.00     0.000 C 
BRANCH  22  23
ATOM     23  C   UNL     1     192.228   2.025  99.116  1.00  0.00     0.000 C 
BRANCH  23  24
ATOM     24  C   UNL     1     192.564   3.503  99.381  1.00  0.00    -0.000 C 
BRANCH  24  25
ATOM     25  C   UNL     1     191.900   4.455  98.373  1.00  0.00    -0.000 C 
BRANCH  25  26
ATOM     26  C   UNL     1     191.155   3.713  97.247  1.00  0.00    -0.000 C 
BRANCH  26  27
ATOM     27  C   UNL     1     189.786   4.310  96.861  1.00  0.00    -0.000 C 
BRANCH  27  28
ATOM     28  C   UNL     1     188.861   4.643  98.048  1.00  0.00    -0.000 C 
BRANCH  28  29
ATOM     29  C   UNL     1     187.374   4.295  97.831  1.00  0.00    -0.000 C 
BRANCH  29  30
ATOM     30  C   UNL     1     187.112   2.879  97.287  1.00  0.00    -0.000 C 
BRANCH  30  31
ATOM     31  C   UNL     1     185.665   2.682  96.811  1.00  0.00    -0.003 C 
ATOM     32  C   UNL     1     185.497   3.130  95.362  1.00  0.00     0.004 C 
ENDBRANCH  30  31
ENDBRANCH  29  30
ENDBRANCH  28  29
ENDBRANCH  27  28
ENDBRANCH  26  27
ENDBRANCH  25  26
ENDBRANCH  24  25
ENDBRANCH  23  24
ENDBRANCH  22  23
ENDBRANCH  21  22
ENDBRANCH  20  21
ENDBRANCH  19  20
ENDBRANCH  18  19
ENDBRANCH   1  18
TORSDOF 28
ENDMDL
MODEL 3
REMARK VINA RESULT:    -4.571      4.308      9.009
REMARK INTER + INTRA:         -15.629
REMARK INTER:                  -9.163
REMARK INTRA:                  -6.466
REMARK UNBOUND:                -3.576
REMARK SMILES CCCCCCCCCCCCCCCCCCCCCCCCCCCCCC(=O)[O-]
REMARK SMILES IDX 16 1 17 2 18 3 19 4 20 5 21 6 22 7 23 8 24 9 25 10 26 11
REMARK SMILES IDX 27 12 28 13 29 14 30 15 31 16 32 17 15 18 14 19 13 20 12 21
REMARK SMILES IDX 11 22 10 23 9 24 8 25 7 26 6 27 5 28 4 29 3 30 2 31 1 32
REMARK H PARENT
REMARK Flexibility Score: inf
ROOT
ATOM      1  C   UNL     1     192.174  -4.137 102.536  1.00  0.00     0.000 C 
ENDROOT
BRANCH   1   2
ATOM      2  C   UNL     1     191.617  -3.709 101.166  1.00  0.00     0.000 C 
BRANCH   2   3
ATOM      3  C   UNL     1     192.585  -3.887  99.981  1.00  0.00     0.000 C 
BRANCH   3   4
ATOM      4  C   UNL     1     194.005  -4.281 100.420  1.00  0.00     0.000 C 
BRANCH   4   5
ATOM      5  C   UNL     1     194.338  -5.753 100.112  1.00  0.00     0.000 C 
BRANCH   5   6
ATOM      6  C   UNL     1     194.803  -6.587 101.323  1.00  0.00     0.000 C 
BRANCH   6   7
ATOM      7  C   UNL     1     193.730  -7.512 101.929  1.00  0.00     0.000 C 
BRANCH   7   8
ATOM      8  C   UNL     1     192.394  -7.557 101.158  1.00  0.00     0.000 C 
BRANCH   8   9
ATOM      9  C   UNL     1     191.135  -7.409 102.031  1.00  0.00     0.000 C 
BRANCH   9  10
ATOM     10  C   UNL     1     189.901  -6.973 101.230  1.00  0.00     0.000 C 
BRANCH  10  11
ATOM     11  C   UNL     1     188.814  -6.413 102.158  1.00  0.00     0.000 C 
BRANCH  11  12
ATOM     12  C   UNL     1     189.069  -6.822 103.616  1.00  0.00     0.000 C 
BRANCH  12  13
ATOM     13  C   UNL     1     188.371  -5.899 104.631  1.00  0.00     0.006 C 
BRANCH  13  14
ATOM     14  C   UNL     1     188.394  -6.429 106.077  1.00  0.00     0.053 C 
BRANCH  14  15
ATOM     15  C   UNL     1     188.637  -5.349 107.088  1.00  0.00     0.041 C 
ATOM     16  O   UNL     1     188.791  -5.640 108.305  1.00  0.00    -0.550 OA
ATOM     17  O   UNL     1     188.656  -4.018 106.692  1.00  0.00    -0.550 OA
ENDBRANCH  14  15
ENDBRANCH  13  14
ENDBRANCH  12  13
ENDBRANCH  11  12
ENDBRANCH  10  11
ENDBRANCH   9  10
ENDBRANCH   8   9
ENDBRANCH   7   8
ENDBRANCH   6   7
ENDBRANCH   5   6
ENDBRANCH   4   5
ENDBRANCH   3   4
ENDBRANCH   2   3
ENDBRANCH   1   2
BRANCH   1  18
ATOM     18  C   UNL     1     191.263  -3.733 103.708  1.00  0.00     0.000 C 
BRANCH  18  19
ATOM     19  C   UNL     1     191.739  -4.309 105.051  1.00  0.00     0.000 C 
BRANCH  19  20
ATOM     20  C   UNL     1     192.752  -5.454 104.875  1.00  0.00     0.000 C 
BRANCH  20  21
ATOM     21  C   UNL     1     194.080  -5.193 105.609  1.00  0.00     0.000 C 
BRANCH  21  22
ATOM     22  C   UNL     1     195.335  -5.238 104.713  1.00  0.00     0.000 C 
BRANCH  22  23
ATOM     23  C   UNL     1     195.573  -3.979 103.856  1.00  0.00     0.000 C 
BRANCH  23  24
ATOM     24  C   UNL     1     195.706  -2.665 104.645  1.00  0.00    -0.000 C 
BRANCH  24  25
ATOM     25  C   UNL     1     194.665  -1.612 104.231  1.00  0.00    -0.000 C 
BRANCH  25  26
ATOM     26  C   UNL     1     194.635  -1.365 102.710  1.00  0.00    -0.000 C 
BRANCH  26  27
ATOM     27  C   UNL     1     193.381  -0.634 102.189  1.00  0.00    -0.000 C 
BRANCH  27  28
ATOM     28  C   UNL     1     192.267  -0.420 103.233  1.00  0.00    -0.000 C 
BRANCH  28  29
ATOM     29  C   UNL     1     191.375   0.813 102.988  1.00  0.00    -0.000 C 
BRANCH  29  30
ATOM     30  C   UNL     1     191.283   1.792 104.172  1.00  0.00    -0.000 C 
BRANCH  30  31
ATOM     31  C   UNL     1     192.603   2.531 104.439  1.00  0.00    -0.003 C 
ATOM     32  C   UNL     1     193.257   2.041 105.727  1.00  0.00     0.004 C 
ENDBRANCH  30  31
ENDBRANCH  29  30
ENDBRANCH  28  29
ENDBRANCH  27  28
ENDBRANCH  26  27
ENDBRANCH  25  26
ENDBRANCH  24  25
ENDBRANCH  23  24
ENDBRANCH  22  23
ENDBRANCH  21  22
ENDBRANCH  20  21
ENDBRANCH  19  20
ENDBRANCH  18  19
ENDBRANCH   1  18
TORSDOF 28
ENDMDL
MODEL 4
REMARK VINA RESULT:    -4.562      2.808      7.685
REMARK INTER + INTRA:         -15.606
REMARK INTER:                 -12.035
REMARK INTRA:                  -3.571
REMARK UNBOUND:                -3.576
REMARK SMILES CCCCCCCCCCCCCCCCCCCCCCCCCCCCCC(=O)[O-]
REMARK SMILES IDX 16 1 17 2 18 3 19 4 20 5 21 6 22 7 23 8 24 9 25 10 26 11
REMARK SMILES IDX 27 12 28 13 29 14 30 15 31 16 32 17 15 18 14 19 13 20 12 21
REMARK SMILES IDX 11 22 10 23 9 24 8 25 7 26 6 27 5 28 4 29 3 30 2 31 1 32
REMARK H PARENT
REMARK Flexibility Score: inf
ROOT
ATOM      1  C   UNL     1     192.157   4.247  98.783  1.00  0.00     0.000 C 
ENDROOT
BRANCH   1   2
ATOM      2  C   UNL     1     191.329   3.457  97.753  1.00  0.00     0.000 C 
BRANCH   2   3
ATOM      3  C   UNL     1     191.625   3.794  96.279  1.00  0.00     0.000 C 
BRANCH   3   4
ATOM      4  C   UNL     1     190.452   3.464  95.340  1.00  0.00     0.000 C 
BRANCH   4   5
ATOM      5  C   UNL     1     189.111   3.331  96.086  1.00  0.00     0.000 C 
BRANCH   5   6
ATOM      6  C   UNL     1     188.063   4.411  95.749  1.00  0.00     0.000 C 
BRANCH   6   7
ATOM      7  C   UNL     1     188.246   5.751  96.486  1.00  0.00     0.000 C 
BRANCH   7   8
ATOM      8  C   UNL     1     188.232   5.657  98.026  1.00  0.00     0.000 C 
BRANCH   8   9
ATOM      9  C   UNL     1     186.918   6.104  98.693  1.00  0.00     0.000 C 
BRANCH   9  10
ATOM     10  C   UNL     1     185.673   5.523  98.009  1.00  0.00     0.000 C 
BRANCH  10  11
ATOM     11  C   UNL     1     184.689   4.964  99.045  1.00  0.00     0.000 C 
BRANCH  11  12
ATOM     12  C   UNL     1     184.240   3.545  98.670  1.00  0.00     0.000 C 
BRANCH  12  13
ATOM     13  C   UNL     1     185.144   2.886  97.611  1.00  0.00     0.006 C 
BRANCH  13  14
ATOM     14  C   UNL     1     184.378   2.317  96.403  1.00  0.00     0.053 C 
BRANCH  14  15
ATOM     15  C   UNL     1     184.444   3.210  95.200  1.00  0.00     0.041 C 
ATOM     16  O   UNL     1     185.254   2.962  94.267  1.00  0.00    -0.550 OA
ATOM     17  O   UNL     1     183.637   4.338  95.127  1.00  0.00    -0.550 OA
ENDBRANCH  14  15
ENDBRANCH  13  14
ENDBRANCH  12  13
ENDBRANCH  11  12
ENDBRANCH  10  11
ENDBRANCH   9  10
ENDBRANCH   8   9
ENDBRANCH   7   8
ENDBRANCH   6   7
ENDBRANCH   5   6
ENDBRANCH   4   5
ENDBRANCH   3   4
ENDBRANCH   2   3
ENDBRANCH   1   2
BRANCH   1  18
ATOM     18  C   UNL     1     192.951   3.340  99.739  1.00  0.00     0.000 C 
BRANCH  18  19
ATOM     19  C   UNL     1     192.391   1.911  99.797  1.00  0.00     0.000 C 
BRANCH  19  20
ATOM     20  C   UNL     1     192.274   1.381 101.237  1.00  0.00     0.000 C 
BRANCH  20  21
ATOM     21  C   UNL     1     193.629   1.325 101.964  1.00  0.00     0.000 C 
BRANCH  21  22
ATOM     22  C   UNL     1     193.790   2.344 103.111  1.00  0.00     0.000 C 
BRANCH  22  23
ATOM     23  C   UNL     1     192.568   2.482 104.042  1.00  0.00     0.000 C 
BRANCH  23  24
ATOM     24  C   UNL     1     192.777   1.972 105.478  1.00  0.00    -0.000 C 
BRANCH  24  25
ATOM     25  C   UNL     1     191.994   0.682 105.773  1.00  0.00    -0.000 C 
BRANCH  25  26
ATOM     26  C   UNL     1     192.905  -0.552 105.921  1.00  0.00    -0.000 C 
BRANCH  26  27
ATOM     27  C   UNL     1     193.228  -1.290 104.606  1.00  0.00    -0.000 C 
BRANCH  27  28
ATOM     28  C   UNL     1     192.022  -1.529 103.677  1.00  0.00    -0.000 C 
BRANCH  28  29
ATOM     29  C   UNL     1     191.683  -3.011 103.421  1.00  0.00    -0.000 C 
BRANCH  29  30
ATOM     30  C   UNL     1     191.884  -3.482 101.969  1.00  0.00    -0.000 C 
BRANCH  30  31
ATOM     31  C   UNL     1     192.288  -2.341 101.023  1.00  0.00    -0.003 C 
ATOM     32  C   UNL     1     193.742  -2.480 100.583  1.00  0.00     0.004 C 
ENDBRANCH  30  31
ENDBRANCH  29  30
ENDBRANCH  28  29
ENDBRANCH  27  28
ENDBRANCH  26  27
ENDBRANCH  25  26
ENDBRANCH  24  25
ENDBRANCH  23  24
ENDBRANCH  22  23
ENDBRANCH  21  22
ENDBRANCH  20  21
ENDBRANCH  19  20
ENDBRANCH  18  19
ENDBRANCH   1  18
TORSDOF 28
ENDMDL
MODEL 5
REMARK VINA RESULT:    -4.539      3.680     10.197
REMARK INTER + INTRA:         -15.545
REMARK INTER:                 -11.378
REMARK INTRA:                  -4.167
REMARK UNBOUND:                -3.576
REMARK SMILES CCCCCCCCCCCCCCCCCCCCCCCCCCCCCC(=O)[O-]
REMARK SMILES IDX 16 1 17 2 18 3 19 4 20 5 21 6 22 7 23 8 24 9 25 10 26 11
REMARK SMILES IDX 27 12 28 13 29 14 30 15 31 16 32 17 15 18 14 19 13 20 12 21
REMARK SMILES IDX 11 22 10 23 9 24 8 25 7 26 6 27 5 28 4 29 3 30 2 31 1 32
REMARK H PARENT
REMARK Flexibility Score: inf
ROOT
ATOM      1  C   UNL     1     192.349   3.881  98.984  1.00  0.00     0.000 C 
ENDROOT
BRANCH   1   2
ATOM      2  C   UNL     1     192.186   2.352  99.068  1.00  0.00     0.000 C 
BRANCH   2   3
ATOM      3  C   UNL     1     191.765   1.814 100.449  1.00  0.00     0.000 C 
BRANCH   3   4
ATOM      4  C   UNL     1     192.519   0.534 100.850  1.00  0.00     0.000 C 
BRANCH   4   5
ATOM      5  C   UNL     1     193.720   0.814 101.772  1.00  0.00     0.000 C 
BRANCH   5   6
ATOM      6  C   UNL     1     193.769   2.234 102.372  1.00  0.00     0.000 C 
BRANCH   6   7
ATOM      7  C   UNL     1     193.447   2.319 103.876  1.00  0.00     0.000 C 
BRANCH   7   8
ATOM      8  C   UNL     1     191.944   2.305 104.225  1.00  0.00     0.000 C 
BRANCH   8   9
ATOM      9  C   UNL     1     191.467   1.060 104.993  1.00  0.00     0.000 C 
BRANCH   9  10
ATOM     10  C   UNL     1     192.538   0.491 105.933  1.00  0.00     0.000 C 
BRANCH  10  11
ATOM     11  C   UNL     1     192.694  -1.022 105.736  1.00  0.00     0.000 C 
BRANCH  11  12
ATOM     12  C   UNL     1     193.788  -1.335 104.706  1.00  0.00     0.000 C 
BRANCH  12  13
ATOM     13  C   UNL     1     193.443  -2.535 103.805  1.00  0.00     0.006 C 
BRANCH  13  14
ATOM     14  C   UNL     1     192.082  -2.412 103.095  1.00  0.00     0.053 C 
BRANCH  14  15
ATOM     15  C   UNL     1     191.974  -3.293 101.887  1.00  0.00     0.041 C 
ATOM     16  O   UNL     1     192.517  -2.954 100.801  1.00  0.00    -0.550 OA
ATOM     17  O   UNL     1     191.242  -4.472 101.950  1.00  0.00    -0.550 OA
ENDBRANCH  14  15
ENDBRANCH  13  14
ENDBRANCH  12  13
ENDBRANCH  11  12
ENDBRANCH  10  11
ENDBRANCH   9  10
ENDBRANCH   8   9
ENDBRANCH   7   8
ENDBRANCH   6   7
ENDBRANCH   5   6
ENDBRANCH   4   5
ENDBRANCH   3   4
ENDBRANCH   2   3
ENDBRANCH   1   2
BRANCH   1  18
ATOM     18  C   UNL     1     191.169   4.573  98.280  1.00  0.00     0.000 C 
BRANCH  18  19
ATOM     19  C   UNL     1     190.161   3.572  97.696  1.00  0.00     0.000 C 
BRANCH  19  20
ATOM     20  C   UNL     1     188.721   3.843  98.166  1.00  0.00     0.000 C 
BRANCH  20  21
ATOM     21  C   UNL     1     187.672   3.535  97.083  1.00  0.00     0.000 C 
BRANCH  21  22
ATOM     22  C   UNL     1     187.956   4.172  95.707  1.00  0.00     0.000 C 
BRANCH  22  23
ATOM     23  C   UNL     1     187.128   5.433  95.385  1.00  0.00     0.000 C 
BRANCH  23  24
ATOM     24  C   UNL     1     186.018   5.763  96.398  1.00  0.00    -0.000 C 
BRANCH  24  25
ATOM     25  C   UNL     1     184.618   5.794  95.762  1.00  0.00    -0.000 C 
BRANCH  25  26
ATOM     26  C   UNL     1     184.610   5.287  94.307  1.00  0.00    -0.000 C 
BRANCH  26  27
ATOM     27  C   UNL     1     183.950   3.909  94.096  1.00  0.00    -0.000 C 
BRANCH  27  28
ATOM     28  C   UNL     1     184.840   2.699  94.441  1.00  0.00    -0.000 C 
BRANCH  28  29
ATOM     29  C   UNL     1     184.525   2.023  95.790  1.00  0.00    -0.000 C 
BRANCH  29  30
ATOM     30  C   UNL     1     183.158   2.388  96.395  1.00  0.00    -0.000 C 
BRANCH  30  31
ATOM     31  C   UNL     1     183.153   2.343  97.930  1.00  0.00    -0.003 C 
ATOM     32  C   UNL     1     184.223   3.262  98.511  1.00  0.00     0.004 C 
ENDBRANCH  30  31
ENDBRANCH  29  30
ENDBRANCH  28  29
ENDBRANCH  27  28
ENDBRANCH  26  27
ENDBRANCH  25  26
ENDBRANCH  24  25
ENDBRANCH  23  24
ENDBRANCH  22  23
ENDBRANCH  21  22
ENDBRANCH  20  21
ENDBRANCH  19  20
ENDBRANCH  18  19
ENDBRANCH   1  18
TORSDOF 28
ENDMDL
MODEL 6
REMARK VINA RESULT:    -4.537      3.410     10.133
REMARK INTER + INTRA:         -15.540
REMARK INTER:                 -12.251
REMARK INTRA:                  -3.289
REMARK UNBOUND:                -3.576
REMARK SMILES CCCCCCCCCCCCCCCCCCCCCCCCCCCCCC(=O)[O-]
REMARK SMILES IDX 16 1 17 2 18 3 19 4 20 5 21 6 22 7 23 8 24 9 25 10 26 11
REMARK SMILES IDX 27 12 28 13 29 14 30 15 31 16 32 17 15 18 14 19 13 20 12 21
REMARK SMILES IDX 11 22 10 23 9 24 8 25 7 26 6 27 5 28 4 29 3 30 2 31 1 32
REMARK H PARENT
REMARK Flexibility Score: inf
ROOT
ATOM      1  C   UNL     1     194.947  -1.817 102.288  1.00  0.00     0.000 C 
ENDROOT
BRANCH   1   2
ATOM      2  C   UNL     1     195.377  -2.742 101.134  1.00  0.00     0.000 C 
BRANCH   2   3
ATOM      3  C   UNL     1     194.394  -2.811  99.950  1.00  0.00     0.000 C 
BRANCH   3   4
ATOM      4  C   UNL     1     193.900  -4.239  99.663  1.00  0.00     0.000 C 
BRANCH   4   5
ATOM      5  C   UNL     1     192.380  -4.394  99.857  1.00  0.00     0.000 C 
BRANCH   5   6
ATOM      6  C   UNL     1     191.944  -4.891 101.250  1.00  0.00     0.000 C 
BRANCH   6   7
ATOM      7  C   UNL     1     190.525  -5.487 101.316  1.00  0.00     0.000 C 
BRANCH   7   8
ATOM      8  C   UNL     1     190.431  -6.990 100.978  1.00  0.00     0.000 C 
BRANCH   8   9
ATOM      9  C   UNL     1     189.048  -7.624 101.214  1.00  0.00     0.000 C 
BRANCH   9  10
ATOM     10  C   UNL     1     188.228  -6.887 102.282  1.00  0.00     0.000 C 
BRANCH  10  11
ATOM     11  C   UNL     1     188.488  -7.474 103.676  1.00  0.00     0.000 C 
BRANCH  11  12
ATOM     12  C   UNL     1     188.714  -6.362 104.710  1.00  0.00     0.000 C 
BRANCH  12  13
ATOM     13  C   UNL     1     190.181  -5.902 104.790  1.00  0.00     0.006 C 
BRANCH  13  14
ATOM     14  C   UNL     1     190.351  -4.410 105.129  1.00  0.00     0.053 C 
BRANCH  14  15
ATOM     15  C   UNL     1     190.325  -4.142 106.604  1.00  0.00     0.041 C 
ATOM     16  O   UNL     1     190.998  -4.859 107.393  1.00  0.00    -0.550 OA
ATOM     17  O   UNL     1     189.529  -3.123 107.112  1.00  0.00    -0.550 OA
ENDBRANCH  14  15
ENDBRANCH  13  14
ENDBRANCH  12  13
ENDBRANCH  11  12
ENDBRANCH  10  11
ENDBRANCH   9  10
ENDBRANCH   8   9
ENDBRANCH   7   8
ENDBRANCH   6   7
ENDBRANCH   5   6
ENDBRANCH   4   5
ENDBRANCH   3   4
ENDBRANCH   2   3
ENDBRANCH   1   2
BRANCH   1  18
ATOM     18  C   UNL     1     193.461  -1.967 102.656  1.00  0.00     0.000 C 
BRANCH  18  19
ATOM     19  C   UNL     1     193.226  -1.975 104.174  1.00  0.00     0.000 C 
BRANCH  19  20
ATOM     20  C   UNL     1     192.472  -0.726 104.661  1.00  0.00     0.000 C 
BRANCH  20  21
ATOM     21  C   UNL     1     193.373   0.518 104.752  1.00  0.00     0.000 C 
BRANCH  21  22
ATOM     22  C   UNL     1     192.708   1.834 104.299  1.00  0.00     0.000 C 
BRANCH  22  23
ATOM     23  C   UNL     1     193.410   2.555 103.131  1.00  0.00     0.000 C 
BRANCH  23  24
ATOM     24  C   UNL     1     193.705   1.678 101.902  1.00  0.00    -0.000 C 
BRANCH  24  25
ATOM     25  C   UNL     1     192.430   1.173 101.208  1.00  0.00    -0.000 C 
BRANCH  25  26
ATOM     26  C   UNL     1     192.131   1.914  99.890  1.00  0.00    -0.000 C 
BRANCH  26  27
ATOM     27  C   UNL     1     192.864   3.259  99.713  1.00  0.00    -0.000 C 
BRANCH  27  28
ATOM     28  C   UNL     1     192.174   4.259  98.763  1.00  0.00    -0.000 C 
BRANCH  28  29
ATOM     29  C   UNL     1     190.773   3.835  98.280  1.00  0.00    -0.000 C 
BRANCH  29  30
ATOM     30  C   UNL     1     190.403   4.314  96.865  1.00  0.00    -0.000 C 
BRANCH  30  31
ATOM     31  C   UNL     1     191.151   3.551  95.762  1.00  0.00    -0.003 C 
ATOM     32  C   UNL     1     191.493   4.469  94.592  1.00  0.00     0.004 C 
ENDBRANCH  30  31
ENDBRANCH  29  30
ENDBRANCH  28  29
ENDBRANCH  27  28
ENDBRANCH  26  27
ENDBRANCH  25  26
ENDBRANCH  24  25
ENDBRANCH  23  24
ENDBRANCH  22  23
ENDBRANCH  21  22
ENDBRANCH  20  21
ENDBRANCH  19  20
ENDBRANCH  18  19
ENDBRANCH   1  18
TORSDOF 28
ENDMDL
MODEL 7
REMARK VINA RESULT:    -4.511      2.741      4.393
REMARK INTER + INTRA:         -15.471
REMARK INTER:                 -11.284
REMARK INTRA:                  -4.187
REMARK UNBOUND:                -3.576
REMARK SMILES CCCCCCCCCCCCCCCCCCCCCCCCCCCCCC(=O)[O-]
REMARK SMILES IDX 16 1 17 2 18 3 19 4 20 5 21 6 22 7 23 8 24 9 25 10 26 11
REMARK SMILES IDX 27 12 28 13 29 14 30 15 31 16 32 17 15 18 14 19 13 20 12 21
REMARK SMILES IDX 11 22 10 23 9 24 8 25 7 26 6 27 5 28 4 29 3 30 2 31 1 32
REMARK H PARENT
REMARK Flexibility Score: inf
ROOT
ATOM      1  C   UNL     1     193.005  -1.337 105.000  1.00  0.00     0.000 C 
ENDROOT
BRANCH   1   2
ATOM      2  C   UNL     1     192.909   0.010 105.741  1.00  0.00     0.000 C 
BRANCH   2   3
ATOM      3  C   UNL     1     191.644   0.836 105.437  1.00  0.00     0.000 C 
BRANCH   3   4
ATOM      4  C   UNL     1     191.811   1.767 104.224  1.00  0.00     0.000 C 
BRANCH   4   5
ATOM      5  C   UNL     1     193.219   2.385 104.137  1.00  0.00     0.000 C 
BRANCH   5   6
ATOM      6  C   UNL     1     193.710   2.700 102.710  1.00  0.00     0.000 C 
BRANCH   6   7
ATOM      7  C   UNL     1     193.060   1.858 101.595  1.00  0.00     0.000 C 
BRANCH   7   8
ATOM      8  C   UNL     1     193.195   2.442 100.173  1.00  0.00     0.000 C 
BRANCH   8   9
ATOM      9  C   UNL     1     191.930   2.333  99.303  1.00  0.00     0.000 C 
BRANCH   9  10
ATOM     10  C   UNL     1     191.665   3.597  98.473  1.00  0.00     0.000 C 
BRANCH  10  11
ATOM     11  C   UNL     1     191.401   3.243  97.004  1.00  0.00     0.000 C 
BRANCH  11  12
ATOM     12  C   UNL     1     190.352   4.181  96.390  1.00  0.00     0.000 C 
BRANCH  12  13
ATOM     13  C   UNL     1     189.101   4.345  97.273  1.00  0.00     0.006 C 
BRANCH  13  14
ATOM     14  C   UNL     1     187.912   3.467  96.842  1.00  0.00     0.053 C 
BRANCH  14  15
ATOM     15  C   UNL     1     187.003   4.156  95.869  1.00  0.00     0.041 C 
ATOM     16  O   UNL     1     186.087   3.513  95.288  1.00  0.00    -0.550 OA
ATOM     17  O   UNL     1     187.191   5.500  95.574  1.00  0.00    -0.550 OA
ENDBRANCH  14  15
ENDBRANCH  13  14
ENDBRANCH  12  13
ENDBRANCH  11  12
ENDBRANCH  10  11
ENDBRANCH   9  10
ENDBRANCH   8   9
ENDBRANCH   7   8
ENDBRANCH   6   7
ENDBRANCH   5   6
ENDBRANCH   4   5
ENDBRANCH   3   4
ENDBRANCH   2   3
ENDBRANCH   1   2
BRANCH   1  18
ATOM     18  C   UNL     1     194.395  -1.986 105.110  1.00  0.00     0.000 C 
BRANCH  18  19
ATOM     19  C   UNL     1     195.090  -2.126 103.747  1.00  0.00     0.000 C 
BRANCH  19  20
ATOM     20  C   UNL     1     194.601  -1.084 102.726  1.00  0.00     0.000 C 
BRANCH  20  21
ATOM     21  C   UNL     1     194.695  -1.583 101.273  1.00  0.00     0.000 C 
BRANCH  21  22
ATOM     22  C   UNL     1     193.340  -1.732 100.551  1.00  0.00     0.000 C 
BRANCH  22  23
ATOM     23  C   UNL     1     192.100  -1.679 101.466  1.00  0.00     0.000 C 
BRANCH  23  24
ATOM     24  C   UNL     1     191.599  -3.044 101.969  1.00  0.00    -0.000 C 
BRANCH  24  25
ATOM     25  C   UNL     1     191.745  -4.158 100.919  1.00  0.00    -0.000 C 
BRANCH  25  26
ATOM     26  C   UNL     1     192.502  -5.389 101.453  1.00  0.00    -0.000 C 
BRANCH  26  27
ATOM     27  C   UNL     1     193.941  -5.118 101.935  1.00  0.00    -0.000 C 
BRANCH  27  28
ATOM     28  C   UNL     1     195.045  -5.844 101.142  1.00  0.00    -0.000 C 
BRANCH  28  29
ATOM     29  C   UNL     1     194.801  -5.934  99.622  1.00  0.00    -0.000 C 
BRANCH  29  30
ATOM     30  C   UNL     1     194.956  -4.605  98.860  1.00  0.00    -0.000 C 
BRANCH  30  31
ATOM     31  C   UNL     1     194.156  -4.572  97.550  1.00  0.00    -0.003 C 
ATOM     32  C   UNL     1     194.208  -3.189  96.908  1.00  0.00     0.004 C 
ENDBRANCH  30  31
ENDBRANCH  29  30
ENDBRANCH  28  29
ENDBRANCH  27  28
ENDBRANCH  26  27
ENDBRANCH  25  26
ENDBRANCH  24  25
ENDBRANCH  23  24
ENDBRANCH  22  23
ENDBRANCH  21  22
ENDBRANCH  20  21
ENDBRANCH  19  20
ENDBRANCH  18  19
ENDBRANCH   1  18
TORSDOF 28
ENDMDL
MODEL 8
REMARK VINA RESULT:    -4.498      3.768      9.087
REMARK INTER + INTRA:         -15.437
REMARK INTER:                 -11.638
REMARK INTRA:                  -3.799
REMARK UNBOUND:                -3.576
REMARK SMILES CCCCCCCCCCCCCCCCCCCCCCCCCCCCCC(=O)[O-]
REMARK SMILES IDX 16 1 17 2 18 3 19 4 20 5 21 6 22 7 23 8 24 9 25 10 26 11
REMARK SMILES IDX 27 12 28 13 29 14 30 15 31 16 32 17 15 18 14 19 13 20 12 21
REMARK SMILES IDX 11 22 10 23 9 24 8 25 7 26 6 27 5 28 4 29 3 30 2 31 1 32
REMARK H PARENT
REMARK Flexibility Score: inf
ROOT
ATOM      1  C   UNL     1     192.991   1.875 103.384  1.00  0.00     0.000 C 
ENDROOT
BRANCH   1   2
ATOM      2  C   UNL     1     193.503   1.394 104.755  1.00  0.00     0.000 C 
BRANCH   2   3
ATOM      3  C   UNL     1     192.490   1.513 105.910  1.00  0.00     0.000 C 
BRANCH   3   4
ATOM      4  C   UNL     1     192.001   0.147 106.422  1.00  0.00     0.000 C 
BRANCH   4   5
ATOM      5  C   UNL     1     192.815  -1.030 105.851  1.00  0.00     0.000 C 
BRANCH   5   6
ATOM      6  C   UNL     1     192.046  -1.949 104.881  1.00  0.00     0.000 C 
BRANCH   6   7
ATOM      7  C   UNL     1     192.929  -2.847 103.994  1.00  0.00     0.000 C 
BRANCH   7   8
ATOM      8  C   UNL     1     194.347  -3.112 104.540  1.00  0.00     0.000 C 
BRANCH   8   9
ATOM      9  C   UNL     1     195.494  -2.633 103.631  1.00  0.00     0.000 C 
BRANCH   9  10
ATOM     10  C   UNL     1     195.117  -1.402 102.794  1.00  0.00     0.000 C 
BRANCH  10  11
ATOM     11  C   UNL     1     195.440  -1.628 101.311  1.00  0.00     0.000 C 
BRANCH  11  12
ATOM     12  C   UNL     1     195.621  -3.122 101.007  1.00  0.00     0.000 C 
BRANCH  12  13
ATOM     13  C   UNL     1     194.986  -3.546  99.670  1.00  0.00     0.006 C 
BRANCH  13  14
ATOM     14  C   UNL     1     193.548  -3.035  99.469  1.00  0.00     0.053 C 
BRANCH  14  15
ATOM     15  C   UNL     1     192.513  -4.078  99.766  1.00  0.00     0.041 C 
ATOM     16  O   UNL     1     192.380  -5.077  99.008  1.00  0.00    -0.550 OA
ATOM     17  O   UNL     1     191.669  -3.928 100.859  1.00  0.00    -0.550 OA
ENDBRANCH  14  15
ENDBRANCH  13  14
ENDBRANCH  12  13
ENDBRANCH  11  12
ENDBRANCH  10  11
ENDBRANCH   9  10
ENDBRANCH   8   9
ENDBRANCH   7   8
ENDBRANCH   6   7
ENDBRANCH   5   6
ENDBRANCH   4   5
ENDBRANCH   3   4
ENDBRANCH   2   3
ENDBRANCH   1   2
BRANCH   1  18
ATOM     18  C   UNL     1     191.651   1.234 102.984  1.00  0.00     0.000 C 
BRANCH  18  19
ATOM     19  C   UNL     1     191.795   0.249 101.814  1.00  0.00     0.000 C 
BRANCH  19  20
ATOM     20  C   UNL     1     192.778   0.749 100.740  1.00  0.00     0.000 C 
BRANCH  20  21
ATOM     21  C   UNL     1     192.150   1.788  99.794  1.00  0.00     0.000 C 
BRANCH  21  22
ATOM     22  C   UNL     1     192.805   3.184  99.838  1.00  0.00     0.000 C 
BRANCH  22  23
ATOM     23  C   UNL     1     192.366   4.149  98.719  1.00  0.00     0.000 C 
BRANCH  23  24
ATOM     24  C   UNL     1     191.252   3.622  97.799  1.00  0.00    -0.000 C 
BRANCH  24  25
ATOM     25  C   UNL     1     191.583   3.787  96.306  1.00  0.00    -0.000 C 
BRANCH  25  26
ATOM     26  C   UNL     1     190.350   4.151  95.456  1.00  0.00    -0.000 C 
BRANCH  26  27
ATOM     27  C   UNL     1     188.997   4.068  96.192  1.00  0.00    -0.000 C 
BRANCH  27  28
ATOM     28  C   UNL     1     188.336   5.426  96.498  1.00  0.00    -0.000 C 
BRANCH  28  29
ATOM     29  C   UNL     1     188.124   5.723  97.996  1.00  0.00    -0.000 C 
BRANCH  29  30
ATOM     30  C   UNL     1     186.751   6.322  98.352  1.00  0.00    -0.000 C 
BRANCH  30  31
ATOM     31  C   UNL     1     185.610   5.740  97.505  1.00  0.00    -0.003 C 
ATOM     32  C   UNL     1     185.166   4.382  98.039  1.00  0.00     0.004 C 
ENDBRANCH  30  31
ENDBRANCH  29  30
ENDBRANCH  28  29
ENDBRANCH  27  28
ENDBRANCH  26  27
ENDBRANCH  25  26
ENDBRANCH  24  25
ENDBRANCH  23  24
ENDBRANCH  22  23
ENDBRANCH  21  22
ENDBRANCH  20  21
ENDBRANCH  19  20
ENDBRANCH  18  19
ENDBRANCH   1  18
TORSDOF 28
ENDMDL
MODEL 9
REMARK VINA RESULT:    -4.497      4.608     10.526
REMARK INTER + INTRA:         -15.434
REMARK INTER:                 -11.423
REMARK INTRA:                  -4.011
REMARK UNBOUND:                -3.576
REMARK SMILES CCCCCCCCCCCCCCCCCCCCCCCCCCCCCC(=O)[O-]
REMARK SMILES IDX 16 1 17 2 18 3 19 4 20 5 21 6 22 7 23 8 24 9 25 10 26 11
REMARK SMILES IDX 27 12 28 13 29 14 30 15 31 16 32 17 15 18 14 19 13 20 12 21
REMARK SMILES IDX 11 22 10 23 9 24 8 25 7 26 6 27 5 28 4 29 3 30 2 31 1 32
REMARK H PARENT
REMARK Flexibility Score: inf
ROOT
ATOM      1  C   UNL     1     191.412   3.504  96.272  1.00  0.00     0.000 C 
ENDROOT
BRANCH   1   2
ATOM      2  C   UNL     1     191.617   2.978  97.705  1.00  0.00     0.000 C 
BRANCH   2   3
ATOM      3  C   UNL     1     192.231   3.990  98.692  1.00  0.00     0.000 C 
BRANCH   3   4
ATOM      4  C   UNL     1     192.951   3.316  99.873  1.00  0.00     0.000 C 
BRANCH   4   5
ATOM      5  C   UNL     1     192.350   1.943 100.231  1.00  0.00     0.000 C 
BRANCH   5   6
ATOM      6  C   UNL     1     193.112   1.159 101.319  1.00  0.00     0.000 C 
BRANCH   6   7
ATOM      7  C   UNL     1     193.822   2.027 102.374  1.00  0.00     0.000 C 
BRANCH   7   8
ATOM      8  C   UNL     1     192.907   2.592 103.480  1.00  0.00     0.000 C 
BRANCH   8   9
ATOM      9  C   UNL     1     192.148   1.533 104.299  1.00  0.00     0.000 C 
BRANCH   9  10
ATOM     10  C   UNL     1     193.061   0.744 105.247  1.00  0.00     0.000 C 
BRANCH  10  11
ATOM     11  C   UNL     1     193.129  -0.734 104.839  1.00  0.00     0.000 C 
BRANCH  11  12
ATOM     12  C   UNL     1     194.525  -1.098 104.316  1.00  0.00     0.000 C 
BRANCH  12  13
ATOM     13  C   UNL     1     194.496  -2.181 103.222  1.00  0.00     0.006 C 
BRANCH  13  14
ATOM     14  C   UNL     1     195.255  -1.794 101.939  1.00  0.00     0.053 C 
BRANCH  14  15
ATOM     15  C   UNL     1     194.683  -2.434 100.710  1.00  0.00     0.041 C 
ATOM     16  O   UNL     1     193.467  -2.277 100.417  1.00  0.00    -0.550 OA
ATOM     17  O   UNL     1     195.484  -3.236  99.907  1.00  0.00    -0.550 OA
ENDBRANCH  14  15
ENDBRANCH  13  14
ENDBRANCH  12  13
ENDBRANCH  11  12
ENDBRANCH  10  11
ENDBRANCH   9  10
ENDBRANCH   8   9
ENDBRANCH   7   8
ENDBRANCH   6   7
ENDBRANCH   5   6
ENDBRANCH   4   5
ENDBRANCH   3   4
ENDBRANCH   2   3
ENDBRANCH   1   2
BRANCH   1  18
ATOM     18  C   UNL     1     190.114   4.314  96.110  1.00  0.00     0.000 C 
BRANCH  18  19
ATOM     19  C   UNL     1     188.867   3.522  96.534  1.00  0.00     0.000 C 
BRANCH  19  20
ATOM     20  C   UNL     1     188.227   4.075  97.819  1.00  0.00     0.000 C 
BRANCH  20  21
ATOM     21  C   UNL     1     188.202   5.614  97.859  1.00  0.00     0.000 C 
BRANCH  21  22
ATOM     22  C   UNL     1     187.060   6.221  98.700  1.00  0.00     0.000 C 
BRANCH  22  23
ATOM     23  C   UNL     1     185.772   6.548  97.917  1.00  0.00     0.000 C 
BRANCH  23  24
ATOM     24  C   UNL     1     184.507   5.821  98.405  1.00  0.00    -0.000 C 
BRANCH  24  25
ATOM     25  C   UNL     1     184.730   4.314  98.619  1.00  0.00    -0.000 C 
BRANCH  25  26
ATOM     26  C   UNL     1     183.547   3.458  98.128  1.00  0.00    -0.000 C 
BRANCH  26  27
ATOM     27  C   UNL     1     183.835   2.592  96.885  1.00  0.00    -0.000 C 
BRANCH  27  28
ATOM     28  C   UNL     1     185.260   2.723  96.312  1.00  0.00    -0.000 C 
BRANCH  28  29
ATOM     29  C   UNL     1     185.338   3.332  94.898  1.00  0.00    -0.000 C 
BRANCH  29  30
ATOM     30  C   UNL     1     185.245   4.868  94.847  1.00  0.00    -0.000 C 
BRANCH  30  31
ATOM     31  C   UNL     1     186.559   5.531  94.406  1.00  0.00    -0.003 C 
ATOM     32  C   UNL     1     187.304   4.660  93.399  1.00  0.00     0.004 C 
ENDBRANCH  30  31
ENDBRANCH  29  30
ENDBRANCH  28  29
ENDBRANCH  27  28
ENDBRANCH  26  27
ENDBRANCH  25  26
ENDBRANCH  24  25
ENDBRANCH  23  24
ENDBRANCH  22  23
ENDBRANCH  21  22
ENDBRANCH  20  21
ENDBRANCH  19  20
ENDBRANCH  18  19
ENDBRANCH   1  18
TORSDOF 28
ENDMDL
