MODEL 1
REMARK VINA RESULT:    -6.726      0.000      0.000
REMARK INTER + INTRA:          -6.922
REMARK INTER:                  -6.922
REMARK INTRA:                   0.000
REMARK UNBOUND:                 0.000
REMARK SMILES CC1(C)CC[C@]2(C)CC[C@]3(C)C(=CC[C@H]4[C@@]5(C)CC[C@@H](O)C(C)(C)[C@H]5CC[C@]43C)[C@H]2C1
REMARK SMILES IDX 1 1 2 2 4 3 5 4 6 5 8 6 9 7 10 8 12 9 13 10 14 11 15 12
REMARK SMILES IDX 28 13 27 14 26 15 25 16 16 17 18 18 19 19 20 20 22 21 23 22
REMARK SMILES IDX 24 23 17 24 29 25 30 26 31 27 11 28 7 29 3 30 21 31
REMARK H PARENT 21 32
REMARK Flexibility Score: inf
ROOT
ATOM      1  C   UNL     1      41.925  14.425 114.481  1.00  0.00     0.011 C 
ATOM      2  C   UNL     1      41.470  14.605 113.015  1.00  0.00    -0.035 C 
ATOM      3  C   UNL     1      42.736  14.767 112.125  1.00  0.00     0.007 C 
ATOM      4  C   UNL     1      42.449  14.662 110.612  1.00  0.00     0.008 C 
ATOM      5  C   UNL     1      41.665  13.380 110.214  1.00  0.00    -0.026 C 
ATOM      6  C   UNL     1      41.271  13.494 108.717  1.00  0.00     0.008 C 
ATOM      7  C   UNL     1      40.280  12.402 108.237  1.00  0.00     0.012 C 
ATOM      8  C   UNL     1      38.981  12.216 109.116  1.00  0.00    -0.006 C 
ATOM      9  C   UNL     1      39.493  12.132 110.570  1.00  0.00    -0.064 C 
ATOM     10  C   UNL     1      39.469  10.981 111.256  1.00  0.00    -0.027 C 
ATOM     11  C   UNL     1      38.796   9.742 110.795  1.00  0.00     0.032 C 
ATOM     12  C   UNL     1      38.686   9.584 109.253  1.00  0.00     0.006 C 
ATOM     13  C   UNL     1      38.112  10.915 108.643  1.00  0.00    -0.020 C 
ATOM     14  C   UNL     1      36.614  11.014 109.106  1.00  0.00     0.008 C 
ATOM     15  C   UNL     1      35.834   9.682 109.291  1.00  0.00     0.005 C 
ATOM     16  C   UNL     1      36.372   8.507 108.435  1.00  0.00     0.003 C 
ATOM     17  C   UNL     1      37.904   8.232 108.799  1.00  0.00    -0.025 C 
ATOM     18  C   UNL     1      37.982   7.146 109.937  1.00  0.00     0.010 C 
ATOM     19  C   UNL     1      37.117   5.900 109.739  1.00  0.00     0.033 C 
ATOM     20  C   UNL     1      35.636   6.268 109.561  1.00  0.00     0.120 C 
ATOM     21  C   UNL     1      35.416   7.228 108.361  1.00  0.00    -0.006 C 
ATOM     22  C   UNL     1      33.913   7.632 108.323  1.00  0.00     0.014 C 
ATOM     23  C   UNL     1      35.646   6.445 107.026  1.00  0.00     0.014 C 
ATOM     24  C   UNL     1      38.661   7.665 107.552  1.00  0.00     0.012 C 
ATOM     25  C   UNL     1      38.167  10.876 107.074  1.00  0.00     0.012 C 
ATOM     26  C   UNL     1      40.365  13.300 111.065  1.00  0.00     0.022 C 
ATOM     27  C   UNL     1      40.665  13.343 112.588  1.00  0.00     0.015 C 
ATOM     28  C   UNL     1      38.103  13.506 108.976  1.00  0.00     0.017 C 
ATOM     29  C   UNL     1      42.575  12.130 110.398  1.00  0.00     0.012 C 
ATOM     30  C   UNL     1      40.590  15.877 112.947  1.00  0.00     0.011 C 
ENDROOT
BRANCH  20  31
ATOM     31  O   UNL     1      35.144   6.854 110.744  1.00  0.00    -0.393 OA
ATOM     32  H   UNL     1      35.188   7.842 110.623  1.00  0.00     0.210 HD
ENDBRANCH  20  31
TORSDOF 1
ENDMDL
MODEL 2
REMARK VINA RESULT:    -6.358      2.251      3.343
REMARK INTER + INTRA:          -6.544
REMARK INTER:                  -6.544
REMARK INTRA:                   0.000
REMARK UNBOUND:                 0.000
REMARK SMILES CC1(C)CC[C@]2(C)CC[C@]3(C)C(=CC[C@H]4[C@@]5(C)CC[C@@H](O)C(C)(C)[C@H]5CC[C@]43C)[C@H]2C1
REMARK SMILES IDX 1 1 2 2 4 3 5 4 6 5 8 6 9 7 10 8 12 9 13 10 14 11 15 12
REMARK SMILES IDX 28 13 27 14 26 15 25 16 16 17 18 18 19 19 20 20 22 21 23 22
REMARK SMILES IDX 24 23 17 24 29 25 30 26 31 27 11 28 7 29 3 30 21 31
REMARK H PARENT 21 32
REMARK Flexibility Score: inf
ROOT
ATOM      1  C   UNL     1      39.401  17.000 115.499  1.00  0.00     0.011 C 
ATOM      2  C   UNL     1      40.063  16.614 114.157  1.00  0.00    -0.035 C 
ATOM      3  C   UNL     1      41.366  15.819 114.465  1.00  0.00     0.007 C 
ATOM      4  C   UNL     1      41.972  15.121 113.230  1.00  0.00     0.008 C 
ATOM      5  C   UNL     1      40.959  14.228 112.459  1.00  0.00    -0.026 C 
ATOM      6  C   UNL     1      41.633  13.750 111.144  1.00  0.00     0.008 C 
ATOM      7  C   UNL     1      40.666  13.048 110.156  1.00  0.00     0.012 C 
ATOM      8  C   UNL     1      39.337  13.830 109.818  1.00  0.00    -0.006 C 
ATOM      9  C   UNL     1      38.773  14.265 111.188  1.00  0.00    -0.064 C 
ATOM     10  C   UNL     1      37.672  13.700 111.703  1.00  0.00    -0.027 C 
ATOM     11  C   UNL     1      36.783  12.768 110.967  1.00  0.00     0.032 C 
ATOM     12  C   UNL     1      37.473  11.944 109.845  1.00  0.00     0.006 C 
ATOM     13  C   UNL     1      38.306  12.920 108.936  1.00  0.00    -0.020 C 
ATOM     14  C   UNL     1      37.269  13.804 108.153  1.00  0.00     0.008 C 
ATOM     15  C   UNL     1      35.907  13.150 107.786  1.00  0.00     0.005 C 
ATOM     16  C   UNL     1      35.957  11.606 107.660  1.00  0.00     0.003 C 
ATOM     17  C   UNL     1      36.450  10.969 109.041  1.00  0.00    -0.025 C 
ATOM     18  C   UNL     1      35.197  10.633 109.935  1.00  0.00     0.010 C 
ATOM     19  C   UNL     1      34.051   9.896 109.239  1.00  0.00     0.033 C 
ATOM     20  C   UNL     1      33.543  10.676 108.017  1.00  0.00     0.120 C 
ATOM     21  C   UNL     1      34.671  10.938 106.984  1.00  0.00    -0.006 C 
ATOM     22  C   UNL     1      34.096  11.823 105.840  1.00  0.00     0.014 C 
ATOM     23  C   UNL     1      35.053   9.592 106.285  1.00  0.00     0.014 C 
ATOM     24  C   UNL     1      37.212   9.628 108.774  1.00  0.00     0.012 C 
ATOM     25  C   UNL     1      39.177  12.113 107.907  1.00  0.00     0.012 C 
ATOM     26  C   UNL     1      39.711  15.081 112.096  1.00  0.00     0.022 C 
ATOM     27  C   UNL     1      39.067  15.731 113.351  1.00  0.00     0.015 C 
ATOM     28  C   UNL     1      39.715  15.119 109.010  1.00  0.00     0.017 C 
ATOM     29  C   UNL     1      40.600  12.981 113.318  1.00  0.00     0.012 C 
ATOM     30  C   UNL     1      40.390  17.923 113.398  1.00  0.00     0.011 C 
ENDROOT
BRANCH  20  31
ATOM     31  O   UNL     1      32.976  11.897 108.432  1.00  0.00    -0.393 OA
ATOM     32  H   UNL     1      32.443  11.710 109.254  1.00  0.00     0.210 HD
ENDBRANCH  20  31
TORSDOF 1
ENDMDL
MODEL 3
REMARK VINA RESULT:    -6.237      1.133      1.382
REMARK INTER + INTRA:          -6.419
REMARK INTER:                  -6.419
REMARK INTRA:                   0.000
REMARK UNBOUND:                 0.000
REMARK SMILES CC1(C)CC[C@]2(C)CC[C@]3(C)C(=CC[C@H]4[C@@]5(C)CC[C@@H](O)C(C)(C)[C@H]5CC[C@]43C)[C@H]2C1
REMARK SMILES IDX 1 1 2 2 4 3 5 4 6 5 8 6 9 7 10 8 12 9 13 10 14 11 15 12
REMARK SMILES IDX 28 13 27 14 26 15 25 16 16 17 18 18 19 19 20 20 22 21 23 22
REMARK SMILES IDX 24 23 17 24 29 25 30 26 31 27 11 28 7 29 3 30 21 31
REMARK H PARENT 21 32
REMARK Flexibility Score: inf
ROOT
ATOM      1  C   UNL     1      41.894  14.284 114.309  1.00  0.00     0.011 C 
ATOM      2  C   UNL     1      40.829  14.651 113.250  1.00  0.00    -0.035 C 
ATOM      3  C   UNL     1      41.521  15.470 112.122  1.00  0.00     0.007 C 
ATOM      4  C   UNL     1      40.649  15.652 110.863  1.00  0.00     0.008 C 
ATOM      5  C   UNL     1      40.085  14.317 110.298  1.00  0.00    -0.026 C 
ATOM      6  C   UNL     1      39.075  14.654 109.167  1.00  0.00     0.008 C 
ATOM      7  C   UNL     1      38.253  13.437 108.669  1.00  0.00     0.012 C 
ATOM      8  C   UNL     1      37.533  12.587 109.789  1.00  0.00    -0.006 C 
ATOM      9  C   UNL     1      38.620  12.331 110.854  1.00  0.00    -0.064 C 
ATOM     10  C   UNL     1      39.155  11.115 111.031  1.00  0.00    -0.027 C 
ATOM     11  C   UNL     1      38.651   9.874 110.392  1.00  0.00     0.032 C 
ATOM     12  C   UNL     1      37.933  10.079 109.028  1.00  0.00     0.006 C 
ATOM     13  C   UNL     1      36.868  11.225 109.180  1.00  0.00    -0.020 C 
ATOM     14  C   UNL     1      35.731  10.665 110.109  1.00  0.00     0.008 C 
ATOM     15  C   UNL     1      35.431   9.141 110.030  1.00  0.00     0.005 C 
ATOM     16  C   UNL     1      35.805   8.489 108.675  1.00  0.00     0.003 C 
ATOM     17  C   UNL     1      37.364   8.697 108.388  1.00  0.00    -0.025 C 
ATOM     18  C   UNL     1      38.165   7.462 108.949  1.00  0.00     0.010 C 
ATOM     19  C   UNL     1      37.607   6.081 108.598  1.00  0.00     0.033 C 
ATOM     20  C   UNL     1      36.152   5.930 109.064  1.00  0.00     0.120 C 
ATOM     21  C   UNL     1      35.228   7.015 108.449  1.00  0.00    -0.006 C 
ATOM     22  C   UNL     1      33.804   6.853 109.057  1.00  0.00     0.014 C 
ATOM     23  C   UNL     1      35.038   6.726 106.923  1.00  0.00     0.014 C 
ATOM     24  C   UNL     1      37.623   8.767 106.846  1.00  0.00     0.012 C 
ATOM     25  C   UNL     1      36.254  11.602 107.783  1.00  0.00     0.012 C 
ATOM     26  C   UNL     1      39.329  13.570 111.433  1.00  0.00     0.022 C 
ATOM     27  C   UNL     1      40.231  13.335 112.675  1.00  0.00     0.015 C 
ATOM     28  C   UNL     1      36.410  13.471 110.434  1.00  0.00     0.017 C 
ATOM     29  C   UNL     1      41.245  13.471 109.697  1.00  0.00     0.012 C 
ATOM     30  C   UNL     1      39.740  15.500 113.950  1.00  0.00     0.011 C 
ENDROOT
BRANCH  20  31
ATOM     31  O   UNL     1      36.092   5.986 110.470  1.00  0.00    -0.393 OA
ATOM     32  H   UNL     1      36.900   6.481 110.779  1.00  0.00     0.210 HD
ENDBRANCH  20  31
TORSDOF 1
ENDMDL
MODEL 4
REMARK VINA RESULT:    -6.194      2.295      8.081
REMARK INTER + INTRA:          -6.375
REMARK INTER:                  -6.375
REMARK INTRA:                   0.000
REMARK UNBOUND:                 0.000
REMARK SMILES CC1(C)CC[C@]2(C)CC[C@]3(C)C(=CC[C@H]4[C@@]5(C)CC[C@@H](O)C(C)(C)[C@H]5CC[C@]43C)[C@H]2C1
REMARK SMILES IDX 1 1 2 2 4 3 5 4 6 5 8 6 9 7 10 8 12 9 13 10 14 11 15 12
REMARK SMILES IDX 28 13 27 14 26 15 25 16 16 17 18 18 19 19 20 20 22 21 23 22
REMARK SMILES IDX 24 23 17 24 29 25 30 26 31 27 11 28 7 29 3 30 21 31
REMARK H PARENT 21 32
REMARK Flexibility Score: inf
ROOT
ATOM      1  C   UNL     1      38.016   3.440 107.583  1.00  0.00     0.011 C 
ATOM      2  C   UNL     1      37.406   4.712 106.950  1.00  0.00    -0.035 C 
ATOM      3  C   UNL     1      35.861   4.652 107.121  1.00  0.00     0.007 C 
ATOM      4  C   UNL     1      35.149   5.983 106.801  1.00  0.00     0.008 C 
ATOM      5  C   UNL     1      35.734   7.203 107.568  1.00  0.00    -0.026 C 
ATOM      6  C   UNL     1      35.071   8.492 107.012  1.00  0.00     0.008 C 
ATOM      7  C   UNL     1      35.726   9.807 107.511  1.00  0.00     0.012 C 
ATOM      8  C   UNL     1      37.293   9.902 107.346  1.00  0.00    -0.006 C 
ATOM      9  C   UNL     1      37.834   8.571 107.912  1.00  0.00    -0.064 C 
ATOM     10  C   UNL     1      38.499   8.523 109.074  1.00  0.00    -0.027 C 
ATOM     11  C   UNL     1      38.953   9.714 109.833  1.00  0.00     0.032 C 
ATOM     12  C   UNL     1      38.099  10.995 109.624  1.00  0.00     0.006 C 
ATOM     13  C   UNL     1      37.899  11.229 108.082  1.00  0.00    -0.020 C 
ATOM     14  C   UNL     1      39.303  11.629 107.500  1.00  0.00     0.008 C 
ATOM     15  C   UNL     1      40.260  12.427 108.431  1.00  0.00     0.005 C 
ATOM     16  C   UNL     1      39.538  13.254 109.525  1.00  0.00     0.003 C 
ATOM     17  C   UNL     1      38.660  12.283 110.443  1.00  0.00    -0.025 C 
ATOM     18  C   UNL     1      39.521  11.816 111.677  1.00  0.00     0.010 C 
ATOM     19  C   UNL     1      40.285  12.913 112.419  1.00  0.00     0.033 C 
ATOM     20  C   UNL     1      41.223  13.680 111.475  1.00  0.00     0.120 C 
ATOM     21  C   UNL     1      40.456  14.319 110.287  1.00  0.00    -0.006 C 
ATOM     22  C   UNL     1      41.492  14.978 109.329  1.00  0.00     0.014 C 
ATOM     23  C   UNL     1      39.593  15.513 110.812  1.00  0.00     0.014 C 
ATOM     24  C   UNL     1      37.414  13.049 110.999  1.00  0.00     0.012 C 
ATOM     25  C   UNL     1      36.882  12.398 107.824  1.00  0.00     0.012 C 
ATOM     26  C   UNL     1      37.265   7.277 107.302  1.00  0.00     0.022 C 
ATOM     27  C   UNL     1      37.985   5.955 107.685  1.00  0.00     0.015 C 
ATOM     28  C   UNL     1      37.626   9.957 105.816  1.00  0.00     0.017 C 
ATOM     29  C   UNL     1      35.397   7.080 109.082  1.00  0.00     0.012 C 
ATOM     30  C   UNL     1      37.788   4.722 105.450  1.00  0.00     0.011 C 
ENDROOT
BRANCH  20  31
ATOM     31  O   UNL     1      42.226  12.816 110.993  1.00  0.00    -0.393 OA
ATOM     32  H   UNL     1      42.919  13.385 110.556  1.00  0.00     0.210 HD
ENDBRANCH  20  31
TORSDOF 1
ENDMDL
MODEL 5
REMARK VINA RESULT:    -6.155      2.206      7.938
REMARK INTER + INTRA:          -6.335
REMARK INTER:                  -6.335
REMARK INTRA:                   0.000
REMARK UNBOUND:                 0.000
REMARK SMILES CC1(C)CC[C@]2(C)CC[C@]3(C)C(=CC[C@H]4[C@@]5(C)CC[C@@H](O)C(C)(C)[C@H]5CC[C@]43C)[C@H]2C1
REMARK SMILES IDX 1 1 2 2 4 3 5 4 6 5 8 6 9 7 10 8 12 9 13 10 14 11 15 12
REMARK SMILES IDX 28 13 27 14 26 15 25 16 16 17 18 18 19 19 20 20 22 21 23 22
REMARK SMILES IDX 24 23 17 24 29 25 30 26 31 27 11 28 7 29 3 30 21 31
REMARK H PARENT 21 32
REMARK Flexibility Score: inf
ROOT
ATOM      1  C   UNL     1      37.399   4.585 109.005  1.00  0.00     0.011 C 
ATOM      2  C   UNL     1      37.358   5.779 108.026  1.00  0.00    -0.035 C 
ATOM      3  C   UNL     1      35.884   5.991 107.573  1.00  0.00     0.007 C 
ATOM      4  C   UNL     1      35.649   7.322 106.829  1.00  0.00     0.008 C 
ATOM      5  C   UNL     1      36.165   8.568 107.602  1.00  0.00    -0.026 C 
ATOM      6  C   UNL     1      36.051   9.804 106.668  1.00  0.00     0.008 C 
ATOM      7  C   UNL     1      36.748  11.077 107.214  1.00  0.00     0.012 C 
ATOM      8  C   UNL     1      38.247  10.897 107.677  1.00  0.00    -0.006 C 
ATOM      9  C   UNL     1      38.238   9.642 108.576  1.00  0.00    -0.064 C 
ATOM     10  C   UNL     1      38.404   9.730 109.903  1.00  0.00    -0.027 C 
ATOM     11  C   UNL     1      38.798  10.968 110.620  1.00  0.00     0.032 C 
ATOM     12  C   UNL     1      38.382  12.295 109.926  1.00  0.00     0.006 C 
ATOM     13  C   UNL     1      38.816  12.238 108.416  1.00  0.00    -0.020 C 
ATOM     14  C   UNL     1      40.387  12.294 108.395  1.00  0.00     0.008 C 
ATOM     15  C   UNL     1      41.087  13.109 109.519  1.00  0.00     0.005 C 
ATOM     16  C   UNL     1      40.215  14.241 110.120  1.00  0.00     0.003 C 
ATOM     17  C   UNL     1      38.872  13.621 110.728  1.00  0.00    -0.025 C 
ATOM     18  C   UNL     1      39.097  13.289 112.252  1.00  0.00     0.010 C 
ATOM     19  C   UNL     1      39.757  14.385 113.090  1.00  0.00     0.033 C 
ATOM     20  C   UNL     1      41.119  14.792 112.508  1.00  0.00     0.120 C 
ATOM     21  C   UNL     1      41.000  15.286 111.041  1.00  0.00    -0.006 C 
ATOM     22  C   UNL     1      42.431  15.571 110.500  1.00  0.00     0.014 C 
ATOM     23  C   UNL     1      40.288  16.679 111.023  1.00  0.00     0.014 C 
ATOM     24  C   UNL     1      37.709  14.664 110.639  1.00  0.00     0.012 C 
ATOM     25  C   UNL     1      38.246  13.471 107.627  1.00  0.00     0.012 C 
ATOM     26  C   UNL     1      37.663   8.354 107.961  1.00  0.00     0.022 C 
ATOM     27  C   UNL     1      37.885   7.043 108.764  1.00  0.00     0.015 C 
ATOM     28  C   UNL     1      39.120  10.590 106.412  1.00  0.00     0.017 C 
ATOM     29  C   UNL     1      35.279   8.808 108.859  1.00  0.00     0.012 C 
ATOM     30  C   UNL     1      38.254   5.426 106.813  1.00  0.00     0.011 C 
ENDROOT
BRANCH  20  31
ATOM     31  O   UNL     1      42.013  13.706 112.580  1.00  0.00    -0.393 OA
ATOM     32  H   UNL     1      41.464  12.874 112.611  1.00  0.00     0.210 HD
ENDBRANCH  20  31
TORSDOF 1
ENDMDL
MODEL 6
REMARK VINA RESULT:    -6.148      1.531      2.088
REMARK INTER + INTRA:          -6.327
REMARK INTER:                  -6.327
REMARK INTRA:                   0.000
REMARK UNBOUND:                 0.000
REMARK SMILES CC1(C)CC[C@]2(C)CC[C@]3(C)C(=CC[C@H]4[C@@]5(C)CC[C@@H](O)C(C)(C)[C@H]5CC[C@]43C)[C@H]2C1
REMARK SMILES IDX 1 1 2 2 4 3 5 4 6 5 8 6 9 7 10 8 12 9 13 10 14 11 15 12
REMARK SMILES IDX 28 13 27 14 26 15 25 16 16 17 18 18 19 19 20 20 22 21 23 22
REMARK SMILES IDX 24 23 17 24 29 25 30 26 31 27 11 28 7 29 3 30 21 31
REMARK H PARENT 21 32
REMARK Flexibility Score: inf
ROOT
ATOM      1  C   UNL     1      42.216  13.347 114.801  1.00  0.00     0.011 C 
ATOM      2  C   UNL     1      41.637  14.156 113.618  1.00  0.00    -0.035 C 
ATOM      3  C   UNL     1      42.816  14.596 112.702  1.00  0.00     0.007 C 
ATOM      4  C   UNL     1      42.365  15.156 111.336  1.00  0.00     0.008 C 
ATOM      5  C   UNL     1      41.399  14.213 110.564  1.00  0.00    -0.026 C 
ATOM      6  C   UNL     1      40.870  14.971 109.317  1.00  0.00     0.008 C 
ATOM      7  C   UNL     1      39.715  14.247 108.579  1.00  0.00     0.012 C 
ATOM      8  C   UNL     1      38.500  13.792 109.479  1.00  0.00    -0.006 C 
ATOM      9  C   UNL     1      39.145  13.072 110.683  1.00  0.00    -0.064 C 
ATOM     10  C   UNL     1      39.057  11.744 110.834  1.00  0.00    -0.027 C 
ATOM     11  C   UNL     1      38.199  10.859 110.007  1.00  0.00     0.032 C 
ATOM     12  C   UNL     1      37.914  11.371 108.568  1.00  0.00     0.006 C 
ATOM     13  C   UNL     1      37.441  12.869 108.645  1.00  0.00    -0.020 C 
ATOM     14  C   UNL     1      36.019  12.859 109.315  1.00  0.00     0.008 C 
ATOM     15  C   UNL     1      35.113  11.625 109.048  1.00  0.00     0.005 C 
ATOM     16  C   UNL     1      35.419  10.888 107.719  1.00  0.00     0.003 C 
ATOM     17  C   UNL     1      36.937  10.389 107.717  1.00  0.00    -0.025 C 
ATOM     18  C   UNL     1      37.003   8.922 108.288  1.00  0.00     0.010 C 
ATOM     19  C   UNL     1      35.983   7.933 107.722  1.00  0.00     0.033 C 
ATOM     20  C   UNL     1      34.545   8.435 107.923  1.00  0.00     0.120 C 
ATOM     21  C   UNL     1      34.316   9.822 107.265  1.00  0.00    -0.006 C 
ATOM     22  C   UNL     1      32.875  10.299 107.610  1.00  0.00     0.014 C 
ATOM     23  C   UNL     1      34.315   9.661 105.709  1.00  0.00     0.014 C 
ATOM     24  C   UNL     1      37.490  10.351 106.254  1.00  0.00     0.012 C 
ATOM     25  C   UNL     1      37.329  13.490 107.206  1.00  0.00     0.012 C 
ATOM     26  C   UNL     1      40.194  13.865 111.483  1.00  0.00     0.022 C 
ATOM     27  C   UNL     1      40.651  13.244 112.831  1.00  0.00     0.015 C 
ATOM     28  C   UNL     1      37.769  15.074 110.006  1.00  0.00     0.017 C 
ATOM     29  C   UNL     1      42.171  12.947 110.090  1.00  0.00     0.012 C 
ATOM     30  C   UNL     1      40.910  15.392 114.202  1.00  0.00     0.011 C 
ENDROOT
BRANCH  20  31
ATOM     31  O   UNL     1      34.249   8.498 109.298  1.00  0.00    -0.393 OA
ATOM     32  H   UNL     1      33.258   8.429 109.389  1.00  0.00     0.210 HD
ENDBRANCH  20  31
TORSDOF 1
ENDMDL
MODEL 7
REMARK VINA RESULT:    -6.138      4.400      7.314
REMARK INTER + INTRA:          -6.318
REMARK INTER:                  -6.318
REMARK INTRA:                   0.000
REMARK UNBOUND:                 0.000
REMARK SMILES CC1(C)CC[C@]2(C)CC[C@]3(C)C(=CC[C@H]4[C@@]5(C)CC[C@@H](O)C(C)(C)[C@H]5CC[C@]43C)[C@H]2C1
REMARK SMILES IDX 1 1 2 2 4 3 5 4 6 5 8 6 9 7 10 8 12 9 13 10 14 11 15 12
REMARK SMILES IDX 28 13 27 14 26 15 25 16 16 17 18 18 19 19 20 20 22 21 23 22
REMARK SMILES IDX 24 23 17 24 29 25 30 26 31 27 11 28 7 29 3 30 21 31
REMARK H PARENT 21 32
REMARK Flexibility Score: inf
ROOT
ATOM      1  C   UNL     1      43.760   9.504 112.984  1.00  0.00     0.011 C 
ATOM      2  C   UNL     1      42.405  10.247 112.978  1.00  0.00    -0.035 C 
ATOM      3  C   UNL     1      42.313  11.109 114.270  1.00  0.00     0.007 C 
ATOM      4  C   UNL     1      41.151  12.124 114.257  1.00  0.00     0.008 C 
ATOM      5  C   UNL     1      41.129  13.031 112.994  1.00  0.00    -0.026 C 
ATOM      6  C   UNL     1      39.814  13.857 113.009  1.00  0.00     0.008 C 
ATOM      7  C   UNL     1      39.538  14.632 111.695  1.00  0.00     0.012 C 
ATOM      8  C   UNL     1      39.618  13.783 110.365  1.00  0.00    -0.006 C 
ATOM      9  C   UNL     1      40.944  13.000 110.472  1.00  0.00    -0.064 C 
ATOM     10  C   UNL     1      42.000  13.304 109.704  1.00  0.00    -0.027 C 
ATOM     11  C   UNL     1      41.967  14.257 108.567  1.00  0.00     0.032 C 
ATOM     12  C   UNL     1      40.897  15.379 108.677  1.00  0.00     0.006 C 
ATOM     13  C   UNL     1      39.511  14.729 109.037  1.00  0.00    -0.020 C 
ATOM     14  C   UNL     1      39.054  13.913 107.774  1.00  0.00     0.008 C 
ATOM     15  C   UNL     1      39.475  14.459 106.381  1.00  0.00     0.005 C 
ATOM     16  C   UNL     1      39.723  15.989 106.347  1.00  0.00     0.003 C 
ATOM     17  C   UNL     1      40.873  16.372 107.390  1.00  0.00    -0.025 C 
ATOM     18  C   UNL     1      42.267  16.353 106.656  1.00  0.00     0.010 C 
ATOM     19  C   UNL     1      42.329  17.077 105.310  1.00  0.00     0.033 C 
ATOM     20  C   UNL     1      41.290  16.520 104.326  1.00  0.00     0.120 C 
ATOM     21  C   UNL     1      39.846  16.624 104.884  1.00  0.00    -0.006 C 
ATOM     22  C   UNL     1      38.877  15.941 103.875  1.00  0.00     0.014 C 
ATOM     23  C   UNL     1      39.405  18.125 104.897  1.00  0.00     0.014 C 
ATOM     24  C   UNL     1      40.645  17.821 107.935  1.00  0.00     0.012 C 
ATOM     25  C   UNL     1      38.443  15.837 109.350  1.00  0.00     0.012 C 
ATOM     26  C   UNL     1      41.135  12.130 111.727  1.00  0.00     0.022 C 
ATOM     27  C   UNL     1      42.343  11.153 111.715  1.00  0.00     0.015 C 
ATOM     28  C   UNL     1      38.437  12.753 110.366  1.00  0.00     0.017 C 
ATOM     29  C   UNL     1      42.337  14.013 113.034  1.00  0.00     0.012 C 
ATOM     30  C   UNL     1      41.283   9.180 112.955  1.00  0.00     0.011 C 
ENDROOT
BRANCH  20  31
ATOM     31  O   UNL     1      41.593  15.179 104.019  1.00  0.00    -0.393 OA
ATOM     32  H   UNL     1      40.727  14.709 103.866  1.00  0.00     0.210 HD
ENDBRANCH  20  31
TORSDOF 1
ENDMDL
MODEL 8
REMARK VINA RESULT:    -6.104      6.759     10.040
REMARK INTER + INTRA:          -6.282
REMARK INTER:                  -6.282
REMARK INTRA:                   0.000
REMARK UNBOUND:                 0.000
REMARK SMILES CC1(C)CC[C@]2(C)CC[C@]3(C)C(=CC[C@H]4[C@@]5(C)CC[C@@H](O)C(C)(C)[C@H]5CC[C@]43C)[C@H]2C1
REMARK SMILES IDX 1 1 2 2 4 3 5 4 6 5 8 6 9 7 10 8 12 9 13 10 14 11 15 12
REMARK SMILES IDX 28 13 27 14 26 15 25 16 16 17 18 18 19 19 20 20 22 21 23 22
REMARK SMILES IDX 24 23 17 24 29 25 30 26 31 27 11 28 7 29 3 30 21 31
REMARK H PARENT 21 32
REMARK Flexibility Score: inf
ROOT
ATOM      1  C   UNL     1      41.101  -2.123 112.504  1.00  0.00     0.011 C 
ATOM      2  C   UNL     1      40.035  -1.162 113.078  1.00  0.00    -0.035 C 
ATOM      3  C   UNL     1      40.733  -0.204 114.088  1.00  0.00     0.007 C 
ATOM      4  C   UNL     1      39.856   0.991 114.516  1.00  0.00     0.008 C 
ATOM      5  C   UNL     1      39.270   1.794 113.320  1.00  0.00    -0.026 C 
ATOM      6  C   UNL     1      38.259   2.832 113.879  1.00  0.00     0.008 C 
ATOM      7  C   UNL     1      37.416   3.545 112.790  1.00  0.00     0.012 C 
ATOM      8  C   UNL     1      36.690   2.601 111.752  1.00  0.00    -0.006 C 
ATOM      9  C   UNL     1      37.780   1.612 111.285  1.00  0.00    -0.064 C 
ATOM     10  C   UNL     1      38.297   1.673 110.050  1.00  0.00    -0.027 C 
ATOM     11  C   UNL     1      37.772   2.532 108.960  1.00  0.00     0.032 C 
ATOM     12  C   UNL     1      37.050   3.826 109.429  1.00  0.00     0.006 C 
ATOM     13  C   UNL     1      36.002   3.451 110.539  1.00  0.00    -0.020 C 
ATOM     14  C   UNL     1      34.862   2.636 109.827  1.00  0.00     0.008 C 
ATOM     15  C   UNL     1      34.541   2.999 108.350  1.00  0.00     0.005 C 
ATOM     16  C   UNL     1      34.897   4.457 107.963  1.00  0.00     0.003 C 
ATOM     17  C   UNL     1      36.457   4.712 108.200  1.00  0.00    -0.025 C 
ATOM     18  C   UNL     1      37.243   4.402 106.871  1.00  0.00     0.010 C 
ATOM     19  C   UNL     1      36.664   5.004 105.590  1.00  0.00     0.033 C 
ATOM     20  C   UNL     1      35.209   4.563 105.372  1.00  0.00     0.120 C 
ATOM     21  C   UNL     1      34.297   4.954 106.566  1.00  0.00    -0.006 C 
ATOM     22  C   UNL     1      32.875   4.375 106.310  1.00  0.00     0.014 C 
ATOM     23  C   UNL     1      34.095   6.505 106.574  1.00  0.00     0.014 C 
ATOM     24  C   UNL     1      36.709   6.214 108.558  1.00  0.00     0.012 C 
ATOM     25  C   UNL     1      35.386   4.746 111.181  1.00  0.00     0.012 C 
ATOM     26  C   UNL     1      38.509   0.815 112.381  1.00  0.00     0.022 C 
ATOM     27  C   UNL     1      39.415  -0.352 111.903  1.00  0.00     0.015 C 
ATOM     28  C   UNL     1      35.584   1.791 112.512  1.00  0.00     0.017 C 
ATOM     29  C   UNL     1      40.414   2.554 112.589  1.00  0.00     0.012 C 
ATOM     30  C   UNL     1      38.963  -2.019 113.794  1.00  0.00     0.011 C 
ENDROOT
BRANCH  20  31
ATOM     31  O   UNL     1      35.158   3.171 105.161  1.00  0.00    -0.393 OA
ATOM     32  H   UNL     1      35.748   2.970 104.383  1.00  0.00     0.210 HD
ENDBRANCH  20  31
TORSDOF 1
ENDMDL
MODEL 9
REMARK VINA RESULT:    -5.846      5.088      9.344
REMARK INTER + INTRA:          -6.017
REMARK INTER:                  -6.017
REMARK INTRA:                   0.000
REMARK UNBOUND:                 0.000
REMARK SMILES CC1(C)CC[C@]2(C)CC[C@]3(C)C(=CC[C@H]4[C@@]5(C)CC[C@@H](O)C(C)(C)[C@H]5CC[C@]43C)[C@H]2C1
REMARK SMILES IDX 1 1 2 2 4 3 5 4 6 5 8 6 9 7 10 8 12 9 13 10 14 11 15 12
REMARK SMILES IDX 28 13 27 14 26 15 25 16 16 17 18 18 19 19 20 20 22 21 23 22
REMARK SMILES IDX 24 23 17 24 29 25 30 26 31 27 11 28 7 29 3 30 21 31
REMARK H PARENT 21 32
REMARK Flexibility Score: inf
ROOT
ATOM      1  C   UNL     1      42.250   1.250 114.000  1.00  0.00     0.011 C 
ATOM      2  C   UNL     1      40.762   0.917 113.749  1.00  0.00    -0.035 C 
ATOM      3  C   UNL     1      40.072   0.689 115.125  1.00  0.00     0.007 C 
ATOM      4  C   UNL     1      38.532   0.638 115.046  1.00  0.00     0.008 C 
ATOM      5  C   UNL     1      37.904   1.861 114.318  1.00  0.00    -0.026 C 
ATOM      6  C   UNL     1      36.386   1.592 114.132  1.00  0.00     0.008 C 
ATOM      7  C   UNL     1      35.670   2.614 113.212  1.00  0.00     0.012 C 
ATOM      8  C   UNL     1      36.342   2.864 111.805  1.00  0.00    -0.006 C 
ATOM      9  C   UNL     1      37.836   3.100 112.114  1.00  0.00    -0.064 C 
ATOM     10  C   UNL     1      38.392   4.313 111.993  1.00  0.00    -0.027 C 
ATOM     11  C   UNL     1      37.723   5.489 111.384  1.00  0.00     0.032 C 
ATOM     12  C   UNL     1      36.172   5.490 111.485  1.00  0.00     0.006 C 
ATOM     13  C   UNL     1      35.628   4.096 111.004  1.00  0.00    -0.020 C 
ATOM     14  C   UNL     1      35.892   4.017 109.456  1.00  0.00     0.008 C 
ATOM     15  C   UNL     1      35.835   5.348 108.654  1.00  0.00     0.005 C 
ATOM     16  C   UNL     1      34.945   6.441 109.299  1.00  0.00     0.003 C 
ATOM     17  C   UNL     1      35.482   6.777 110.767  1.00  0.00    -0.025 C 
ATOM     18  C   UNL     1      36.505   7.972 110.685  1.00  0.00     0.010 C 
ATOM     19  C   UNL     1      36.067   9.177 109.851  1.00  0.00     0.033 C 
ATOM     20  C   UNL     1      35.730   8.768 108.410  1.00  0.00     0.120 C 
ATOM     21  C   UNL     1      34.614   7.690 108.357  1.00  0.00    -0.006 C 
ATOM     22  C   UNL     1      34.415   7.258 106.875  1.00  0.00     0.014 C 
ATOM     23  C   UNL     1      33.250   8.339 108.764  1.00  0.00     0.014 C 
ATOM     24  C   UNL     1      34.298   7.230 111.684  1.00  0.00     0.012 C 
ATOM     25  C   UNL     1      34.084   3.979 111.270  1.00  0.00     0.012 C 
ATOM     26  C   UNL     1      38.559   2.003 112.915  1.00  0.00     0.022 C 
ATOM     27  C   UNL     1      40.106   2.116 113.006  1.00  0.00     0.015 C 
ATOM     28  C   UNL     1      36.216   1.551 110.958  1.00  0.00     0.017 C 
ATOM     29  C   UNL     1      38.082   3.138 115.191  1.00  0.00     0.012 C 
ATOM     30  C   UNL     1      40.704  -0.371 112.891  1.00  0.00     0.011 C 
ENDROOT
BRANCH  20  31
ATOM     31  O   UNL     1      36.888   8.294 107.763  1.00  0.00    -0.393 OA
ATOM     32  H   UNL     1      36.685   7.377 107.430  1.00  0.00     0.210 HD
ENDBRANCH  20  31
TORSDOF 1
ENDMDL
