MODEL 1
REMARK VINA RESULT:    -4.304      0.000      0.000
REMARK INTER + INTRA:          -5.702
REMARK INTER:                  -5.311
REMARK INTRA:                  -0.391
REMARK UNBOUND:                -0.391
REMARK SMILES C=CC[C@@H](C)C(=O)CC
REMARK SMILES IDX 4 1 5 2 6 3 7 4 8 5 9 6 3 7 2 8 1 9
REMARK H PARENT
REMARK Flexibility Score: inf
ROOT
ATOM      1  C   UNL     1     143.277 141.230 114.608  1.00  0.00     0.057 C 
ATOM      2  C   UNL     1     144.490 140.676 113.850  1.00  0.00     0.016 C 
ENDROOT
BRANCH   1   3
ATOM      3  C   UNL     1     142.592 142.293 113.776  1.00  0.00     0.135 C 
ATOM      4  O   UNL     1     142.551 142.175 112.559  1.00  0.00    -0.299 OA
BRANCH   3   5
ATOM      5  C   UNL     1     141.948 143.493 114.419  1.00  0.00     0.072 C 
ATOM      6  C   UNL     1     140.438 143.309 114.515  1.00  0.00     0.012 C 
ENDBRANCH   3   5
ENDBRANCH   1   3
BRANCH   1   7
ATOM      7  C   UNL     1     142.272 140.115 114.971  1.00  0.00     0.038 C 
BRANCH   7   8
ATOM      8  C   UNL     1     142.156 139.909 116.458  1.00  0.00    -0.034 C 
ATOM      9  C   UNL     1     141.354 140.666 117.213  1.00  0.00     0.004 C 
ENDBRANCH   7   8
ENDBRANCH   1   7
TORSDOF 4
ENDMDL
MODEL 2
REMARK VINA RESULT:    -4.269      9.612     10.616
REMARK INTER + INTRA:          -5.658
REMARK INTER:                  -5.190
REMARK INTRA:                  -0.468
REMARK UNBOUND:                -0.391
REMARK SMILES C=CC[C@@H](C)C(=O)CC
REMARK SMILES IDX 4 1 5 2 6 3 7 4 8 5 9 6 3 7 2 8 1 9
REMARK H PARENT
REMARK Flexibility Score: inf
ROOT
ATOM      1  C   UNL     1     135.082 133.758 114.191  1.00  0.00     0.057 C 
ATOM      2  C   UNL     1     135.559 134.244 112.816  1.00  0.00     0.016 C 
ENDROOT
BRANCH   1   3
ATOM      3  C   UNL     1     135.700 134.610 115.280  1.00  0.00     0.135 C 
ATOM      4  O   UNL     1     136.843 135.023 115.149  1.00  0.00    -0.299 OA
BRANCH   3   5
ATOM      5  C   UNL     1     134.927 134.968 116.522  1.00  0.00     0.072 C 
ATOM      6  C   UNL     1     134.628 136.463 116.559  1.00  0.00     0.012 C 
ENDBRANCH   3   5
ENDBRANCH   1   3
BRANCH   1   7
ATOM      7  C   UNL     1     133.543 133.790 114.306  1.00  0.00     0.038 C 
BRANCH   7   8
ATOM      8  C   UNL     1     132.920 134.812 113.392  1.00  0.00    -0.034 C 
ATOM      9  C   UNL     1     132.096 135.759 113.853  1.00  0.00     0.004 C 
ENDBRANCH   7   8
ENDBRANCH   1   7
TORSDOF 4
ENDMDL
MODEL 3
REMARK VINA RESULT:    -4.254      1.813      3.597
REMARK INTER + INTRA:          -5.640
REMARK INTER:                  -5.184
REMARK INTRA:                  -0.456
REMARK UNBOUND:                -0.391
REMARK SMILES C=CC[C@@H](C)C(=O)CC
REMARK SMILES IDX 4 1 5 2 6 3 7 4 8 5 9 6 3 7 2 8 1 9
REMARK H PARENT
REMARK Flexibility Score: inf
ROOT
ATOM      1  C   UNL     1     141.326 142.871 114.853  1.00  0.00     0.057 C 
ATOM      2  C   UNL     1     140.771 142.534 113.462  1.00  0.00     0.016 C 
ENDROOT
BRANCH   1   3
ATOM      3  C   UNL     1     140.680 141.981 115.893  1.00  0.00     0.135 C 
ATOM      4  O   UNL     1     139.583 141.487 115.670  1.00  0.00    -0.299 OA
BRANCH   3   5
ATOM      5  C   UNL     1     141.368 141.682 117.199  1.00  0.00     0.072 C 
ATOM      6  C   UNL     1     141.699 140.198 117.308  1.00  0.00     0.012 C 
ENDBRANCH   3   5
ENDBRANCH   1   3
BRANCH   1   7
ATOM      7  C   UNL     1     142.861 142.719 114.908  1.00  0.00     0.038 C 
BRANCH   7   8
ATOM      8  C   UNL     1     143.381 141.764 113.867  1.00  0.00    -0.034 C 
ATOM      9  C   UNL     1     144.000 140.627 114.201  1.00  0.00     0.004 C 
ENDBRANCH   7   8
ENDBRANCH   1   7
TORSDOF 4
ENDMDL
MODEL 4
REMARK VINA RESULT:    -4.253      2.086      3.532
REMARK INTER + INTRA:          -5.638
REMARK INTER:                  -5.169
REMARK INTRA:                  -0.470
REMARK UNBOUND:                -0.391
REMARK SMILES C=CC[C@@H](C)C(=O)CC
REMARK SMILES IDX 4 1 5 2 6 3 7 4 8 5 9 6 3 7 2 8 1 9
REMARK H PARENT
REMARK Flexibility Score: inf
ROOT
ATOM      1  C   UNL     1     141.206 142.969 114.267  1.00  0.00     0.057 C 
ATOM      2  C   UNL     1     141.004 142.498 112.821  1.00  0.00     0.016 C 
ENDROOT
BRANCH   1   3
ATOM      3  C   UNL     1     140.211 142.279 115.175  1.00  0.00     0.135 C 
ATOM      4  O   UNL     1     139.888 142.806 116.231  1.00  0.00    -0.299 OA
BRANCH   3   5
ATOM      5  C   UNL     1     139.600 140.955 114.800  1.00  0.00     0.072 C 
ATOM      6  C   UNL     1     140.437 139.801 115.339  1.00  0.00     0.012 C 
ENDBRANCH   3   5
ENDBRANCH   1   3
BRANCH   1   7
ATOM      7  C   UNL     1     142.644 142.701 114.760  1.00  0.00     0.038 C 
BRANCH   7   8
ATOM      8  C   UNL     1     143.415 141.808 113.824  1.00  0.00    -0.034 C 
ATOM      9  C   UNL     1     143.958 140.658 114.236  1.00  0.00     0.004 C 
ENDBRANCH   7   8
ENDBRANCH   1   7
TORSDOF 4
ENDMDL
MODEL 5
REMARK VINA RESULT:    -4.244      1.858      3.183
REMARK INTER + INTRA:          -5.627
REMARK INTER:                  -5.296
REMARK INTRA:                  -0.331
REMARK UNBOUND:                -0.391
REMARK SMILES C=CC[C@@H](C)C(=O)CC
REMARK SMILES IDX 4 1 5 2 6 3 7 4 8 5 9 6 3 7 2 8 1 9
REMARK H PARENT
REMARK Flexibility Score: inf
ROOT
ATOM      1  C   UNL     1     141.639 141.716 115.864  1.00  0.00     0.057 C 
ATOM      2  C   UNL     1     141.503 141.908 117.380  1.00  0.00     0.016 C 
ENDROOT
BRANCH   1   3
ATOM      3  C   UNL     1     140.347 142.106 115.178  1.00  0.00     0.135 C 
ATOM      4  O   UNL     1     139.413 141.316 115.151  1.00  0.00    -0.299 OA
BRANCH   3   5
ATOM      5  C   UNL     1     140.184 143.457 114.533  1.00  0.00     0.072 C 
ATOM      6  C   UNL     1     139.398 144.397 115.440  1.00  0.00     0.012 C 
ENDBRANCH   3   5
ENDBRANCH   1   3
BRANCH   1   7
ATOM      7  C   UNL     1     142.812 142.536 115.286  1.00  0.00     0.038 C 
BRANCH   7   8
ATOM      8  C   UNL     1     143.452 141.865 114.100  1.00  0.00    -0.034 C 
ATOM      9  C   UNL     1     143.925 140.617 114.168  1.00  0.00     0.004 C 
ENDBRANCH   7   8
ENDBRANCH   1   7
TORSDOF 4
ENDMDL
MODEL 6
REMARK VINA RESULT:    -4.187      9.151     10.246
REMARK INTER + INTRA:          -5.557
REMARK INTER:                  -5.068
REMARK INTRA:                  -0.488
REMARK UNBOUND:                -0.391
REMARK SMILES C=CC[C@@H](C)C(=O)CC
REMARK SMILES IDX 4 1 5 2 6 3 7 4 8 5 9 6 3 7 2 8 1 9
REMARK H PARENT
REMARK Flexibility Score: inf
ROOT
ATOM      1  C   UNL     1     134.879 134.874 116.022  1.00  0.00     0.057 C 
ATOM      2  C   UNL     1     134.971 134.601 117.529  1.00  0.00     0.016 C 
ENDROOT
BRANCH   1   3
ATOM      3  C   UNL     1     136.230 134.652 115.376  1.00  0.00     0.135 C 
ATOM      4  O   UNL     1     136.656 133.513 115.240  1.00  0.00    -0.299 OA
BRANCH   3   5
ATOM      5  C   UNL     1     137.060 135.809 114.886  1.00  0.00     0.072 C 
ATOM      6  C   UNL     1     136.189 137.039 114.655  1.00  0.00     0.012 C 
ENDBRANCH   3   5
ENDBRANCH   1   3
BRANCH   1   7
ATOM      7  C   UNL     1     133.817 133.983 115.343  1.00  0.00     0.038 C 
BRANCH   7   8
ATOM      8  C   UNL     1     133.210 134.636 114.129  1.00  0.00    -0.034 C 
ATOM      9  C   UNL     1     132.584 135.815 114.204  1.00  0.00     0.004 C 
ENDBRANCH   7   8
ENDBRANCH   1   7
TORSDOF 4
ENDMDL
MODEL 7
REMARK VINA RESULT:    -4.181      9.272     10.046
REMARK INTER + INTRA:          -5.549
REMARK INTER:                  -5.278
REMARK INTRA:                  -0.271
REMARK UNBOUND:                -0.391
REMARK SMILES C=CC[C@@H](C)C(=O)CC
REMARK SMILES IDX 4 1 5 2 6 3 7 4 8 5 9 6 3 7 2 8 1 9
REMARK H PARENT
REMARK Flexibility Score: inf
ROOT
ATOM      1  C   UNL     1     135.034 134.936 116.645  1.00  0.00     0.057 C 
ATOM      2  C   UNL     1     134.686 136.428 116.559  1.00  0.00     0.016 C 
ENDROOT
BRANCH   1   3
ATOM      3  C   UNL     1     135.966 134.560 115.512  1.00  0.00     0.135 C 
ATOM      4  O   UNL     1     136.970 135.227 115.308  1.00  0.00    -0.299 OA
BRANCH   3   5
ATOM      5  C   UNL     1     135.684 133.369 114.634  1.00  0.00     0.072 C 
ATOM      6  C   UNL     1     134.191 133.244 114.355  1.00  0.00     0.012 C 
ENDBRANCH   3   5
ENDBRANCH   1   3
BRANCH   1   7
ATOM      7  C   UNL     1     135.679 134.576 118.000  1.00  0.00     0.038 C 
BRANCH   7   8
ATOM      8  C   UNL     1     136.186 135.790 118.735  1.00  0.00    -0.034 C 
ATOM      9  C   UNL     1     136.156 135.868 120.069  1.00  0.00     0.004 C 
ENDBRANCH   7   8
ENDBRANCH   1   7
TORSDOF 4
ENDMDL
MODEL 8
REMARK VINA RESULT:    -4.171      1.273      3.174
REMARK INTER + INTRA:          -5.538
REMARK INTER:                  -5.197
REMARK INTRA:                  -0.341
REMARK UNBOUND:                -0.391
REMARK SMILES C=CC[C@@H](C)C(=O)CC
REMARK SMILES IDX 4 1 5 2 6 3 7 4 8 5 9 6 3 7 2 8 1 9
REMARK H PARENT
REMARK Flexibility Score: inf
ROOT
ATOM      1  C   UNL     1     142.879 141.128 114.187  1.00  0.00     0.057 C 
ATOM      2  C   UNL     1     144.317 140.623 114.010  1.00  0.00     0.016 C 
ENDROOT
BRANCH   1   3
ATOM      3  C   UNL     1     142.073 140.117 114.975  1.00  0.00     0.135 C 
ATOM      4  O   UNL     1     141.201 139.468 114.415  1.00  0.00    -0.299 OA
BRANCH   3   5
ATOM      5  C   UNL     1     142.332 139.886 116.441  1.00  0.00     0.072 C 
ATOM      6  C   UNL     1     141.191 140.441 117.285  1.00  0.00     0.012 C 
ENDBRANCH   3   5
ENDBRANCH   1   3
BRANCH   1   7
ATOM      7  C   UNL     1     142.837 142.501 114.891  1.00  0.00     0.038 C 
BRANCH   7   8
ATOM      8  C   UNL     1     141.797 143.417 114.301  1.00  0.00    -0.034 C 
ATOM      9  C   UNL     1     140.520 143.376 114.693  1.00  0.00     0.004 C 
ENDBRANCH   7   8
ENDBRANCH   1   7
TORSDOF 4
ENDMDL
MODEL 9
REMARK VINA RESULT:    -4.148      9.436     10.624
REMARK INTER + INTRA:          -5.509
REMARK INTER:                  -5.250
REMARK INTRA:                  -0.259
REMARK UNBOUND:                -0.391
REMARK SMILES C=CC[C@@H](C)C(=O)CC
REMARK SMILES IDX 4 1 5 2 6 3 7 4 8 5 9 6 3 7 2 8 1 9
REMARK H PARENT
REMARK Flexibility Score: inf
ROOT
ATOM      1  C   UNL     1     134.890 135.177 115.636  1.00  0.00     0.057 C 
ATOM      2  C   UNL     1     134.305 136.449 116.262  1.00  0.00     0.016 C 
ENDROOT
BRANCH   1   3
ATOM      3  C   UNL     1     135.833 134.509 116.614  1.00  0.00     0.135 C 
ATOM      4  O   UNL     1     136.799 133.887 116.195  1.00  0.00    -0.299 OA
BRANCH   3   5
ATOM      5  C   UNL     1     135.611 134.604 118.101  1.00  0.00     0.072 C 
ATOM      6  C   UNL     1     136.729 135.399 118.765  1.00  0.00     0.012 C 
ENDBRANCH   3   5
ENDBRANCH   1   3
BRANCH   1   7
ATOM      7  C   UNL     1     133.783 134.187 115.212  1.00  0.00     0.038 C 
BRANCH   7   8
ATOM      8  C   UNL     1     133.794 133.915 113.731  1.00  0.00    -0.034 C 
ATOM      9  C   UNL     1     134.910 134.020 113.004  1.00  0.00     0.004 C 
ENDBRANCH   7   8
ENDBRANCH   1   7
TORSDOF 4
ENDMDL
