MODEL 1
REMARK VINA RESULT:    -3.873      0.000      0.000
REMARK INTER + INTRA:          -5.364
REMARK INTER:                  -5.006
REMARK INTRA:                  -0.359
REMARK UNBOUND:                -0.359
REMARK SMILES C=CC(=O)CCCCC
REMARK SMILES IDX 6 1 7 2 8 3 9 4 5 5 3 6 4 7 2 8 1 9
REMARK H PARENT
REMARK Flexibility Score: inf
ROOT
ATOM      1  C   UNL     1      -2.986  -4.253   3.665  1.00  0.00     0.008 C 
ENDROOT
BRANCH   1   2
ATOM      2  C   UNL     1      -3.467  -3.192   4.676  1.00  0.00     0.000 C 
BRANCH   2   3
ATOM      3  C   UNL     1      -4.572  -3.667   5.636  1.00  0.00    -0.003 C 
ATOM      4  C   UNL     1      -5.174  -5.013   5.234  1.00  0.00     0.004 C 
ENDBRANCH   2   3
ENDBRANCH   1   2
BRANCH   1   5
ATOM      5  C   UNL     1      -2.808  -3.733   2.229  1.00  0.00     0.080 C 
BRANCH   5   6
ATOM      6  C   UNL     1      -4.088  -3.192   1.660  1.00  0.00     0.155 C 
ATOM      7  O   UNL     1      -5.127  -3.907   1.685  1.00  0.00    -0.295 OA
BRANCH   6   8
ATOM      8  C   UNL     1      -4.117  -1.849   1.049  1.00  0.00     0.039 C 
ATOM      9  C   UNL     1      -3.075  -1.338   0.396  1.00  0.00     0.012 C 
ENDBRANCH   6   8
ENDBRANCH   5   6
ENDBRANCH   1   5
TORSDOF 5
ENDMDL
MODEL 2
REMARK VINA RESULT:    -3.797      1.795      4.298
REMARK INTER + INTRA:          -5.265
REMARK INTER:                  -4.834
REMARK INTRA:                  -0.432
REMARK UNBOUND:                -0.359
REMARK SMILES C=CC(=O)CCCCC
REMARK SMILES IDX 6 1 7 2 8 3 9 4 5 5 3 6 4 7 2 8 1 9
REMARK H PARENT
REMARK Flexibility Score: inf
ROOT
ATOM      1  C   UNL     1      -2.626  -4.177   3.424  1.00  0.00     0.008 C 
ENDROOT
BRANCH   1   2
ATOM      2  C   UNL     1      -2.828  -3.744   1.957  1.00  0.00     0.000 C 
BRANCH   2   3
ATOM      3  C   UNL     1      -4.178  -3.067   1.663  1.00  0.00    -0.003 C 
ATOM      4  C   UNL     1      -4.031  -1.737   0.924  1.00  0.00     0.004 C 
ENDBRANCH   2   3
ENDBRANCH   1   2
BRANCH   1   5
ATOM      5  C   UNL     1      -3.726  -3.703   4.387  1.00  0.00     0.080 C 
BRANCH   5   6
ATOM      6  C   UNL     1      -4.508  -4.849   4.961  1.00  0.00     0.155 C 
ATOM      7  O   UNL     1      -5.148  -4.683   6.036  1.00  0.00    -0.295 OA
BRANCH   6   8
ATOM      8  C   UNL     1      -4.501  -6.161   4.287  1.00  0.00     0.039 C 
ATOM      9  C   UNL     1      -5.500  -6.570   3.507  1.00  0.00     0.012 C 
ENDBRANCH   6   8
ENDBRANCH   5   6
ENDBRANCH   1   5
TORSDOF 5
ENDMDL
MODEL 3
REMARK VINA RESULT:    -3.746      1.422      4.368
REMARK INTER + INTRA:          -5.199
REMARK INTER:                  -4.987
REMARK INTRA:                  -0.212
REMARK UNBOUND:                -0.359
REMARK SMILES C=CC(=O)CCCCC
REMARK SMILES IDX 6 1 7 2 8 3 9 4 5 5 3 6 4 7 2 8 1 9
REMARK H PARENT
REMARK Flexibility Score: inf
ROOT
ATOM      1  C   UNL     1      -2.643  -4.348   3.135  1.00  0.00     0.008 C 
ENDROOT
BRANCH   1   2
ATOM      2  C   UNL     1      -2.736  -3.564   1.810  1.00  0.00     0.000 C 
BRANCH   2   3
ATOM      3  C   UNL     1      -4.120  -2.958   1.514  1.00  0.00    -0.003 C 
ATOM      4  C   UNL     1      -4.040  -1.600   0.817  1.00  0.00     0.004 C 
ENDBRANCH   2   3
ENDBRANCH   1   2
BRANCH   1   5
ATOM      5  C   UNL     1      -3.430  -3.730   4.301  1.00  0.00     0.080 C 
BRANCH   5   6
ATOM      6  C   UNL     1      -4.352  -4.721   4.951  1.00  0.00     0.155 C 
ATOM      7  O   UNL     1      -4.307  -5.931   4.597  1.00  0.00    -0.295 OA
BRANCH   6   8
ATOM      8  C   UNL     1      -5.319  -4.274   5.971  1.00  0.00     0.039 C 
ATOM      9  C   UNL     1      -5.034  -3.322   6.858  1.00  0.00     0.012 C 
ENDBRANCH   6   8
ENDBRANCH   5   6
ENDBRANCH   1   5
TORSDOF 5
ENDMDL
MODEL 4
REMARK VINA RESULT:    -3.640     14.157     14.933
REMARK INTER + INTRA:          -5.063
REMARK INTER:                  -4.872
REMARK INTRA:                  -0.192
REMARK UNBOUND:                -0.359
REMARK SMILES C=CC(=O)CCCCC
REMARK SMILES IDX 6 1 7 2 8 3 9 4 5 5 3 6 4 7 2 8 1 9
REMARK H PARENT
REMARK Flexibility Score: inf
ROOT
ATOM      1  C   UNL     1       7.147   5.296   6.313  1.00  0.00     0.008 C 
ENDROOT
BRANCH   1   2
ATOM      2  C   UNL     1       5.942   4.420   5.916  1.00  0.00     0.000 C 
BRANCH   2   3
ATOM      3  C   UNL     1       4.565   5.041   6.214  1.00  0.00    -0.003 C 
ATOM      4  C   UNL     1       4.132   4.862   7.669  1.00  0.00     0.004 C 
ENDBRANCH   2   3
ENDBRANCH   1   2
BRANCH   1   5
ATOM      5  C   UNL     1       8.263   5.364   5.259  1.00  0.00     0.080 C 
BRANCH   5   6
ATOM      6  C   UNL     1       9.498   4.627   5.692  1.00  0.00     0.155 C 
ATOM      7  O   UNL     1      10.622   4.988   5.247  1.00  0.00    -0.295 OA
BRANCH   6   8
ATOM      8  C   UNL     1       9.387   3.473   6.605  1.00  0.00     0.039 C 
ATOM      9  C   UNL     1      10.334   3.167   7.490  1.00  0.00     0.012 C 
ENDBRANCH   6   8
ENDBRANCH   5   6
ENDBRANCH   1   5
TORSDOF 5
ENDMDL
MODEL 5
REMARK VINA RESULT:    -3.628      1.460      1.946
REMARK INTER + INTRA:          -5.048
REMARK INTER:                  -4.670
REMARK INTRA:                  -0.378
REMARK UNBOUND:                -0.359
REMARK SMILES C=CC(=O)CCCCC
REMARK SMILES IDX 6 1 7 2 8 3 9 4 5 5 3 6 4 7 2 8 1 9
REMARK H PARENT
REMARK Flexibility Score: inf
ROOT
ATOM      1  C   UNL     1      -3.123  -4.985   4.303  1.00  0.00     0.008 C 
ENDROOT
BRANCH   1   2
ATOM      2  C   UNL     1      -4.380  -5.879   4.338  1.00  0.00     0.000 C 
BRANCH   2   3
ATOM      3  C   UNL     1      -5.704  -5.125   4.554  1.00  0.00    -0.003 C 
ATOM      4  C   UNL     1      -6.668  -5.262   3.377  1.00  0.00     0.004 C 
ENDBRANCH   2   3
ENDBRANCH   1   2
BRANCH   1   5
ATOM      5  C   UNL     1      -3.361  -3.571   3.750  1.00  0.00     0.080 C 
BRANCH   5   6
ATOM      6  C   UNL     1      -3.234  -3.519   2.254  1.00  0.00     0.155 C 
ATOM      7  O   UNL     1      -2.231  -4.047   1.700  1.00  0.00    -0.295 OA
BRANCH   6   8
ATOM      8  C   UNL     1      -4.260  -2.829   1.449  1.00  0.00     0.039 C 
ATOM      9  C   UNL     1      -4.036  -1.656   0.858  1.00  0.00     0.012 C 
ENDBRANCH   6   8
ENDBRANCH   5   6
ENDBRANCH   1   5
TORSDOF 5
ENDMDL
MODEL 6
REMARK VINA RESULT:    -3.582      1.152      1.855
REMARK INTER + INTRA:          -4.987
REMARK INTER:                  -4.754
REMARK INTRA:                  -0.234
REMARK UNBOUND:                -0.359
REMARK SMILES C=CC(=O)CCCCC
REMARK SMILES IDX 6 1 7 2 8 3 9 4 5 5 3 6 4 7 2 8 1 9
REMARK H PARENT
REMARK Flexibility Score: inf
ROOT
ATOM      1  C   UNL     1      -3.738  -3.359   4.843  1.00  0.00     0.008 C 
ENDROOT
BRANCH   1   2
ATOM      2  C   UNL     1      -4.788  -4.327   5.426  1.00  0.00     0.000 C 
BRANCH   2   3
ATOM      3  C   UNL     1      -5.659  -3.737   6.549  1.00  0.00    -0.003 C 
ATOM      4  C   UNL     1      -4.861  -2.893   7.542  1.00  0.00     0.004 C 
ENDBRANCH   2   3
ENDBRANCH   1   2
BRANCH   1   5
ATOM      5  C   UNL     1      -2.736  -4.010   3.877  1.00  0.00     0.080 C 
BRANCH   5   6
ATOM      6  C   UNL     1      -3.252  -4.050   2.467  1.00  0.00     0.155 C 
ATOM      7  O   UNL     1      -3.848  -5.083   2.056  1.00  0.00    -0.295 OA
BRANCH   6   8
ATOM      8  C   UNL     1      -3.036  -2.901   1.567  1.00  0.00     0.039 C 
ATOM      9  C   UNL     1      -4.026  -2.099   1.179  1.00  0.00     0.012 C 
ENDBRANCH   6   8
ENDBRANCH   5   6
ENDBRANCH   1   5
TORSDOF 5
ENDMDL
MODEL 7
REMARK VINA RESULT:    -3.577      2.409      2.945
REMARK INTER + INTRA:          -4.981
REMARK INTER:                  -4.769
REMARK INTRA:                  -0.212
REMARK UNBOUND:                -0.359
REMARK SMILES C=CC(=O)CCCCC
REMARK SMILES IDX 6 1 7 2 8 3 9 4 5 5 3 6 4 7 2 8 1 9
REMARK H PARENT
REMARK Flexibility Score: inf
ROOT
ATOM      1  C   UNL     1      -5.074  -5.494   2.806  1.00  0.00     0.008 C 
ENDROOT
BRANCH   1   2
ATOM      2  C   UNL     1      -5.101  -6.440   4.024  1.00  0.00     0.000 C 
BRANCH   2   3
ATOM      3  C   UNL     1      -5.255  -7.932   3.681  1.00  0.00    -0.003 C 
ATOM      4  C   UNL     1      -5.673  -8.171   2.230  1.00  0.00     0.004 C 
ENDBRANCH   2   3
ENDBRANCH   1   2
BRANCH   1   5
ATOM      5  C   UNL     1      -3.667  -5.055   2.370  1.00  0.00     0.080 C 
BRANCH   5   6
ATOM      6  C   UNL     1      -3.408  -3.606   2.670  1.00  0.00     0.155 C 
ATOM      7  O   UNL     1      -3.418  -3.211   3.868  1.00  0.00    -0.295 OA
BRANCH   6   8
ATOM      8  C   UNL     1      -3.175  -2.653   1.567  1.00  0.00     0.039 C 
ATOM      9  C   UNL     1      -4.161  -1.964   0.997  1.00  0.00     0.012 C 
ENDBRANCH   6   8
ENDBRANCH   5   6
ENDBRANCH   1   5
TORSDOF 5
ENDMDL
MODEL 8
REMARK VINA RESULT:    -3.429      1.969      4.353
REMARK INTER + INTRA:          -4.790
REMARK INTER:                  -4.481
REMARK INTRA:                  -0.310
REMARK UNBOUND:                -0.359
REMARK SMILES C=CC(=O)CCCCC
REMARK SMILES IDX 6 1 7 2 8 3 9 4 5 5 3 6 4 7 2 8 1 9
REMARK H PARENT
REMARK Flexibility Score: inf
ROOT
ATOM      1  C   UNL     1      -3.475  -4.899   4.119  1.00  0.00     0.008 C 
ENDROOT
BRANCH   1   2
ATOM      2  C   UNL     1      -3.468  -3.487   3.496  1.00  0.00     0.000 C 
BRANCH   2   3
ATOM      3  C   UNL     1      -3.251  -3.454   1.973  1.00  0.00    -0.003 C 
ATOM      4  C   UNL     1      -3.942  -2.269   1.298  1.00  0.00     0.004 C 
ENDBRANCH   2   3
ENDBRANCH   1   2
BRANCH   1   5
ATOM      5  C   UNL     1      -4.839  -5.349   4.667  1.00  0.00     0.080 C 
BRANCH   5   6
ATOM      6  C   UNL     1      -5.770  -5.791   3.575  1.00  0.00     0.155 C 
ATOM      7  O   UNL     1      -6.692  -5.018   3.197  1.00  0.00    -0.295 OA
BRANCH   6   8
ATOM      8  C   UNL     1      -5.622  -7.131   2.974  1.00  0.00     0.039 C 
ATOM      9  C   UNL     1      -5.266  -8.198   3.686  1.00  0.00     0.012 C 
ENDBRANCH   6   8
ENDBRANCH   5   6
ENDBRANCH   1   5
TORSDOF 5
ENDMDL
MODEL 9
REMARK VINA RESULT:    -3.301      1.841      2.889
REMARK INTER + INTRA:          -4.625
REMARK INTER:                  -4.459
REMARK INTRA:                  -0.166
REMARK UNBOUND:                -0.359
REMARK SMILES C=CC(=O)CCCCC
REMARK SMILES IDX 6 1 7 2 8 3 9 4 5 5 3 6 4 7 2 8 1 9
REMARK H PARENT
REMARK Flexibility Score: inf
ROOT
ATOM      1  C   UNL     1      -4.632  -4.064   5.736  1.00  0.00     0.008 C 
ENDROOT
BRANCH   1   2
ATOM      2  C   UNL     1      -5.445  -3.218   6.737  1.00  0.00     0.000 C 
BRANCH   2   3
ATOM      3  C   UNL     1      -4.877  -3.183   8.167  1.00  0.00    -0.003 C 
ATOM      4  C   UNL     1      -3.854  -2.067   8.376  1.00  0.00     0.004 C 
ENDBRANCH   2   3
ENDBRANCH   1   2
BRANCH   1   5
ATOM      5  C   UNL     1      -3.729  -3.250   4.796  1.00  0.00     0.080 C 
BRANCH   5   6
ATOM      6  C   UNL     1      -3.268  -4.056   3.616  1.00  0.00     0.155 C 
ATOM      7  O   UNL     1      -3.097  -5.299   3.745  1.00  0.00    -0.295 OA
BRANCH   6   8
ATOM      8  C   UNL     1      -2.989  -3.390   2.329  1.00  0.00     0.039 C 
ATOM      9  C   UNL     1      -3.942  -2.814   1.600  1.00  0.00     0.012 C 
ENDBRANCH   6   8
ENDBRANCH   5   6
ENDBRANCH   1   5
TORSDOF 5
ENDMDL
