MODEL 1
REMARK VINA RESULT:    -3.723      0.000      0.000
REMARK INTER + INTRA:          -4.591
REMARK INTER:                  -4.267
REMARK INTRA:                  -0.325
REMARK UNBOUND:                -0.325
REMARK SMILES COC(=O)c1ccccc1O
REMARK SMILES IDX 5 1 6 2 7 3 8 4 9 5 10 6 3 7 4 8 2 9 1 10 11 11
REMARK H PARENT 11 12
REMARK Flexibility Score: inf
ROOT
ATOM      1  C   UNL     1      27.533  41.514  20.376  1.00  0.00     0.101 A 
ATOM      2  C   UNL     1      28.559  40.771  19.765  1.00  0.00     0.019 A 
ATOM      3  C   UNL     1      28.339  39.453  19.358  1.00  0.00     0.001 A 
ATOM      4  C   UNL     1      27.093  38.859  19.557  1.00  0.00     0.004 A 
ATOM      5  C   UNL     1      26.069  39.575  20.179  1.00  0.00     0.047 A 
ATOM      6  C   UNL     1      26.280  40.890  20.613  1.00  0.00     0.130 A 
ENDROOT
BRANCH   1   7
ATOM      7  C   UNL     1      27.800  42.929  20.715  1.00  0.00     0.341 C 
ATOM      8  O   UNL     1      28.816  43.242  21.396  1.00  0.00    -0.246 OA
BRANCH   7   9
ATOM      9  O   UNL     1      26.886  43.914  20.328  1.00  0.00    -0.465 OA
ATOM     10  C   UNL     1      26.510  44.124  18.973  1.00  0.00     0.282 C 
ENDBRANCH   7   9
ENDBRANCH   1   7
BRANCH   6  11
ATOM     11  O   UNL     1      25.240  41.523  21.298  1.00  0.00    -0.507 OA
ATOM     12  H   UNL     1      24.778  42.357  20.964  1.00  0.00     0.293 HD
ENDBRANCH   6  11
TORSDOF 3
ENDMDL
MODEL 2
REMARK VINA RESULT:    -3.697      2.072      3.783
REMARK INTER + INTRA:          -4.562
REMARK INTER:                  -4.245
REMARK INTRA:                  -0.318
REMARK UNBOUND:                -0.325
REMARK SMILES COC(=O)c1ccccc1O
REMARK SMILES IDX 5 1 6 2 7 3 8 4 9 5 10 6 3 7 4 8 2 9 1 10 11 11
REMARK H PARENT 11 12
REMARK Flexibility Score: inf
ROOT
ATOM      1  C   UNL     1      27.264  40.935  20.208  1.00  0.00     0.101 A 
ATOM      2  C   UNL     1      28.591  41.361  20.014  1.00  0.00     0.019 A 
ATOM      3  C   UNL     1      29.122  42.406  20.773  1.00  0.00     0.001 A 
ATOM      4  C   UNL     1      28.336  43.041  21.735  1.00  0.00     0.004 A 
ATOM      5  C   UNL     1      27.012  42.644  21.928  1.00  0.00     0.047 A 
ATOM      6  C   UNL     1      26.458  41.612  21.160  1.00  0.00     0.130 A 
ENDROOT
BRANCH   1   7
ATOM      7  C   UNL     1      26.782  39.773  19.430  1.00  0.00     0.341 C 
ATOM      8  O   UNL     1      27.307  39.486  18.319  1.00  0.00    -0.246 OA
BRANCH   7   9
ATOM      9  O   UNL     1      25.697  39.030  19.905  1.00  0.00    -0.465 OA
ATOM     10  C   UNL     1      25.852  37.784  20.573  1.00  0.00     0.282 C 
ENDBRANCH   7   9
ENDBRANCH   1   7
BRANCH   6  11
ATOM     11  O   UNL     1      25.106  41.317  21.348  1.00  0.00    -0.507 OA
ATOM     12  H   UNL     1      24.762  40.393  21.567  1.00  0.00     0.293 HD
ENDBRANCH   6  11
TORSDOF 3
ENDMDL
MODEL 3
REMARK VINA RESULT:    -3.690      2.429      3.901
REMARK INTER + INTRA:          -4.554
REMARK INTER:                  -4.337
REMARK INTRA:                  -0.216
REMARK UNBOUND:                -0.325
REMARK SMILES COC(=O)c1ccccc1O
REMARK SMILES IDX 5 1 6 2 7 3 8 4 9 5 10 6 3 7 4 8 2 9 1 10 11 11
REMARK H PARENT 11 12
REMARK Flexibility Score: inf
ROOT
ATOM      1  C   UNL     1      27.480  40.059  20.338  1.00  0.00     0.101 A 
ATOM      2  C   UNL     1      28.567  40.948  20.420  1.00  0.00     0.019 A 
ATOM      3  C   UNL     1      28.376  42.272  20.820  1.00  0.00     0.001 A 
ATOM      4  C   UNL     1      27.097  42.727  21.143  1.00  0.00     0.004 A 
ATOM      5  C   UNL     1      26.005  41.864  21.049  1.00  0.00     0.047 A 
ATOM      6  C   UNL     1      26.176  40.539  20.628  1.00  0.00     0.130 A 
ENDROOT
BRANCH   1   7
ATOM      7  C   UNL     1      27.755  38.649  19.983  1.00  0.00     0.341 C 
ATOM      8  O   UNL     1      27.014  37.724  20.417  1.00  0.00    -0.246 OA
BRANCH   7   9
ATOM      9  O   UNL     1      28.879  38.341  19.211  1.00  0.00    -0.465 OA
ATOM     10  C   UNL     1      28.962  38.635  17.821  1.00  0.00     0.282 C 
ENDBRANCH   7   9
ENDBRANCH   1   7
BRANCH   6  11
ATOM     11  O   UNL     1      25.033  39.751  20.481  1.00  0.00    -0.507 OA
ATOM     12  H   UNL     1      24.235  40.024  19.925  1.00  0.00     0.293 HD
ENDBRANCH   6  11
TORSDOF 3
ENDMDL
MODEL 4
REMARK VINA RESULT:    -3.656      1.945      4.040
REMARK INTER + INTRA:          -4.515
REMARK INTER:                  -4.212
REMARK INTRA:                  -0.303
REMARK UNBOUND:                -0.325
REMARK SMILES COC(=O)c1ccccc1O
REMARK SMILES IDX 5 1 6 2 7 3 8 4 9 5 10 6 3 7 4 8 2 9 1 10 11 11
REMARK H PARENT 11 12
REMARK Flexibility Score: inf
ROOT
ATOM      1  C   UNL     1      27.106  41.472  19.933  1.00  0.00     0.101 A 
ATOM      2  C   UNL     1      26.984  42.552  19.040  1.00  0.00     0.019 A 
ATOM      3  C   UNL     1      27.321  43.847  19.439  1.00  0.00     0.001 A 
ATOM      4  C   UNL     1      27.785  44.081  20.734  1.00  0.00     0.004 A 
ATOM      5  C   UNL     1      27.893  43.024  21.638  1.00  0.00     0.047 A 
ATOM      6  C   UNL     1      27.538  41.723  21.261  1.00  0.00     0.130 A 
ENDROOT
BRANCH   1   7
ATOM      7  C   UNL     1      26.807  40.113  19.431  1.00  0.00     0.341 C 
ATOM      8  O   UNL     1      27.390  39.668  18.404  1.00  0.00    -0.246 OA
BRANCH   7   9
ATOM      9  O   UNL     1      25.827  39.344  20.067  1.00  0.00    -0.465 OA
ATOM     10  C   UNL     1      26.060  38.011  20.505  1.00  0.00     0.282 C 
ENDBRANCH   7   9
ENDBRANCH   1   7
BRANCH   6  11
ATOM     11  O   UNL     1      27.596  40.726  22.237  1.00  0.00    -0.507 OA
ATOM     12  H   UNL     1      27.686  39.742  22.024  1.00  0.00     0.293 HD
ENDBRANCH   6  11
TORSDOF 3
ENDMDL
MODEL 5
REMARK VINA RESULT:    -3.593     13.990     15.627
REMARK INTER + INTRA:          -4.443
REMARK INTER:                  -4.109
REMARK INTRA:                  -0.334
REMARK UNBOUND:                -0.325
REMARK SMILES COC(=O)c1ccccc1O
REMARK SMILES IDX 5 1 6 2 7 3 8 4 9 5 10 6 3 7 4 8 2 9 1 10 11 11
REMARK H PARENT 11 12
REMARK Flexibility Score: inf
ROOT
ATOM      1  C   UNL     1      28.119  27.982  27.427  1.00  0.00     0.101 A 
ATOM      2  C   UNL     1      28.811  29.069  27.992  1.00  0.00     0.019 A 
ATOM      3  C   UNL     1      29.124  30.192  27.223  1.00  0.00     0.001 A 
ATOM      4  C   UNL     1      28.751  30.246  25.880  1.00  0.00     0.004 A 
ATOM      5  C   UNL     1      28.082  29.169  25.298  1.00  0.00     0.047 A 
ATOM      6  C   UNL     1      27.780  28.026  26.049  1.00  0.00     0.130 A 
ENDROOT
BRANCH   1   7
ATOM      7  C   UNL     1      27.748  26.854  28.308  1.00  0.00     0.341 C 
ATOM      8  O   UNL     1      28.625  26.270  29.002  1.00  0.00    -0.246 OA
BRANCH   7   9
ATOM      9  O   UNL     1      26.426  26.398  28.323  1.00  0.00    -0.465 OA
ATOM     10  C   UNL     1      25.332  27.224  28.704  1.00  0.00     0.282 C 
ENDBRANCH   7   9
ENDBRANCH   1   7
BRANCH   6  11
ATOM     11  O   UNL     1      27.179  26.953  25.387  1.00  0.00    -0.507 OA
ATOM     12  H   UNL     1      26.714  26.193  25.863  1.00  0.00     0.293 HD
ENDBRANCH   6  11
TORSDOF 3
ENDMDL
MODEL 6
REMARK VINA RESULT:    -3.576      1.855      3.619
REMARK INTER + INTRA:          -4.423
REMARK INTER:                  -4.093
REMARK INTRA:                  -0.329
REMARK UNBOUND:                -0.325
REMARK SMILES COC(=O)c1ccccc1O
REMARK SMILES IDX 5 1 6 2 7 3 8 4 9 5 10 6 3 7 4 8 2 9 1 10 11 11
REMARK H PARENT 11 12
REMARK Flexibility Score: inf
ROOT
ATOM      1  C   UNL     1      27.457  42.884  20.730  1.00  0.00     0.101 A 
ATOM      2  C   UNL     1      28.584  43.706  20.917  1.00  0.00     0.019 A 
ATOM      3  C   UNL     1      29.043  44.005  22.201  1.00  0.00     0.001 A 
ATOM      4  C   UNL     1      28.383  43.489  23.317  1.00  0.00     0.004 A 
ATOM      5  C   UNL     1      27.252  42.689  23.151  1.00  0.00     0.047 A 
ATOM      6  C   UNL     1      26.766  42.398  21.871  1.00  0.00     0.130 A 
ENDROOT
BRANCH   1   7
ATOM      7  C   UNL     1      27.064  42.539  19.347  1.00  0.00     0.341 C 
ATOM      8  O   UNL     1      26.848  43.448  18.498  1.00  0.00    -0.246 OA
BRANCH   7   9
ATOM      9  O   UNL     1      26.872  41.198  19.000  1.00  0.00    -0.465 OA
ATOM     10  C   UNL     1      27.898  40.220  19.118  1.00  0.00     0.282 C 
ENDBRANCH   7   9
ENDBRANCH   1   7
BRANCH   6  11
ATOM     11  O   UNL     1      25.585  41.657  21.777  1.00  0.00    -0.507 OA
ATOM     12  H   UNL     1      25.489  40.830  21.205  1.00  0.00     0.293 HD
ENDBRANCH   6  11
TORSDOF 3
ENDMDL
MODEL 7
REMARK VINA RESULT:    -3.566      1.866      4.107
REMARK INTER + INTRA:          -4.411
REMARK INTER:                  -4.119
REMARK INTRA:                  -0.293
REMARK UNBOUND:                -0.325
REMARK SMILES COC(=O)c1ccccc1O
REMARK SMILES IDX 5 1 6 2 7 3 8 4 9 5 10 6 3 7 4 8 2 9 1 10 11 11
REMARK H PARENT 11 12
REMARK Flexibility Score: inf
ROOT
ATOM      1  C   UNL     1      27.000  41.703  20.483  1.00  0.00     0.101 A 
ATOM      2  C   UNL     1      27.333  41.570  21.843  1.00  0.00     0.019 A 
ATOM      3  C   UNL     1      27.523  42.698  22.644  1.00  0.00     0.001 A 
ATOM      4  C   UNL     1      27.384  43.974  22.098  1.00  0.00     0.004 A 
ATOM      5  C   UNL     1      27.074  44.125  20.746  1.00  0.00     0.047 A 
ATOM      6  C   UNL     1      26.901  43.004  19.924  1.00  0.00     0.130 A 
ENDROOT
BRANCH   1   7
ATOM      7  C   UNL     1      26.736  40.473  19.704  1.00  0.00     0.341 C 
ATOM      8  O   UNL     1      27.354  40.254  18.626  1.00  0.00    -0.246 OA
BRANCH   7   9
ATOM      9  O   UNL     1      25.750  39.582  20.139  1.00  0.00    -0.465 OA
ATOM     10  C   UNL     1      26.030  38.226  20.465  1.00  0.00     0.282 C 
ENDBRANCH   7   9
ENDBRANCH   1   7
BRANCH   6  11
ATOM     11  O   UNL     1      26.669  43.225  18.565  1.00  0.00    -0.507 OA
ATOM     12  H   UNL     1      27.320  43.703  17.958  1.00  0.00     0.293 HD
ENDBRANCH   6  11
TORSDOF 3
ENDMDL
MODEL 8
REMARK VINA RESULT:    -3.540     14.268     15.982
REMARK INTER + INTRA:          -4.382
REMARK INTER:                  -4.109
REMARK INTRA:                  -0.273
REMARK UNBOUND:                -0.325
REMARK SMILES COC(=O)c1ccccc1O
REMARK SMILES IDX 5 1 6 2 7 3 8 4 9 5 10 6 3 7 4 8 2 9 1 10 11 11
REMARK H PARENT 11 12
REMARK Flexibility Score: inf
ROOT
ATOM      1  C   UNL     1      27.551  28.139  27.781  1.00  0.00     0.101 A 
ATOM      2  C   UNL     1      28.265  29.231  28.308  1.00  0.00     0.019 A 
ATOM      3  C   UNL     1      29.017  30.061  27.473  1.00  0.00     0.001 A 
ATOM      4  C   UNL     1      29.067  29.812  26.102  1.00  0.00     0.004 A 
ATOM      5  C   UNL     1      28.381  28.722  25.564  1.00  0.00     0.047 A 
ATOM      6  C   UNL     1      27.640  27.867  26.391  1.00  0.00     0.130 A 
ENDROOT
BRANCH   1   7
ATOM      7  C   UNL     1      26.711  27.343  28.702  1.00  0.00     0.341 C 
ATOM      8  O   UNL     1      25.913  27.914  29.496  1.00  0.00    -0.246 OA
BRANCH   7   9
ATOM      9  O   UNL     1      26.850  25.951  28.730  1.00  0.00    -0.465 OA
ATOM     10  C   UNL     1      27.010  25.220  29.939  1.00  0.00     0.282 C 
ENDBRANCH   7   9
ENDBRANCH   1   7
BRANCH   6  11
ATOM     11  O   UNL     1      27.041  26.752  25.801  1.00  0.00    -0.507 OA
ATOM     12  H   UNL     1      27.122  25.815  26.171  1.00  0.00     0.293 HD
ENDBRANCH   6  11
TORSDOF 3
ENDMDL
MODEL 9
REMARK VINA RESULT:    -3.449      2.666      4.280
REMARK INTER + INTRA:          -4.277
REMARK INTER:                  -3.977
REMARK INTRA:                  -0.300
REMARK UNBOUND:                -0.325
REMARK SMILES COC(=O)c1ccccc1O
REMARK SMILES IDX 5 1 6 2 7 3 8 4 9 5 10 6 3 7 4 8 2 9 1 10 11 11
REMARK H PARENT 11 12
REMARK Flexibility Score: inf
ROOT
ATOM      1  C   UNL     1      27.446  39.890  20.329  1.00  0.00     0.101 A 
ATOM      2  C   UNL     1      27.449  40.547  21.573  1.00  0.00     0.019 A 
ATOM      3  C   UNL     1      27.280  41.931  21.649  1.00  0.00     0.001 A 
ATOM      4  C   UNL     1      27.106  42.678  20.484  1.00  0.00     0.004 A 
ATOM      5  C   UNL     1      27.121  42.047  19.240  1.00  0.00     0.047 A 
ATOM      6  C   UNL     1      27.312  40.662  19.145  1.00  0.00     0.130 A 
ENDROOT
BRANCH   1   7
ATOM      7  C   UNL     1      27.553  38.415  20.316  1.00  0.00     0.341 C 
ATOM      8  O   UNL     1      28.545  37.850  19.777  1.00  0.00    -0.246 OA
BRANCH   7   9
ATOM      9  O   UNL     1      26.515  37.645  20.852  1.00  0.00    -0.465 OA
ATOM     10  C   UNL     1      25.170  37.746  20.398  1.00  0.00     0.282 C 
ENDBRANCH   7   9
ENDBRANCH   1   7
BRANCH   6  11
ATOM     11  O   UNL     1      27.394  40.104  17.868  1.00  0.00    -0.507 OA
ATOM     12  H   UNL     1      27.419  40.652  17.020  1.00  0.00     0.293 HD
ENDBRANCH   6  11
TORSDOF 3
ENDMDL
