MODEL 1
REMARK VINA RESULT:    -7.895      0.000      0.000
REMARK INTER + INTRA:          -9.601
REMARK INTER:                  -9.511
REMARK INTRA:                  -0.090
REMARK UNBOUND:                -0.090
REMARK SMILES O=c1c(O)c(-c2ccc(O)cc2O)oc2cc(O)cc(O)c12
REMARK SMILES IDX 5 1 3 2 2 3 1 4 22 5 20 6 19 7 17 8 16 9 15 10 14 11 6 12
REMARK SMILES IDX 8 13 7 14 9 15 11 16 12 17 10 18 13 20 4 22 21 24 18 26
REMARK H PARENT 10 19 13 21 4 23 21 25 18 27
REMARK Flexibility Score: inf
ROOT
ATOM      1  C   UNL     1      17.155  22.617  40.790  1.00  0.00     0.184 A 
ATOM      2  C   UNL     1      16.774  23.644  39.906  1.00  0.00     0.208 A 
ATOM      3  C   UNL     1      15.641  24.414  40.210  1.00  0.00     0.238 A 
ATOM      4  O   UNL     1      15.285  25.331  39.421  1.00  0.00    -0.285 OA
ATOM      5  C   UNL     1      14.920  24.157  41.394  1.00  0.00     0.111 A 
ATOM      6  C   UNL     1      13.770  24.890  41.776  1.00  0.00     0.134 A 
ATOM      7  C   UNL     1      13.112  24.577  42.974  1.00  0.00     0.093 A 
ATOM      8  C   UNL     1      13.583  23.548  43.799  1.00  0.00     0.123 A 
ATOM      9  C   UNL     1      14.717  22.824  43.427  1.00  0.00     0.094 A 
ATOM     10  C   UNL     1      15.385  23.118  42.235  1.00  0.00     0.146 A 
ATOM     11  O   UNL     1      16.459  22.409  41.904  1.00  0.00    -0.451 OA
ENDROOT
BRANCH   1  12
ATOM     12  C   UNL     1      18.329  21.754  40.524  1.00  0.00     0.063 A 
ATOM     13  C   UNL     1      20.625  21.492  39.758  1.00  0.00     0.047 A 
ATOM     14  C   UNL     1      19.526  22.309  40.035  1.00  0.00     0.020 A 
ATOM     15  C   UNL     1      20.543  20.111  39.952  1.00  0.00     0.119 A 
ATOM     16  C   UNL     1      19.351  19.546  40.425  1.00  0.00     0.093 A 
ATOM     17  C   UNL     1      18.244  20.358  40.709  1.00  0.00     0.130 A 
BRANCH  15  18
ATOM     18  O   UNL     1      21.647  19.310  39.670  1.00  0.00    -0.508 OA
ATOM     19  H   UNL     1      21.819  18.956  38.737  1.00  0.00     0.293 HD
ENDBRANCH  15  18
BRANCH  17  20
ATOM     20  O   UNL     1      17.065  19.784  41.185  1.00  0.00    -0.507 OA
ATOM     21  H   UNL     1      16.242  20.343  41.377  1.00  0.00     0.293 HD
ENDBRANCH  17  20
ENDBRANCH   1  12
BRANCH   2  22
ATOM     22  O   UNL     1      17.530  23.903  38.760  1.00  0.00    -0.502 OA
ATOM     23  H   UNL     1      18.022  23.171  38.259  1.00  0.00     0.293 HD
ENDBRANCH   2  22
BRANCH   6  24
ATOM     24  O   UNL     1      13.277  25.920  40.975  1.00  0.00    -0.507 OA
ATOM     25  H   UNL     1      12.301  26.190  40.995  1.00  0.00     0.293 HD
ENDBRANCH   6  24
BRANCH   8  26
ATOM     26  O   UNL     1      12.931  23.239  44.990  1.00  0.00    -0.508 OA
ATOM     27  H   UNL     1      13.431  23.190  45.870  1.00  0.00     0.293 HD
ENDBRANCH   8  26
TORSDOF 6
ENDMDL
MODEL 2
REMARK VINA RESULT:    -7.543      1.283      6.382
REMARK INTER + INTRA:          -9.177
REMARK INTER:                  -9.477
REMARK INTRA:                   0.300
REMARK UNBOUND:                -0.090
REMARK SMILES O=c1c(O)c(-c2ccc(O)cc2O)oc2cc(O)cc(O)c12
REMARK SMILES IDX 5 1 3 2 2 3 1 4 22 5 20 6 19 7 17 8 16 9 15 10 14 11 6 12
REMARK SMILES IDX 8 13 7 14 9 15 11 16 12 17 10 18 13 20 4 22 21 24 18 26
REMARK H PARENT 10 19 13 21 4 23 21 25 18 27
REMARK Flexibility Score: inf
ROOT
ATOM      1  C   UNL     1      16.304  23.384  40.827  1.00  0.00     0.184 A 
ATOM      2  C   UNL     1      16.781  24.230  39.808  1.00  0.00     0.208 A 
ATOM      3  C   UNL     1      17.941  23.863  39.110  1.00  0.00     0.238 A 
ATOM      4  O   UNL     1      18.382  24.618  38.201  1.00  0.00    -0.285 OA
ATOM      5  C   UNL     1      18.595  22.656  39.429  1.00  0.00     0.111 A 
ATOM      6  C   UNL     1      19.767  22.211  38.771  1.00  0.00     0.134 A 
ATOM      7  C   UNL     1      20.354  20.993  39.143  1.00  0.00     0.093 A 
ATOM      8  C   UNL     1      19.791  20.211  40.158  1.00  0.00     0.123 A 
ATOM      9  C   UNL     1      18.636  20.644  40.809  1.00  0.00     0.094 A 
ATOM     10  C   UNL     1      18.036  21.857  40.455  1.00  0.00     0.146 A 
ATOM     11  O   UNL     1      16.939  22.247  41.095  1.00  0.00    -0.451 OA
ENDROOT
BRANCH   1  12
ATOM     12  C   UNL     1      15.096  23.717  41.617  1.00  0.00     0.063 A 
ATOM     13  C   UNL     1      12.986  24.910  41.842  1.00  0.00     0.047 A 
ATOM     14  C   UNL     1      14.112  24.573  41.088  1.00  0.00     0.020 A 
ATOM     15  C   UNL     1      12.829  24.407  43.136  1.00  0.00     0.119 A 
ATOM     16  C   UNL     1      13.808  23.564  43.678  1.00  0.00     0.093 A 
ATOM     17  C   UNL     1      14.941  23.219  42.927  1.00  0.00     0.130 A 
BRANCH  15  18
ATOM     18  O   UNL     1      11.700  24.752  43.876  1.00  0.00    -0.508 OA
ATOM     19  H   UNL     1      11.404  24.205  44.676  1.00  0.00     0.293 HD
ENDBRANCH  15  18
BRANCH  17  20
ATOM     20  O   UNL     1      15.907  22.374  43.475  1.00  0.00    -0.507 OA
ATOM     21  H   UNL     1      15.769  21.372  43.525  1.00  0.00     0.293 HD
ENDBRANCH  17  20
ENDBRANCH   1  12
BRANCH   2  22
ATOM     22  O   UNL     1      16.089  25.401  39.485  1.00  0.00    -0.502 OA
ATOM     23  H   UNL     1      16.559  26.290  39.360  1.00  0.00     0.293 HD
ENDBRANCH   2  22
BRANCH   6  24
ATOM     24  O   UNL     1      20.351  22.970  37.756  1.00  0.00    -0.507 OA
ATOM     25  H   UNL     1      20.251  23.977  37.718  1.00  0.00     0.293 HD
ENDBRANCH   6  24
BRANCH   8  26
ATOM     26  O   UNL     1      20.373  19.000  40.526  1.00  0.00    -0.508 OA
ATOM     27  H   UNL     1      21.293  18.961  40.950  1.00  0.00     0.293 HD
ENDBRANCH   8  26
TORSDOF 6
ENDMDL
MODEL 3
REMARK VINA RESULT:    -7.344      1.219      1.812
REMARK INTER + INTRA:          -8.936
REMARK INTER:                  -8.766
REMARK INTRA:                  -0.170
REMARK UNBOUND:                -0.090
REMARK SMILES O=c1c(O)c(-c2ccc(O)cc2O)oc2cc(O)cc(O)c12
REMARK SMILES IDX 5 1 3 2 2 3 1 4 22 5 20 6 19 7 17 8 16 9 15 10 14 11 6 12
REMARK SMILES IDX 8 13 7 14 9 15 11 16 12 17 10 18 13 20 4 22 21 24 18 26
REMARK H PARENT 10 19 13 21 4 23 21 25 18 27
REMARK Flexibility Score: inf
ROOT
ATOM      1  C   UNL     1      16.273  22.583  41.412  1.00  0.00     0.184 A 
ATOM      2  C   UNL     1      15.718  23.577  40.583  1.00  0.00     0.208 A 
ATOM      3  C   UNL     1      14.662  24.359  41.074  1.00  0.00     0.238 A 
ATOM      4  O   UNL     1      14.153  25.245  40.337  1.00  0.00    -0.285 OA
ATOM      5  C   UNL     1      14.190  24.148  42.386  1.00  0.00     0.111 A 
ATOM      6  C   UNL     1      13.134  24.896  42.959  1.00  0.00     0.134 A 
ATOM      7  C   UNL     1      12.727  24.630  44.274  1.00  0.00     0.093 A 
ATOM      8  C   UNL     1      13.357  23.633  45.028  1.00  0.00     0.123 A 
ATOM      9  C   UNL     1      14.400  22.893  44.468  1.00  0.00     0.094 A 
ATOM     10  C   UNL     1      14.819  23.141  43.157  1.00  0.00     0.146 A 
ATOM     11  O   UNL     1      15.811  22.419  42.648  1.00  0.00    -0.451 OA
ENDROOT
BRANCH   1  12
ATOM     12  C   UNL     1      17.377  21.709  40.953  1.00  0.00     0.063 A 
ATOM     13  C   UNL     1      18.258  19.485  40.500  1.00  0.00     0.047 A 
ATOM     14  C   UNL     1      17.209  20.313  40.907  1.00  0.00     0.020 A 
ATOM     15  C   UNL     1      19.492  20.036  40.144  1.00  0.00     0.119 A 
ATOM     16  C   UNL     1      19.674  21.425  40.199  1.00  0.00     0.093 A 
ATOM     17  C   UNL     1      18.626  22.262  40.604  1.00  0.00     0.130 A 
BRANCH  15  18
ATOM     18  O   UNL     1      20.528  19.198  39.740  1.00  0.00    -0.508 OA
ATOM     19  H   UNL     1      20.959  19.291  38.828  1.00  0.00     0.293 HD
ENDBRANCH  15  18
BRANCH  17  20
ATOM     20  O   UNL     1      18.819  23.644  40.649  1.00  0.00    -0.507 OA
ATOM     21  H   UNL     1      19.734  24.047  40.812  1.00  0.00     0.293 HD
ENDBRANCH  17  20
ENDBRANCH   1  12
BRANCH   2  22
ATOM     22  O   UNL     1      16.233  23.790  39.301  1.00  0.00    -0.502 OA
ATOM     23  H   UNL     1      15.784  23.424  38.469  1.00  0.00     0.293 HD
ENDBRANCH   2  22
BRANCH   6  24
ATOM     24  O   UNL     1      12.486  25.896  42.232  1.00  0.00    -0.507 OA
ATOM     25  H   UNL     1      12.401  26.841  42.587  1.00  0.00     0.293 HD
ENDBRANCH   6  24
BRANCH   8  26
ATOM     26  O   UNL     1      12.954  23.370  46.335  1.00  0.00    -0.508 OA
ATOM     27  H   UNL     1      12.899  22.423  46.692  1.00  0.00     0.293 HD
ENDBRANCH   8  26
TORSDOF 6
ENDMDL
MODEL 4
REMARK VINA RESULT:    -7.279      1.111      1.310
REMARK INTER + INTRA:          -8.858
REMARK INTER:                  -9.331
REMARK INTRA:                   0.473
REMARK UNBOUND:                -0.090
REMARK SMILES O=c1c(O)c(-c2ccc(O)cc2O)oc2cc(O)cc(O)c12
REMARK SMILES IDX 5 1 3 2 2 3 1 4 22 5 20 6 19 7 17 8 16 9 15 10 14 11 6 12
REMARK SMILES IDX 8 13 7 14 9 15 11 16 12 17 10 18 13 20 4 22 21 24 18 26
REMARK H PARENT 10 19 13 21 4 23 21 25 18 27
REMARK Flexibility Score: inf
ROOT
ATOM      1  C   UNL     1      18.112  22.708  39.985  1.00  0.00     0.184 A 
ATOM      2  C   UNL     1      17.850  23.787  39.120  1.00  0.00     0.208 A 
ATOM      3  C   UNL     1      16.696  24.558  39.328  1.00  0.00     0.238 A 
ATOM      4  O   UNL     1      16.447  25.522  38.554  1.00  0.00    -0.285 OA
ATOM      5  C   UNL     1      15.836  24.250  40.401  1.00  0.00     0.111 A 
ATOM      6  C   UNL     1      14.656  24.979  40.682  1.00  0.00     0.134 A 
ATOM      7  C   UNL     1      13.855  24.613  41.774  1.00  0.00     0.093 A 
ATOM      8  C   UNL     1      14.213  23.534  42.590  1.00  0.00     0.123 A 
ATOM      9  C   UNL     1      15.375  22.812  42.318  1.00  0.00     0.094 A 
ATOM     10  C   UNL     1      16.186  23.159  41.233  1.00  0.00     0.146 A 
ATOM     11  O   UNL     1      17.285  22.452  40.994  1.00  0.00    -0.451 OA
ENDROOT
BRANCH   1  12
ATOM     12  C   UNL     1      19.301  21.841  39.814  1.00  0.00     0.063 A 
ATOM     13  C   UNL     1      21.477  21.420  38.807  1.00  0.00     0.047 A 
ATOM     14  C   UNL     1      20.368  22.248  38.991  1.00  0.00     0.020 A 
ATOM     15  C   UNL     1      21.535  20.171  39.431  1.00  0.00     0.119 A 
ATOM     16  C   UNL     1      20.472  19.749  40.241  1.00  0.00     0.093 A 
ATOM     17  C   UNL     1      19.355  20.575  40.433  1.00  0.00     0.130 A 
BRANCH  15  18
ATOM     18  O   UNL     1      22.647  19.356  39.237  1.00  0.00    -0.508 OA
ATOM     19  H   UNL     1      23.462  19.684  38.733  1.00  0.00     0.293 HD
ENDBRANCH  15  18
BRANCH  17  20
ATOM     20  O   UNL     1      18.306  20.147  41.247  1.00  0.00    -0.507 OA
ATOM     21  H   UNL     1      17.708  19.374  40.980  1.00  0.00     0.293 HD
ENDBRANCH  17  20
ENDBRANCH   1  12
BRANCH   2  22
ATOM     22  O   UNL     1      18.742  24.095  38.089  1.00  0.00    -0.502 OA
ATOM     23  H   UNL     1      19.025  25.046  37.882  1.00  0.00     0.293 HD
ENDBRANCH   2  22
BRANCH   6  24
ATOM     24  O   UNL     1      14.273  26.060  39.886  1.00  0.00    -0.507 OA
ATOM     25  H   UNL     1      14.864  26.408  39.140  1.00  0.00     0.293 HD
ENDBRANCH   6  24
BRANCH   8  26
ATOM     26  O   UNL     1      13.419  23.171  43.676  1.00  0.00    -0.508 OA
ATOM     27  H   UNL     1      12.558  22.650  43.552  1.00  0.00     0.293 HD
ENDBRANCH   8  26
TORSDOF 6
ENDMDL
MODEL 5
REMARK VINA RESULT:    -7.261      1.422      6.504
REMARK INTER + INTRA:          -8.836
REMARK INTER:                  -9.032
REMARK INTRA:                   0.195
REMARK UNBOUND:                -0.090
REMARK SMILES O=c1c(O)c(-c2ccc(O)cc2O)oc2cc(O)cc(O)c12
REMARK SMILES IDX 5 1 3 2 2 3 1 4 22 5 20 6 19 7 17 8 16 9 15 10 14 11 6 12
REMARK SMILES IDX 8 13 7 14 9 15 11 16 12 17 10 18 13 20 4 22 21 24 18 26
REMARK H PARENT 10 19 13 21 4 23 21 25 18 27
REMARK Flexibility Score: inf
ROOT
ATOM      1  C   UNL     1      14.744  23.784  41.999  1.00  0.00     0.184 A 
ATOM      2  C   UNL     1      14.856  24.741  40.973  1.00  0.00     0.208 A 
ATOM      3  C   UNL     1      15.862  24.585  40.007  1.00  0.00     0.238 A 
ATOM      4  O   UNL     1      15.977  25.441  39.089  1.00  0.00    -0.285 OA
ATOM      5  C   UNL     1      16.724  23.472  40.072  1.00  0.00     0.111 A 
ATOM      6  C   UNL     1      17.760  23.238  39.136  1.00  0.00     0.134 A 
ATOM      7  C   UNL     1      18.572  22.102  39.265  1.00  0.00     0.093 A 
ATOM      8  C   UNL     1      18.367  21.195  40.311  1.00  0.00     0.123 A 
ATOM      9  C   UNL     1      17.346  21.420  41.236  1.00  0.00     0.094 A 
ATOM     10  C   UNL     1      16.528  22.548  41.126  1.00  0.00     0.146 A 
ATOM     11  O   UNL     1      15.567  22.740  42.023  1.00  0.00    -0.451 OA
ENDROOT
BRANCH   1  12
ATOM     12  C   UNL     1      13.717  23.895  43.062  1.00  0.00     0.063 A 
ATOM     13  C   UNL     1      11.539  24.675  43.817  1.00  0.00     0.047 A 
ATOM     14  C   UNL     1      12.496  24.545  42.808  1.00  0.00     0.020 A 
ATOM     15  C   UNL     1      11.790  24.169  45.095  1.00  0.00     0.119 A 
ATOM     16  C   UNL     1      13.009  23.532  45.363  1.00  0.00     0.093 A 
ATOM     17  C   UNL     1      13.974  23.395  44.355  1.00  0.00     0.130 A 
BRANCH  15  18
ATOM     18  O   UNL     1      10.826  24.306  46.091  1.00  0.00    -0.508 OA
ATOM     19  H   UNL     1      11.004  24.847  46.929  1.00  0.00     0.293 HD
ENDBRANCH  15  18
BRANCH  17  20
ATOM     20  O   UNL     1      15.182  22.754  44.633  1.00  0.00    -0.507 OA
ATOM     21  H   UNL     1      16.039  23.275  44.775  1.00  0.00     0.293 HD
ENDBRANCH  17  20
ENDBRANCH   1  12
BRANCH   2  22
ATOM     22  O   UNL     1      13.962  25.813  40.911  1.00  0.00    -0.502 OA
ATOM     23  H   UNL     1      14.168  26.716  41.322  1.00  0.00     0.293 HD
ENDBRANCH   2  22
BRANCH   6  24
ATOM     24  O   UNL     1      17.989  24.125  38.083  1.00  0.00    -0.507 OA
ATOM     25  H   UNL     1      18.312  25.071  38.244  1.00  0.00     0.293 HD
ENDBRANCH   6  24
BRANCH   8  26
ATOM     26  O   UNL     1      19.172  20.065  40.439  1.00  0.00    -0.508 OA
ATOM     27  H   UNL     1      19.885  19.843  39.755  1.00  0.00     0.293 HD
ENDBRANCH   8  26
TORSDOF 6
ENDMDL
MODEL 6
REMARK VINA RESULT:    -6.960      1.772      6.569
REMARK INTER + INTRA:          -8.474
REMARK INTER:                  -8.442
REMARK INTRA:                  -0.032
REMARK UNBOUND:                -0.090
REMARK SMILES O=c1c(O)c(-c2ccc(O)cc2O)oc2cc(O)cc(O)c12
REMARK SMILES IDX 5 1 3 2 2 3 1 4 22 5 20 6 19 7 17 8 16 9 15 10 14 11 6 12
REMARK SMILES IDX 8 13 7 14 9 15 11 16 12 17 10 18 13 20 4 22 21 24 18 26
REMARK H PARENT 10 19 13 21 4 23 21 25 18 27
REMARK Flexibility Score: inf
ROOT
ATOM      1  C   UNL     1      14.227  23.673  42.654  1.00  0.00     0.184 A 
ATOM      2  C   UNL     1      14.027  24.745  41.764  1.00  0.00     0.208 A 
ATOM      3  C   UNL     1      14.866  24.863  40.645  1.00  0.00     0.238 A 
ATOM      4  O   UNL     1      14.701  25.824  39.846  1.00  0.00    -0.285 OA
ATOM      5  C   UNL     1      15.875  23.904  40.427  1.00  0.00     0.111 A 
ATOM      6  C   UNL     1      16.760  23.948  39.322  1.00  0.00     0.134 A 
ATOM      7  C   UNL     1      17.734  22.950  39.171  1.00  0.00     0.093 A 
ATOM      8  C   UNL     1      17.840  21.910  40.101  1.00  0.00     0.123 A 
ATOM      9  C   UNL     1      16.970  21.862  41.192  1.00  0.00     0.094 A 
ATOM     10  C   UNL     1      15.993  22.848  41.362  1.00  0.00     0.146 A 
ATOM     11  O   UNL     1      15.181  22.780  42.411  1.00  0.00    -0.451 OA
ENDROOT
BRANCH   1  12
ATOM     12  C   UNL     1      13.390  23.497  43.864  1.00  0.00     0.063 A 
ATOM     13  C   UNL     1      11.225  23.626  44.969  1.00  0.00     0.047 A 
ATOM     14  C   UNL     1      12.010  23.765  43.822  1.00  0.00     0.020 A 
ATOM     15  C   UNL     1      11.807  23.228  46.176  1.00  0.00     0.119 A 
ATOM     16  C   UNL     1      13.183  22.971  46.232  1.00  0.00     0.093 A 
ATOM     17  C   UNL     1      13.978  23.106  45.085  1.00  0.00     0.130 A 
BRANCH  15  18
ATOM     18  O   UNL     1      11.012  23.094  47.311  1.00  0.00    -0.508 OA
ATOM     19  H   UNL     1      10.034  23.361  47.307  1.00  0.00     0.293 HD
ENDBRANCH  15  18
BRANCH  17  20
ATOM     20  O   UNL     1      15.346  22.842  45.153  1.00  0.00    -0.507 OA
ATOM     21  H   UNL     1      15.832  22.784  46.040  1.00  0.00     0.293 HD
ENDBRANCH  17  20
ENDBRANCH   1  12
BRANCH   2  22
ATOM     22  O   UNL     1      12.993  25.659  41.984  1.00  0.00    -0.502 OA
ATOM     23  H   UNL     1      12.652  26.278  41.257  1.00  0.00     0.293 HD
ENDBRANCH   2  22
BRANCH   6  24
ATOM     24  O   UNL     1      16.679  24.972  38.378  1.00  0.00    -0.507 OA
ATOM     25  H   UNL     1      17.462  25.209  37.781  1.00  0.00     0.293 HD
ENDBRANCH   6  24
BRANCH   8  26
ATOM     26  O   UNL     1      18.806  20.918  39.951  1.00  0.00    -0.508 OA
ATOM     27  H   UNL     1      19.150  20.648  39.037  1.00  0.00     0.293 HD
ENDBRANCH   8  26
TORSDOF 6
ENDMDL
MODEL 7
REMARK VINA RESULT:    -6.873      1.531      6.935
REMARK INTER + INTRA:          -8.369
REMARK INTER:                  -7.983
REMARK INTRA:                  -0.386
REMARK UNBOUND:                -0.090
REMARK SMILES O=c1c(O)c(-c2ccc(O)cc2O)oc2cc(O)cc(O)c12
REMARK SMILES IDX 5 1 3 2 2 3 1 4 22 5 20 6 19 7 17 8 16 9 15 10 14 11 6 12
REMARK SMILES IDX 8 13 7 14 9 15 11 16 12 17 10 18 13 20 4 22 21 24 18 26
REMARK H PARENT 10 19 13 21 4 23 21 25 18 27
REMARK Flexibility Score: inf
ROOT
ATOM      1  C   UNL     1      16.922  22.372  41.228  1.00  0.00     0.184 A 
ATOM      2  C   UNL     1      17.029  20.980  41.043  1.00  0.00     0.208 A 
ATOM      3  C   UNL     1      18.212  20.459  40.498  1.00  0.00     0.238 A 
ATOM      4  O   UNL     1      18.316  19.215  40.320  1.00  0.00    -0.285 OA
ATOM      5  C   UNL     1      19.270  21.329  40.164  1.00  0.00     0.111 A 
ATOM      6  C   UNL     1      20.496  20.883  39.615  1.00  0.00     0.134 A 
ATOM      7  C   UNL     1      21.503  21.813  39.315  1.00  0.00     0.093 A 
ATOM      8  C   UNL     1      21.307  23.178  39.556  1.00  0.00     0.123 A 
ATOM      9  C   UNL     1      20.100  23.622  40.098  1.00  0.00     0.094 A 
ATOM     10  C   UNL     1      19.083  22.712  40.401  1.00  0.00     0.146 A 
ATOM     11  O   UNL     1      17.943  23.163  40.912  1.00  0.00    -0.451 OA
ENDROOT
BRANCH   1  12
ATOM     12  C   UNL     1      15.696  22.993  41.781  1.00  0.00     0.063 A 
ATOM     13  C   UNL     1      14.117  23.279  43.611  1.00  0.00     0.047 A 
ATOM     14  C   UNL     1      15.287  22.715  43.098  1.00  0.00     0.020 A 
ATOM     15  C   UNL     1      13.332  24.118  42.816  1.00  0.00     0.119 A 
ATOM     16  C   UNL     1      13.722  24.391  41.498  1.00  0.00     0.093 A 
ATOM     17  C   UNL     1      14.897  23.832  40.976  1.00  0.00     0.130 A 
BRANCH  15  18
ATOM     18  O   UNL     1      12.167  24.672  43.341  1.00  0.00    -0.508 OA
ATOM     19  H   UNL     1      11.733  24.298  44.177  1.00  0.00     0.293 HD
ENDBRANCH  15  18
BRANCH  17  20
ATOM     20  O   UNL     1      15.278  24.116  39.664  1.00  0.00    -0.507 OA
ATOM     21  H   UNL     1      14.659  24.601  39.025  1.00  0.00     0.293 HD
ENDBRANCH  17  20
ENDBRANCH   1  12
BRANCH   2  22
ATOM     22  O   UNL     1      15.981  20.137  41.421  1.00  0.00    -0.502 OA
ATOM     23  H   UNL     1      16.132  19.290  41.955  1.00  0.00     0.293 HD
ENDBRANCH   2  22
BRANCH   6  24
ATOM     24  O   UNL     1      20.720  19.529  39.364  1.00  0.00    -0.507 OA
ATOM     25  H   UNL     1      21.652  19.131  39.382  1.00  0.00     0.293 HD
ENDBRANCH   6  24
BRANCH   8  26
ATOM     26  O   UNL     1      22.307  24.102  39.261  1.00  0.00    -0.508 OA
ATOM     27  H   UNL     1      22.988  24.387  39.956  1.00  0.00     0.293 HD
ENDBRANCH   8  26
TORSDOF 6
ENDMDL
MODEL 8
REMARK VINA RESULT:    -5.810      1.808      6.778
REMARK INTER + INTRA:          -7.089
REMARK INTER:                  -7.178
REMARK INTRA:                   0.089
REMARK UNBOUND:                -0.090
REMARK SMILES O=c1c(O)c(-c2ccc(O)cc2O)oc2cc(O)cc(O)c12
REMARK SMILES IDX 5 1 3 2 2 3 1 4 22 5 20 6 19 7 17 8 16 9 15 10 14 11 6 12
REMARK SMILES IDX 8 13 7 14 9 15 11 16 12 17 10 18 13 20 4 22 21 24 18 26
REMARK H PARENT 10 19 13 21 4 23 21 25 18 27
REMARK Flexibility Score: inf
ROOT
ATOM      1  C   UNL     1      16.385  23.146  41.007  1.00  0.00     0.184 A 
ATOM      2  C   UNL     1      17.002  21.882  40.941  1.00  0.00     0.208 A 
ATOM      3  C   UNL     1      18.070  21.695  40.051  1.00  0.00     0.238 A 
ATOM      4  O   UNL     1      18.624  20.564  39.977  1.00  0.00    -0.285 OA
ATOM      5  C   UNL     1      18.513  22.771  39.256  1.00  0.00     0.111 A 
ATOM      6  C   UNL     1      19.585  22.667  38.338  1.00  0.00     0.134 A 
ATOM      7  C   UNL     1      19.970  23.788  37.588  1.00  0.00     0.093 A 
ATOM      8  C   UNL     1      19.306  25.011  37.741  1.00  0.00     0.123 A 
ATOM      9  C   UNL     1      18.249  25.119  38.646  1.00  0.00     0.094 A 
ATOM     10  C   UNL     1      17.848  24.013  39.401  1.00  0.00     0.146 A 
ATOM     11  O   UNL     1      16.836  24.143  40.251  1.00  0.00    -0.451 OA
ENDROOT
BRANCH   1  12
ATOM     12  C   UNL     1      15.241  23.411  41.911  1.00  0.00     0.063 A 
ATOM     13  C   UNL     1      14.053  22.980  43.991  1.00  0.00     0.047 A 
ATOM     14  C   UNL     1      15.145  22.752  43.150  1.00  0.00     0.020 A 
ATOM     15  C   UNL     1      13.037  23.858  43.604  1.00  0.00     0.119 A 
ATOM     16  C   UNL     1      13.116  24.509  42.366  1.00  0.00     0.093 A 
ATOM     17  C   UNL     1      14.210  24.288  41.517  1.00  0.00     0.130 A 
BRANCH  15  18
ATOM     18  O   UNL     1      11.955  24.075  44.453  1.00  0.00    -0.508 OA
ATOM     19  H   UNL     1      11.903  24.894  45.046  1.00  0.00     0.293 HD
ENDBRANCH  15  18
BRANCH  17  20
ATOM     20  O   UNL     1      14.280  24.947  40.289  1.00  0.00    -0.507 OA
ATOM     21  H   UNL     1      14.085  24.468  39.417  1.00  0.00     0.293 HD
ENDBRANCH  17  20
ENDBRANCH   1  12
BRANCH   2  22
ATOM     22  O   UNL     1      16.568  20.844  41.770  1.00  0.00    -0.502 OA
ATOM     23  H   UNL     1      15.661  20.405  41.658  1.00  0.00     0.293 HD
ENDBRANCH   2  22
BRANCH   6  24
ATOM     24  O   UNL     1      20.266  21.462  38.163  1.00  0.00    -0.507 OA
ATOM     25  H   UNL     1      20.688  21.212  37.277  1.00  0.00     0.293 HD
ENDBRANCH   6  24
BRANCH   8  26
ATOM     26  O   UNL     1      19.690  26.125  36.998  1.00  0.00    -0.508 OA
ATOM     27  H   UNL     1      20.172  26.907  37.426  1.00  0.00     0.293 HD
ENDBRANCH   8  26
TORSDOF 6
ENDMDL
