MODEL 1
REMARK VINA RESULT:    -3.366      0.000      0.000
REMARK INTER + INTRA:          -3.808
REMARK INTER:                  -3.661
REMARK INTRA:                  -0.148
REMARK UNBOUND:                -0.148
REMARK SMILES CC(=O)c1cc(C)ccc1O
REMARK SMILES IDX 7 1 6 2 5 3 4 4 10 5 9 6 8 7 2 8 3 9 1 10 11 11
REMARK H PARENT 11 12
REMARK Flexibility Score: inf
ROOT
ATOM      1  C   UNL     1      29.256  25.095  32.573  1.00  0.00     0.044 C 
ATOM      2  C   UNL     1      30.754  25.120  32.642  1.00  0.00    -0.050 A 
ATOM      3  C   UNL     1      31.515  25.089  31.463  1.00  0.00     0.019 A 
ATOM      4  C   UNL     1      32.922  25.066  31.510  1.00  0.00     0.059 A 
ATOM      5  C   UNL     1      33.564  25.085  32.772  1.00  0.00     0.126 A 
ATOM      6  C   UNL     1      32.796  25.091  33.944  1.00  0.00     0.047 A 
ATOM      7  C   UNL     1      31.403  25.100  33.881  1.00  0.00     0.007 A 
ENDROOT
BRANCH   4   8
ATOM      8  C   UNL     1      33.681  25.031  30.230  1.00  0.00     0.163 C 
ATOM      9  O   UNL     1      34.940  24.986  30.261  1.00  0.00    -0.294 OA
ATOM     10  C   UNL     1      33.004  25.047  28.894  1.00  0.00     0.093 C 
ENDBRANCH   4   8
BRANCH   5  11
ATOM     11  O   UNL     1      34.954  25.117  32.867  1.00  0.00    -0.507 OA
ATOM     12  H   UNL     1      35.424  25.327  33.740  1.00  0.00     0.293 HD
ENDBRANCH   5  11
TORSDOF 2
ENDMDL
MODEL 2
REMARK VINA RESULT:    -3.229     18.551     19.945
REMARK INTER + INTRA:          -3.660
REMARK INTER:                  -3.474
REMARK INTRA:                  -0.186
REMARK UNBOUND:                -0.148
REMARK SMILES CC(=O)c1cc(C)ccc1O
REMARK SMILES IDX 7 1 6 2 5 3 4 4 10 5 9 6 8 7 2 8 3 9 1 10 11 11
REMARK H PARENT 11 12
REMARK Flexibility Score: inf
ROOT
ATOM      1  C   UNL     1      22.050  22.149  46.245  1.00  0.00     0.044 C 
ATOM      2  C   UNL     1      20.707  22.758  46.519  1.00  0.00    -0.050 A 
ATOM      3  C   UNL     1      20.019  23.436  45.502  1.00  0.00     0.019 A 
ATOM      4  C   UNL     1      18.778  24.052  45.753  1.00  0.00     0.059 A 
ATOM      5  C   UNL     1      18.226  23.970  47.054  1.00  0.00     0.126 A 
ATOM      6  C   UNL     1      18.931  23.312  48.071  1.00  0.00     0.047 A 
ATOM      7  C   UNL     1      20.165  22.718  47.809  1.00  0.00     0.007 A 
ENDROOT
BRANCH   4   8
ATOM      8  C   UNL     1      18.091  24.760  44.638  1.00  0.00     0.163 C 
ATOM      9  O   UNL     1      16.875  25.069  44.760  1.00  0.00    -0.294 OA
ATOM     10  C   UNL     1      18.791  25.124  43.365  1.00  0.00     0.093 C 
ENDBRANCH   4   8
BRANCH   5  11
ATOM     11  O   UNL     1      16.976  24.518  47.336  1.00  0.00    -0.507 OA
ATOM     12  H   UNL     1      16.699  25.427  46.983  1.00  0.00     0.293 HD
ENDBRANCH   5  11
TORSDOF 2
ENDMDL
MODEL 3
REMARK VINA RESULT:    -3.153      2.567      3.410
REMARK INTER + INTRA:          -3.577
REMARK INTER:                  -3.421
REMARK INTRA:                  -0.156
REMARK UNBOUND:                -0.148
REMARK SMILES CC(=O)c1cc(C)ccc1O
REMARK SMILES IDX 7 1 6 2 5 3 4 4 10 5 9 6 8 7 2 8 3 9 1 10 11 11
REMARK H PARENT 11 12
REMARK Flexibility Score: inf
ROOT
ATOM      1  C   UNL     1      34.581  25.123  33.591  1.00  0.00     0.044 C 
ATOM      2  C   UNL     1      33.113  25.076  33.290  1.00  0.00    -0.050 A 
ATOM      3  C   UNL     1      32.665  25.059  31.961  1.00  0.00     0.019 A 
ATOM      4  C   UNL     1      31.289  25.061  31.659  1.00  0.00     0.059 A 
ATOM      5  C   UNL     1      30.357  25.071  32.724  1.00  0.00     0.126 A 
ATOM      6  C   UNL     1      30.812  25.112  34.049  1.00  0.00     0.047 A 
ATOM      7  C   UNL     1      32.178  25.124  34.331  1.00  0.00     0.007 A 
ENDROOT
BRANCH   4   8
ATOM      8  C   UNL     1      30.869  25.045  30.232  1.00  0.00     0.163 C 
ATOM      9  O   UNL     1      29.643  25.124  29.948  1.00  0.00    -0.294 OA
ATOM     10  C   UNL     1      31.851  24.936  29.105  1.00  0.00     0.093 C 
ENDBRANCH   4   8
BRANCH   5  11
ATOM     11  O   UNL     1      28.986  25.020  32.476  1.00  0.00    -0.507 OA
ATOM     12  H   UNL     1      28.453  24.167  32.599  1.00  0.00     0.293 HD
ENDBRANCH   5  11
TORSDOF 2
ENDMDL
MODEL 4
REMARK VINA RESULT:    -2.882      2.969      4.392
REMARK INTER + INTRA:          -3.282
REMARK INTER:                  -2.976
REMARK INTRA:                  -0.306
REMARK UNBOUND:                -0.148
REMARK SMILES CC(=O)c1cc(C)ccc1O
REMARK SMILES IDX 7 1 6 2 5 3 4 4 10 5 9 6 8 7 2 8 3 9 1 10 11 11
REMARK H PARENT 11 12
REMARK Flexibility Score: inf
ROOT
ATOM      1  C   UNL     1      35.142  24.165  28.725  1.00  0.00     0.044 C 
ATOM      2  C   UNL     1      33.831  24.362  29.427  1.00  0.00    -0.050 A 
ATOM      3  C   UNL     1      32.627  24.066  28.770  1.00  0.00     0.019 A 
ATOM      4  C   UNL     1      31.386  24.288  29.397  1.00  0.00     0.059 A 
ATOM      5  C   UNL     1      31.369  24.808  30.713  1.00  0.00     0.126 A 
ATOM      6  C   UNL     1      32.575  25.124  31.353  1.00  0.00     0.047 A 
ATOM      7  C   UNL     1      33.796  24.911  30.714  1.00  0.00     0.007 A 
ENDROOT
BRANCH   4   8
ATOM      8  C   UNL     1      30.140  23.958  28.654  1.00  0.00     0.163 C 
ATOM      9  O   UNL     1      29.184  24.780  28.657  1.00  0.00    -0.294 OA
ATOM     10  C   UNL     1      29.971  22.677  27.894  1.00  0.00     0.093 C 
ENDBRANCH   4   8
BRANCH   5  11
ATOM     11  O   UNL     1      30.167  24.994  31.394  1.00  0.00    -0.507 OA
ATOM     12  H   UNL     1      29.271  24.925  30.924  1.00  0.00     0.293 HD
ENDBRANCH   5  11
TORSDOF 2
ENDMDL
MODEL 5
REMARK VINA RESULT:    -2.517      2.862      4.652
REMARK INTER + INTRA:          -2.885
REMARK INTER:                  -2.586
REMARK INTRA:                  -0.299
REMARK UNBOUND:                -0.148
REMARK SMILES CC(=O)c1cc(C)ccc1O
REMARK SMILES IDX 7 1 6 2 5 3 4 4 10 5 9 6 8 7 2 8 3 9 1 10 11 11
REMARK H PARENT 11 12
REMARK Flexibility Score: inf
ROOT
ATOM      1  C   UNL     1      36.875  24.175  27.891  1.00  0.00     0.044 C 
ATOM      2  C   UNL     1      35.730  24.341  28.845  1.00  0.00    -0.050 A 
ATOM      3  C   UNL     1      34.433  23.963  28.464  1.00  0.00     0.019 A 
ATOM      4  C   UNL     1      33.339  24.153  29.330  1.00  0.00     0.059 A 
ATOM      5  C   UNL     1      33.568  24.726  30.604  1.00  0.00     0.126 A 
ATOM      6  C   UNL     1      34.862  25.124  30.967  1.00  0.00     0.047 A 
ATOM      7  C   UNL     1      35.933  24.941  30.093  1.00  0.00     0.007 A 
ENDROOT
BRANCH   4   8
ATOM      8  C   UNL     1      31.985  23.736  28.875  1.00  0.00     0.163 C 
ATOM      9  O   UNL     1      30.991  24.459  29.154  1.00  0.00    -0.294 OA
ATOM     10  C   UNL     1      31.751  22.480  28.092  1.00  0.00     0.093 C 
ENDBRANCH   4   8
BRANCH   5  11
ATOM     11  O   UNL     1      32.525  24.885  31.515  1.00  0.00    -0.507 OA
ATOM     12  H   UNL     1      32.691  25.184  32.469  1.00  0.00     0.293 HD
ENDBRANCH   5  11
TORSDOF 2
ENDMDL
