MODEL 1
REMARK VINA RESULT:    -7.211      0.000      0.000
REMARK INTER + INTRA:         -10.159
REMARK INTER:                  -9.529
REMARK INTRA:                  -0.630
REMARK UNBOUND:                -0.630
REMARK SMILES CC(C)=CCC[C@@H](C(=O)[O-])[C@@H]1CC[C@@]2(C)C3=C(CC[C@@]12C)[C@]1(C)CC[C@@H](O)C(C)(C)[C@H]1CC3
REMARK SMILES IDX 6 1 7 2 8 3 9 4 10 5 11 6 12 7 20 8 13 9 14 10 19 11 21 12
REMARK SMILES IDX 15 13 16 14 18 15 17 16 33 17 22 18 32 19 31 20 24 21 23 22
REMARK SMILES IDX 28 23 25 24 26 25 29 26 30 27 27 28 5 30 4 31 2 32 1 33 3 34
REMARK H PARENT 27 29
REMARK Flexibility Score: inf
ROOT
ATOM      1  C   UNL     1      15.249 -20.643 -39.762  1.00  0.00     0.014 C 
ENDROOT
BRANCH   1   2
ATOM      2  C   UNL     1      13.949 -21.299 -39.220  1.00  0.00     0.039 C 
BRANCH   2   3
ATOM      3  C   UNL     1      14.280 -22.035 -37.943  1.00  0.00     0.045 C 
ATOM      4  O   UNL     1      14.989 -21.503 -37.049  1.00  0.00    -0.550 OA
ATOM      5  O   UNL     1      13.878 -23.356 -37.786  1.00  0.00    -0.550 OA
ENDBRANCH   2   3
BRANCH   2   6
ATOM      6  C   UNL     1      12.737 -20.294 -39.103  1.00  0.00     0.004 C 
ATOM      7  C   UNL     1      12.818 -19.381 -37.873  1.00  0.00     0.006 C 
ATOM      8  C   UNL     1      11.269 -20.878 -39.137  1.00  0.00    -0.020 C 
ATOM      9  C   UNL     1      11.690 -19.763 -36.924  1.00  0.00     0.012 C 
ATOM     10  C   UNL     1      10.713 -20.735 -37.648  1.00  0.00    -0.006 C 
ATOM     11  C   UNL     1      10.406 -20.043 -40.143  1.00  0.00     0.012 C 
ATOM     12  C   UNL     1      11.207 -22.331 -39.700  1.00  0.00     0.012 C 
ATOM     13  C   UNL     1      10.754 -22.093 -36.881  1.00  0.00     0.017 C 
ATOM     14  C   UNL     1       9.281 -20.112 -37.577  1.00  0.00    -0.064 C 
ATOM     15  C   UNL     1       9.894 -18.743 -39.545  1.00  0.00     0.032 C 
ATOM     16  C   UNL     1       8.958 -19.055 -38.394  1.00  0.00    -0.064 C 
ATOM     17  C   UNL     1       8.349 -20.549 -36.443  1.00  0.00     0.032 C 
ATOM     18  C   UNL     1       7.597 -18.321 -38.308  1.00  0.00    -0.008 C 
ATOM     19  C   UNL     1       6.963 -19.906 -36.427  1.00  0.00     0.009 C 
ATOM     20  C   UNL     1       7.063 -18.428 -36.833  1.00  0.00     0.007 C 
ATOM     21  C   UNL     1       7.775 -16.810 -38.645  1.00  0.00     0.014 C 
ATOM     22  C   UNL     1       6.688 -18.991 -39.373  1.00  0.00     0.016 C 
ATOM     23  C   UNL     1       5.815 -17.535 -36.437  1.00  0.00    -0.006 C 
ATOM     24  C   UNL     1       6.515 -15.979 -38.383  1.00  0.00     0.033 C 
ATOM     25  C   UNL     1       6.079 -16.069 -36.912  1.00  0.00     0.120 C 
ATOM     26  C   UNL     1       5.688 -17.492 -34.887  1.00  0.00     0.014 C 
ATOM     27  C   UNL     1       4.463 -18.073 -36.985  1.00  0.00     0.014 C 
BRANCH  25  28
ATOM     28  O   UNL     1       4.977 -15.227 -36.662  1.00  0.00    -0.393 OA
ATOM     29  H   UNL     1       4.789 -15.241 -35.688  1.00  0.00     0.210 HD
ENDBRANCH  25  28
ENDBRANCH   2   6
ENDBRANCH   1   2
BRANCH   1  30
ATOM     30  C   UNL     1      16.262 -21.659 -40.319  1.00  0.00     0.028 C 
BRANCH  30  31
ATOM     31  C   UNL     1      17.538 -20.972 -40.740  1.00  0.00    -0.028 C 
ATOM     32  C   UNL     1      17.787 -20.533 -41.994  1.00  0.00    -0.080 C 
ATOM     33  C   UNL     1      16.765 -20.651 -43.100  1.00  0.00     0.039 C 
ATOM     34  C   UNL     1      19.120 -19.891 -42.280  1.00  0.00     0.039 C 
ENDBRANCH  30  31
ENDBRANCH   1  30
TORSDOF 6
ENDMDL
MODEL 2
REMARK VINA RESULT:    -7.000      2.429      9.031
REMARK INTER + INTRA:          -9.880
REMARK INTER:                  -8.302
REMARK INTRA:                  -1.578
REMARK UNBOUND:                -0.630
REMARK SMILES CC(C)=CCC[C@@H](C(=O)[O-])[C@@H]1CC[C@@]2(C)C3=C(CC[C@@]12C)[C@]1(C)CC[C@@H](O)C(C)(C)[C@H]1CC3
REMARK SMILES IDX 6 1 7 2 8 3 9 4 10 5 11 6 12 7 20 8 13 9 14 10 19 11 21 12
REMARK SMILES IDX 15 13 16 14 18 15 17 16 33 17 22 18 32 19 31 20 24 21 23 22
REMARK SMILES IDX 28 23 25 24 26 25 29 26 30 27 27 28 5 30 4 31 2 32 1 33 3 34
REMARK H PARENT 27 29
REMARK Flexibility Score: inf
ROOT
ATOM      1  C   UNL     1       4.197 -18.289 -38.713  1.00  0.00     0.014 C 
ENDROOT
BRANCH   1   2
ATOM      2  C   UNL     1       4.980 -19.475 -38.088  1.00  0.00     0.039 C 
BRANCH   2   3
ATOM      3  C   UNL     1       4.183 -20.741 -38.301  1.00  0.00     0.045 C 
ATOM      4  O   UNL     1       4.323 -21.736 -37.541  1.00  0.00    -0.550 OA
ATOM      5  O   UNL     1       3.349 -20.852 -39.408  1.00  0.00    -0.550 OA
ENDBRANCH   2   3
BRANCH   2   6
ATOM      6  C   UNL     1       6.484 -19.559 -38.561  1.00  0.00     0.004 C 
ATOM      7  C   UNL     1       6.700 -20.515 -39.741  1.00  0.00     0.006 C 
ATOM      8  C   UNL     1       7.592 -19.907 -37.489  1.00  0.00    -0.020 C 
ATOM      9  C   UNL     1       7.517 -21.701 -39.248  1.00  0.00     0.012 C 
ATOM     10  C   UNL     1       8.063 -21.395 -37.823  1.00  0.00    -0.006 C 
ATOM     11  C   UNL     1       8.779 -18.894 -37.630  1.00  0.00     0.012 C 
ATOM     12  C   UNL     1       7.100 -19.713 -36.022  1.00  0.00     0.012 C 
ATOM     13  C   UNL     1       7.432 -22.436 -36.847  1.00  0.00     0.017 C 
ATOM     14  C   UNL     1       9.618 -21.559 -37.863  1.00  0.00    -0.064 C 
ATOM     15  C   UNL     1       9.732 -19.255 -38.757  1.00  0.00     0.032 C 
ATOM     16  C   UNL     1      10.389 -20.586 -38.453  1.00  0.00    -0.064 C 
ATOM     17  C   UNL     1      10.222 -22.903 -37.445  1.00  0.00     0.032 C 
ATOM     18  C   UNL     1      11.922 -20.728 -38.622  1.00  0.00    -0.008 C 
ATOM     19  C   UNL     1      11.746 -23.002 -37.505  1.00  0.00     0.009 C 
ATOM     20  C   UNL     1      12.274 -22.256 -38.739  1.00  0.00     0.007 C 
ATOM     21  C   UNL     1      12.388 -20.027 -39.934  1.00  0.00     0.014 C 
ATOM     22  C   UNL     1      12.550 -20.013 -37.395  1.00  0.00     0.016 C 
ATOM     23  C   UNL     1      13.749 -22.639 -39.177  1.00  0.00    -0.006 C 
ATOM     24  C   UNL     1      13.857 -20.297 -40.276  1.00  0.00     0.033 C 
ATOM     25  C   UNL     1      14.127 -21.801 -40.442  1.00  0.00     0.120 C 
ATOM     26  C   UNL     1      13.784 -24.135 -39.599  1.00  0.00     0.014 C 
ATOM     27  C   UNL     1      14.801 -22.463 -38.046  1.00  0.00     0.014 C 
BRANCH  25  28
ATOM     28  O   UNL     1      15.456 -22.031 -40.849  1.00  0.00    -0.393 OA
ATOM     29  H   UNL     1      15.822 -22.780 -40.310  1.00  0.00     0.210 HD
ENDBRANCH  25  28
ENDBRANCH   2   6
ENDBRANCH   1   2
BRANCH   1  30
ATOM     30  C   UNL     1       4.353 -16.972 -37.933  1.00  0.00     0.028 C 
BRANCH  30  31
ATOM     31  C   UNL     1       4.383 -17.226 -36.445  1.00  0.00    -0.028 C 
ATOM     32  C   UNL     1       5.278 -16.673 -35.597  1.00  0.00    -0.080 C 
ATOM     33  C   UNL     1       6.324 -15.691 -36.068  1.00  0.00     0.039 C 
ATOM     34  C   UNL     1       5.207 -17.042 -34.138  1.00  0.00     0.039 C 
ENDBRANCH  30  31
ENDBRANCH   1  30
TORSDOF 6
ENDMDL
MODEL 3
REMARK VINA RESULT:    -6.968      2.135      9.428
REMARK INTER + INTRA:          -9.838
REMARK INTER:                  -8.742
REMARK INTRA:                  -1.096
REMARK UNBOUND:                -0.630
REMARK SMILES CC(C)=CCC[C@@H](C(=O)[O-])[C@@H]1CC[C@@]2(C)C3=C(CC[C@@]12C)[C@]1(C)CC[C@@H](O)C(C)(C)[C@H]1CC3
REMARK SMILES IDX 6 1 7 2 8 3 9 4 10 5 11 6 12 7 20 8 13 9 14 10 19 11 21 12
REMARK SMILES IDX 15 13 16 14 18 15 17 16 33 17 22 18 32 19 31 20 24 21 23 22
REMARK SMILES IDX 28 23 25 24 26 25 29 26 30 27 27 28 5 30 4 31 2 32 1 33 3 34
REMARK H PARENT 27 29
REMARK Flexibility Score: inf
ROOT
ATOM      1  C   UNL     1       4.581 -17.437 -36.288  1.00  0.00     0.014 C 
ENDROOT
BRANCH   1   2
ATOM      2  C   UNL     1       5.054 -18.396 -37.414  1.00  0.00     0.039 C 
BRANCH   2   3
ATOM      3  C   UNL     1       4.577 -17.851 -38.740  1.00  0.00     0.045 C 
ATOM      4  O   UNL     1       4.351 -16.622 -38.896  1.00  0.00    -0.550 OA
ATOM      5  O   UNL     1       4.289 -18.725 -39.781  1.00  0.00    -0.550 OA
ENDBRANCH   2   3
BRANCH   2   6
ATOM      6  C   UNL     1       6.597 -18.725 -37.356  1.00  0.00     0.004 C 
ATOM      7  C   UNL     1       7.425 -17.947 -38.388  1.00  0.00     0.006 C 
ATOM      8  C   UNL     1       7.049 -20.236 -37.461  1.00  0.00    -0.020 C 
ATOM      9  C   UNL     1       7.961 -18.939 -39.411  1.00  0.00     0.012 C 
ATOM     10  C   UNL     1       7.713 -20.389 -38.904  1.00  0.00    -0.006 C 
ATOM     11  C   UNL     1       8.087 -20.541 -36.327  1.00  0.00     0.012 C 
ATOM     12  C   UNL     1       5.885 -21.238 -37.188  1.00  0.00     0.012 C 
ATOM     13  C   UNL     1       6.745 -21.078 -39.916  1.00  0.00     0.017 C 
ATOM     14  C   UNL     1       9.090 -21.128 -38.878  1.00  0.00    -0.064 C 
ATOM     15  C   UNL     1       9.493 -20.078 -36.675  1.00  0.00     0.032 C 
ATOM     16  C   UNL     1       9.992 -20.850 -37.879  1.00  0.00    -0.064 C 
ATOM     17  C   UNL     1       9.488 -21.975 -40.091  1.00  0.00     0.032 C 
ATOM     18  C   UNL     1      11.414 -21.464 -37.846  1.00  0.00    -0.008 C 
ATOM     19  C   UNL     1      10.845 -22.673 -40.007  1.00  0.00     0.009 C 
ATOM     20  C   UNL     1      11.869 -21.753 -39.324  1.00  0.00     0.007 C 
ATOM     21  C   UNL     1      12.425 -20.455 -37.223  1.00  0.00     0.014 C 
ATOM     22  C   UNL     1      11.309 -22.724 -36.945  1.00  0.00     0.016 C 
ATOM     23  C   UNL     1      13.387 -22.142 -39.562  1.00  0.00    -0.006 C 
ATOM     24  C   UNL     1      13.883 -20.907 -37.342  1.00  0.00     0.033 C 
ATOM     25  C   UNL     1      14.290 -21.111 -38.810  1.00  0.00     0.120 C 
ATOM     26  C   UNL     1      13.716 -22.011 -41.076  1.00  0.00     0.014 C 
ATOM     27  C   UNL     1      13.730 -23.602 -39.150  1.00  0.00     0.014 C 
BRANCH  25  28
ATOM     28  O   UNL     1      15.657 -21.434 -38.912  1.00  0.00    -0.393 OA
ATOM     29  H   UNL     1      16.144 -20.632 -39.237  1.00  0.00     0.210 HD
ENDBRANCH  25  28
ENDBRANCH   2   6
ENDBRANCH   1   2
BRANCH   1  30
ATOM     30  C   UNL     1       5.644 -17.195 -35.201  1.00  0.00     0.028 C 
BRANCH  30  31
ATOM     31  C   UNL     1       5.259 -16.033 -34.319  1.00  0.00    -0.028 C 
ATOM     32  C   UNL     1       4.895 -16.149 -33.022  1.00  0.00    -0.080 C 
ATOM     33  C   UNL     1       4.887 -17.482 -32.312  1.00  0.00     0.039 C 
ATOM     34  C   UNL     1       4.505 -14.903 -32.270  1.00  0.00     0.039 C 
ENDBRANCH  30  31
ENDBRANCH   1  30
TORSDOF 6
ENDMDL
MODEL 4
REMARK VINA RESULT:    -6.715      2.833      4.358
REMARK INTER + INTRA:          -9.503
REMARK INTER:                  -7.723
REMARK INTRA:                  -1.781
REMARK UNBOUND:                -0.630
REMARK SMILES CC(C)=CCC[C@@H](C(=O)[O-])[C@@H]1CC[C@@]2(C)C3=C(CC[C@@]12C)[C@]1(C)CC[C@@H](O)C(C)(C)[C@H]1CC3
REMARK SMILES IDX 6 1 7 2 8 3 9 4 10 5 11 6 12 7 20 8 13 9 14 10 19 11 21 12
REMARK SMILES IDX 15 13 16 14 18 15 17 16 33 17 22 18 32 19 31 20 24 21 23 22
REMARK SMILES IDX 28 23 25 24 26 25 29 26 30 27 27 28 5 30 4 31 2 32 1 33 3 34
REMARK H PARENT 27 29
REMARK Flexibility Score: inf
ROOT
ATOM      1  C   UNL     1      11.348 -22.632 -37.194  1.00  0.00     0.014 C 
ENDROOT
BRANCH   1   2
ATOM      2  C   UNL     1       9.856 -22.530 -37.613  1.00  0.00     0.039 C 
BRANCH   2   3
ATOM      3  C   UNL     1       9.124 -23.740 -37.079  1.00  0.00     0.045 C 
ATOM      4  O   UNL     1       8.171 -24.259 -37.717  1.00  0.00    -0.550 OA
ATOM      5  O   UNL     1       9.440 -24.236 -35.820  1.00  0.00    -0.550 OA
ENDBRANCH   2   3
BRANCH   2   6
ATOM      6  C   UNL     1       9.190 -21.146 -37.246  1.00  0.00     0.004 C 
ATOM      7  C   UNL     1       8.317 -21.204 -35.986  1.00  0.00     0.006 C 
ATOM      8  C   UNL     1       8.338 -20.404 -38.352  1.00  0.00    -0.020 C 
ATOM      9  C   UNL     1       6.868 -21.000 -36.403  1.00  0.00     0.012 C 
ATOM     10  C   UNL     1       6.817 -20.542 -37.889  1.00  0.00    -0.006 C 
ATOM     11  C   UNL     1       8.775 -18.901 -38.414  1.00  0.00     0.012 C 
ATOM     12  C   UNL     1       8.615 -20.938 -39.791  1.00  0.00     0.012 C 
ATOM     13  C   UNL     1       6.065 -21.647 -38.693  1.00  0.00     0.017 C 
ATOM     14  C   UNL     1       6.027 -19.193 -37.947  1.00  0.00    -0.064 C 
ATOM     15  C   UNL     1       8.134 -18.055 -37.327  1.00  0.00     0.032 C 
ATOM     16  C   UNL     1       6.632 -18.033 -37.528  1.00  0.00    -0.064 C 
ATOM     17  C   UNL     1       4.527 -19.238 -38.256  1.00  0.00     0.032 C 
ATOM     18  C   UNL     1       5.880 -16.680 -37.459  1.00  0.00    -0.008 C 
ATOM     19  C   UNL     1       3.810 -17.889 -38.298  1.00  0.00     0.009 C 
ATOM     20  C   UNL     1       4.356 -16.968 -37.198  1.00  0.00     0.007 C 
ATOM     21  C   UNL     1       6.416 -15.824 -36.271  1.00  0.00     0.014 C 
ATOM     22  C   UNL     1       6.181 -15.961 -38.801  1.00  0.00     0.016 C 
ATOM     23  C   UNL     1       3.429 -15.735 -36.830  1.00  0.00    -0.006 C 
ATOM     24  C   UNL     1       5.586 -14.563 -36.012  1.00  0.00     0.033 C 
ATOM     25  C   UNL     1       4.121 -14.909 -35.698  1.00  0.00     0.120 C 
ATOM     26  C   UNL     1       2.086 -16.262 -36.248  1.00  0.00     0.014 C 
ATOM     27  C   UNL     1       3.071 -14.838 -38.049  1.00  0.00     0.014 C 
BRANCH  25  28
ATOM     28  O   UNL     1       3.391 -13.751 -35.369  1.00  0.00    -0.393 OA
ATOM     29  H   UNL     1       2.424 -13.970 -35.407  1.00  0.00     0.210 HD
ENDBRANCH  25  28
ENDBRANCH   2   6
ENDBRANCH   1   2
BRANCH   1  30
ATOM     30  C   UNL     1      12.148 -21.344 -37.458  1.00  0.00     0.028 C 
BRANCH  30  31
ATOM     31  C   UNL     1      12.333 -21.117 -38.938  1.00  0.00    -0.028 C 
ATOM     32  C   UNL     1      12.441 -19.899 -39.513  1.00  0.00    -0.080 C 
ATOM     33  C   UNL     1      12.435 -18.627 -38.698  1.00  0.00     0.039 C 
ATOM     34  C   UNL     1      12.591 -19.821 -41.010  1.00  0.00     0.039 C 
ENDBRANCH  30  31
ENDBRANCH   1  30
TORSDOF 6
ENDMDL
MODEL 5
REMARK VINA RESULT:    -6.555      2.353      8.565
REMARK INTER + INTRA:          -9.292
REMARK INTER:                  -7.603
REMARK INTRA:                  -1.688
REMARK UNBOUND:                -0.630
REMARK SMILES CC(C)=CCC[C@@H](C(=O)[O-])[C@@H]1CC[C@@]2(C)C3=C(CC[C@@]12C)[C@]1(C)CC[C@@H](O)C(C)(C)[C@H]1CC3
REMARK SMILES IDX 6 1 7 2 8 3 9 4 10 5 11 6 12 7 20 8 13 9 14 10 19 11 21 12
REMARK SMILES IDX 15 13 16 14 18 15 17 16 33 17 22 18 32 19 31 20 24 21 23 22
REMARK SMILES IDX 28 23 25 24 26 25 29 26 30 27 27 28 5 30 4 31 2 32 1 33 3 34
REMARK H PARENT 27 29
REMARK Flexibility Score: inf
ROOT
ATOM      1  C   UNL     1       4.863 -18.115 -37.406  1.00  0.00     0.014 C 
ENDROOT
BRANCH   1   2
ATOM      2  C   UNL     1       5.433 -19.556 -37.498  1.00  0.00     0.039 C 
BRANCH   2   3
ATOM      3  C   UNL     1       4.433 -20.421 -38.231  1.00  0.00     0.045 C 
ATOM      4  O   UNL     1       3.689 -19.941 -39.126  1.00  0.00    -0.550 OA
ATOM      5  O   UNL     1       4.261 -21.747 -37.853  1.00  0.00    -0.550 OA
ENDBRANCH   2   3
BRANCH   2   6
ATOM      6  C   UNL     1       6.902 -19.619 -38.073  1.00  0.00     0.004 C 
ATOM      7  C   UNL     1       7.005 -20.379 -39.402  1.00  0.00     0.006 C 
ATOM      8  C   UNL     1       8.051 -20.179 -37.142  1.00  0.00    -0.020 C 
ATOM      9  C   UNL     1       7.791 -21.660 -39.157  1.00  0.00     0.012 C 
ATOM     10  C   UNL     1       8.431 -21.609 -37.739  1.00  0.00    -0.006 C 
ATOM     11  C   UNL     1       9.275 -19.202 -37.195  1.00  0.00     0.012 C 
ATOM     12  C   UNL     1       7.652 -20.206 -35.635  1.00  0.00     0.012 C 
ATOM     13  C   UNL     1       7.807 -22.770 -36.904  1.00  0.00     0.017 C 
ATOM     14  C   UNL     1       9.971 -21.824 -37.903  1.00  0.00    -0.064 C 
ATOM     15  C   UNL     1      10.144 -19.411 -38.424  1.00  0.00     0.032 C 
ATOM     16  C   UNL     1      10.753 -20.798 -38.378  1.00  0.00    -0.064 C 
ATOM     17  C   UNL     1      10.533 -23.240 -37.743  1.00  0.00     0.032 C 
ATOM     18  C   UNL     1      12.266 -20.969 -38.664  1.00  0.00    -0.008 C 
ATOM     19  C   UNL     1      12.044 -23.386 -37.915  1.00  0.00     0.009 C 
ATOM     20  C   UNL     1      12.537 -22.470 -39.046  1.00  0.00     0.007 C 
ATOM     21  C   UNL     1      12.690 -20.083 -39.875  1.00  0.00     0.014 C 
ATOM     22  C   UNL     1      12.995 -20.487 -37.382  1.00  0.00     0.016 C 
ATOM     23  C   UNL     1      13.965 -22.833 -39.632  1.00  0.00    -0.006 C 
ATOM     24  C   UNL     1      14.123 -20.351 -40.348  1.00  0.00     0.033 C 
ATOM     25  C   UNL     1      14.310 -21.817 -40.769  1.00  0.00     0.120 C 
ATOM     26  C   UNL     1      13.904 -24.242 -40.288  1.00  0.00     0.014 C 
ATOM     27  C   UNL     1      15.086 -22.883 -38.556  1.00  0.00     0.014 C 
BRANCH  25  28
ATOM     28  O   UNL     1      15.602 -22.028 -41.290  1.00  0.00    -0.393 OA
ATOM     29  H   UNL     1      15.789 -21.316 -41.956  1.00  0.00     0.210 HD
ENDBRANCH  25  28
ENDBRANCH   2   6
ENDBRANCH   1   2
BRANCH   1  30
ATOM     30  C   UNL     1       5.932 -17.021 -37.573  1.00  0.00     0.028 C 
BRANCH  30  31
ATOM     31  C   UNL     1       5.772 -16.308 -38.894  1.00  0.00    -0.028 C 
ATOM     32  C   UNL     1       6.792 -16.027 -39.735  1.00  0.00    -0.080 C 
ATOM     33  C   UNL     1       8.211 -16.455 -39.442  1.00  0.00     0.039 C 
ATOM     34  C   UNL     1       6.489 -15.280 -41.009  1.00  0.00     0.039 C 
ENDBRANCH  30  31
ENDBRANCH   1  30
TORSDOF 6
ENDMDL
MODEL 6
REMARK VINA RESULT:    -6.508      7.650     12.555
REMARK INTER + INTRA:          -9.230
REMARK INTER:                  -7.914
REMARK INTRA:                  -1.316
REMARK UNBOUND:                -0.630
REMARK SMILES CC(C)=CCC[C@@H](C(=O)[O-])[C@@H]1CC[C@@]2(C)C3=C(CC[C@@]12C)[C@]1(C)CC[C@@H](O)C(C)(C)[C@H]1CC3
REMARK SMILES IDX 6 1 7 2 8 3 9 4 10 5 11 6 12 7 20 8 13 9 14 10 19 11 21 12
REMARK SMILES IDX 15 13 16 14 18 15 17 16 33 17 22 18 32 19 31 20 24 21 23 22
REMARK SMILES IDX 28 23 25 24 26 25 29 26 30 27 27 28 5 30 4 31 2 32 1 33 3 34
REMARK H PARENT 27 29
REMARK Flexibility Score: inf
ROOT
ATOM      1  C   UNL     1       8.444 -11.626 -45.563  1.00  0.00     0.014 C 
ENDROOT
BRANCH   1   2
ATOM      2  C   UNL     1       8.927 -13.025 -45.092  1.00  0.00     0.039 C 
BRANCH   2   3
ATOM      3  C   UNL     1       7.783 -14.001 -45.237  1.00  0.00     0.045 C 
ATOM      4  O   UNL     1       6.893 -13.837 -46.113  1.00  0.00    -0.550 OA
ATOM      5  O   UNL     1       7.652 -15.048 -44.333  1.00  0.00    -0.550 OA
ENDBRANCH   2   3
BRANCH   2   6
ATOM      6  C   UNL     1      10.275 -13.488 -45.770  1.00  0.00     0.004 C 
ATOM      7  C   UNL     1      10.119 -14.738 -46.647  1.00  0.00     0.006 C 
ATOM      8  C   UNL     1      11.535 -13.738 -44.848  1.00  0.00    -0.020 C 
ATOM      9  C   UNL     1      10.873 -15.881 -45.982  1.00  0.00     0.012 C 
ATOM     10  C   UNL     1      11.741 -15.320 -44.819  1.00  0.00    -0.006 C 
ATOM     11  C   UNL     1      12.779 -13.018 -45.473  1.00  0.00     0.012 C 
ATOM     12  C   UNL     1      11.391 -13.090 -43.437  1.00  0.00     0.012 C 
ATOM     13  C   UNL     1      11.209 -15.949 -43.493  1.00  0.00     0.017 C 
ATOM     14  C   UNL     1      13.221 -15.757 -45.074  1.00  0.00    -0.064 C 
ATOM     15  C   UNL     1      13.420 -13.817 -46.595  1.00  0.00     0.032 C 
ATOM     16  C   UNL     1      13.961 -15.119 -46.040  1.00  0.00    -0.064 C 
ATOM     17  C   UNL     1      13.733 -17.033 -44.398  1.00  0.00     0.032 C 
ATOM     18  C   UNL     1      15.395 -15.564 -46.419  1.00  0.00    -0.008 C 
ATOM     19  C   UNL     1      15.185 -17.409 -44.686  1.00  0.00     0.009 C 
ATOM     20  C   UNL     1      15.527 -17.109 -46.153  1.00  0.00     0.007 C 
ATOM     21  C   UNL     1      15.654 -15.317 -47.936  1.00  0.00     0.014 C 
ATOM     22  C   UNL     1      16.350 -14.680 -45.573  1.00  0.00     0.016 C 
ATOM     23  C   UNL     1      16.818 -17.843 -46.707  1.00  0.00    -0.006 C 
ATOM     24  C   UNL     1      16.974 -15.918 -48.431  1.00  0.00     0.033 C 
ATOM     25  C   UNL     1      17.018 -17.437 -48.204  1.00  0.00     0.120 C 
ATOM     26  C   UNL     1      16.582 -19.380 -46.683  1.00  0.00     0.014 C 
ATOM     27  C   UNL     1      18.099 -17.569 -45.870  1.00  0.00     0.014 C 
BRANCH  25  28
ATOM     28  O   UNL     1      18.193 -17.992 -48.748  1.00  0.00    -0.393 OA
ATOM     29  H   UNL     1      18.442 -18.787 -48.207  1.00  0.00     0.210 HD
ENDBRANCH  25  28
ENDBRANCH   2   6
ENDBRANCH   1   2
BRANCH   1  30
ATOM     30  C   UNL     1       9.572 -10.583 -45.645  1.00  0.00     0.028 C 
BRANCH  30  31
ATOM     31  C   UNL     1       9.382  -9.501 -44.610  1.00  0.00    -0.028 C 
ATOM     32  C   UNL     1      10.379  -8.726 -44.127  1.00  0.00    -0.080 C 
ATOM     33  C   UNL     1      11.798  -8.846 -44.630  1.00  0.00     0.039 C 
ATOM     34  C   UNL     1      10.048  -7.704 -43.071  1.00  0.00     0.039 C 
ENDBRANCH  30  31
ENDBRANCH   1  30
TORSDOF 6
ENDMDL
MODEL 7
REMARK VINA RESULT:    -6.457      5.993      9.985
REMARK INTER + INTRA:          -9.163
REMARK INTER:                  -7.795
REMARK INTRA:                  -1.368
REMARK UNBOUND:                -0.630
REMARK SMILES CC(C)=CCC[C@@H](C(=O)[O-])[C@@H]1CC[C@@]2(C)C3=C(CC[C@@]12C)[C@]1(C)CC[C@@H](O)C(C)(C)[C@H]1CC3
REMARK SMILES IDX 6 1 7 2 8 3 9 4 10 5 11 6 12 7 20 8 13 9 14 10 19 11 21 12
REMARK SMILES IDX 15 13 16 14 18 15 17 16 33 17 22 18 32 19 31 20 24 21 23 22
REMARK SMILES IDX 28 23 25 24 26 25 29 26 30 27 27 28 5 30 4 31 2 32 1 33 3 34
REMARK H PARENT 27 29
REMARK Flexibility Score: inf
ROOT
ATOM      1  C   UNL     1       5.521 -18.765 -38.058  1.00  0.00     0.014 C 
ENDROOT
BRANCH   1   2
ATOM      2  C   UNL     1       5.182 -18.139 -39.438  1.00  0.00     0.039 C 
BRANCH   2   3
ATOM      3  C   UNL     1       3.787 -17.561 -39.373  1.00  0.00     0.045 C 
ATOM      4  O   UNL     1       3.078 -17.453 -40.408  1.00  0.00    -0.550 OA
ATOM      5  O   UNL     1       3.307 -17.052 -38.173  1.00  0.00    -0.550 OA
ENDBRANCH   2   3
BRANCH   2   6
ATOM      6  C   UNL     1       6.283 -17.137 -39.965  1.00  0.00     0.004 C 
ATOM      7  C   UNL     1       5.820 -15.675 -39.981  1.00  0.00     0.006 C 
ATOM      8  C   UNL     1       6.943 -17.418 -41.374  1.00  0.00    -0.020 C 
ATOM      9  C   UNL     1       5.713 -15.227 -41.432  1.00  0.00     0.012 C 
ATOM     10  C   UNL     1       6.360 -16.301 -42.353  1.00  0.00    -0.006 C 
ATOM     11  C   UNL     1       8.500 -17.296 -41.244  1.00  0.00     0.012 C 
ATOM     12  C   UNL     1       6.717 -18.879 -41.870  1.00  0.00     0.012 C 
ATOM     13  C   UNL     1       5.234 -16.868 -43.272  1.00  0.00     0.017 C 
ATOM     14  C   UNL     1       7.459 -15.594 -43.212  1.00  0.00    -0.064 C 
ATOM     15  C   UNL     1       8.985 -15.857 -41.283  1.00  0.00     0.032 C 
ATOM     16  C   UNL     1       8.658 -15.253 -42.634  1.00  0.00    -0.064 C 
ATOM     17  C   UNL     1       7.085 -15.097 -44.613  1.00  0.00     0.032 C 
ATOM     18  C   UNL     1       9.752 -14.460 -43.392  1.00  0.00    -0.008 C 
ATOM     19  C   UNL     1       8.200 -14.415 -45.402  1.00  0.00     0.009 C 
ATOM     20  C   UNL     1       9.055 -13.547 -44.466  1.00  0.00     0.007 C 
ATOM     21  C   UNL     1      10.528 -13.534 -42.407  1.00  0.00     0.014 C 
ATOM     22  C   UNL     1      10.716 -15.526 -43.979  1.00  0.00     0.016 C 
ATOM     23  C   UNL     1       9.945 -12.452 -45.188  1.00  0.00    -0.006 C 
ATOM     24  C   UNL     1      11.487 -12.569 -43.112  1.00  0.00     0.033 C 
ATOM     25  C   UNL     1      10.740 -11.659 -44.101  1.00  0.00     0.120 C 
ATOM     26  C   UNL     1       9.016 -11.430 -45.904  1.00  0.00     0.014 C 
ATOM     27  C   UNL     1      10.895 -13.035 -46.272  1.00  0.00     0.014 C 
BRANCH  25  28
ATOM     28  O   UNL     1      11.615 -10.714 -44.672  1.00  0.00    -0.393 OA
ATOM     29  H   UNL     1      11.245  -9.807 -44.506  1.00  0.00     0.210 HD
ENDBRANCH  25  28
ENDBRANCH   2   6
ENDBRANCH   1   2
BRANCH   1  30
ATOM     30  C   UNL     1       6.545 -17.950 -37.250  1.00  0.00     0.028 C 
BRANCH  30  31
ATOM     31  C   UNL     1       6.041 -17.683 -35.853  1.00  0.00    -0.028 C 
ATOM     32  C   UNL     1       5.703 -16.460 -35.386  1.00  0.00    -0.080 C 
ATOM     33  C   UNL     1       5.758 -15.229 -36.259  1.00  0.00     0.039 C 
ATOM     34  C   UNL     1       5.243 -16.338 -33.957  1.00  0.00     0.039 C 
ENDBRANCH  30  31
ENDBRANCH   1  30
TORSDOF 6
ENDMDL
MODEL 8
REMARK VINA RESULT:    -6.448      3.986     10.743
REMARK INTER + INTRA:          -9.150
REMARK INTER:                  -8.144
REMARK INTRA:                  -1.006
REMARK UNBOUND:                -0.630
REMARK SMILES CC(C)=CCC[C@@H](C(=O)[O-])[C@@H]1CC[C@@]2(C)C3=C(CC[C@@]12C)[C@]1(C)CC[C@@H](O)C(C)(C)[C@H]1CC3
REMARK SMILES IDX 6 1 7 2 8 3 9 4 10 5 11 6 12 7 20 8 13 9 14 10 19 11 21 12
REMARK SMILES IDX 15 13 16 14 18 15 17 16 33 17 22 18 32 19 31 20 24 21 23 22
REMARK SMILES IDX 28 23 25 24 26 25 29 26 30 27 27 28 5 30 4 31 2 32 1 33 3 34
REMARK H PARENT 27 29
REMARK Flexibility Score: inf
ROOT
ATOM      1  C   UNL     1       0.860 -15.500 -39.336  1.00  0.00     0.014 C 
ENDROOT
BRANCH   1   2
ATOM      2  C   UNL     1       2.306 -15.021 -39.034  1.00  0.00     0.039 C 
BRANCH   2   3
ATOM      3  C   UNL     1       2.231 -13.721 -38.267  1.00  0.00     0.045 C 
ATOM      4  O   UNL     1       1.460 -13.591 -37.279  1.00  0.00    -0.550 OA
ATOM      5  O   UNL     1       2.950 -12.617 -38.709  1.00  0.00    -0.550 OA
ENDBRANCH   2   3
BRANCH   2   6
ATOM      6  C   UNL     1       3.211 -16.127 -38.364  1.00  0.00     0.004 C 
ATOM      7  C   UNL     1       4.084 -15.592 -37.221  1.00  0.00     0.006 C 
ATOM      8  C   UNL     1       4.159 -16.988 -39.291  1.00  0.00    -0.020 C 
ATOM      9  C   UNL     1       5.538 -15.659 -37.664  1.00  0.00     0.012 C 
ATOM     10  C   UNL     1       5.640 -16.484 -38.980  1.00  0.00    -0.006 C 
ATOM     11  C   UNL     1       3.991 -18.504 -38.931  1.00  0.00     0.012 C 
ATOM     12  C   UNL     1       3.766 -16.911 -40.798  1.00  0.00     0.012 C 
ATOM     13  C   UNL     1       6.172 -15.526 -40.091  1.00  0.00     0.017 C 
ATOM     14  C   UNL     1       6.654 -17.650 -38.735  1.00  0.00    -0.064 C 
ATOM     15  C   UNL     1       4.791 -18.910 -37.705  1.00  0.00     0.032 C 
ATOM     16  C   UNL     1       6.270 -18.739 -37.990  1.00  0.00    -0.064 C 
ATOM     17  C   UNL     1       8.116 -17.444 -39.142  1.00  0.00     0.032 C 
ATOM     18  C   UNL     1       7.248 -19.881 -37.620  1.00  0.00    -0.008 C 
ATOM     19  C   UNL     1       9.058 -18.618 -38.878  1.00  0.00     0.009 C 
ATOM     20  C   UNL     1       8.703 -19.288 -37.542  1.00  0.00     0.007 C 
ATOM     21  C   UNL     1       6.893 -20.463 -36.218  1.00  0.00     0.014 C 
ATOM     22  C   UNL     1       7.053 -20.973 -38.706  1.00  0.00     0.016 C 
ATOM     23  C   UNL     1       9.839 -20.207 -36.928  1.00  0.00    -0.006 C 
ATOM     24  C   UNL     1       7.936 -21.455 -35.694  1.00  0.00     0.033 C 
ATOM     25  C   UNL     1       9.323 -20.802 -35.577  1.00  0.00     0.120 C 
ATOM     26  C   UNL     1      11.079 -19.331 -36.591  1.00  0.00     0.014 C 
ATOM     27  C   UNL     1      10.325 -21.327 -37.891  1.00  0.00     0.014 C 
BRANCH  25  28
ATOM     28  O   UNL     1      10.251 -21.694 -35.005  1.00  0.00    -0.393 OA
ATOM     29  H   UNL     1      10.630 -22.257 -35.730  1.00  0.00     0.210 HD
ENDBRANCH  25  28
ENDBRANCH   2   6
ENDBRANCH   1   2
BRANCH   1  30
ATOM     30  C   UNL     1       0.485 -15.421 -40.826  1.00  0.00     0.028 C 
BRANCH  30  31
ATOM     31  C   UNL     1      -0.331 -14.184 -41.112  1.00  0.00    -0.028 C 
ATOM     32  C   UNL     1       0.176 -13.038 -41.620  1.00  0.00    -0.080 C 
ATOM     33  C   UNL     1       1.632 -12.908 -41.998  1.00  0.00     0.039 C 
ATOM     34  C   UNL     1      -0.753 -11.870 -41.826  1.00  0.00     0.039 C 
ENDBRANCH  30  31
ENDBRANCH   1  30
TORSDOF 6
ENDMDL
MODEL 9
REMARK VINA RESULT:    -6.327      2.680      9.227
REMARK INTER + INTRA:          -8.990
REMARK INTER:                  -7.229
REMARK INTRA:                  -1.762
REMARK UNBOUND:                -0.630
REMARK SMILES CC(C)=CCC[C@@H](C(=O)[O-])[C@@H]1CC[C@@]2(C)C3=C(CC[C@@]12C)[C@]1(C)CC[C@@H](O)C(C)(C)[C@H]1CC3
REMARK SMILES IDX 6 1 7 2 8 3 9 4 10 5 11 6 12 7 20 8 13 9 14 10 19 11 21 12
REMARK SMILES IDX 15 13 16 14 18 15 17 16 33 17 22 18 32 19 31 20 24 21 23 22
REMARK SMILES IDX 28 23 25 24 26 25 29 26 30 27 27 28 5 30 4 31 2 32 1 33 3 34
REMARK H PARENT 27 29
REMARK Flexibility Score: inf
ROOT
ATOM      1  C   UNL     1       2.598 -18.048 -37.917  1.00  0.00     0.014 C 
ENDROOT
BRANCH   1   2
ATOM      2  C   UNL     1       3.372 -19.123 -38.728  1.00  0.00     0.039 C 
BRANCH   2   3
ATOM      3  C   UNL     1       3.013 -18.972 -40.189  1.00  0.00     0.045 C 
ATOM      4  O   UNL     1       2.636 -17.865 -40.656  1.00  0.00    -0.550 OA
ATOM      5  O   UNL     1       3.005 -20.090 -41.015  1.00  0.00    -0.550 OA
ENDBRANCH   2   3
BRANCH   2   6
ATOM      6  C   UNL     1       4.923 -19.141 -38.432  1.00  0.00     0.004 C 
ATOM      7  C   UNL     1       5.769 -18.572 -39.579  1.00  0.00     0.006 C 
ATOM      8  C   UNL     1       5.593 -20.510 -38.012  1.00  0.00    -0.020 C 
ATOM      9  C   UNL     1       6.577 -19.712 -40.183  1.00  0.00     0.012 C 
ATOM     10  C   UNL     1       6.467 -20.965 -39.267  1.00  0.00    -0.006 C 
ATOM     11  C   UNL     1       6.495 -20.274 -36.753  1.00  0.00     0.012 C 
ATOM     12  C   UNL     1       4.555 -21.574 -37.541  1.00  0.00     0.012 C 
ATOM     13  C   UNL     1       5.757 -22.084 -40.092  1.00  0.00     0.017 C 
ATOM     14  C   UNL     1       7.917 -21.407 -38.886  1.00  0.00    -0.064 C 
ATOM     15  C   UNL     1       7.856 -19.695 -37.101  1.00  0.00     0.032 C 
ATOM     16  C   UNL     1       8.622 -20.689 -37.950  1.00  0.00    -0.064 C 
ATOM     17  C   UNL     1       8.596 -22.492 -39.728  1.00  0.00     0.032 C 
ATOM     18  C   UNL     1      10.097 -21.004 -37.598  1.00  0.00    -0.008 C 
ATOM     19  C   UNL     1      10.012 -22.881 -39.306  1.00  0.00     0.009 C 
ATOM     20  C   UNL     1      10.791 -21.634 -38.861  1.00  0.00     0.007 C 
ATOM     21  C   UNL     1      10.859 -19.692 -37.238  1.00  0.00     0.014 C 
ATOM     22  C   UNL     1      10.045 -21.936 -36.357  1.00  0.00     0.016 C 
ATOM     23  C   UNL     1      12.367 -21.801 -38.827  1.00  0.00    -0.006 C 
ATOM     24  C   UNL     1      12.369 -19.894 -37.077  1.00  0.00     0.033 C 
ATOM     25  C   UNL     1      13.002 -20.450 -38.363  1.00  0.00     0.120 C 
ATOM     26  C   UNL     1      12.882 -22.070 -40.270  1.00  0.00     0.014 C 
ATOM     27  C   UNL     1      12.851 -22.987 -37.946  1.00  0.00     0.014 C 
BRANCH  25  28
ATOM     28  O   UNL     1      14.402 -20.541 -38.235  1.00  0.00    -0.393 OA
ATOM     29  H   UNL     1      14.786 -19.635 -38.367  1.00  0.00     0.210 HD
ENDBRANCH  25  28
ENDBRANCH   2   6
ENDBRANCH   1   2
BRANCH   1  30
ATOM     30  C   UNL     1       3.486 -16.893 -37.423  1.00  0.00     0.028 C 
BRANCH  30  31
ATOM     31  C   UNL     1       3.800 -17.044 -35.955  1.00  0.00    -0.028 C 
ATOM     32  C   UNL     1       5.025 -16.853 -35.415  1.00  0.00    -0.080 C 
ATOM     33  C   UNL     1       6.205 -16.415 -36.249  1.00  0.00     0.039 C 
ATOM     34  C   UNL     1       5.199 -17.069 -33.934  1.00  0.00     0.039 C 
ENDBRANCH  30  31
ENDBRANCH   1  30
TORSDOF 6
ENDMDL
