MODEL 1
REMARK VINA RESULT:    -3.689      0.000      0.000
REMARK INTER + INTRA:          -5.821
REMARK INTER:                  -5.198
REMARK INTRA:                  -0.623
REMARK UNBOUND:                -0.623
REMARK SMILES C=CCCCCCCC(=O)[O-]
REMARK SMILES IDX 6 1 7 2 8 3 9 4 10 5 11 6 5 7 4 8 3 9 2 10 1 11
REMARK H PARENT
REMARK Flexibility Score: inf
ROOT
ATOM      1  C   UNL     1       9.168   9.324  18.130  1.00  0.00     0.000 C 
ENDROOT
BRANCH   1   2
ATOM      2  C   UNL     1       7.832   9.068  18.859  1.00  0.00     0.006 C 
BRANCH   2   3
ATOM      3  C   UNL     1       7.451  10.141  19.890  1.00  0.00     0.053 C 
BRANCH   3   4
ATOM      4  C   UNL     1       8.212   9.982  21.170  1.00  0.00     0.041 C 
ATOM      5  O   UNL     1       8.225   8.875  21.767  1.00  0.00    -0.550 OA
ATOM      6  O   UNL     1       8.879  11.068  21.721  1.00  0.00    -0.550 OA
ENDBRANCH   3   4
ENDBRANCH   2   3
ENDBRANCH   1   2
BRANCH   1   7
ATOM      7  C   UNL     1       9.110   9.187  16.597  1.00  0.00     0.000 C 
BRANCH   7   8
ATOM      8  C   UNL     1       8.220  10.248  15.934  1.00  0.00     0.004 C 
BRANCH   8   9
ATOM      9  C   UNL     1       7.132   9.592  15.075  1.00  0.00     0.027 C 
BRANCH   9  10
ATOM     10  C   UNL     1       5.805   9.590  15.784  1.00  0.00    -0.035 C 
ATOM     11  C   UNL     1       5.186   8.452  16.118  1.00  0.00     0.004 C 
ENDBRANCH   9  10
ENDBRANCH   8   9
ENDBRANCH   7   8
ENDBRANCH   1   7
TORSDOF 7
ENDMDL
MODEL 2
REMARK VINA RESULT:    -3.656     11.702     13.176
REMARK INTER + INTRA:          -5.775
REMARK INTER:                  -5.043
REMARK INTRA:                  -0.732
REMARK UNBOUND:                -0.623
REMARK SMILES C=CCCCCCCC(=O)[O-]
REMARK SMILES IDX 6 1 7 2 8 3 9 4 10 5 11 6 5 7 4 8 3 9 2 10 1 11
REMARK H PARENT
REMARK Flexibility Score: inf
ROOT
ATOM      1  C   UNL     1      12.676   9.535   7.154  1.00  0.00     0.000 C 
ENDROOT
BRANCH   1   2
ATOM      2  C   UNL     1      13.111   8.323   8.004  1.00  0.00     0.006 C 
BRANCH   2   3
ATOM      3  C   UNL     1      14.503   7.770   7.661  1.00  0.00     0.053 C 
BRANCH   3   4
ATOM      4  C   UNL     1      14.586   7.307   6.239  1.00  0.00     0.041 C 
ATOM      5  O   UNL     1      15.223   7.981   5.388  1.00  0.00    -0.550 OA
ATOM      6  O   UNL     1      13.931   6.148   5.847  1.00  0.00    -0.550 OA
ENDBRANCH   3   4
ENDBRANCH   2   3
ENDBRANCH   1   2
BRANCH   1   7
ATOM      7  C   UNL     1      13.571  10.780   7.288  1.00  0.00     0.000 C 
BRANCH   7   8
ATOM      8  C   UNL     1      13.644  11.314   8.726  1.00  0.00     0.004 C 
BRANCH   8   9
ATOM      9  C   UNL     1      15.100  11.526   9.159  1.00  0.00     0.027 C 
BRANCH   9  10
ATOM     10  C   UNL     1      15.336  11.002  10.549  1.00  0.00    -0.035 C 
ATOM     11  C   UNL     1      14.811   9.845  10.965  1.00  0.00     0.004 C 
ENDBRANCH   9  10
ENDBRANCH   8   9
ENDBRANCH   7   8
ENDBRANCH   1   7
TORSDOF 7
ENDMDL
MODEL 3
REMARK VINA RESULT:    -3.593      6.463      7.380
REMARK INTER + INTRA:          -5.687
REMARK INTER:                  -5.163
REMARK INTRA:                  -0.524
REMARK UNBOUND:                -0.623
REMARK SMILES C=CCCCCCCC(=O)[O-]
REMARK SMILES IDX 6 1 7 2 8 3 9 4 10 5 11 6 5 7 4 8 3 9 2 10 1 11
REMARK H PARENT
REMARK Flexibility Score: inf
ROOT
ATOM      1  C   UNL     1       8.279   4.889  20.297  1.00  0.00     0.000 C 
ENDROOT
BRANCH   1   2
ATOM      2  C   UNL     1       9.513   4.139  19.755  1.00  0.00     0.006 C 
BRANCH   2   3
ATOM      3  C   UNL     1      10.514   3.693  20.833  1.00  0.00     0.053 C 
BRANCH   3   4
ATOM      4  C   UNL     1      10.151   2.363  21.417  1.00  0.00     0.041 C 
ATOM      5  O   UNL     1      10.200   1.323  20.709  1.00  0.00    -0.550 OA
ATOM      6  O   UNL     1       9.725   2.276  22.736  1.00  0.00    -0.550 OA
ENDBRANCH   3   4
ENDBRANCH   2   3
ENDBRANCH   1   2
BRANCH   1   7
ATOM      7  C   UNL     1       6.954   4.109  20.216  1.00  0.00     0.000 C 
BRANCH   7   8
ATOM      8  C   UNL     1       7.114   2.722  19.577  1.00  0.00     0.004 C 
BRANCH   8   9
ATOM      9  C   UNL     1       5.891   2.367  18.724  1.00  0.00     0.027 C 
BRANCH   9  10
ATOM     10  C   UNL     1       6.299   1.894  17.355  1.00  0.00    -0.035 C 
ATOM     11  C   UNL     1       7.554   2.024  16.911  1.00  0.00     0.004 C 
ENDBRANCH   9  10
ENDBRANCH   8   9
ENDBRANCH   7   8
ENDBRANCH   1   7
TORSDOF 7
ENDMDL
MODEL 4
REMARK VINA RESULT:    -3.584      4.429      5.986
REMARK INTER + INTRA:          -5.673
REMARK INTER:                  -5.050
REMARK INTRA:                  -0.623
REMARK UNBOUND:                -0.623
REMARK SMILES C=CCCCCCCC(=O)[O-]
REMARK SMILES IDX 6 1 7 2 8 3 9 4 10 5 11 6 5 7 4 8 3 9 2 10 1 11
REMARK H PARENT
REMARK Flexibility Score: inf
ROOT
ATOM      1  C   UNL     1       7.196  11.750  12.431  1.00  0.00     0.000 C 
ENDROOT
BRANCH   1   2
ATOM      2  C   UNL     1       7.629  11.234  13.819  1.00  0.00     0.006 C 
BRANCH   2   3
ATOM      3  C   UNL     1       7.721   9.705  13.932  1.00  0.00     0.053 C 
BRANCH   3   4
ATOM      4  C   UNL     1       7.367   9.223  15.306  1.00  0.00     0.041 C 
ATOM      5  O   UNL     1       8.243   9.178  16.209  1.00  0.00    -0.550 OA
ATOM      6  O   UNL     1       6.075   8.793  15.580  1.00  0.00    -0.550 OA
ENDBRANCH   3   4
ENDBRANCH   2   3
ENDBRANCH   1   2
BRANCH   1   7
ATOM      7  C   UNL     1       8.346  11.986  11.436  1.00  0.00     0.000 C 
BRANCH   7   8
ATOM      8  C   UNL     1       8.065  11.398  10.045  1.00  0.00     0.004 C 
BRANCH   8   9
ATOM      9  C   UNL     1       7.076  10.230  10.134  1.00  0.00     0.027 C 
BRANCH   9  10
ATOM     10  C   UNL     1       7.778   8.908   9.987  1.00  0.00    -0.035 C 
ATOM     11  C   UNL     1       7.416   7.835  10.698  1.00  0.00     0.004 C 
ENDBRANCH   9  10
ENDBRANCH   8   9
ENDBRANCH   7   8
ENDBRANCH   1   7
TORSDOF 7
ENDMDL
MODEL 5
REMARK VINA RESULT:    -3.561      3.069      4.605
REMARK INTER + INTRA:          -5.641
REMARK INTER:                  -4.815
REMARK INTRA:                  -0.826
REMARK UNBOUND:                -0.623
REMARK SMILES C=CCCCCCCC(=O)[O-]
REMARK SMILES IDX 6 1 7 2 8 3 9 4 10 5 11 6 5 7 4 8 3 9 2 10 1 11
REMARK H PARENT
REMARK Flexibility Score: inf
ROOT
ATOM      1  C   UNL     1       9.015   9.251  16.606  1.00  0.00     0.000 C 
ENDROOT
BRANCH   1   2
ATOM      2  C   UNL     1       8.175  10.464  16.156  1.00  0.00     0.006 C 
BRANCH   2   3
ATOM      3  C   UNL     1       7.176  10.165  15.028  1.00  0.00     0.053 C 
BRANCH   3   4
ATOM      4  C   UNL     1       5.830   9.778  15.561  1.00  0.00     0.041 C 
ATOM      5  O   UNL     1       4.949  10.655  15.758  1.00  0.00    -0.550 OA
ATOM      6  O   UNL     1       5.562   8.452  15.872  1.00  0.00    -0.550 OA
ENDBRANCH   3   4
ENDBRANCH   2   3
ENDBRANCH   1   2
BRANCH   1   7
ATOM      7  C   UNL     1       9.116   9.058  18.130  1.00  0.00     0.000 C 
BRANCH   7   8
ATOM      8  C   UNL     1       8.078   9.881  18.908  1.00  0.00     0.004 C 
BRANCH   8   9
ATOM      9  C   UNL     1       6.815   9.055  19.178  1.00  0.00     0.027 C 
BRANCH   9  10
ATOM     10  C   UNL     1       5.605   9.939  19.316  1.00  0.00    -0.035 C 
ATOM     11  C   UNL     1       5.677  11.264  19.145  1.00  0.00     0.004 C 
ENDBRANCH   9  10
ENDBRANCH   8   9
ENDBRANCH   7   8
ENDBRANCH   1   7
TORSDOF 7
ENDMDL
MODEL 6
REMARK VINA RESULT:    -3.557      6.962      8.500
REMARK INTER + INTRA:          -5.635
REMARK INTER:                  -5.058
REMARK INTRA:                  -0.577
REMARK UNBOUND:                -0.623
REMARK SMILES C=CCCCCCCC(=O)[O-]
REMARK SMILES IDX 6 1 7 2 8 3 9 4 10 5 11 6 5 7 4 8 3 9 2 10 1 11
REMARK H PARENT
REMARK Flexibility Score: inf
ROOT
ATOM      1  C   UNL     1       6.552   4.132  20.094  1.00  0.00     0.000 C 
ENDROOT
BRANCH   1   2
ATOM      2  C   UNL     1       6.592   2.730  19.452  1.00  0.00     0.006 C 
BRANCH   2   3
ATOM      3  C   UNL     1       5.919   2.638  18.074  1.00  0.00     0.053 C 
BRANCH   3   4
ATOM      4  C   UNL     1       6.632   1.685  17.164  1.00  0.00     0.041 C 
ATOM      5  O   UNL     1       6.156   0.541  16.944  1.00  0.00    -0.550 OA
ATOM      6  O   UNL     1       7.842   2.048  16.588  1.00  0.00    -0.550 OA
ENDBRANCH   3   4
ENDBRANCH   2   3
ENDBRANCH   1   2
BRANCH   1   7
ATOM      7  C   UNL     1       7.929   4.771  20.350  1.00  0.00     0.000 C 
BRANCH   7   8
ATOM      8  C   UNL     1       9.065   4.068  19.593  1.00  0.00     0.004 C 
BRANCH   8   9
ATOM      9  C   UNL     1      10.208   3.692  20.543  1.00  0.00     0.027 C 
BRANCH   9  10
ATOM     10  C   UNL     1      10.068   2.276  21.031  1.00  0.00    -0.035 C 
ATOM     11  C   UNL     1       9.634   1.995  22.264  1.00  0.00     0.004 C 
ENDBRANCH   9  10
ENDBRANCH   8   9
ENDBRANCH   7   8
ENDBRANCH   1   7
TORSDOF 7
ENDMDL
MODEL 7
REMARK VINA RESULT:    -3.525      3.273      5.719
REMARK INTER + INTRA:          -5.590
REMARK INTER:                  -5.238
REMARK INTRA:                  -0.352
REMARK UNBOUND:                -0.623
REMARK SMILES C=CCCCCCCC(=O)[O-]
REMARK SMILES IDX 6 1 7 2 8 3 9 4 10 5 11 6 5 7 4 8 3 9 2 10 1 11
REMARK H PARENT
REMARK Flexibility Score: inf
ROOT
ATOM      1  C   UNL     1       8.672   9.475  18.481  1.00  0.00     0.000 C 
ENDROOT
BRANCH   1   2
ATOM      2  C   UNL     1       8.978   9.271  16.982  1.00  0.00     0.006 C 
BRANCH   2   3
ATOM      3  C   UNL     1       8.127  10.129  16.034  1.00  0.00     0.053 C 
BRANCH   3   4
ATOM      4  C   UNL     1       7.308   9.288  15.102  1.00  0.00     0.041 C 
ATOM      5  O   UNL     1       7.715   9.053  13.935  1.00  0.00    -0.550 OA
ATOM      6  O   UNL     1       6.078   8.793  15.514  1.00  0.00    -0.550 OA
ENDBRANCH   3   4
ENDBRANCH   2   3
ENDBRANCH   1   2
BRANCH   1   7
ATOM      7  C   UNL     1       7.225   9.895  18.798  1.00  0.00     0.000 C 
BRANCH   7   8
ATOM      8  C   UNL     1       7.010  10.226  20.282  1.00  0.00     0.004 C 
BRANCH   8   9
ATOM      9  C   UNL     1       8.350  10.345  21.018  1.00  0.00     0.027 C 
BRANCH   9  10
ATOM     10  C   UNL     1       8.298  11.411  22.077  1.00  0.00    -0.035 C 
ATOM     11  C   UNL     1       9.409  11.931  22.610  1.00  0.00     0.004 C 
ENDBRANCH   9  10
ENDBRANCH   8   9
ENDBRANCH   7   8
ENDBRANCH   1   7
TORSDOF 7
ENDMDL
MODEL 8
REMARK VINA RESULT:    -3.487      5.319      7.080
REMARK INTER + INTRA:          -5.536
REMARK INTER:                  -5.259
REMARK INTRA:                  -0.277
REMARK UNBOUND:                -0.623
REMARK SMILES C=CCCCCCCC(=O)[O-]
REMARK SMILES IDX 6 1 7 2 8 3 9 4 10 5 11 6 5 7 4 8 3 9 2 10 1 11
REMARK H PARENT
REMARK Flexibility Score: inf
ROOT
ATOM      1  C   UNL     1       7.678   9.906  13.820  1.00  0.00     0.000 C 
ENDROOT
BRANCH   1   2
ATOM      2  C   UNL     1       7.507  11.377  13.385  1.00  0.00     0.006 C 
BRANCH   2   3
ATOM      3  C   UNL     1       8.099  11.708  12.007  1.00  0.00     0.053 C 
BRANCH   3   4
ATOM      4  C   UNL     1       7.241  11.194  10.891  1.00  0.00     0.041 C 
ATOM      5  O   UNL     1       6.173  11.786  10.587  1.00  0.00    -0.550 OA
ATOM      6  O   UNL     1       7.605  10.040  10.210  1.00  0.00    -0.550 OA
ENDBRANCH   3   4
ENDBRANCH   2   3
ENDBRANCH   1   2
BRANCH   1   7
ATOM      7  C   UNL     1       7.239   9.598  15.263  1.00  0.00     0.000 C 
BRANCH   7   8
ATOM      8  C   UNL     1       8.169  10.217  16.317  1.00  0.00     0.004 C 
BRANCH   8   9
ATOM      9  C   UNL     1       9.100   9.157  16.917  1.00  0.00     0.027 C 
BRANCH   9  10
ATOM     10  C   UNL     1       8.961   9.094  18.414  1.00  0.00    -0.035 C 
ATOM     11  C   UNL     1       8.051   9.823  19.068  1.00  0.00     0.004 C 
ENDBRANCH   9  10
ENDBRANCH   8   9
ENDBRANCH   7   8
ENDBRANCH   1   7
TORSDOF 7
ENDMDL
MODEL 9
REMARK VINA RESULT:    -3.432      7.111      8.582
REMARK INTER + INTRA:          -5.459
REMARK INTER:                  -4.731
REMARK INTRA:                  -0.728
REMARK UNBOUND:                -0.623
REMARK SMILES C=CCCCCCCC(=O)[O-]
REMARK SMILES IDX 6 1 7 2 8 3 9 4 10 5 11 6 5 7 4 8 3 9 2 10 1 11
REMARK H PARENT
REMARK Flexibility Score: inf
ROOT
ATOM      1  C   UNL     1       6.598   4.016  21.192  1.00  0.00     0.000 C 
ENDROOT
BRANCH   1   2
ATOM      2  C   UNL     1       6.434   3.766  19.678  1.00  0.00     0.006 C 
BRANCH   2   3
ATOM      3  C   UNL     1       6.914   2.386  19.203  1.00  0.00     0.053 C 
BRANCH   3   4
ATOM      4  C   UNL     1       6.600   2.152  17.757  1.00  0.00     0.041 C 
ATOM      5  O   UNL     1       5.408   2.006  17.381  1.00  0.00    -0.550 OA
ATOM      6  O   UNL     1       7.629   2.061  16.828  1.00  0.00    -0.550 OA
ENDBRANCH   3   4
ENDBRANCH   2   3
ENDBRANCH   1   2
BRANCH   1   7
ATOM      7  C   UNL     1       7.107   2.808  22.000  1.00  0.00     0.000 C 
BRANCH   7   8
ATOM      8  C   UNL     1       8.448   3.077  22.698  1.00  0.00     0.004 C 
BRANCH   8   9
ATOM      9  C   UNL     1       9.618   2.544  21.861  1.00  0.00     0.027 C 
BRANCH   9  10
ATOM     10  C   UNL     1      10.407   3.668  21.249  1.00  0.00    -0.035 C 
ATOM     11  C   UNL     1      10.155   4.115  20.014  1.00  0.00     0.004 C 
ENDBRANCH   9  10
ENDBRANCH   8   9
ENDBRANCH   7   8
ENDBRANCH   1   7
TORSDOF 7
ENDMDL
