MODEL 1
REMARK VINA RESULT:    -3.849      0.000      0.000
REMARK INTER + INTRA:          -4.847
REMARK INTER:                  -4.637
REMARK INTRA:                  -0.210
REMARK UNBOUND:                -0.210
REMARK SMILES OCC(O)CO
REMARK SMILES IDX 3 1 5 2 6 3 2 5 1 6 4 8
REMARK H PARENT 6 4 1 7 4 9
REMARK Flexibility Score: inf
ROOT
ATOM      1  C   UNL     1      -9.916  -3.175  10.844  1.00  0.00     0.165 C 
ENDROOT
BRANCH   1   2
ATOM      2  C   UNL     1      -9.774  -2.016  11.837  1.00  0.00     0.190 C 
BRANCH   2   3
ATOM      3  O   UNL     1      -9.281  -0.886  11.173  1.00  0.00    -0.394 OA
ATOM      4  H   UNL     1      -9.825  -0.791  10.348  1.00  0.00     0.210 HD
ENDBRANCH   2   3
ENDBRANCH   1   2
BRANCH   1   5
ATOM      5  C   UNL     1      -8.686  -4.097  10.886  1.00  0.00     0.190 C 
BRANCH   5   6
ATOM      6  O   UNL     1      -7.565  -3.416  11.382  1.00  0.00    -0.394 OA
ATOM      7  H   UNL     1      -7.007  -3.179  10.596  1.00  0.00     0.210 HD
ENDBRANCH   5   6
ENDBRANCH   1   5
BRANCH   1   8
ATOM      8  O   UNL     1     -10.069  -2.653   9.550  1.00  0.00    -0.388 OA
ATOM      9  H   UNL     1      -9.156  -2.460   9.209  1.00  0.00     0.211 HD
ENDBRANCH   1   8
TORSDOF 5
ENDMDL
MODEL 2
REMARK VINA RESULT:    -3.836     16.504     17.462
REMARK INTER + INTRA:          -4.831
REMARK INTER:                  -4.609
REMARK INTRA:                  -0.222
REMARK UNBOUND:                -0.210
REMARK SMILES OCC(O)CO
REMARK SMILES IDX 3 1 5 2 6 3 2 5 1 6 4 8
REMARK H PARENT 6 4 1 7 4 9
REMARK Flexibility Score: inf
ROOT
ATOM      1  C   UNL     1      -2.743 -13.469  21.707  1.00  0.00     0.165 C 
ENDROOT
BRANCH   1   2
ATOM      2  C   UNL     1      -1.717 -12.723  22.565  1.00  0.00     0.190 C 
BRANCH   2   3
ATOM      3  O   UNL     1      -1.070 -13.625  23.418  1.00  0.00    -0.394 OA
ATOM      4  H   UNL     1      -1.320 -13.359  24.342  1.00  0.00     0.210 HD
ENDBRANCH   2   3
ENDBRANCH   1   2
BRANCH   1   5
ATOM      5  C   UNL     1      -3.314 -14.685  22.455  1.00  0.00     0.190 C 
BRANCH   5   6
ATOM      6  O   UNL     1      -2.597 -15.850  22.143  1.00  0.00    -0.394 OA
ATOM      7  H   UNL     1      -2.693 -15.988  21.165  1.00  0.00     0.210 HD
ENDBRANCH   5   6
ENDBRANCH   1   5
BRANCH   1   8
ATOM      8  O   UNL     1      -2.124 -13.896  20.520  1.00  0.00    -0.388 OA
ATOM      9  H   UNL     1      -2.559 -13.402  19.776  1.00  0.00     0.211 HD
ENDBRANCH   1   8
TORSDOF 5
ENDMDL
MODEL 3
REMARK VINA RESULT:    -3.808      0.902      2.716
REMARK INTER + INTRA:          -4.797
REMARK INTER:                  -4.781
REMARK INTRA:                  -0.016
REMARK UNBOUND:                -0.210
REMARK SMILES OCC(O)CO
REMARK SMILES IDX 3 1 5 2 6 3 2 5 1 6 4 8
REMARK H PARENT 6 4 1 7 4 9
REMARK Flexibility Score: inf
ROOT
ATOM      1  C   UNL     1      -9.688  -3.227  11.021  1.00  0.00     0.165 C 
ENDROOT
BRANCH   1   2
ATOM      2  C   UNL     1      -8.592  -4.258  10.731  1.00  0.00     0.190 C 
BRANCH   2   3
ATOM      3  O   UNL     1      -7.423  -3.908  11.417  1.00  0.00    -0.394 OA
ATOM      4  H   UNL     1      -7.691  -3.762  12.362  1.00  0.00     0.210 HD
ENDBRANCH   2   3
ENDBRANCH   1   2
BRANCH   1   5
ATOM      5  C   UNL     1     -10.660  -3.100   9.836  1.00  0.00     0.190 C 
BRANCH   5   6
ATOM      6  O   UNL     1      -9.968  -3.111   8.616  1.00  0.00    -0.394 OA
ATOM      7  H   UNL     1     -10.218  -3.955   8.156  1.00  0.00     0.210 HD
ENDBRANCH   5   6
ENDBRANCH   1   5
BRANCH   1   8
ATOM      8  O   UNL     1      -9.090  -1.982  11.274  1.00  0.00    -0.388 OA
ATOM      9  H   UNL     1      -9.143  -1.461  10.430  1.00  0.00     0.211 HD
ENDBRANCH   1   8
TORSDOF 5
ENDMDL
MODEL 4
REMARK VINA RESULT:    -3.799     16.293     17.636
REMARK INTER + INTRA:          -4.787
REMARK INTER:                  -4.564
REMARK INTRA:                  -0.223
REMARK UNBOUND:                -0.210
REMARK SMILES OCC(O)CO
REMARK SMILES IDX 3 1 5 2 6 3 2 5 1 6 4 8
REMARK H PARENT 6 4 1 7 4 9
REMARK Flexibility Score: inf
ROOT
ATOM      1  C   UNL     1      -2.485 -13.607  22.766  1.00  0.00     0.165 C 
ENDROOT
BRANCH   1   2
ATOM      2  C   UNL     1      -3.339 -14.840  22.453  1.00  0.00     0.190 C 
BRANCH   2   3
ATOM      3  O   UNL     1      -2.508 -15.949  22.246  1.00  0.00    -0.394 OA
ATOM      4  H   UNL     1      -1.682 -15.598  21.822  1.00  0.00     0.210 HD
ENDBRANCH   2   3
ENDBRANCH   1   2
BRANCH   1   5
ATOM      5  C   UNL     1      -2.147 -12.826  21.485  1.00  0.00     0.190 C 
BRANCH   5   6
ATOM      6  O   UNL     1      -2.045 -13.688  20.383  1.00  0.00    -0.394 OA
ATOM      7  H   UNL     1      -1.781 -14.575  20.741  1.00  0.00     0.210 HD
ENDBRANCH   5   6
ENDBRANCH   1   5
BRANCH   1   8
ATOM      8  O   UNL     1      -1.297 -14.019  23.392  1.00  0.00    -0.388 OA
ATOM      9  H   UNL     1      -0.771 -14.516  22.711  1.00  0.00     0.211 HD
ENDBRANCH   1   8
TORSDOF 5
ENDMDL
MODEL 5
REMARK VINA RESULT:    -3.712      0.746      2.634
REMARK INTER + INTRA:          -4.681
REMARK INTER:                  -4.458
REMARK INTRA:                  -0.223
REMARK UNBOUND:                -0.210
REMARK SMILES OCC(O)CO
REMARK SMILES IDX 3 1 5 2 6 3 2 5 1 6 4 8
REMARK H PARENT 6 4 1 7 4 9
REMARK Flexibility Score: inf
ROOT
ATOM      1  C   UNL     1      -9.093  -3.734  11.302  1.00  0.00     0.165 C 
ENDROOT
BRANCH   1   2
ATOM      2  C   UNL     1      -9.468  -4.306   9.931  1.00  0.00     0.190 C 
BRANCH   2   3
ATOM      3  O   UNL     1      -9.660  -3.259   9.020  1.00  0.00    -0.394 OA
ATOM      4  H   UNL     1     -10.189  -3.640   8.272  1.00  0.00     0.210 HD
ENDBRANCH   2   3
ENDBRANCH   1   2
BRANCH   1   5
ATOM      5  C   UNL     1      -9.903  -2.465  11.615  1.00  0.00     0.190 C 
BRANCH   5   6
ATOM      6  O   UNL     1      -9.206  -1.313  11.219  1.00  0.00    -0.394 OA
ATOM      7  H   UNL     1      -8.315  -1.358  11.653  1.00  0.00     0.210 HD
ENDBRANCH   5   6
ENDBRANCH   1   5
BRANCH   1   8
ATOM      8  O   UNL     1      -7.722  -3.431  11.313  1.00  0.00    -0.388 OA
ATOM      9  H   UNL     1      -7.621  -2.574  11.804  1.00  0.00     0.211 HD
ENDBRANCH   1   8
TORSDOF 5
ENDMDL
MODEL 6
REMARK VINA RESULT:    -3.537      1.538      1.893
REMARK INTER + INTRA:          -4.470
REMARK INTER:                  -4.312
REMARK INTRA:                  -0.159
REMARK UNBOUND:                -0.210
REMARK SMILES OCC(O)CO
REMARK SMILES IDX 3 1 5 2 6 3 2 5 1 6 4 8
REMARK H PARENT 6 4 1 7 4 9
REMARK Flexibility Score: inf
ROOT
ATOM      1  C   UNL     1      -9.817  -2.832  10.918  1.00  0.00     0.165 C 
ENDROOT
BRANCH   1   2
ATOM      2  C   UNL     1     -10.946  -3.133  11.910  1.00  0.00     0.190 C 
BRANCH   2   3
ATOM      3  O   UNL     1     -10.445  -3.885  12.980  1.00  0.00    -0.394 OA
ATOM      4  H   UNL     1      -9.535  -4.174  12.711  1.00  0.00     0.210 HD
ENDBRANCH   2   3
ENDBRANCH   1   2
BRANCH   1   5
ATOM      5  C   UNL     1      -8.827  -4.005  10.830  1.00  0.00     0.190 C 
BRANCH   5   6
ATOM      6  O   UNL     1      -7.617  -3.690  11.466  1.00  0.00    -0.394 OA
ATOM      7  H   UNL     1      -7.675  -4.059  12.385  1.00  0.00     0.210 HD
ENDBRANCH   5   6
ENDBRANCH   1   5
BRANCH   1   8
ATOM      8  O   UNL     1      -9.138  -1.675  11.335  1.00  0.00    -0.388 OA
ATOM      9  H   UNL     1      -9.804  -1.104  11.801  1.00  0.00     0.211 HD
ENDBRANCH   1   8
TORSDOF 5
ENDMDL
MODEL 7
REMARK VINA RESULT:    -3.529     16.421     17.250
REMARK INTER + INTRA:          -4.461
REMARK INTER:                  -4.456
REMARK INTRA:                  -0.005
REMARK UNBOUND:                -0.210
REMARK SMILES OCC(O)CO
REMARK SMILES IDX 3 1 5 2 6 3 2 5 1 6 4 8
REMARK H PARENT 6 4 1 7 4 9
REMARK Flexibility Score: inf
ROOT
ATOM      1  C   UNL     1      -3.282 -14.828  21.821  1.00  0.00     0.165 C 
ENDROOT
BRANCH   1   2
ATOM      2  C   UNL     1      -2.435 -13.555  21.932  1.00  0.00     0.190 C 
BRANCH   2   3
ATOM      3  O   UNL     1      -2.149 -13.066  20.651  1.00  0.00    -0.394 OA
ATOM      4  H   UNL     1      -1.577 -13.750  20.216  1.00  0.00     0.210 HD
ENDBRANCH   2   3
ENDBRANCH   1   2
BRANCH   1   5
ATOM      5  C   UNL     1      -4.540 -14.736  22.700  1.00  0.00     0.190 C 
BRANCH   5   6
ATOM      6  O   UNL     1      -5.703 -14.762  21.916  1.00  0.00    -0.394 OA
ATOM      7  H   UNL     1      -6.459 -14.547  22.523  1.00  0.00     0.210 HD
ENDBRANCH   5   6
ENDBRANCH   1   5
BRANCH   1   8
ATOM      8  O   UNL     1      -2.508 -15.929  22.222  1.00  0.00    -0.388 OA
ATOM      9  H   UNL     1      -1.566 -15.720  21.983  1.00  0.00     0.211 HD
ENDBRANCH   1   8
TORSDOF 5
ENDMDL
MODEL 8
REMARK VINA RESULT:    -3.523      1.432      2.039
REMARK INTER + INTRA:          -4.454
REMARK INTER:                  -4.434
REMARK INTRA:                  -0.020
REMARK UNBOUND:                -0.210
REMARK SMILES OCC(O)CO
REMARK SMILES IDX 3 1 5 2 6 3 2 5 1 6 4 8
REMARK H PARENT 6 4 1 7 4 9
REMARK Flexibility Score: inf
ROOT
ATOM      1  C   UNL     1      -9.686  -3.117  11.161  1.00  0.00     0.165 C 
ENDROOT
BRANCH   1   2
ATOM      2  C   UNL     1     -10.673  -2.929  10.004  1.00  0.00     0.190 C 
BRANCH   2   3
ATOM      3  O   UNL     1     -10.005  -3.090   8.784  1.00  0.00    -0.394 OA
ATOM      4  H   UNL     1      -9.035  -3.031   8.990  1.00  0.00     0.210 HD
ENDBRANCH   2   3
ENDBRANCH   1   2
BRANCH   1   5
ATOM      5  C   UNL     1      -8.625  -4.177  10.820  1.00  0.00     0.190 C 
BRANCH   5   6
ATOM      6  O   UNL     1      -7.402  -3.881  11.440  1.00  0.00    -0.394 OA
ATOM      7  H   UNL     1      -7.182  -2.944  11.198  1.00  0.00     0.210 HD
ENDBRANCH   5   6
ENDBRANCH   1   5
BRANCH   1   8
ATOM      8  O   UNL     1     -10.394  -3.513  12.308  1.00  0.00    -0.388 OA
ATOM      9  H   UNL     1     -10.473  -4.502  12.269  1.00  0.00     0.211 HD
ENDBRANCH   1   8
TORSDOF 5
ENDMDL
MODEL 9
REMARK VINA RESULT:    -3.507      1.540      2.679
REMARK INTER + INTRA:          -4.435
REMARK INTER:                  -4.214
REMARK INTRA:                  -0.222
REMARK UNBOUND:                -0.210
REMARK SMILES OCC(O)CO
REMARK SMILES IDX 3 1 5 2 6 3 2 5 1 6 4 8
REMARK H PARENT 6 4 1 7 4 9
REMARK Flexibility Score: inf
ROOT
ATOM      1  C   UNL     1      -9.962  -3.379  11.308  1.00  0.00     0.165 C 
ENDROOT
BRANCH   1   2
ATOM      2  C   UNL     1      -8.756  -4.116  10.716  1.00  0.00     0.190 C 
BRANCH   2   3
ATOM      3  O   UNL     1      -7.608  -3.816  11.460  1.00  0.00    -0.394 OA
ATOM      4  H   UNL     1      -7.004  -3.320  10.848  1.00  0.00     0.210 HD
ENDBRANCH   2   3
ENDBRANCH   1   2
BRANCH   1   5
ATOM      5  C   UNL     1      -9.682  -1.873  11.442  1.00  0.00     0.190 C 
BRANCH   5   6
ATOM      6  O   UNL     1      -9.141  -1.573  12.701  1.00  0.00    -0.394 OA
ATOM      7  H   UNL     1      -8.240  -1.191  12.538  1.00  0.00     0.210 HD
ENDBRANCH   5   6
ENDBRANCH   1   5
BRANCH   1   8
ATOM      8  O   UNL     1     -10.252  -3.918  12.572  1.00  0.00    -0.388 OA
ATOM      9  H   UNL     1     -11.186  -4.253  12.533  1.00  0.00     0.211 HD
ENDBRANCH   1   8
TORSDOF 5
ENDMDL
