MODEL 1
REMARK VINA RESULT:    -1.736      0.000      0.000
REMARK INTER + INTRA:          -2.785
REMARK INTER:                  -2.396
REMARK INTRA:                  -0.389
REMARK UNBOUND:                -0.389
REMARK SMILES CCCCCCCCO
REMARK SMILES IDX 5 1 4 2 3 3 2 4 1 5 6 6 7 7 8 8 9 9
REMARK H PARENT 9 10
REMARK Flexibility Score: inf
ROOT
ATOM      1  C   UNL     1     125.988 111.007 134.937  1.00  0.00     0.000 C 
ENDROOT
BRANCH   1   2
ATOM      2  C   UNL     1     127.043 110.696 133.869  1.00  0.00    -0.000 C 
BRANCH   2   3
ATOM      3  C   UNL     1     127.125 109.189 133.597  1.00  0.00    -0.000 C 
BRANCH   3   4
ATOM      4  C   UNL     1     125.897 108.461 134.158  1.00  0.00    -0.003 C 
ATOM      5  C   UNL     1     126.309 107.274 135.024  1.00  0.00     0.004 C 
ENDBRANCH   3   4
ENDBRANCH   2   3
ENDBRANCH   1   2
BRANCH   1   6
ATOM      6  C   UNL     1     126.630 111.656 136.172  1.00  0.00     0.002 C 
BRANCH   6   7
ATOM      7  C   UNL     1     126.566 110.755 137.416  1.00  0.00     0.028 C 
BRANCH   7   8
ATOM      8  C   UNL     1     127.056 111.460 138.683  1.00  0.00     0.156 C 
BRANCH   8   9
ATOM      9  O   UNL     1     126.995 112.847 138.496  1.00  0.00    -0.396 OA
ATOM     10  H   UNL     1     127.838 113.100 138.038  1.00  0.00     0.210 HD
ENDBRANCH   8   9
ENDBRANCH   7   8
ENDBRANCH   6   7
ENDBRANCH   1   6
TORSDOF 7
ENDMDL
MODEL 2
REMARK VINA RESULT:    -1.679      1.858      2.451
REMARK INTER + INTRA:          -2.706
REMARK INTER:                  -2.280
REMARK INTRA:                  -0.427
REMARK UNBOUND:                -0.389
REMARK SMILES CCCCCCCCO
REMARK SMILES IDX 5 1 4 2 3 3 2 4 1 5 6 6 7 7 8 8 9 9
REMARK H PARENT 9 10
REMARK Flexibility Score: inf
ROOT
ATOM      1  C   UNL     1     126.975 111.768 136.585  1.00  0.00     0.000 C 
ENDROOT
BRANCH   1   2
ATOM      2  C   UNL     1     126.218 111.212 135.374  1.00  0.00    -0.000 C 
BRANCH   2   3
ATOM      3  C   UNL     1     127.114 111.180 134.130  1.00  0.00    -0.000 C 
BRANCH   3   4
ATOM      4  C   UNL     1     127.069 109.804 133.455  1.00  0.00    -0.003 C 
ATOM      5  C   UNL     1     126.395 108.771 134.354  1.00  0.00     0.004 C 
ENDBRANCH   3   4
ENDBRANCH   2   3
ENDBRANCH   1   2
BRANCH   1   6
ATOM      6  C   UNL     1     126.489 111.112 137.886  1.00  0.00     0.002 C 
BRANCH   6   7
ATOM      7  C   UNL     1     125.080 110.511 137.757  1.00  0.00     0.028 C 
BRANCH   7   8
ATOM      8  C   UNL     1     124.962 109.133 138.413  1.00  0.00     0.156 C 
BRANCH   8   9
ATOM      9  O   UNL     1     126.146 108.416 138.200  1.00  0.00    -0.396 OA
ATOM     10  H   UNL     1     125.964 107.802 137.442  1.00  0.00     0.210 HD
ENDBRANCH   8   9
ENDBRANCH   7   8
ENDBRANCH   6   7
ENDBRANCH   1   6
TORSDOF 7
ENDMDL
MODEL 3
REMARK VINA RESULT:    -1.624      2.520      4.292
REMARK INTER + INTRA:          -2.630
REMARK INTER:                  -2.364
REMARK INTRA:                  -0.266
REMARK UNBOUND:                -0.389
REMARK SMILES CCCCCCCCO
REMARK SMILES IDX 5 1 4 2 3 3 2 4 1 5 6 6 7 7 8 8 9 9
REMARK H PARENT 9 10
REMARK Flexibility Score: inf
ROOT
ATOM      1  C   UNL     1     126.401 108.469 134.570  1.00  0.00     0.000 C 
ENDROOT
BRANCH   1   2
ATOM      2  C   UNL     1     125.974 109.172 135.864  1.00  0.00    -0.000 C 
BRANCH   2   3
ATOM      3  C   UNL     1     125.900 108.181 137.031  1.00  0.00    -0.000 C 
BRANCH   3   4
ATOM      4  C   UNL     1     126.211 108.875 138.363  1.00  0.00    -0.003 C 
ATOM      5  C   UNL     1     126.345 110.384 138.179  1.00  0.00     0.004 C 
ENDBRANCH   3   4
ENDBRANCH   2   3
ENDBRANCH   1   2
BRANCH   1   6
ATOM      6  C   UNL     1     127.120 109.443 133.626  1.00  0.00     0.002 C 
BRANCH   6   7
ATOM      7  C   UNL     1     126.759 110.911 133.901  1.00  0.00     0.028 C 
BRANCH   7   8
ATOM      8  C   UNL     1     127.122 111.838 132.738  1.00  0.00     0.156 C 
BRANCH   8   9
ATOM      9  O   UNL     1     125.960 112.451 132.253  1.00  0.00    -0.396 OA
ATOM     10  H   UNL     1     125.384 111.717 131.913  1.00  0.00     0.210 HD
ENDBRANCH   8   9
ENDBRANCH   7   8
ENDBRANCH   6   7
ENDBRANCH   1   6
TORSDOF 7
ENDMDL
MODEL 4
REMARK VINA RESULT:    -1.609      1.642      2.640
REMARK INTER + INTRA:          -2.610
REMARK INTER:                  -2.325
REMARK INTRA:                  -0.285
REMARK UNBOUND:                -0.389
REMARK SMILES CCCCCCCCO
REMARK SMILES IDX 5 1 4 2 3 3 2 4 1 5 6 6 7 7 8 8 9 9
REMARK H PARENT 9 10
REMARK Flexibility Score: inf
ROOT
ATOM      1  C   UNL     1     125.507 108.698 135.630  1.00  0.00     0.000 C 
ENDROOT
BRANCH   1   2
ATOM      2  C   UNL     1     126.218 107.690 134.720  1.00  0.00    -0.000 C 
BRANCH   2   3
ATOM      3  C   UNL     1     127.123 108.403 133.708  1.00  0.00    -0.000 C 
BRANCH   3   4
ATOM      4  C   UNL     1     127.061 109.925 133.890  1.00  0.00    -0.003 C 
ATOM      5  C   UNL     1     127.121 110.643 132.546  1.00  0.00     0.004 C 
ENDBRANCH   3   4
ENDBRANCH   2   3
ENDBRANCH   1   2
BRANCH   1   6
ATOM      6  C   UNL     1     125.797 108.404 137.109  1.00  0.00     0.002 C 
BRANCH   6   7
ATOM      7  C   UNL     1     126.290 109.643 137.874  1.00  0.00     0.028 C 
BRANCH   7   8
ATOM      8  C   UNL     1     125.352 110.047 139.015  1.00  0.00     0.156 C 
BRANCH   8   9
ATOM      9  O   UNL     1     125.300 111.444 139.100  1.00  0.00    -0.396 OA
ATOM     10  H   UNL     1     126.241 111.757 139.055  1.00  0.00     0.210 HD
ENDBRANCH   8   9
ENDBRANCH   7   8
ENDBRANCH   6   7
ENDBRANCH   1   6
TORSDOF 7
ENDMDL
MODEL 5
REMARK VINA RESULT:    -1.558      1.629      1.943
REMARK INTER + INTRA:          -2.538
REMARK INTER:                  -2.150
REMARK INTRA:                  -0.389
REMARK UNBOUND:                -0.389
REMARK SMILES CCCCCCCCO
REMARK SMILES IDX 5 1 4 2 3 3 2 4 1 5 6 6 7 7 8 8 9 9
REMARK H PARENT 9 10
REMARK Flexibility Score: inf
ROOT
ATOM      1  C   UNL     1     126.734 111.842 133.683  1.00  0.00     0.000 C 
ENDROOT
BRANCH   1   2
ATOM      2  C   UNL     1     127.099 110.355 133.610  1.00  0.00    -0.000 C 
BRANCH   2   3
ATOM      3  C   UNL     1     126.354 109.551 134.682  1.00  0.00    -0.000 C 
BRANCH   3   4
ATOM      4  C   UNL     1     126.310 108.061 134.321  1.00  0.00    -0.003 C 
ATOM      5  C   UNL     1     127.123 107.776 133.062  1.00  0.00     0.004 C 
ENDBRANCH   3   4
ENDBRANCH   2   3
ENDBRANCH   1   2
BRANCH   1   6
ATOM      6  C   UNL     1     125.564 112.075 134.651  1.00  0.00     0.002 C 
BRANCH   6   7
ATOM      7  C   UNL     1     125.811 113.252 135.609  1.00  0.00     0.028 C 
BRANCH   7   8
ATOM      8  C   UNL     1     127.111 113.104 136.405  1.00  0.00     0.156 C 
BRANCH   8   9
ATOM      9  O   UNL     1     127.021 111.978 137.233  1.00  0.00    -0.396 OA
ATOM     10  H   UNL     1     126.523 112.270 138.040  1.00  0.00     0.210 HD
ENDBRANCH   8   9
ENDBRANCH   7   8
ENDBRANCH   6   7
ENDBRANCH   1   6
TORSDOF 7
ENDMDL
MODEL 6
REMARK VINA RESULT:    -1.551      1.457      2.622
REMARK INTER + INTRA:          -2.530
REMARK INTER:                  -2.196
REMARK INTRA:                  -0.334
REMARK UNBOUND:                -0.389
REMARK SMILES CCCCCCCCO
REMARK SMILES IDX 5 1 4 2 3 3 2 4 1 5 6 6 7 7 8 8 9 9
REMARK H PARENT 9 10
REMARK Flexibility Score: inf
ROOT
ATOM      1  C   UNL     1     125.532 109.532 137.953  1.00  0.00     0.000 C 
ENDROOT
BRANCH   1   2
ATOM      2  C   UNL     1     125.874 108.335 137.059  1.00  0.00    -0.000 C 
BRANCH   2   3
ATOM      3  C   UNL     1     125.377 108.558 135.625  1.00  0.00    -0.000 C 
BRANCH   3   4
ATOM      4  C   UNL     1     126.434 108.122 134.603  1.00  0.00    -0.003 C 
ATOM      5  C   UNL     1     126.994 109.322 133.844  1.00  0.00     0.004 C 
ENDBRANCH   3   4
ENDBRANCH   2   3
ENDBRANCH   1   2
BRANCH   1   6
ATOM      6  C   UNL     1     126.804 110.273 138.391  1.00  0.00     0.002 C 
BRANCH   6   7
ATOM      7  C   UNL     1     126.792 111.758 137.995  1.00  0.00     0.028 C 
BRANCH   7   8
ATOM      8  C   UNL     1     126.726 111.965 136.479  1.00  0.00     0.156 C 
BRANCH   8   9
ATOM      9  O   UNL     1     127.115 113.275 136.174  1.00  0.00    -0.396 OA
ATOM     10  H   UNL     1     126.324 113.707 135.757  1.00  0.00     0.210 HD
ENDBRANCH   8   9
ENDBRANCH   7   8
ENDBRANCH   6   7
ENDBRANCH   1   6
TORSDOF 7
ENDMDL
MODEL 7
REMARK VINA RESULT:    -1.493      1.416      1.592
REMARK INTER + INTRA:          -2.449
REMARK INTER:                  -2.194
REMARK INTRA:                  -0.255
REMARK UNBOUND:                -0.389
REMARK SMILES CCCCCCCCO
REMARK SMILES IDX 5 1 4 2 3 3 2 4 1 5 6 6 7 7 8 8 9 9
REMARK H PARENT 9 10
REMARK Flexibility Score: inf
ROOT
ATOM      1  C   UNL     1     125.563 110.615 135.426  1.00  0.00     0.000 C 
ENDROOT
BRANCH   1   2
ATOM      2  C   UNL     1     126.402 109.508 134.778  1.00  0.00    -0.000 C 
BRANCH   2   3
ATOM      3  C   UNL     1     126.997 109.975 133.444  1.00  0.00    -0.000 C 
BRANCH   3   4
ATOM      4  C   UNL     1     127.038 108.827 132.428  1.00  0.00    -0.003 C 
ATOM      5  C   UNL     1     127.122 107.474 133.129  1.00  0.00     0.004 C 
ENDBRANCH   3   4
ENDBRANCH   2   3
ENDBRANCH   1   2
BRANCH   1   6
ATOM      6  C   UNL     1     126.392 111.894 135.615  1.00  0.00     0.002 C 
BRANCH   6   7
ATOM      7  C   UNL     1     126.614 112.243 137.095  1.00  0.00     0.028 C 
BRANCH   7   8
ATOM      8  C   UNL     1     125.548 111.637 138.012  1.00  0.00     0.156 C 
BRANCH   8   9
ATOM      9  O   UNL     1     126.174 110.907 139.031  1.00  0.00    -0.396 OA
ATOM     10  H   UNL     1     125.596 110.117 139.198  1.00  0.00     0.210 HD
ENDBRANCH   8   9
ENDBRANCH   7   8
ENDBRANCH   6   7
ENDBRANCH   1   6
TORSDOF 7
ENDMDL
MODEL 8
REMARK VINA RESULT:     0.019      2.922      4.565
REMARK INTER + INTRA:          -0.363
REMARK INTER:                   0.049
REMARK INTRA:                  -0.413
REMARK UNBOUND:                -0.389
REMARK SMILES CCCCCCCCO
REMARK SMILES IDX 5 1 4 2 3 3 2 4 1 5 6 6 7 7 8 8 9 9
REMARK H PARENT 9 10
REMARK Flexibility Score: inf
ROOT
ATOM      1  C   UNL     1     125.964 110.857 134.427  1.00  0.00     0.000 C 
ENDROOT
BRANCH   1   2
ATOM      2  C   UNL     1     126.479 111.943 135.378  1.00  0.00    -0.000 C 
BRANCH   2   3
ATOM      3  C   UNL     1     126.662 111.392 136.797  1.00  0.00    -0.000 C 
BRANCH   3   4
ATOM      4  C   UNL     1     125.501 110.466 137.182  1.00  0.00    -0.003 C 
ATOM      5  C   UNL     1     126.013 109.105 137.645  1.00  0.00     0.004 C 
ENDBRANCH   3   4
ENDBRANCH   2   3
ENDBRANCH   1   2
BRANCH   1   6
ATOM      6  C   UNL     1     127.125 110.181 133.683  1.00  0.00     0.002 C 
BRANCH   6   7
ATOM      7  C   UNL     1     127.035 108.647 133.711  1.00  0.00     0.028 C 
BRANCH   7   8
ATOM      8  C   UNL     1     126.654 108.051 132.353  1.00  0.00     0.156 C 
BRANCH   8   9
ATOM      9  O   UNL     1     125.259 108.063 132.217  1.00  0.00    -0.396 OA
ATOM     10  H   UNL     1     125.069 107.717 131.307  1.00  0.00     0.210 HD
ENDBRANCH   8   9
ENDBRANCH   7   8
ENDBRANCH   6   7
ENDBRANCH   1   6
TORSDOF 7
ENDMDL
