MODEL 1
REMARK VINA RESULT:    -3.578      0.000      0.000
REMARK INTER + INTRA:          -9.819
REMARK INTER:                  -6.926
REMARK INTRA:                  -2.893
REMARK UNBOUND:                -2.893
REMARK SMILES CCCCCCCCCCCCCCCCCC(=O)[O-]
REMARK SMILES IDX 10 1 11 2 12 3 13 4 14 5 15 6 16 7 17 8 18 9 19 10 20 11
REMARK SMILES IDX 9 12 8 13 7 14 6 15 5 16 4 17 3 18 2 19 1 20
REMARK H PARENT
REMARK Flexibility Score: inf
ROOT
ATOM      1  C   UNL     1       5.644  -5.196   0.771  1.00  0.00     0.000 C 
ENDROOT
BRANCH   1   2
ATOM      2  C   UNL     1       4.345  -5.500   0.007  1.00  0.00     0.000 C 
BRANCH   2   3
ATOM      3  C   UNL     1       3.368  -4.311   0.004  1.00  0.00     0.000 C 
BRANCH   3   4
ATOM      4  C   UNL     1       1.927  -4.730   0.337  1.00  0.00     0.000 C 
BRANCH   4   5
ATOM      5  C   UNL     1       1.639  -4.719   1.848  1.00  0.00     0.000 C 
BRANCH   5   6
ATOM      6  C   UNL     1       1.379  -6.126   2.410  1.00  0.00     0.000 C 
BRANCH   6   7
ATOM      7  C   UNL     1       2.231  -6.433   3.651  1.00  0.00     0.006 C 
BRANCH   7   8
ATOM      8  C   UNL     1       3.306  -5.361   3.856  1.00  0.00     0.053 C 
BRANCH   8   9
ATOM      9  C   UNL     1       4.360  -5.852   4.798  1.00  0.00     0.041 C 
ATOM     10  O   UNL     1       4.043  -6.268   5.944  1.00  0.00    -0.550 OA
ATOM     11  O   UNL     1       5.698  -5.805   4.429  1.00  0.00    -0.550 OA
ENDBRANCH   8   9
ENDBRANCH   7   8
ENDBRANCH   6   7
ENDBRANCH   5   6
ENDBRANCH   4   5
ENDBRANCH   3   4
ENDBRANCH   2   3
ENDBRANCH   1   2
BRANCH   1  12
ATOM     12  C   UNL     1       5.597  -3.839   1.497  1.00  0.00     0.000 C 
BRANCH  12  13
ATOM     13  C   UNL     1       6.939  -3.090   1.439  1.00  0.00    -0.000 C 
BRANCH  13  14
ATOM     14  C   UNL     1       6.789  -1.645   0.932  1.00  0.00    -0.000 C 
BRANCH  14  15
ATOM     15  C   UNL     1       5.354  -1.324   0.484  1.00  0.00    -0.000 C 
BRANCH  15  16
ATOM     16  C   UNL     1       5.252  -1.042  -1.026  1.00  0.00    -0.000 C 
BRANCH  16  17
ATOM     17  C   UNL     1       6.443  -1.609  -1.817  1.00  0.00    -0.000 C 
BRANCH  17  18
ATOM     18  C   UNL     1       6.103  -2.933  -2.524  1.00  0.00    -0.000 C 
BRANCH  18  19
ATOM     19  C   UNL     1       7.221  -3.978  -2.383  1.00  0.00    -0.003 C 
ATOM     20  C   UNL     1       6.773  -5.383  -2.789  1.00  0.00     0.004 C 
ENDBRANCH  18  19
ENDBRANCH  17  18
ENDBRANCH  16  17
ENDBRANCH  15  16
ENDBRANCH  14  15
ENDBRANCH  13  14
ENDBRANCH  12  13
ENDBRANCH   1  12
TORSDOF 16
ENDMDL
MODEL 2
REMARK VINA RESULT:    -3.444      3.435      6.683
REMARK INTER + INTRA:          -9.558
REMARK INTER:                  -6.621
REMARK INTRA:                  -2.937
REMARK UNBOUND:                -2.893
REMARK SMILES CCCCCCCCCCCCCCCCCC(=O)[O-]
REMARK SMILES IDX 10 1 11 2 12 3 13 4 14 5 15 6 16 7 17 8 18 9 19 10 20 11
REMARK SMILES IDX 9 12 8 13 7 14 6 15 5 16 4 17 3 18 2 19 1 20
REMARK H PARENT
REMARK Flexibility Score: inf
ROOT
ATOM      1  C   UNL     1       7.546  -2.033   1.613  1.00  0.00     0.000 C 
ENDROOT
BRANCH   1   2
ATOM      2  C   UNL     1       6.322  -1.242   1.124  1.00  0.00     0.000 C 
BRANCH   2   3
ATOM      3  C   UNL     1       6.490  -0.719  -0.314  1.00  0.00     0.000 C 
BRANCH   3   4
ATOM      4  C   UNL     1       5.376  -1.208  -1.253  1.00  0.00     0.000 C 
BRANCH   4   5
ATOM      5  C   UNL     1       5.867  -2.263  -2.260  1.00  0.00     0.000 C 
BRANCH   5   6
ATOM      6  C   UNL     1       7.386  -2.488  -2.185  1.00  0.00     0.000 C 
BRANCH   6   7
ATOM      7  C   UNL     1       7.775  -3.958  -2.397  1.00  0.00     0.006 C 
BRANCH   7   8
ATOM      8  C   UNL     1       6.669  -4.718  -3.137  1.00  0.00     0.053 C 
BRANCH   8   9
ATOM      9  C   UNL     1       7.151  -5.161  -4.483  1.00  0.00     0.041 C 
ATOM     10  O   UNL     1       6.395  -5.827  -5.238  1.00  0.00    -0.550 OA
ATOM     11  O   UNL     1       8.450  -4.879  -4.883  1.00  0.00    -0.550 OA
ENDBRANCH   8   9
ENDBRANCH   7   8
ENDBRANCH   6   7
ENDBRANCH   5   6
ENDBRANCH   4   5
ENDBRANCH   3   4
ENDBRANCH   2   3
ENDBRANCH   1   2
BRANCH   1  12
ATOM     12  C   UNL     1       7.352  -3.555   1.485  1.00  0.00     0.000 C 
BRANCH  12  13
ATOM     13  C   UNL     1       5.871  -3.969   1.520  1.00  0.00    -0.000 C 
BRANCH  13  14
ATOM     14  C   UNL     1       5.581  -5.200   0.644  1.00  0.00    -0.000 C 
BRANCH  14  15
ATOM     15  C   UNL     1       4.402  -4.976  -0.316  1.00  0.00    -0.000 C 
BRANCH  15  16
ATOM     16  C   UNL     1       3.248  -4.190   0.333  1.00  0.00    -0.000 C 
BRANCH  16  17
ATOM     17  C   UNL     1       1.998  -5.055   0.565  1.00  0.00    -0.000 C 
BRANCH  17  18
ATOM     18  C   UNL     1       1.463  -4.944   2.004  1.00  0.00    -0.000 C 
BRANCH  18  19
ATOM     19  C   UNL     1       2.537  -4.466   2.993  1.00  0.00    -0.003 C 
ATOM     20  C   UNL     1       3.181  -5.614   3.770  1.00  0.00     0.004 C 
ENDBRANCH  18  19
ENDBRANCH  17  18
ENDBRANCH  16  17
ENDBRANCH  15  16
ENDBRANCH  14  15
ENDBRANCH  13  14
ENDBRANCH  12  13
ENDBRANCH   1  12
TORSDOF 16
ENDMDL
MODEL 3
REMARK VINA RESULT:    -3.441      2.314      6.149
REMARK INTER + INTRA:          -9.553
REMARK INTER:                  -7.401
REMARK INTRA:                  -2.153
REMARK UNBOUND:                -2.893
REMARK SMILES CCCCCCCCCCCCCCCCCC(=O)[O-]
REMARK SMILES IDX 10 1 11 2 12 3 13 4 14 5 15 6 16 7 17 8 18 9 19 10 20 11
REMARK SMILES IDX 9 12 8 13 7 14 6 15 5 16 4 17 3 18 2 19 1 20
REMARK H PARENT
REMARK Flexibility Score: inf
ROOT
ATOM      1  C   UNL     1       6.111  -2.148  -2.240  1.00  0.00     0.000 C 
ENDROOT
BRANCH   1   2
ATOM      2  C   UNL     1       5.257  -0.870  -2.216  1.00  0.00     0.000 C 
BRANCH   2   3
ATOM      3  C   UNL     1       6.107   0.408  -2.101  1.00  0.00     0.000 C 
BRANCH   3   4
ATOM      4  C   UNL     1       7.551   0.118  -1.662  1.00  0.00     0.000 C 
BRANCH   4   5
ATOM      5  C   UNL     1       7.764   0.322  -0.152  1.00  0.00     0.000 C 
BRANCH   5   6
ATOM      6  C   UNL     1       8.406  -0.900   0.525  1.00  0.00     0.000 C 
BRANCH   6   7
ATOM      7  C   UNL     1       7.789  -1.207   1.897  1.00  0.00     0.006 C 
BRANCH   7   8
ATOM      8  C   UNL     1       7.952  -2.688   2.253  1.00  0.00     0.053 C 
BRANCH   8   9
ATOM      9  C   UNL     1       9.158  -2.887   3.118  1.00  0.00     0.041 C 
ATOM     10  O   UNL     1       9.850  -3.934   3.009  1.00  0.00    -0.550 OA
ATOM     11  O   UNL     1       9.489  -1.939   4.077  1.00  0.00    -0.550 OA
ENDBRANCH   8   9
ENDBRANCH   7   8
ENDBRANCH   6   7
ENDBRANCH   5   6
ENDBRANCH   4   5
ENDBRANCH   3   4
ENDBRANCH   2   3
ENDBRANCH   1   2
BRANCH   1  12
ATOM     12  C   UNL     1       5.765  -3.109  -1.088  1.00  0.00     0.000 C 
BRANCH  12  13
ATOM     13  C   UNL     1       4.948  -2.431   0.024  1.00  0.00    -0.000 C 
BRANCH  13  14
ATOM     14  C   UNL     1       4.203  -3.443   0.912  1.00  0.00    -0.000 C 
BRANCH  14  15
ATOM     15  C   UNL     1       3.323  -4.405   0.099  1.00  0.00    -0.000 C 
BRANCH  15  16
ATOM     16  C   UNL     1       2.017  -4.773   0.826  1.00  0.00    -0.000 C 
BRANCH  16  17
ATOM     17  C   UNL     1       2.040  -4.394   2.316  1.00  0.00    -0.000 C 
BRANCH  17  18
ATOM     18  C   UNL     1       2.281  -5.610   3.229  1.00  0.00    -0.000 C 
BRANCH  18  19
ATOM     19  C   UNL     1       3.530  -5.444   4.109  1.00  0.00    -0.003 C 
ATOM     20  C   UNL     1       4.794  -6.002   3.455  1.00  0.00     0.004 C 
ENDBRANCH  18  19
ENDBRANCH  17  18
ENDBRANCH  16  17
ENDBRANCH  15  16
ENDBRANCH  14  15
ENDBRANCH  13  14
ENDBRANCH  12  13
ENDBRANCH   1  12
TORSDOF 16
ENDMDL
MODEL 4
REMARK VINA RESULT:    -3.430      3.368      7.400
REMARK INTER + INTRA:          -9.532
REMARK INTER:                  -7.252
REMARK INTRA:                  -2.280
REMARK UNBOUND:                -2.893
REMARK SMILES CCCCCCCCCCCCCCCCCC(=O)[O-]
REMARK SMILES IDX 10 1 11 2 12 3 13 4 14 5 15 6 16 7 17 8 18 9 19 10 20 11
REMARK SMILES IDX 9 12 8 13 7 14 6 15 5 16 4 17 3 18 2 19 1 20
REMARK H PARENT
REMARK Flexibility Score: inf
ROOT
ATOM      1  C   UNL     1       1.220  -5.392   2.657  1.00  0.00     0.000 C 
ENDROOT
BRANCH   1   2
ATOM      2  C   UNL     1       2.063  -4.267   2.033  1.00  0.00     0.000 C 
BRANCH   2   3
ATOM      3  C   UNL     1       2.234  -4.430   0.513  1.00  0.00     0.000 C 
BRANCH   3   4
ATOM      4  C   UNL     1       3.710  -4.422   0.082  1.00  0.00     0.000 C 
BRANCH   4   5
ATOM      5  C   UNL     1       4.619  -3.698   1.090  1.00  0.00     0.000 C 
BRANCH   5   6
ATOM      6  C   UNL     1       5.664  -2.802   0.406  1.00  0.00     0.000 C 
BRANCH   6   7
ATOM      7  C   UNL     1       5.066  -1.482  -0.103  1.00  0.00     0.006 C 
BRANCH   7   8
ATOM      8  C   UNL     1       5.386  -1.271  -1.586  1.00  0.00     0.053 C 
BRANCH   8   9
ATOM      9  C   UNL     1       6.140   0.007  -1.782  1.00  0.00     0.041 C 
ATOM     10  O   UNL     1       7.224   0.203  -1.171  1.00  0.00    -0.550 OA
ATOM     11  O   UNL     1       5.621   1.002  -2.600  1.00  0.00    -0.550 OA
ENDBRANCH   8   9
ENDBRANCH   7   8
ENDBRANCH   6   7
ENDBRANCH   5   6
ENDBRANCH   4   5
ENDBRANCH   3   4
ENDBRANCH   2   3
ENDBRANCH   1   2
BRANCH   1  12
ATOM     12  C   UNL     1       0.950  -6.542   1.670  1.00  0.00     0.000 C 
BRANCH  12  13
ATOM     13  C   UNL     1       1.021  -7.925   2.339  1.00  0.00    -0.000 C 
BRANCH  13  14
ATOM     14  C   UNL     1       0.436  -7.924   3.762  1.00  0.00    -0.000 C 
BRANCH  14  15
ATOM     15  C   UNL     1       1.332  -8.665   4.767  1.00  0.00    -0.000 C 
BRANCH  15  16
ATOM     16  C   UNL     1       2.037  -7.713   5.749  1.00  0.00    -0.000 C 
BRANCH  16  17
ATOM     17  C   UNL     1       3.544  -7.585   5.473  1.00  0.00    -0.000 C 
BRANCH  17  18
ATOM     18  C   UNL     1       4.032  -6.126   5.530  1.00  0.00    -0.000 C 
BRANCH  18  19
ATOM     19  C   UNL     1       4.665  -5.667   4.207  1.00  0.00    -0.003 C 
ATOM     20  C   UNL     1       4.689  -6.769   3.148  1.00  0.00     0.004 C 
ENDBRANCH  18  19
ENDBRANCH  17  18
ENDBRANCH  16  17
ENDBRANCH  15  16
ENDBRANCH  14  15
ENDBRANCH  13  14
ENDBRANCH  12  13
ENDBRANCH   1  12
TORSDOF 16
ENDMDL
MODEL 5
REMARK VINA RESULT:    -3.420      2.494      6.621
REMARK INTER + INTRA:          -9.512
REMARK INTER:                  -7.167
REMARK INTRA:                  -2.345
REMARK UNBOUND:                -2.893
REMARK SMILES CCCCCCCCCCCCCCCCCC(=O)[O-]
REMARK SMILES IDX 10 1 11 2 12 3 13 4 14 5 15 6 16 7 17 8 18 9 19 10 20 11
REMARK SMILES IDX 9 12 8 13 7 14 6 15 5 16 4 17 3 18 2 19 1 20
REMARK H PARENT
REMARK Flexibility Score: inf
ROOT
ATOM      1  C   UNL     1       4.457  -3.352   0.800  1.00  0.00     0.000 C 
ENDROOT
BRANCH   1   2
ATOM      2  C   UNL     1       5.897  -3.636   1.258  1.00  0.00     0.000 C 
BRANCH   2   3
ATOM      3  C   UNL     1       6.766  -2.367   1.302  1.00  0.00     0.000 C 
BRANCH   3   4
ATOM      4  C   UNL     1       6.043  -1.138   0.728  1.00  0.00     0.000 C 
BRANCH   4   5
ATOM      5  C   UNL     1       6.611  -0.696  -0.633  1.00  0.00     0.000 C 
BRANCH   5   6
ATOM      6  C   UNL     1       5.629  -0.941  -1.790  1.00  0.00     0.000 C 
BRANCH   6   7
ATOM      7  C   UNL     1       5.791  -2.333  -2.417  1.00  0.00     0.006 C 
BRANCH   7   8
ATOM      8  C   UNL     1       7.249  -2.798  -2.351  1.00  0.00     0.053 C 
BRANCH   8   9
ATOM      9  C   UNL     1       7.317  -4.269  -2.081  1.00  0.00     0.041 C 
ATOM     10  O   UNL     1       6.508  -5.054  -2.644  1.00  0.00    -0.550 OA
ATOM     11  O   UNL     1       8.240  -4.767  -1.172  1.00  0.00    -0.550 OA
ENDBRANCH   8   9
ENDBRANCH   7   8
ENDBRANCH   6   7
ENDBRANCH   5   6
ENDBRANCH   4   5
ENDBRANCH   3   4
ENDBRANCH   2   3
ENDBRANCH   1   2
BRANCH   1  12
ATOM     12  C   UNL     1       3.852  -4.519  -0.002  1.00  0.00     0.000 C 
BRANCH  12  13
ATOM     13  C   UNL     1       2.316  -4.547   0.061  1.00  0.00    -0.000 C 
BRANCH  13  14
ATOM     14  C   UNL     1       1.780  -5.709   0.915  1.00  0.00    -0.000 C 
BRANCH  14  15
ATOM     15  C   UNL     1       1.178  -5.233   2.246  1.00  0.00    -0.000 C 
BRANCH  15  16
ATOM     16  C   UNL     1       2.241  -4.696   3.221  1.00  0.00    -0.000 C 
BRANCH  16  17
ATOM     17  C   UNL     1       2.960  -5.817   3.991  1.00  0.00    -0.000 C 
BRANCH  17  18
ATOM     18  C   UNL     1       4.426  -5.986   3.554  1.00  0.00    -0.000 C 
BRANCH  18  19
ATOM     19  C   UNL     1       5.405  -5.890   4.735  1.00  0.00    -0.003 C 
ATOM     20  C   UNL     1       4.698  -5.677   6.074  1.00  0.00     0.004 C 
ENDBRANCH  18  19
ENDBRANCH  17  18
ENDBRANCH  16  17
ENDBRANCH  15  16
ENDBRANCH  14  15
ENDBRANCH  13  14
ENDBRANCH  12  13
ENDBRANCH   1  12
TORSDOF 16
ENDMDL
MODEL 6
REMARK VINA RESULT:    -3.405      2.427      3.997
REMARK INTER + INTRA:          -9.482
REMARK INTER:                  -7.104
REMARK INTRA:                  -2.378
REMARK UNBOUND:                -2.893
REMARK SMILES CCCCCCCCCCCCCCCCCC(=O)[O-]
REMARK SMILES IDX 10 1 11 2 12 3 13 4 14 5 15 6 16 7 17 8 18 9 19 10 20 11
REMARK SMILES IDX 9 12 8 13 7 14 6 15 5 16 4 17 3 18 2 19 1 20
REMARK H PARENT
REMARK Flexibility Score: inf
ROOT
ATOM      1  C   UNL     1       4.921  -1.464   0.029  1.00  0.00     0.000 C 
ENDROOT
BRANCH   1   2
ATOM      2  C   UNL     1       4.584  -2.782   0.745  1.00  0.00     0.000 C 
BRANCH   2   3
ATOM      3  C   UNL     1       4.909  -4.020  -0.109  1.00  0.00     0.000 C 
BRANCH   3   4
ATOM      4  C   UNL     1       5.117  -5.284   0.740  1.00  0.00     0.000 C 
BRANCH   4   5
ATOM      5  C   UNL     1       4.959  -5.020   2.248  1.00  0.00     0.000 C 
BRANCH   5   6
ATOM      6  C   UNL     1       3.687  -5.657   2.829  1.00  0.00     0.000 C 
BRANCH   6   7
ATOM      7  C   UNL     1       2.561  -4.636   3.046  1.00  0.00     0.006 C 
BRANCH   7   8
ATOM      8  C   UNL     1       1.219  -5.185   2.549  1.00  0.00     0.053 C 
BRANCH   8   9
ATOM      9  C   UNL     1       1.341  -5.663   1.136  1.00  0.00     0.041 C 
ATOM     10  O   UNL     1       1.295  -6.894   0.878  1.00  0.00    -0.550 OA
ATOM     11  O   UNL     1       1.555  -4.751   0.111  1.00  0.00    -0.550 OA
ENDBRANCH   8   9
ENDBRANCH   7   8
ENDBRANCH   6   7
ENDBRANCH   5   6
ENDBRANCH   4   5
ENDBRANCH   3   4
ENDBRANCH   2   3
ENDBRANCH   1   2
BRANCH   1  12
ATOM     12  C   UNL     1       5.630  -1.691  -1.319  1.00  0.00     0.000 C 
BRANCH  12  13
ATOM     13  C   UNL     1       5.624  -0.437  -2.209  1.00  0.00    -0.000 C 
BRANCH  13  14
ATOM     14  C   UNL     1       6.773   0.531  -1.874  1.00  0.00    -0.000 C 
BRANCH  14  15
ATOM     15  C   UNL     1       7.955  -0.171  -1.187  1.00  0.00    -0.000 C 
BRANCH  15  16
ATOM     16  C   UNL     1       8.442   0.576   0.068  1.00  0.00    -0.000 C 
BRANCH  16  17
ATOM     17  C   UNL     1       7.750   0.091   1.353  1.00  0.00    -0.000 C 
BRANCH  17  18
ATOM     18  C   UNL     1       8.593  -0.940   2.124  1.00  0.00    -0.000 C 
BRANCH  18  19
ATOM     19  C   UNL     1       7.944  -2.332   2.143  1.00  0.00    -0.003 C 
ATOM     20  C   UNL     1       8.356  -3.194   0.950  1.00  0.00     0.004 C 
ENDBRANCH  18  19
ENDBRANCH  17  18
ENDBRANCH  16  17
ENDBRANCH  15  16
ENDBRANCH  14  15
ENDBRANCH  13  14
ENDBRANCH  12  13
ENDBRANCH   1  12
TORSDOF 16
ENDMDL
MODEL 7
REMARK VINA RESULT:    -3.398      1.753      3.659
REMARK INTER + INTRA:          -9.470
REMARK INTER:                  -7.485
REMARK INTRA:                  -1.984
REMARK UNBOUND:                -2.893
REMARK SMILES CCCCCCCCCCCCCCCCCC(=O)[O-]
REMARK SMILES IDX 10 1 11 2 12 3 13 4 14 5 15 6 16 7 17 8 18 9 19 10 20 11
REMARK SMILES IDX 9 12 8 13 7 14 6 15 5 16 4 17 3 18 2 19 1 20
REMARK H PARENT
REMARK Flexibility Score: inf
ROOT
ATOM      1  C   UNL     1       4.883  -1.503   0.199  1.00  0.00     0.000 C 
ENDROOT
BRANCH   1   2
ATOM      2  C   UNL     1       4.738  -2.903   0.819  1.00  0.00     0.000 C 
BRANCH   2   3
ATOM      3  C   UNL     1       4.303  -3.963  -0.208  1.00  0.00     0.000 C 
BRANCH   3   4
ATOM      4  C   UNL     1       2.969  -4.631   0.163  1.00  0.00     0.000 C 
BRANCH   4   5
ATOM      5  C   UNL     1       2.354  -4.053   1.450  1.00  0.00     0.000 C 
BRANCH   5   6
ATOM      6  C   UNL     1       2.174  -5.114   2.547  1.00  0.00     0.000 C 
BRANCH   6   7
ATOM      7  C   UNL     1       2.906  -4.749   3.847  1.00  0.00     0.006 C 
BRANCH   7   8
ATOM      8  C   UNL     1       3.988  -5.783   4.176  1.00  0.00     0.053 C 
BRANCH   8   9
ATOM      9  C   UNL     1       3.596  -6.584   5.378  1.00  0.00     0.041 C 
ATOM     10  O   UNL     1       4.369  -6.659   6.369  1.00  0.00    -0.550 OA
ATOM     11  O   UNL     1       2.399  -7.288   5.384  1.00  0.00    -0.550 OA
ENDBRANCH   8   9
ENDBRANCH   7   8
ENDBRANCH   6   7
ENDBRANCH   5   6
ENDBRANCH   4   5
ENDBRANCH   3   4
ENDBRANCH   2   3
ENDBRANCH   1   2
BRANCH   1  12
ATOM     12  C   UNL     1       5.370  -1.553  -1.260  1.00  0.00     0.000 C 
BRANCH  12  13
ATOM     13  C   UNL     1       5.674  -0.158  -1.831  1.00  0.00    -0.000 C 
BRANCH  13  14
ATOM     14  C   UNL     1       7.166   0.208  -1.734  1.00  0.00    -0.000 C 
BRANCH  14  15
ATOM     15  C   UNL     1       8.059  -1.019  -1.492  1.00  0.00    -0.000 C 
BRANCH  15  16
ATOM     16  C   UNL     1       8.839  -0.934  -0.167  1.00  0.00    -0.000 C 
BRANCH  16  17
ATOM     17  C   UNL     1       8.462  -2.055   0.816  1.00  0.00    -0.000 C 
BRANCH  17  18
ATOM     18  C   UNL     1       8.107  -1.518   2.214  1.00  0.00    -0.000 C 
BRANCH  18  19
ATOM     19  C   UNL     1       7.519  -0.099   2.166  1.00  0.00    -0.003 C 
ATOM     20  C   UNL     1       8.257   0.879   3.080  1.00  0.00     0.004 C 
ENDBRANCH  18  19
ENDBRANCH  17  18
ENDBRANCH  16  17
ENDBRANCH  15  16
ENDBRANCH  14  15
ENDBRANCH  13  14
ENDBRANCH  12  13
ENDBRANCH   1  12
TORSDOF 16
ENDMDL
MODEL 8
REMARK VINA RESULT:    -3.388      1.923      3.548
REMARK INTER + INTRA:          -9.451
REMARK INTER:                  -7.313
REMARK INTRA:                  -2.138
REMARK UNBOUND:                -2.893
REMARK SMILES CCCCCCCCCCCCCCCCCC(=O)[O-]
REMARK SMILES IDX 10 1 11 2 12 3 13 4 14 5 15 6 16 7 17 8 18 9 19 10 20 11
REMARK SMILES IDX 9 12 8 13 7 14 6 15 5 16 4 17 3 18 2 19 1 20
REMARK H PARENT
REMARK Flexibility Score: inf
ROOT
ATOM      1  C   UNL     1       5.155  -2.354  -0.930  1.00  0.00     0.000 C 
ENDROOT
BRANCH   1   2
ATOM      2  C   UNL     1       5.478  -3.852  -0.800  1.00  0.00     0.000 C 
BRANCH   2   3
ATOM      3  C   UNL     1       4.585  -4.563   0.233  1.00  0.00     0.000 C 
BRANCH   3   4
ATOM      4  C   UNL     1       4.001  -3.594   1.273  1.00  0.00     0.000 C 
BRANCH   4   5
ATOM      5  C   UNL     1       2.598  -4.008   1.749  1.00  0.00     0.000 C 
BRANCH   5   6
ATOM      6  C   UNL     1       1.843  -4.846   0.704  1.00  0.00     0.000 C 
BRANCH   6   7
ATOM      7  C   UNL     1       1.127  -6.055   1.324  1.00  0.00     0.006 C 
BRANCH   7   8
ATOM      8  C   UNL     1       0.941  -5.869   2.833  1.00  0.00     0.053 C 
BRANCH   8   9
ATOM      9  C   UNL     1       1.247  -7.142   3.558  1.00  0.00     0.041 C 
ATOM     10  O   UNL     1       0.631  -8.201   3.267  1.00  0.00    -0.550 OA
ATOM     11  O   UNL     1       2.178  -7.147   4.589  1.00  0.00    -0.550 OA
ENDBRANCH   8   9
ENDBRANCH   7   8
ENDBRANCH   6   7
ENDBRANCH   5   6
ENDBRANCH   4   5
ENDBRANCH   3   4
ENDBRANCH   2   3
ENDBRANCH   1   2
BRANCH   1  12
ATOM     12  C   UNL     1       5.595  -1.772  -2.285  1.00  0.00     0.000 C 
BRANCH  12  13
ATOM     13  C   UNL     1       5.478  -0.240  -2.338  1.00  0.00    -0.000 C 
BRANCH  13  14
ATOM     14  C   UNL     1       6.693   0.468  -1.711  1.00  0.00    -0.000 C 
BRANCH  14  15
ATOM     15  C   UNL     1       7.971  -0.382  -1.781  1.00  0.00    -0.000 C 
BRANCH  15  16
ATOM     16  C   UNL     1       8.580  -0.655  -0.394  1.00  0.00    -0.000 C 
BRANCH  16  17
ATOM     17  C   UNL     1       7.680  -0.168   0.755  1.00  0.00    -0.000 C 
BRANCH  17  18
ATOM     18  C   UNL     1       7.251  -1.311   1.692  1.00  0.00    -0.000 C 
BRANCH  18  19
ATOM     19  C   UNL     1       8.139  -2.557   1.543  1.00  0.00    -0.003 C 
ATOM     20  C   UNL     1       7.587  -3.770   2.292  1.00  0.00     0.004 C 
ENDBRANCH  18  19
ENDBRANCH  17  18
ENDBRANCH  16  17
ENDBRANCH  15  16
ENDBRANCH  14  15
ENDBRANCH  13  14
ENDBRANCH  12  13
ENDBRANCH   1  12
TORSDOF 16
ENDMDL
MODEL 9
REMARK VINA RESULT:    -3.371      3.048      7.162
REMARK INTER + INTRA:          -9.417
REMARK INTER:                  -7.558
REMARK INTRA:                  -1.859
REMARK UNBOUND:                -2.893
REMARK SMILES CCCCCCCCCCCCCCCCCC(=O)[O-]
REMARK SMILES IDX 10 1 11 2 12 3 13 4 14 5 15 6 16 7 17 8 18 9 19 10 20 11
REMARK SMILES IDX 9 12 8 13 7 14 6 15 5 16 4 17 3 18 2 19 1 20
REMARK H PARENT
REMARK Flexibility Score: inf
ROOT
ATOM      1  C   UNL     1       1.866  -4.866   0.401  1.00  0.00     0.000 C 
ENDROOT
BRANCH   1   2
ATOM      2  C   UNL     1       3.264  -4.244   0.250  1.00  0.00     0.000 C 
BRANCH   2   3
ATOM      3  C   UNL     1       4.339  -5.285  -0.111  1.00  0.00     0.000 C 
BRANCH   3   4
ATOM      4  C   UNL     1       5.744  -4.862   0.346  1.00  0.00     0.000 C 
BRANCH   4   5
ATOM      5  C   UNL     1       5.716  -3.717   1.373  1.00  0.00     0.000 C 
BRANCH   5   6
ATOM      6  C   UNL     1       6.893  -2.743   1.204  1.00  0.00     0.000 C 
BRANCH   6   7
ATOM      7  C   UNL     1       6.432  -1.292   0.998  1.00  0.00     0.006 C 
BRANCH   7   8
ATOM      8  C   UNL     1       5.134  -1.239   0.186  1.00  0.00     0.053 C 
BRANCH   8   9
ATOM      9  C   UNL     1       5.437  -1.110  -1.274  1.00  0.00     0.041 C 
ATOM     10  O   UNL     1       5.553   0.029  -1.799  1.00  0.00    -0.550 OA
ATOM     11  O   UNL     1       5.542  -2.247  -2.065  1.00  0.00    -0.550 OA
ENDBRANCH   8   9
ENDBRANCH   7   8
ENDBRANCH   6   7
ENDBRANCH   5   6
ENDBRANCH   4   5
ENDBRANCH   3   4
ENDBRANCH   2   3
ENDBRANCH   1   2
BRANCH   1  12
ATOM     12  C   UNL     1       1.542  -5.242   1.858  1.00  0.00     0.000 C 
BRANCH  12  13
ATOM     13  C   UNL     1       2.438  -4.509   2.871  1.00  0.00    -0.000 C 
BRANCH  13  14
ATOM     14  C   UNL     1       2.971  -5.441   3.973  1.00  0.00    -0.000 C 
BRANCH  14  15
ATOM     15  C   UNL     1       4.339  -6.046   3.623  1.00  0.00    -0.000 C 
BRANCH  15  16
ATOM     16  C   UNL     1       5.324  -6.014   4.805  1.00  0.00    -0.000 C 
BRANCH  16  17
ATOM     17  C   UNL     1       4.668  -5.529   6.110  1.00  0.00    -0.000 C 
BRANCH  17  18
ATOM     18  C   UNL     1       5.683  -5.370   7.255  1.00  0.00    -0.000 C 
BRANCH  18  19
ATOM     19  C   UNL     1       5.320  -4.219   8.206  1.00  0.00    -0.003 C 
ATOM     20  C   UNL     1       5.718  -4.499   9.655  1.00  0.00     0.004 C 
ENDBRANCH  18  19
ENDBRANCH  17  18
ENDBRANCH  16  17
ENDBRANCH  15  16
ENDBRANCH  14  15
ENDBRANCH  13  14
ENDBRANCH  12  13
ENDBRANCH   1  12
TORSDOF 16
ENDMDL
