MODEL 1
REMARK VINA RESULT:    -3.350      0.000      0.000
REMARK INTER + INTRA:          -4.496
REMARK INTER:                  -4.134
REMARK INTRA:                  -0.363
REMARK UNBOUND:                -0.363
REMARK SMILES C=CC[C@H](C)C(=O)CC
REMARK SMILES IDX 4 1 5 2 6 3 7 4 8 5 9 6 3 7 2 8 1 9
REMARK H PARENT
REMARK Flexibility Score: inf
ROOT
ATOM      1  C   UNL     1    -121.956-100.327   3.014  1.00  0.00     0.057 C 
ATOM      2  C   UNL     1    -123.305-100.722   2.396  1.00  0.00     0.016 C 
ENDROOT
BRANCH   1   3
ATOM      3  C   UNL     1    -120.800-100.817   2.163  1.00  0.00     0.135 C 
ATOM      4  O   UNL     1    -120.612-102.017   2.023  1.00  0.00    -0.299 OA
BRANCH   3   5
ATOM      5  C   UNL     1    -119.875 -99.847   1.474  1.00  0.00     0.072 C 
ATOM      6  C   UNL     1    -120.309 -98.409   1.736  1.00  0.00     0.012 C 
ENDBRANCH   3   5
ENDBRANCH   1   3
BRANCH   1   7
ATOM      7  C   UNL     1    -121.822-100.794   4.479  1.00  0.00     0.038 C 
BRANCH   7   8
ATOM      8  C   UNL     1    -122.438 -99.840   5.472  1.00  0.00    -0.034 C 
ATOM      9  C   UNL     1    -122.125 -98.542   5.491  1.00  0.00     0.004 C 
ENDBRANCH   7   8
ENDBRANCH   1   7
TORSDOF 4
ENDMDL
MODEL 2
REMARK VINA RESULT:    -3.118     12.779     13.784
REMARK INTER + INTRA:          -4.210
REMARK INTER:                  -3.883
REMARK INTRA:                  -0.327
REMARK UNBOUND:                -0.363
REMARK SMILES C=CC[C@H](C)C(=O)CC
REMARK SMILES IDX 4 1 5 2 6 3 7 4 8 5 9 6 3 7 2 8 1 9
REMARK H PARENT
REMARK Flexibility Score: inf
ROOT
ATOM      1  C   UNL     1    -115.988 -96.417  15.579  1.00  0.00     0.057 C 
ATOM      2  C   UNL     1    -114.603 -95.919  16.018  1.00  0.00     0.016 C 
ENDROOT
BRANCH   1   3
ATOM      3  C   UNL     1    -115.999 -97.924  15.411  1.00  0.00     0.135 C 
ATOM      4  O   UNL     1    -116.067 -98.648  16.395  1.00  0.00    -0.299 OA
BRANCH   3   5
ATOM      5  C   UNL     1    -115.938 -98.556  14.044  1.00  0.00     0.072 C 
ATOM      6  C   UNL     1    -114.529 -99.051  13.742  1.00  0.00     0.012 C 
ENDBRANCH   3   5
ENDBRANCH   1   3
BRANCH   1   7
ATOM      7  C   UNL     1    -116.494 -95.700  14.310  1.00  0.00     0.038 C 
BRANCH   7   8
ATOM      8  C   UNL     1    -117.735 -94.874  14.542  1.00  0.00    -0.034 C 
ATOM      9  C   UNL     1    -118.103 -94.482  15.765  1.00  0.00     0.004 C 
ENDBRANCH   7   8
ENDBRANCH   1   7
TORSDOF 4
ENDMDL
MODEL 3
REMARK VINA RESULT:    -3.101      1.780      3.997
REMARK INTER + INTRA:          -4.188
REMARK INTER:                  -3.951
REMARK INTRA:                  -0.237
REMARK UNBOUND:                -0.363
REMARK SMILES C=CC[C@H](C)C(=O)CC
REMARK SMILES IDX 4 1 5 2 6 3 7 4 8 5 9 6 3 7 2 8 1 9
REMARK H PARENT
REMARK Flexibility Score: inf
ROOT
ATOM      1  C   UNL     1    -121.512-100.260   2.204  1.00  0.00     0.057 C 
ATOM      2  C   UNL     1    -120.621 -99.019   2.054  1.00  0.00     0.016 C 
ENDROOT
BRANCH   1   3
ATOM      3  C   UNL     1    -122.556-100.056   3.286  1.00  0.00     0.135 C 
ATOM      4  O   UNL     1    -123.712 -99.798   2.977  1.00  0.00    -0.299 OA
BRANCH   3   5
ATOM      5  C   UNL     1    -122.199-100.173   4.745  1.00  0.00     0.072 C 
ATOM      6  C   UNL     1    -122.243 -98.808   5.422  1.00  0.00     0.012 C 
ENDBRANCH   3   5
ENDBRANCH   1   3
BRANCH   1   7
ATOM      7  C   UNL     1    -120.693-101.546   2.441  1.00  0.00     0.038 C 
BRANCH   7   8
ATOM      8  C   UNL     1    -119.954-102.022   1.214  1.00  0.00    -0.034 C 
ATOM      9  C   UNL     1    -118.622-102.114   1.185  1.00  0.00     0.004 C 
ENDBRANCH   7   8
ENDBRANCH   1   7
TORSDOF 4
ENDMDL
MODEL 4
REMARK VINA RESULT:    -3.094      2.167      3.273
REMARK INTER + INTRA:          -4.180
REMARK INTER:                  -3.742
REMARK INTRA:                  -0.438
REMARK UNBOUND:                -0.363
REMARK SMILES C=CC[C@H](C)C(=O)CC
REMARK SMILES IDX 4 1 5 2 6 3 7 4 8 5 9 6 3 7 2 8 1 9
REMARK H PARENT
REMARK Flexibility Score: inf
ROOT
ATOM      1  C   UNL     1    -119.614-101.132   0.803  1.00  0.00     0.057 C 
ATOM      2  C   UNL     1    -120.112-101.515  -0.598  1.00  0.00     0.016 C 
ENDROOT
BRANCH   1   3
ATOM      3  C   UNL     1    -118.211-101.653   1.047  1.00  0.00     0.135 C 
ATOM      4  O   UNL     1    -118.041-102.821   1.369  1.00  0.00    -0.299 OA
BRANCH   3   5
ATOM      5  C   UNL     1    -117.009-100.757   0.891  1.00  0.00     0.072 C 
ATOM      6  C   UNL     1    -117.365 -99.314   1.233  1.00  0.00     0.012 C 
ENDBRANCH   3   5
ENDBRANCH   1   3
BRANCH   1   7
ATOM      7  C   UNL     1    -120.588-101.579   1.914  1.00  0.00     0.038 C 
BRANCH   7   8
ATOM      8  C   UNL     1    -121.198-100.428   2.676  1.00  0.00    -0.034 C 
ATOM      9  C   UNL     1    -120.983 -99.157   2.326  1.00  0.00     0.004 C 
ENDBRANCH   7   8
ENDBRANCH   1   7
TORSDOF 4
ENDMDL
MODEL 5
REMARK VINA RESULT:    -3.080      1.973      2.718
REMARK INTER + INTRA:          -4.163
REMARK INTER:                  -4.008
REMARK INTRA:                  -0.156
REMARK UNBOUND:                -0.363
REMARK SMILES C=CC[C@H](C)C(=O)CC
REMARK SMILES IDX 4 1 5 2 6 3 7 4 8 5 9 6 3 7 2 8 1 9
REMARK H PARENT
REMARK Flexibility Score: inf
ROOT
ATOM      1  C   UNL     1    -122.388 -99.969   4.370  1.00  0.00     0.057 C 
ATOM      2  C   UNL     1    -122.174 -98.744   5.271  1.00  0.00     0.016 C 
ENDROOT
BRANCH   1   3
ATOM      3  C   UNL     1    -121.439 -99.951   3.187  1.00  0.00     0.135 C 
ATOM      4  O   UNL     1    -121.027 -98.885   2.752  1.00  0.00    -0.299 OA
BRANCH   3   5
ATOM      5  C   UNL     1    -120.984-101.231   2.535  1.00  0.00     0.072 C 
ATOM      6  C   UNL     1    -119.976-100.943   1.428  1.00  0.00     0.012 C 
ENDBRANCH   3   5
ENDBRANCH   1   3
BRANCH   1   7
ATOM      7  C   UNL     1    -123.857-100.117   3.919  1.00  0.00     0.038 C 
BRANCH   7   8
ATOM      8  C   UNL     1    -124.821 -99.290   4.734  1.00  0.00    -0.034 C 
ATOM      9  C   UNL     1    -125.885 -99.834   5.332  1.00  0.00     0.004 C 
ENDBRANCH   7   8
ENDBRANCH   1   7
TORSDOF 4
ENDMDL
MODEL 6
REMARK VINA RESULT:    -3.078      1.478      2.358
REMARK INTER + INTRA:          -4.160
REMARK INTER:                  -3.960
REMARK INTRA:                  -0.200
REMARK UNBOUND:                -0.363
REMARK SMILES C=CC[C@H](C)C(=O)CC
REMARK SMILES IDX 4 1 5 2 6 3 7 4 8 5 9 6 3 7 2 8 1 9
REMARK H PARENT
REMARK Flexibility Score: inf
ROOT
ATOM      1  C   UNL     1    -121.008-100.502   2.718  1.00  0.00     0.057 C 
ATOM      2  C   UNL     1    -120.631 -99.192   2.012  1.00  0.00     0.016 C 
ENDROOT
BRANCH   1   3
ATOM      3  C   UNL     1    -120.968-101.673   1.756  1.00  0.00     0.135 C 
ATOM      4  O   UNL     1    -119.978-102.390   1.708  1.00  0.00    -0.299 OA
BRANCH   3   5
ATOM      5  C   UNL     1    -122.136-101.981   0.855  1.00  0.00     0.072 C 
ATOM      6  C   UNL     1    -121.691-102.822  -0.336  1.00  0.00     0.012 C 
ENDBRANCH   3   5
ENDBRANCH   1   3
BRANCH   1   7
ATOM      7  C   UNL     1    -122.367-100.407   3.443  1.00  0.00     0.038 C 
BRANCH   7   8
ATOM      8  C   UNL     1    -122.243-100.135   4.921  1.00  0.00    -0.034 C 
ATOM      9  C   UNL     1    -122.267 -98.894   5.414  1.00  0.00     0.004 C 
ENDBRANCH   7   8
ENDBRANCH   1   7
TORSDOF 4
ENDMDL
MODEL 7
REMARK VINA RESULT:    -3.067      3.192      5.433
REMARK INTER + INTRA:          -4.146
REMARK INTER:                  -3.965
REMARK INTRA:                  -0.181
REMARK UNBOUND:                -0.363
REMARK SMILES C=CC[C@H](C)C(=O)CC
REMARK SMILES IDX 4 1 5 2 6 3 7 4 8 5 9 6 3 7 2 8 1 9
REMARK H PARENT
REMARK Flexibility Score: inf
ROOT
ATOM      1  C   UNL     1    -116.867-100.713   1.046  1.00  0.00     0.057 C 
ATOM      2  C   UNL     1    -116.107-100.940  -0.269  1.00  0.00     0.016 C 
ENDROOT
BRANCH   1   3
ATOM      3  C   UNL     1    -118.107-101.583   1.118  1.00  0.00     0.135 C 
ATOM      4  O   UNL     1    -117.995-102.794   1.251  1.00  0.00    -0.299 OA
BRANCH   3   5
ATOM      5  C   UNL     1    -119.486-100.981   1.037  1.00  0.00     0.072 C 
ATOM      6  C   UNL     1    -120.446-101.708   1.972  1.00  0.00     0.012 C 
ENDBRANCH   3   5
ENDBRANCH   1   3
BRANCH   1   7
ATOM      7  C   UNL     1    -117.202 -99.225   1.281  1.00  0.00     0.038 C 
BRANCH   7   8
ATOM      8  C   UNL     1    -115.988 -98.330   1.290  1.00  0.00    -0.034 C 
ATOM      9  C   UNL     1    -115.831 -97.363   2.199  1.00  0.00     0.004 C 
ENDBRANCH   7   8
ENDBRANCH   1   7
TORSDOF 4
ENDMDL
MODEL 8
REMARK VINA RESULT:    -3.053      1.464      3.695
REMARK INTER + INTRA:          -4.130
REMARK INTER:                  -3.854
REMARK INTRA:                  -0.276
REMARK UNBOUND:                -0.363
REMARK SMILES C=CC[C@H](C)C(=O)CC
REMARK SMILES IDX 4 1 5 2 6 3 7 4 8 5 9 6 3 7 2 8 1 9
REMARK H PARENT
REMARK Flexibility Score: inf
ROOT
ATOM      1  C   UNL     1    -121.169-100.255   2.765  1.00  0.00     0.057 C 
ATOM      2  C   UNL     1    -120.823-101.642   2.206  1.00  0.00     0.016 C 
ENDROOT
BRANCH   1   3
ATOM      3  C   UNL     1    -122.426-100.304   3.613  1.00  0.00     0.135 C 
ATOM      4  O   UNL     1    -123.505-100.548   3.091  1.00  0.00    -0.299 OA
BRANCH   3   5
ATOM      5  C   UNL     1    -122.371-100.066   5.100  1.00  0.00     0.072 C 
ATOM      6  C   UNL     1    -122.090 -98.598   5.401  1.00  0.00     0.012 C 
ENDBRANCH   3   5
ENDBRANCH   1   3
BRANCH   1   7
ATOM      7  C   UNL     1    -121.271 -99.185   1.658  1.00  0.00     0.038 C 
BRANCH   7   8
ATOM      8  C   UNL     1    -120.121 -98.208   1.659  1.00  0.00    -0.034 C 
ATOM      9  C   UNL     1    -118.924 -98.528   1.159  1.00  0.00     0.004 C 
ENDBRANCH   7   8
ENDBRANCH   1   7
TORSDOF 4
ENDMDL
MODEL 9
REMARK VINA RESULT:    -3.048      2.014      3.764
REMARK INTER + INTRA:          -4.124
REMARK INTER:                  -3.727
REMARK INTRA:                  -0.397
REMARK UNBOUND:                -0.363
REMARK SMILES C=CC[C@H](C)C(=O)CC
REMARK SMILES IDX 4 1 5 2 6 3 7 4 8 5 9 6 3 7 2 8 1 9
REMARK H PARENT
REMARK Flexibility Score: inf
ROOT
ATOM      1  C   UNL     1    -123.170-100.608   2.804  1.00  0.00     0.057 C 
ATOM      2  C   UNL     1    -124.433-100.851   1.967  1.00  0.00     0.016 C 
ENDROOT
BRANCH   1   3
ATOM      3  C   UNL     1    -123.519-100.061   4.175  1.00  0.00     0.135 C 
ATOM      4  O   UNL     1    -124.646 -99.640   4.395  1.00  0.00    -0.299 OA
BRANCH   3   5
ATOM      5  C   UNL     1    -122.500-100.033   5.285  1.00  0.00     0.072 C 
ATOM      6  C   UNL     1    -122.086 -98.600   5.601  1.00  0.00     0.012 C 
ENDBRANCH   3   5
ENDBRANCH   1   3
BRANCH   1   7
ATOM      7  C   UNL     1    -122.147 -99.710   2.077  1.00  0.00     0.038 C 
BRANCH   7   8
ATOM      8  C   UNL     1    -120.802-100.365   1.884  1.00  0.00    -0.034 C 
ATOM      9  C   UNL     1    -120.573-101.628   2.255  1.00  0.00     0.004 C 
ENDBRANCH   7   8
ENDBRANCH   1   7
TORSDOF 4
ENDMDL
