MODEL 1
REMARK VINA RESULT:    -8.102      0.000      0.000
REMARK INTER + INTRA:          -9.639
REMARK INTER:                  -9.996
REMARK INTRA:                   0.357
REMARK UNBOUND:                 0.357
REMARK SMILES Oc1cc(O)c2cc(O)c(-c3cc(O)c(O)c(O)c3)[o+]c2c1
REMARK SMILES IDX 10 1 20 2 21 3 22 4 2 5 3 6 4 7 6 8 7 9 8 10 11 11 12 12
REMARK SMILES IDX 13 13 19 14 15 15 17 16 14 17 16 19 18 21 9 23 1 25 5 27
REMARK H PARENT 14 18 16 20 18 22 9 24 1 26 5 28
REMARK Flexibility Score: inf
ROOT
ATOM      1  C   UNL     1     -14.976 -31.306 -13.473  1.00  0.00     0.402 A 
ATOM      2  O   UNL     1     -14.758 -31.932 -14.627  1.00  0.00    -0.202 OA
ATOM      3  C   UNL     1     -14.774 -33.255 -14.755  1.00  0.00     0.368 A 
ATOM      4  C   UNL     1     -14.537 -33.820 -16.010  1.00  0.00     0.162 A 
ATOM      5  C   UNL     1     -14.549 -35.205 -16.174  1.00  0.00     0.128 A 
ATOM      6  C   UNL     1     -14.803 -36.035 -15.076  1.00  0.00     0.093 A 
ATOM      7  C   UNL     1     -15.045 -35.493 -13.808  1.00  0.00     0.136 A 
ATOM      8  C   UNL     1     -15.030 -34.085 -13.636  1.00  0.00     0.125 A 
ATOM      9  C   UNL     1     -15.247 -33.455 -12.400  1.00  0.00     0.078 A 
ATOM     10  C   UNL     1     -15.213 -32.060 -12.308  1.00  0.00     0.223 A 
ENDROOT
BRANCH   1  11
ATOM     11  C   UNL     1     -14.943 -29.827 -13.462  1.00  0.00     0.091 A 
ATOM     12  C   UNL     1     -14.553 -29.137 -14.621  1.00  0.00     0.068 A 
ATOM     13  C   UNL     1     -14.531 -27.738 -14.645  1.00  0.00     0.162 A 
ATOM     14  C   UNL     1     -15.345 -29.094 -12.332  1.00  0.00     0.068 A 
ATOM     15  C   UNL     1     -14.914 -27.009 -13.506  1.00  0.00     0.200 A 
ATOM     16  C   UNL     1     -15.327 -27.692 -12.349  1.00  0.00     0.162 A 
BRANCH  13  17
ATOM     17  O   UNL     1     -14.124 -27.090 -15.812  1.00  0.00    -0.504 OA
ATOM     18  H   UNL     1     -14.135 -27.550 -16.714  1.00  0.00     0.293 HD
ENDBRANCH  13  17
BRANCH  15  19
ATOM     19  O   UNL     1     -14.886 -25.615 -13.538  1.00  0.00    -0.502 OA
ATOM     20  H   UNL     1     -15.730 -25.059 -13.603  1.00  0.00     0.293 HD
ENDBRANCH  15  19
BRANCH  16  21
ATOM     21  O   UNL     1     -15.722 -26.976 -11.220  1.00  0.00    -0.504 OA
ATOM     22  H   UNL     1     -15.466 -27.271 -10.285  1.00  0.00     0.293 HD
ENDBRANCH  16  21
ENDBRANCH   1  11
BRANCH  10  23
ATOM     23  O   UNL     1     -15.379 -31.436 -11.072  1.00  0.00    -0.500 OA
ATOM     24  H   UNL     1     -16.010 -31.804 -10.370  1.00  0.00     0.294 HD
ENDBRANCH  10  23
BRANCH   5  25
ATOM     25  O   UNL     1     -14.310 -35.750 -17.434  1.00  0.00    -0.507 OA
ATOM     26  H   UNL     1     -14.033 -36.717 -17.549  1.00  0.00     0.293 HD
ENDBRANCH   5  25
BRANCH   7  27
ATOM     27  O   UNL     1     -15.293 -36.387 -12.763  1.00  0.00    -0.507 OA
ATOM     28  H   UNL     1     -15.352 -36.126 -11.790  1.00  0.00     0.293 HD
ENDBRANCH   7  27
TORSDOF 7
ENDMDL
MODEL 2
REMARK VINA RESULT:    -8.079      4.192      7.124
REMARK INTER + INTRA:          -9.612
REMARK INTER:                  -9.953
REMARK INTRA:                   0.342
REMARK UNBOUND:                 0.357
REMARK SMILES Oc1cc(O)c2cc(O)c(-c3cc(O)c(O)c(O)c3)[o+]c2c1
REMARK SMILES IDX 10 1 20 2 21 3 22 4 2 5 3 6 4 7 6 8 7 9 8 10 11 11 12 12
REMARK SMILES IDX 13 13 19 14 15 15 17 16 14 17 16 19 18 21 9 23 1 25 5 27
REMARK H PARENT 14 18 16 20 18 22 9 24 1 26 5 28
REMARK Flexibility Score: inf
ROOT
ATOM      1  C   UNL     1     -12.899 -30.343 -10.902  1.00  0.00     0.402 A 
ATOM      2  O   UNL     1     -12.671 -29.179 -11.506  1.00  0.00    -0.202 OA
ATOM      3  C   UNL     1     -13.544 -28.597 -12.322  1.00  0.00     0.368 A 
ATOM      4  C   UNL     1     -13.215 -27.371 -12.907  1.00  0.00     0.162 A 
ATOM      5  C   UNL     1     -14.112 -26.736 -13.766  1.00  0.00     0.128 A 
ATOM      6  C   UNL     1     -15.350 -27.329 -14.043  1.00  0.00     0.093 A 
ATOM      7  C   UNL     1     -15.703 -28.555 -13.468  1.00  0.00     0.136 A 
ATOM      8  C   UNL     1     -14.792 -29.206 -12.597  1.00  0.00     0.125 A 
ATOM      9  C   UNL     1     -15.055 -30.443 -11.987  1.00  0.00     0.078 A 
ATOM     10  C   UNL     1     -14.105 -31.025 -11.142  1.00  0.00     0.223 A 
ENDROOT
BRANCH   1  11
ATOM     11  C   UNL     1     -11.852 -30.883 -10.006  1.00  0.00     0.091 A 
ATOM     12  C   UNL     1     -10.864 -30.022  -9.501  1.00  0.00     0.068 A 
ATOM     13  C   UNL     1      -9.874 -30.502  -8.637  1.00  0.00     0.162 A 
ATOM     14  C   UNL     1     -11.855 -32.230  -9.605  1.00  0.00     0.068 A 
ATOM     15  C   UNL     1      -9.869 -31.854  -8.255  1.00  0.00     0.200 A 
ATOM     16  C   UNL     1     -10.867 -32.717  -8.738  1.00  0.00     0.162 A 
BRANCH  13  17
ATOM     17  O   UNL     1      -8.902 -29.617  -8.169  1.00  0.00    -0.504 OA
ATOM     18  H   UNL     1      -9.131 -28.682  -7.853  1.00  0.00     0.293 HD
ENDBRANCH  13  17
BRANCH  15  19
ATOM     19  O   UNL     1      -8.876 -32.324  -7.396  1.00  0.00    -0.502 OA
ATOM     20  H   UNL     1      -8.077 -32.850  -7.730  1.00  0.00     0.293 HD
ENDBRANCH  15  19
BRANCH  16  21
ATOM     21  O   UNL     1     -10.877 -34.057  -8.352  1.00  0.00    -0.504 OA
ATOM     22  H   UNL     1     -10.067 -34.495  -7.929  1.00  0.00     0.293 HD
ENDBRANCH  16  21
ENDBRANCH   1  11
BRANCH  10  23
ATOM     23  O   UNL     1     -14.346 -32.277 -10.576  1.00  0.00    -0.500 OA
ATOM     24  H   UNL     1     -13.774 -33.082 -10.803  1.00  0.00     0.294 HD
ENDBRANCH  10  23
BRANCH   5  25
ATOM     25  O   UNL     1     -13.766 -25.515 -14.340  1.00  0.00    -0.507 OA
ATOM     26  H   UNL     1     -12.976 -25.429 -14.969  1.00  0.00     0.293 HD
ENDBRANCH   5  25
BRANCH   7  27
ATOM     27  O   UNL     1     -16.958 -29.079 -13.792  1.00  0.00    -0.507 OA
ATOM     28  H   UNL     1     -17.524 -29.633 -13.166  1.00  0.00     0.293 HD
ENDBRANCH   7  27
TORSDOF 7
ENDMDL
MODEL 3
REMARK VINA RESULT:    -8.047      1.170      6.861
REMARK INTER + INTRA:          -9.571
REMARK INTER:                  -9.912
REMARK INTRA:                   0.340
REMARK UNBOUND:                 0.357
REMARK SMILES Oc1cc(O)c2cc(O)c(-c3cc(O)c(O)c(O)c3)[o+]c2c1
REMARK SMILES IDX 10 1 20 2 21 3 22 4 2 5 3 6 4 7 6 8 7 9 8 10 11 11 12 12
REMARK SMILES IDX 13 13 19 14 15 15 17 16 14 17 16 19 18 21 9 23 1 25 5 27
REMARK H PARENT 14 18 16 20 18 22 9 24 1 26 5 28
REMARK Flexibility Score: inf
ROOT
ATOM      1  C   UNL     1     -14.990 -30.839 -13.279  1.00  0.00     0.402 A 
ATOM      2  O   UNL     1     -14.680 -29.945 -14.215  1.00  0.00    -0.202 OA
ATOM      3  C   UNL     1     -14.597 -28.639 -13.979  1.00  0.00     0.368 A 
ATOM      4  C   UNL     1     -14.260 -27.779 -15.027  1.00  0.00     0.162 A 
ATOM      5  C   UNL     1     -14.164 -26.404 -14.807  1.00  0.00     0.128 A 
ATOM      6  C   UNL     1     -14.405 -25.883 -13.530  1.00  0.00     0.093 A 
ATOM      7  C   UNL     1     -14.743 -26.725 -12.464  1.00  0.00     0.136 A 
ATOM      8  C   UNL     1     -14.845 -28.123 -12.684  1.00  0.00     0.125 A 
ATOM      9  C   UNL     1     -15.192 -29.040 -11.678  1.00  0.00     0.078 A 
ATOM     10  C   UNL     1     -15.276 -30.404 -11.971  1.00  0.00     0.223 A 
ENDROOT
BRANCH   1  11
ATOM     11  C   UNL     1     -15.039 -32.267 -13.664  1.00  0.00     0.091 A 
ATOM     12  C   UNL     1     -14.969 -32.618 -15.022  1.00  0.00     0.068 A 
ATOM     13  C   UNL     1     -14.993 -33.961 -15.413  1.00  0.00     0.162 A 
ATOM     14  C   UNL     1     -15.099 -33.284 -12.697  1.00  0.00     0.068 A 
ATOM     15  C   UNL     1     -15.074 -34.975 -14.444  1.00  0.00     0.200 A 
ATOM     16  C   UNL     1     -15.122 -34.632 -13.082  1.00  0.00     0.162 A 
BRANCH  13  17
ATOM     17  O   UNL     1     -14.936 -34.267 -16.773  1.00  0.00    -0.504 OA
ATOM     18  H   UNL     1     -15.770 -34.441 -17.322  1.00  0.00     0.293 HD
ENDBRANCH  13  17
BRANCH  15  19
ATOM     19  O   UNL     1     -15.102 -36.310 -14.844  1.00  0.00    -0.502 OA
ATOM     20  H   UNL     1     -14.255 -36.839 -15.019  1.00  0.00     0.293 HD
ENDBRANCH  15  19
BRANCH  16  21
ATOM     21  O   UNL     1     -15.189 -35.633 -12.113  1.00  0.00    -0.504 OA
ATOM     22  H   UNL     1     -15.133 -36.615 -12.358  1.00  0.00     0.293 HD
ENDBRANCH  16  21
ENDBRANCH   1  11
BRANCH  10  23
ATOM     23  O   UNL     1     -15.669 -31.309 -10.985  1.00  0.00    -0.500 OA
ATOM     24  H   UNL     1     -15.556 -31.105 -10.000  1.00  0.00     0.294 HD
ENDBRANCH  10  23
BRANCH   5  25
ATOM     25  O   UNL     1     -13.828 -25.562 -15.865  1.00  0.00    -0.507 OA
ATOM     26  H   UNL     1     -13.722 -25.913 -16.809  1.00  0.00     0.293 HD
ENDBRANCH   5  25
BRANCH   7  27
ATOM     27  O   UNL     1     -14.966 -26.129 -11.220  1.00  0.00    -0.507 OA
ATOM     28  H   UNL     1     -14.373 -25.420 -10.813  1.00  0.00     0.293 HD
ENDBRANCH   7  27
TORSDOF 7
ENDMDL
MODEL 4
REMARK VINA RESULT:    -7.809      1.144      7.079
REMARK INTER + INTRA:          -9.278
REMARK INTER:                  -9.701
REMARK INTRA:                   0.423
REMARK UNBOUND:                 0.357
REMARK SMILES Oc1cc(O)c2cc(O)c(-c3cc(O)c(O)c(O)c3)[o+]c2c1
REMARK SMILES IDX 10 1 20 2 21 3 22 4 2 5 3 6 4 7 6 8 7 9 8 10 11 11 12 12
REMARK SMILES IDX 13 13 19 14 15 15 17 16 14 17 16 19 18 21 9 23 1 25 5 27
REMARK H PARENT 14 18 16 20 18 22 9 24 1 26 5 28
REMARK Flexibility Score: inf
ROOT
ATOM      1  C   UNL     1     -14.965 -30.856 -13.360  1.00  0.00     0.402 A 
ATOM      2  O   UNL     1     -14.646 -29.950 -14.281  1.00  0.00    -0.202 OA
ATOM      3  C   UNL     1     -14.593 -28.645 -14.034  1.00  0.00     0.368 A 
ATOM      4  C   UNL     1     -14.244 -27.771 -15.066  1.00  0.00     0.162 A 
ATOM      5  C   UNL     1     -14.180 -26.397 -14.835  1.00  0.00     0.128 A 
ATOM      6  C   UNL     1     -14.463 -25.890 -13.561  1.00  0.00     0.093 A 
ATOM      7  C   UNL     1     -14.814 -26.745 -12.510  1.00  0.00     0.136 A 
ATOM      8  C   UNL     1     -14.884 -28.143 -12.742  1.00  0.00     0.125 A 
ATOM      9  C   UNL     1     -15.241 -29.074 -11.752  1.00  0.00     0.078 A 
ATOM     10  C   UNL     1     -15.293 -30.437 -12.057  1.00  0.00     0.223 A 
ENDROOT
BRANCH   1  11
ATOM     11  C   UNL     1     -14.978 -32.282 -13.757  1.00  0.00     0.091 A 
ATOM     12  C   UNL     1     -15.086 -33.273 -12.768  1.00  0.00     0.068 A 
ATOM     13  C   UNL     1     -15.121 -34.627 -13.115  1.00  0.00     0.162 A 
ATOM     14  C   UNL     1     -14.939 -32.667 -15.108  1.00  0.00     0.068 A 
ATOM     15  C   UNL     1     -15.061 -35.008 -14.466  1.00  0.00     0.200 A 
ATOM     16  C   UNL     1     -14.974 -34.022 -15.464  1.00  0.00     0.162 A 
BRANCH  13  17
ATOM     17  O   UNL     1     -15.215 -35.581 -12.101  1.00  0.00    -0.504 OA
ATOM     18  H   UNL     1     -15.146 -35.334 -11.121  1.00  0.00     0.293 HD
ENDBRANCH  13  17
BRANCH  15  19
ATOM     19  O   UNL     1     -15.092 -36.361 -14.803  1.00  0.00    -0.502 OA
ATOM     20  H   UNL     1     -15.386 -37.075 -14.146  1.00  0.00     0.293 HD
ENDBRANCH  15  19
BRANCH  16  21
ATOM     21  O   UNL     1     -14.929 -34.392 -16.808  1.00  0.00    -0.504 OA
ATOM     22  H   UNL     1     -15.766 -34.647 -17.318  1.00  0.00     0.293 HD
ENDBRANCH  16  21
ENDBRANCH   1  11
BRANCH  10  23
ATOM     23  O   UNL     1     -15.695 -31.356 -11.088  1.00  0.00    -0.500 OA
ATOM     24  H   UNL     1     -16.472 -31.987 -11.243  1.00  0.00     0.294 HD
ENDBRANCH  10  23
BRANCH   5  25
ATOM     25  O   UNL     1     -13.830 -25.541 -15.877  1.00  0.00    -0.507 OA
ATOM     26  H   UNL     1     -14.406 -24.745 -16.125  1.00  0.00     0.293 HD
ENDBRANCH   5  25
BRANCH   7  27
ATOM     27  O   UNL     1     -15.079 -26.163 -11.268  1.00  0.00    -0.507 OA
ATOM     28  H   UNL     1     -15.523 -26.639 -10.497  1.00  0.00     0.293 HD
ENDBRANCH   7  27
TORSDOF 7
ENDMDL
MODEL 5
REMARK VINA RESULT:    -6.922      3.502      4.411
REMARK INTER + INTRA:          -8.183
REMARK INTER:                  -8.278
REMARK INTRA:                   0.095
REMARK UNBOUND:                 0.357
REMARK SMILES Oc1cc(O)c2cc(O)c(-c3cc(O)c(O)c(O)c3)[o+]c2c1
REMARK SMILES IDX 10 1 20 2 21 3 22 4 2 5 3 6 4 7 6 8 7 9 8 10 11 11 12 12
REMARK SMILES IDX 13 13 19 14 15 15 17 16 14 17 16 19 18 21 9 23 1 25 5 27
REMARK H PARENT 14 18 16 20 18 22 9 24 1 26 5 28
REMARK Flexibility Score: inf
ROOT
ATOM      1  C   UNL     1     -14.128 -29.150 -12.688  1.00  0.00     0.402 A 
ATOM      2  O   UNL     1     -13.148 -29.582 -11.898  1.00  0.00    -0.202 OA
ATOM      3  C   UNL     1     -13.244 -30.675 -11.147  1.00  0.00     0.368 A 
ATOM      4  C   UNL     1     -12.159 -31.051 -10.352  1.00  0.00     0.162 A 
ATOM      5  C   UNL     1     -12.231 -32.194  -9.556  1.00  0.00     0.128 A 
ATOM      6  C   UNL     1     -13.396 -32.970  -9.553  1.00  0.00     0.093 A 
ATOM      7  C   UNL     1     -14.496 -32.615 -10.342  1.00  0.00     0.136 A 
ATOM      8  C   UNL     1     -14.428 -31.451 -11.151  1.00  0.00     0.125 A 
ATOM      9  C   UNL     1     -15.487 -31.011 -11.962  1.00  0.00     0.078 A 
ATOM     10  C   UNL     1     -15.348 -29.851 -12.729  1.00  0.00     0.223 A 
ENDROOT
BRANCH   1  11
ATOM     11  C   UNL     1     -13.895 -27.924 -13.485  1.00  0.00     0.091 A 
ATOM     12  C   UNL     1     -12.657 -27.740 -14.121  1.00  0.00     0.068 A 
ATOM     13  C   UNL     1     -12.417 -26.601 -14.897  1.00  0.00     0.162 A 
ATOM     14  C   UNL     1     -14.906 -26.965 -13.664  1.00  0.00     0.068 A 
ATOM     15  C   UNL     1     -13.423 -25.633 -15.056  1.00  0.00     0.200 A 
ATOM     16  C   UNL     1     -14.673 -25.821 -14.441  1.00  0.00     0.162 A 
BRANCH  13  17
ATOM     17  O   UNL     1     -11.168 -26.448 -15.500  1.00  0.00    -0.504 OA
ATOM     18  H   UNL     1     -10.776 -27.154 -16.112  1.00  0.00     0.293 HD
ENDBRANCH  13  17
BRANCH  15  19
ATOM     19  O   UNL     1     -13.173 -24.499 -15.828  1.00  0.00    -0.502 OA
ATOM     20  H   UNL     1     -13.909 -23.854 -16.095  1.00  0.00     0.293 HD
ENDBRANCH  15  19
BRANCH  16  21
ATOM     21  O   UNL     1     -15.682 -24.873 -14.606  1.00  0.00    -0.504 OA
ATOM     22  H   UNL     1     -15.653 -23.977 -14.133  1.00  0.00     0.293 HD
ENDBRANCH  16  21
ENDBRANCH   1  11
BRANCH  10  23
ATOM     23  O   UNL     1     -16.416 -29.386 -13.496  1.00  0.00    -0.500 OA
ATOM     24  H   UNL     1     -17.373 -29.639 -13.283  1.00  0.00     0.294 HD
ENDBRANCH  10  23
BRANCH   5  25
ATOM     25  O   UNL     1     -11.138 -32.553  -8.769  1.00  0.00    -0.507 OA
ATOM     26  H   UNL     1     -11.248 -32.813  -7.796  1.00  0.00     0.293 HD
ENDBRANCH   5  25
BRANCH   7  27
ATOM     27  O   UNL     1     -15.621 -33.443 -10.287  1.00  0.00    -0.507 OA
ATOM     28  H   UNL     1     -15.966 -33.883  -9.446  1.00  0.00     0.293 HD
ENDBRANCH   7  27
TORSDOF 7
ENDMDL
MODEL 6
REMARK VINA RESULT:    -6.668      3.629      5.150
REMARK INTER + INTRA:          -7.870
REMARK INTER:                  -7.493
REMARK INTRA:                  -0.377
REMARK UNBOUND:                 0.357
REMARK SMILES Oc1cc(O)c2cc(O)c(-c3cc(O)c(O)c(O)c3)[o+]c2c1
REMARK SMILES IDX 10 1 20 2 21 3 22 4 2 5 3 6 4 7 6 8 7 9 8 10 11 11 12 12
REMARK SMILES IDX 13 13 19 14 15 15 17 16 14 17 16 19 18 21 9 23 1 25 5 27
REMARK H PARENT 14 18 16 20 18 22 9 24 1 26 5 28
REMARK Flexibility Score: inf
ROOT
ATOM      1  C   UNL     1     -13.549 -29.844 -11.636  1.00  0.00     0.402 A 
ATOM      2  O   UNL     1     -12.346 -29.855 -11.068  1.00  0.00    -0.202 OA
ATOM      3  C   UNL     1     -11.924 -30.831 -10.270  1.00  0.00     0.368 A 
ATOM      4  C   UNL     1     -10.640 -30.757  -9.724  1.00  0.00     0.162 A 
ATOM      5  C   UNL     1     -10.171 -31.767  -8.884  1.00  0.00     0.128 A 
ATOM      6  C   UNL     1     -10.990 -32.864  -8.589  1.00  0.00     0.093 A 
ATOM      7  C   UNL     1     -12.279 -32.962  -9.124  1.00  0.00     0.136 A 
ATOM      8  C   UNL     1     -12.761 -31.935  -9.976  1.00  0.00     0.125 A 
ATOM      9  C   UNL     1     -14.045 -31.943 -10.546  1.00  0.00     0.078 A 
ATOM     10  C   UNL     1     -14.451 -30.891 -11.373  1.00  0.00     0.223 A 
ENDROOT
BRANCH   1  11
ATOM     11  C   UNL     1     -13.897 -28.705 -12.515  1.00  0.00     0.091 A 
ATOM     12  C   UNL     1     -14.299 -27.488 -11.941  1.00  0.00     0.068 A 
ATOM     13  C   UNL     1     -14.615 -26.389 -12.747  1.00  0.00     0.162 A 
ATOM     14  C   UNL     1     -13.782 -28.797 -13.912  1.00  0.00     0.068 A 
ATOM     15  C   UNL     1     -14.518 -26.492 -14.145  1.00  0.00     0.200 A 
ATOM     16  C   UNL     1     -14.095 -27.700 -14.726  1.00  0.00     0.162 A 
BRANCH  13  17
ATOM     17  O   UNL     1     -15.024 -25.202 -12.138  1.00  0.00    -0.504 OA
ATOM     18  H   UNL     1     -15.990 -25.033 -11.883  1.00  0.00     0.293 HD
ENDBRANCH  13  17
BRANCH  15  19
ATOM     19  O   UNL     1     -14.839 -25.392 -14.941  1.00  0.00    -0.502 OA
ATOM     20  H   UNL     1     -14.160 -24.675 -15.170  1.00  0.00     0.293 HD
ENDBRANCH  15  19
BRANCH  16  21
ATOM     21  O   UNL     1     -13.983 -27.805 -16.112  1.00  0.00    -0.504 OA
ATOM     22  H   UNL     1     -14.744 -27.544 -16.729  1.00  0.00     0.293 HD
ENDBRANCH  16  21
ENDBRANCH   1  11
BRANCH  10  23
ATOM     23  O   UNL     1     -15.743 -30.874 -11.900  1.00  0.00    -0.500 OA
ATOM     24  H   UNL     1     -16.559 -30.797 -11.305  1.00  0.00     0.294 HD
ENDBRANCH  10  23
BRANCH   5  25
ATOM     25  O   UNL     1      -8.889 -31.675  -8.349  1.00  0.00    -0.507 OA
ATOM     26  H   UNL     1      -8.274 -30.902  -8.576  1.00  0.00     0.293 HD
ENDBRANCH   5  25
BRANCH   7  27
ATOM     27  O   UNL     1     -13.033 -34.089  -8.784  1.00  0.00    -0.507 OA
ATOM     28  H   UNL     1     -12.682 -34.871  -8.250  1.00  0.00     0.293 HD
ENDBRANCH   7  27
TORSDOF 7
ENDMDL
MODEL 7
REMARK VINA RESULT:    -6.333      1.462      2.386
REMARK INTER + INTRA:          -7.457
REMARK INTER:                  -7.183
REMARK INTRA:                  -0.274
REMARK UNBOUND:                 0.357
REMARK SMILES Oc1cc(O)c2cc(O)c(-c3cc(O)c(O)c(O)c3)[o+]c2c1
REMARK SMILES IDX 10 1 20 2 21 3 22 4 2 5 3 6 4 7 6 8 7 9 8 10 11 11 12 12
REMARK SMILES IDX 13 13 19 14 15 15 17 16 14 17 16 19 18 21 9 23 1 25 5 27
REMARK H PARENT 14 18 16 20 18 22 9 24 1 26 5 28
REMARK Flexibility Score: inf
ROOT
ATOM      1  C   UNL     1     -14.567 -29.949 -13.589  1.00  0.00     0.402 A 
ATOM      2  O   UNL     1     -14.693 -30.874 -14.537  1.00  0.00    -0.202 OA
ATOM      3  C   UNL     1     -14.904 -32.161 -14.277  1.00  0.00     0.368 A 
ATOM      4  C   UNL     1     -15.027 -33.058 -15.341  1.00  0.00     0.162 A 
ATOM      5  C   UNL     1     -15.250 -34.413 -15.099  1.00  0.00     0.128 A 
ATOM      6  C   UNL     1     -15.354 -34.878 -13.782  1.00  0.00     0.093 A 
ATOM      7  C   UNL     1     -15.236 -33.999 -12.699  1.00  0.00     0.136 A 
ATOM      8  C   UNL     1     -15.005 -32.621 -12.942  1.00  0.00     0.125 A 
ATOM      9  C   UNL     1     -14.859 -31.670 -11.918  1.00  0.00     0.078 A 
ATOM     10  C   UNL     1     -14.629 -30.328 -12.235  1.00  0.00     0.223 A 
ENDROOT
BRANCH   1  11
ATOM     11  C   UNL     1     -14.346 -28.546 -14.006  1.00  0.00     0.091 A 
ATOM     12  C   UNL     1     -15.348 -27.591 -13.775  1.00  0.00     0.068 A 
ATOM     13  C   UNL     1     -15.158 -26.254 -14.140  1.00  0.00     0.162 A 
ATOM     14  C   UNL     1     -13.131 -28.136 -14.580  1.00  0.00     0.068 A 
ATOM     15  C   UNL     1     -13.950 -25.852 -14.734  1.00  0.00     0.200 A 
ATOM     16  C   UNL     1     -12.932 -26.798 -14.948  1.00  0.00     0.162 A 
BRANCH  13  17
ATOM     17  O   UNL     1     -16.185 -25.339 -13.906  1.00  0.00    -0.504 OA
ATOM     18  H   UNL     1     -17.111 -25.631 -13.615  1.00  0.00     0.293 HD
ENDBRANCH  13  17
BRANCH  15  19
ATOM     19  O   UNL     1     -13.771 -24.518 -15.099  1.00  0.00    -0.502 OA
ATOM     20  H   UNL     1     -13.184 -24.246 -15.879  1.00  0.00     0.293 HD
ENDBRANCH  15  19
BRANCH  16  21
ATOM     21  O   UNL     1     -11.724 -26.404 -15.524  1.00  0.00    -0.504 OA
ATOM     22  H   UNL     1     -11.010 -25.926 -14.987  1.00  0.00     0.293 HD
ENDBRANCH  16  21
ENDBRANCH   1  11
BRANCH  10  23
ATOM     23  O   UNL     1     -14.435 -29.392 -11.219  1.00  0.00    -0.500 OA
ATOM     24  H   UNL     1     -14.076 -29.660 -10.311  1.00  0.00     0.294 HD
ENDBRANCH  10  23
BRANCH   5  25
ATOM     25  O   UNL     1     -15.370 -35.293 -16.172  1.00  0.00    -0.507 OA
ATOM     26  H   UNL     1     -16.275 -35.581 -16.523  1.00  0.00     0.293 HD
ENDBRANCH   5  25
BRANCH   7  27
ATOM     27  O   UNL     1     -15.354 -34.540 -11.416  1.00  0.00    -0.507 OA
ATOM     28  H   UNL     1     -14.646 -34.470 -10.699  1.00  0.00     0.293 HD
ENDBRANCH   7  27
TORSDOF 7
ENDMDL
MODEL 8
REMARK VINA RESULT:    -6.314      1.876      6.954
REMARK INTER + INTRA:          -7.434
REMARK INTER:                  -7.058
REMARK INTRA:                  -0.375
REMARK UNBOUND:                 0.357
REMARK SMILES Oc1cc(O)c2cc(O)c(-c3cc(O)c(O)c(O)c3)[o+]c2c1
REMARK SMILES IDX 10 1 20 2 21 3 22 4 2 5 3 6 4 7 6 8 7 9 8 10 11 11 12 12
REMARK SMILES IDX 13 13 19 14 15 15 17 16 14 17 16 19 18 21 9 23 1 25 5 27
REMARK H PARENT 14 18 16 20 18 22 9 24 1 26 5 28
REMARK Flexibility Score: inf
ROOT
ATOM      1  C   UNL     1     -15.145 -29.958 -13.673  1.00  0.00     0.402 A 
ATOM      2  O   UNL     1     -13.996 -29.436 -14.095  1.00  0.00    -0.202 OA
ATOM      3  C   UNL     1     -13.849 -28.152 -14.410  1.00  0.00     0.368 A 
ATOM      4  C   UNL     1     -12.601 -27.696 -14.840  1.00  0.00     0.162 A 
ATOM      5  C   UNL     1     -12.417 -26.355 -15.175  1.00  0.00     0.128 A 
ATOM      6  C   UNL     1     -13.489 -25.459 -15.079  1.00  0.00     0.093 A 
ATOM      7  C   UNL     1     -14.749 -25.891 -14.649  1.00  0.00     0.136 A 
ATOM      8  C   UNL     1     -14.941 -27.256 -14.311  1.00  0.00     0.125 A 
ATOM      9  C   UNL     1     -16.172 -27.780 -13.885  1.00  0.00     0.078 A 
ATOM     10  C   UNL     1     -16.285 -29.139 -13.572  1.00  0.00     0.223 A 
ENDROOT
BRANCH   1  11
ATOM     11  C   UNL     1     -15.179 -31.400 -13.343  1.00  0.00     0.091 A 
ATOM     12  C   UNL     1     -15.266 -32.344 -14.379  1.00  0.00     0.068 A 
ATOM     13  C   UNL     1     -15.279 -33.714 -14.097  1.00  0.00     0.162 A 
ATOM     14  C   UNL     1     -15.069 -31.850 -12.016  1.00  0.00     0.068 A 
ATOM     15  C   UNL     1     -15.191 -34.159 -12.767  1.00  0.00     0.200 A 
ATOM     16  C   UNL     1     -15.081 -33.221 -11.726  1.00  0.00     0.162 A 
BRANCH  13  17
ATOM     17  O   UNL     1     -15.382 -34.619 -15.154  1.00  0.00    -0.504 OA
ATOM     18  H   UNL     1     -16.079 -35.354 -15.167  1.00  0.00     0.293 HD
ENDBRANCH  13  17
BRANCH  15  19
ATOM     19  O   UNL     1     -15.209 -35.526 -12.495  1.00  0.00    -0.502 OA
ATOM     20  H   UNL     1     -16.005 -35.981 -12.062  1.00  0.00     0.293 HD
ENDBRANCH  15  19
BRANCH  16  21
ATOM     21  O   UNL     1     -14.978 -33.655 -10.404  1.00  0.00    -0.504 OA
ATOM     22  H   UNL     1     -14.238 -33.330  -9.793  1.00  0.00     0.293 HD
ENDBRANCH  16  21
ENDBRANCH   1  11
BRANCH  10  23
ATOM     23  O   UNL     1     -17.519 -29.670 -13.197  1.00  0.00    -0.500 OA
ATOM     24  H   UNL     1     -17.820 -30.586 -13.507  1.00  0.00     0.294 HD
ENDBRANCH  10  23
BRANCH   5  25
ATOM     25  O   UNL     1     -11.165 -25.919 -15.602  1.00  0.00    -0.507 OA
ATOM     26  H   UNL     1     -11.064 -25.276 -16.379  1.00  0.00     0.293 HD
ENDBRANCH   5  25
BRANCH   7  27
ATOM     27  O   UNL     1     -15.767 -24.936 -14.577  1.00  0.00    -0.507 OA
ATOM     28  H   UNL     1     -15.626 -23.971 -14.318  1.00  0.00     0.293 HD
ENDBRANCH   7  27
TORSDOF 7
ENDMDL
MODEL 9
REMARK VINA RESULT:    -6.079      1.064      3.152
REMARK INTER + INTRA:          -7.144
REMARK INTER:                  -7.484
REMARK INTRA:                   0.340
REMARK UNBOUND:                 0.357
REMARK SMILES Oc1cc(O)c2cc(O)c(-c3cc(O)c(O)c(O)c3)[o+]c2c1
REMARK SMILES IDX 10 1 20 2 21 3 22 4 2 5 3 6 4 7 6 8 7 9 8 10 11 11 12 12
REMARK SMILES IDX 13 13 19 14 15 15 17 16 14 17 16 19 18 21 9 23 1 25 5 27
REMARK H PARENT 14 18 16 20 18 22 9 24 1 26 5 28
REMARK Flexibility Score: inf
ROOT
ATOM      1  C   UNL     1     -14.715 -30.946 -14.807  1.00  0.00     0.402 A 
ATOM      2  O   UNL     1     -14.936 -31.905 -13.911  1.00  0.00    -0.202 OA
ATOM      3  C   UNL     1     -14.942 -33.199 -14.213  1.00  0.00     0.368 A 
ATOM      4  C   UNL     1     -15.181 -34.133 -13.202  1.00  0.00     0.162 A 
ATOM      5  C   UNL     1     -15.191 -35.498 -13.490  1.00  0.00     0.128 A 
ATOM      6  C   UNL     1     -14.959 -35.936 -14.799  1.00  0.00     0.093 A 
ATOM      7  C   UNL     1     -14.716 -35.020 -15.830  1.00  0.00     0.136 A 
ATOM      8  C   UNL     1     -14.709 -33.631 -15.541  1.00  0.00     0.125 A 
ATOM      9  C   UNL     1     -14.489 -32.642 -16.514  1.00  0.00     0.078 A 
ATOM     10  C   UNL     1     -14.500 -31.291 -16.155  1.00  0.00     0.223 A 
ENDROOT
BRANCH   1  11
ATOM     11  C   UNL     1     -14.723 -29.540 -14.344  1.00  0.00     0.091 A 
ATOM     12  C   UNL     1     -15.166 -29.244 -13.045  1.00  0.00     0.068 A 
ATOM     13  C   UNL     1     -15.165 -27.927 -12.574  1.00  0.00     0.162 A 
ATOM     14  C   UNL     1     -14.245 -28.499 -15.158  1.00  0.00     0.068 A 
ATOM     15  C   UNL     1     -14.706 -26.886 -13.398  1.00  0.00     0.200 A 
ATOM     16  C   UNL     1     -14.241 -27.177 -14.692  1.00  0.00     0.162 A 
BRANCH  13  17
ATOM     17  O   UNL     1     -15.627 -27.673 -11.282  1.00  0.00    -0.504 OA
ATOM     18  H   UNL     1     -14.996 -27.480 -10.513  1.00  0.00     0.293 HD
ENDBRANCH  13  17
BRANCH  15  19
ATOM     19  O   UNL     1     -14.713 -25.575 -12.922  1.00  0.00    -0.502 OA
ATOM     20  H   UNL     1     -15.572 -25.090 -12.688  1.00  0.00     0.293 HD
ENDBRANCH  15  19
BRANCH  16  21
ATOM     21  O   UNL     1     -13.770 -26.150 -15.511  1.00  0.00    -0.504 OA
ATOM     22  H   UNL     1     -12.860 -25.729 -15.366  1.00  0.00     0.293 HD
ENDBRANCH  16  21
ENDBRANCH   1  11
BRANCH  10  23
ATOM     23  O   UNL     1     -14.331 -30.306 -17.128  1.00  0.00    -0.500 OA
ATOM     24  H   UNL     1     -14.911 -29.476 -17.152  1.00  0.00     0.294 HD
ENDBRANCH  10  23
BRANCH   5  25
ATOM     25  O   UNL     1     -15.431 -36.413 -12.468  1.00  0.00    -0.507 OA
ATOM     26  H   UNL     1     -16.362 -36.768 -12.281  1.00  0.00     0.293 HD
ENDBRANCH   5  25
BRANCH   7  27
ATOM     27  O   UNL     1     -14.491 -35.537 -17.109  1.00  0.00    -0.507 OA
ATOM     28  H   UNL     1     -13.755 -35.229 -17.727  1.00  0.00     0.293 HD
ENDBRANCH   7  27
TORSDOF 7
ENDMDL
