MODEL 1
REMARK VINA RESULT:    -2.732      0.000      0.000
REMARK INTER + INTRA:          -3.807
REMARK INTER:                  -3.691
REMARK INTRA:                  -0.116
REMARK UNBOUND:                -0.116
REMARK SMILES [NH3+]CCCC[C@H]([NH3+])C(=O)[O-]
REMARK SMILES IDX 4 1 3 2 2 3 1 4 5 8 6 9 7 10 8 14 9 15 10 16
REMARK H PARENT 1 5 1 6 1 7 7 11 7 12 7 13
REMARK Flexibility Score: inf
ROOT
ATOM      1  C   UNL     1     -30.842  60.372 -53.577  1.00  0.00     0.012 C 
ENDROOT
BRANCH   1   2
ATOM      2  C   UNL     1     -30.871  61.527 -54.589  1.00  0.00     0.061 C 
BRANCH   2   3
ATOM      3  C   UNL     1     -31.173  62.883 -53.928  1.00  0.00     0.258 C 
BRANCH   3   4
ATOM      4  N   UNL     1     -32.286  62.799 -52.979  1.00  0.00    -0.358 N 
ATOM      5  H   UNL     1     -32.868  61.954 -53.175  1.00  0.00     0.344 HD
ATOM      6  H   UNL     1     -32.889  63.647 -53.089  1.00  0.00     0.344 HD
ATOM      7  H   UNL     1     -31.926  62.767 -51.997  1.00  0.00     0.344 HD
ENDBRANCH   3   4
ENDBRANCH   2   3
ENDBRANCH   1   2
BRANCH   1   8
ATOM      8  C   UNL     1     -29.394  59.945 -53.277  1.00  0.00     0.072 C 
BRANCH   8   9
ATOM      9  C   UNL     1     -29.091  58.460 -53.592  1.00  0.00     0.227 C 
BRANCH   9  10
ATOM     10  N   UNL     1     -30.277  57.750 -54.092  1.00  0.00    -0.350 N 
ATOM     11  H   UNL     1     -30.165  56.721 -53.939  1.00  0.00     0.345 HD
ATOM     12  H   UNL     1     -31.122  58.068 -53.563  1.00  0.00     0.345 HD
ATOM     13  H   UNL     1     -30.431  57.931 -55.109  1.00  0.00     0.345 HD
ENDBRANCH   9  10
BRANCH   9  14
ATOM     14  C   UNL     1     -28.487  57.754 -52.405  1.00  0.00     0.099 C 
ATOM     15  O   UNL     1     -28.710  56.527 -52.225  1.00  0.00    -0.544 OA
ATOM     16  O   UNL     1     -27.644  58.428 -51.529  1.00  0.00    -0.544 OA
ENDBRANCH   9  14
ENDBRANCH   8   9
ENDBRANCH   1   8
TORSDOF 7
ENDMDL
MODEL 2
REMARK VINA RESULT:    -2.707     10.732     11.537
REMARK INTER + INTRA:          -3.772
REMARK INTER:                  -3.247
REMARK INTRA:                  -0.525
REMARK UNBOUND:                -0.116
REMARK SMILES [NH3+]CCCC[C@H]([NH3+])C(=O)[O-]
REMARK SMILES IDX 4 1 3 2 2 3 1 4 5 8 6 9 7 10 8 14 9 15 10 16
REMARK H PARENT 1 5 1 6 1 7 7 11 7 12 7 13
REMARK Flexibility Score: inf
ROOT
ATOM      1  C   UNL     1     -34.668  66.539 -44.887  1.00  0.00     0.012 C 
ENDROOT
BRANCH   1   2
ATOM      2  C   UNL     1     -35.462  65.502 -44.080  1.00  0.00     0.061 C 
BRANCH   2   3
ATOM      3  C   UNL     1     -36.033  64.379 -44.963  1.00  0.00     0.258 C 
BRANCH   3   4
ATOM      4  N   UNL     1     -35.450  63.074 -44.643  1.00  0.00    -0.358 N 
ATOM      5  H   UNL     1     -34.575  63.193 -44.086  1.00  0.00     0.344 HD
ATOM      6  H   UNL     1     -35.207  62.584 -45.535  1.00  0.00     0.344 HD
ATOM      7  H   UNL     1     -36.135  62.488 -44.114  1.00  0.00     0.344 HD
ENDBRANCH   3   4
ENDBRANCH   2   3
ENDBRANCH   1   2
BRANCH   1   8
ATOM      8  C   UNL     1     -33.192  66.558 -44.448  1.00  0.00     0.072 C 
BRANCH   8   9
ATOM      9  C   UNL     1     -32.832  65.495 -43.383  1.00  0.00     0.227 C 
BRANCH   9  10
ATOM     10  N   UNL     1     -32.173  66.090 -42.211  1.00  0.00    -0.350 N 
ATOM     11  H   UNL     1     -31.791  65.335 -41.596  1.00  0.00     0.345 HD
ATOM     12  H   UNL     1     -31.375  66.688 -42.527  1.00  0.00     0.345 HD
ATOM     13  H   UNL     1     -32.835  66.681 -41.659  1.00  0.00     0.345 HD
ENDBRANCH   9  10
BRANCH   9  14
ATOM     14  C   UNL     1     -32.005  64.379 -43.969  1.00  0.00     0.099 C 
ATOM     15  O   UNL     1     -32.557  63.497 -44.679  1.00  0.00    -0.544 OA
ATOM     16  O   UNL     1     -30.629  64.337 -43.777  1.00  0.00    -0.544 OA
ENDBRANCH   9  14
ENDBRANCH   8   9
ENDBRANCH   1   8
TORSDOF 7
ENDMDL
MODEL 3
REMARK VINA RESULT:    -2.673      1.574      1.942
REMARK INTER + INTRA:          -3.726
REMARK INTER:                  -3.281
REMARK INTRA:                  -0.446
REMARK UNBOUND:                -0.116
REMARK SMILES [NH3+]CCCC[C@H]([NH3+])C(=O)[O-]
REMARK SMILES IDX 4 1 3 2 2 3 1 4 5 8 6 9 7 10 8 14 9 15 10 16
REMARK H PARENT 1 5 1 6 1 7 7 11 7 12 7 13
REMARK Flexibility Score: inf
ROOT
ATOM      1  C   UNL     1     -30.448  60.674 -54.535  1.00  0.00     0.012 C 
ENDROOT
BRANCH   1   2
ATOM      2  C   UNL     1     -30.887  62.081 -54.101  1.00  0.00     0.061 C 
BRANCH   2   3
ATOM      3  C   UNL     1     -29.715  63.075 -54.047  1.00  0.00     0.258 C 
BRANCH   3   4
ATOM      4  N   UNL     1     -29.241  63.297 -52.680  1.00  0.00    -0.358 N 
ATOM      5  H   UNL     1     -29.953  62.968 -51.990  1.00  0.00     0.344 HD
ATOM      6  H   UNL     1     -29.092  64.322 -52.535  1.00  0.00     0.344 HD
ATOM      7  H   UNL     1     -28.334  62.800 -52.523  1.00  0.00     0.344 HD
ENDBRANCH   3   4
ENDBRANCH   2   3
ENDBRANCH   1   2
BRANCH   1   8
ATOM      8  C   UNL     1     -30.364  59.731 -53.321  1.00  0.00     0.072 C 
BRANCH   8   9
ATOM      9  C   UNL     1     -29.053  58.913 -53.241  1.00  0.00     0.227 C 
BRANCH   9  10
ATOM     10  N   UNL     1     -29.308  57.475 -53.082  1.00  0.00    -0.350 N 
ATOM     11  H   UNL     1     -30.045  57.323 -52.354  1.00  0.00     0.345 HD
ATOM     12  H   UNL     1     -29.657  57.081 -53.986  1.00  0.00     0.345 HD
ATOM     13  H   UNL     1     -28.442  56.960 -52.805  1.00  0.00     0.345 HD
ENDBRANCH   9  10
BRANCH   9  14
ATOM     14  C   UNL     1     -28.141  59.432 -52.158  1.00  0.00     0.099 C 
ATOM     15  O   UNL     1     -27.969  60.673 -52.024  1.00  0.00    -0.544 OA
ATOM     16  O   UNL     1     -27.524  58.559 -51.269  1.00  0.00    -0.544 OA
ENDBRANCH   9  14
ENDBRANCH   8   9
ENDBRANCH   1   8
TORSDOF 7
ENDMDL
MODEL 4
REMARK VINA RESULT:    -2.670      6.539      7.480
REMARK INTER + INTRA:          -3.723
REMARK INTER:                  -3.521
REMARK INTRA:                  -0.202
REMARK UNBOUND:                -0.116
REMARK SMILES [NH3+]CCCC[C@H]([NH3+])C(=O)[O-]
REMARK SMILES IDX 4 1 3 2 2 3 1 4 5 8 6 9 7 10 8 14 9 15 10 16
REMARK H PARENT 1 5 1 6 1 7 7 11 7 12 7 13
REMARK Flexibility Score: inf
ROOT
ATOM      1  C   UNL     1     -26.873  61.856 -49.017  1.00  0.00     0.012 C 
ENDROOT
BRANCH   1   2
ATOM      2  C   UNL     1     -26.362  61.197 -50.307  1.00  0.00     0.061 C 
BRANCH   2   3
ATOM      3  C   UNL     1     -27.063  59.860 -50.604  1.00  0.00     0.258 C 
BRANCH   3   4
ATOM      4  N   UNL     1     -26.110  58.759 -50.759  1.00  0.00    -0.358 N 
ATOM      5  H   UNL     1     -26.590  57.914 -51.142  1.00  0.00     0.344 HD
ATOM      6  H   UNL     1     -25.717  58.516 -49.820  1.00  0.00     0.344 HD
ATOM      7  H   UNL     1     -25.324  59.042 -51.388  1.00  0.00     0.344 HD
ENDBRANCH   3   4
ENDBRANCH   2   3
ENDBRANCH   1   2
BRANCH   1   8
ATOM      8  C   UNL     1     -26.910  60.839 -47.862  1.00  0.00     0.072 C 
BRANCH   8   9
ATOM      9  C   UNL     1     -25.663  60.871 -46.947  1.00  0.00     0.227 C 
BRANCH   9  10
ATOM     10  N   UNL     1     -24.899  59.617 -47.011  1.00  0.00    -0.350 N 
ATOM     11  H   UNL     1     -25.014  59.085 -46.118  1.00  0.00     0.345 HD
ATOM     12  H   UNL     1     -25.266  59.026 -47.792  1.00  0.00     0.345 HD
ATOM     13  H   UNL     1     -23.883  59.795 -47.176  1.00  0.00     0.345 HD
ENDBRANCH   9  10
BRANCH   9  14
ATOM     14  C   UNL     1     -26.027  61.220 -45.526  1.00  0.00     0.099 C 
ATOM     15  O   UNL     1     -27.201  61.584 -45.251  1.00  0.00    -0.544 OA
ATOM     16  O   UNL     1     -25.094  61.098 -44.502  1.00  0.00    -0.544 OA
ENDBRANCH   9  14
ENDBRANCH   8   9
ENDBRANCH   1   8
TORSDOF 7
ENDMDL
MODEL 5
REMARK VINA RESULT:    -2.630      8.126      9.252
REMARK INTER + INTRA:          -3.669
REMARK INTER:                  -3.578
REMARK INTRA:                  -0.090
REMARK UNBOUND:                -0.116
REMARK SMILES [NH3+]CCCC[C@H]([NH3+])C(=O)[O-]
REMARK SMILES IDX 4 1 3 2 2 3 1 4 5 8 6 9 7 10 8 14 9 15 10 16
REMARK H PARENT 1 5 1 6 1 7 7 11 7 12 7 13
REMARK Flexibility Score: inf
ROOT
ATOM      1  C   UNL     1     -23.720  59.567 -47.607  1.00  0.00     0.012 C 
ENDROOT
BRANCH   1   2
ATOM      2  C   UNL     1     -22.959  58.298 -47.196  1.00  0.00     0.061 C 
BRANCH   2   3
ATOM      3  C   UNL     1     -22.526  57.452 -48.406  1.00  0.00     0.258 C 
BRANCH   3   4
ATOM      4  N   UNL     1     -23.657  56.763 -49.031  1.00  0.00    -0.358 N 
ATOM      5  H   UNL     1     -23.660  55.753 -48.764  1.00  0.00     0.344 HD
ATOM      6  H   UNL     1     -23.560  56.827 -50.071  1.00  0.00     0.344 HD
ATOM      7  H   UNL     1     -24.559  57.211 -48.749  1.00  0.00     0.344 HD
ENDBRANCH   3   4
ENDBRANCH   2   3
ENDBRANCH   1   2
BRANCH   1   8
ATOM      8  C   UNL     1     -24.477  60.162 -46.406  1.00  0.00     0.072 C 
BRANCH   8   9
ATOM      9  C   UNL     1     -25.987  60.389 -46.655  1.00  0.00     0.227 C 
BRANCH   9  10
ATOM     10  N   UNL     1     -26.319  60.361 -48.087  1.00  0.00    -0.350 N 
ATOM     11  H   UNL     1     -27.244  59.893 -48.228  1.00  0.00     0.345 HD
ATOM     12  H   UNL     1     -26.392  61.340 -48.447  1.00  0.00     0.345 HD
ATOM     13  H   UNL     1     -25.591  59.855 -48.639  1.00  0.00     0.345 HD
ENDBRANCH   9  10
BRANCH   9  14
ATOM     14  C   UNL     1     -26.473  61.658 -46.003  1.00  0.00     0.099 C 
ATOM     15  O   UNL     1     -27.170  61.599 -44.956  1.00  0.00    -0.544 OA
ATOM     16  O   UNL     1     -26.119  62.901 -46.517  1.00  0.00    -0.544 OA
ENDBRANCH   9  14
ENDBRANCH   8   9
ENDBRANCH   1   8
TORSDOF 7
ENDMDL
MODEL 6
REMARK VINA RESULT:    -2.575      3.758      4.584
REMARK INTER + INTRA:          -3.594
REMARK INTER:                  -3.489
REMARK INTRA:                  -0.105
REMARK UNBOUND:                -0.116
REMARK SMILES [NH3+]CCCC[C@H]([NH3+])C(=O)[O-]
REMARK SMILES IDX 4 1 3 2 2 3 1 4 5 8 6 9 7 10 8 14 9 15 10 16
REMARK H PARENT 1 5 1 6 1 7 7 11 7 12 7 13
REMARK Flexibility Score: inf
ROOT
ATOM      1  C   UNL     1     -28.153  60.473 -52.301  1.00  0.00     0.012 C 
ENDROOT
BRANCH   1   2
ATOM      2  C   UNL     1     -29.095  61.161 -53.300  1.00  0.00     0.061 C 
BRANCH   2   3
ATOM      3  C   UNL     1     -30.225  60.236 -53.780  1.00  0.00     0.258 C 
BRANCH   3   4
ATOM      4  N   UNL     1     -30.080  58.873 -53.264  1.00  0.00    -0.358 N 
ATOM      5  H   UNL     1     -31.019  58.438 -53.118  1.00  0.00     0.344 HD
ATOM      6  H   UNL     1     -29.588  58.910 -52.342  1.00  0.00     0.344 HD
ATOM      7  H   UNL     1     -29.515  58.291 -53.924  1.00  0.00     0.344 HD
ENDBRANCH   3   4
ENDBRANCH   2   3
ENDBRANCH   1   2
BRANCH   1   8
ATOM      8  C   UNL     1     -27.172  61.488 -51.687  1.00  0.00     0.072 C 
BRANCH   8   9
ATOM      9  C   UNL     1     -26.658  61.104 -50.280  1.00  0.00     0.227 C 
BRANCH   9  10
ATOM     10  N   UNL     1     -26.854  59.676 -49.992  1.00  0.00    -0.350 N 
ATOM     11  H   UNL     1     -27.578  59.560 -49.245  1.00  0.00     0.345 HD
ATOM     12  H   UNL     1     -27.195  59.190 -50.854  1.00  0.00     0.345 HD
ATOM     13  H   UNL     1     -25.966  59.222 -49.682  1.00  0.00     0.345 HD
ENDBRANCH   9  10
BRANCH   9  14
ATOM     14  C   UNL     1     -27.272  61.969 -49.209  1.00  0.00     0.099 C 
ATOM     15  O   UNL     1     -27.197  61.621 -48.001  1.00  0.00    -0.544 OA
ATOM     16  O   UNL     1     -27.882  63.176 -49.533  1.00  0.00    -0.544 OA
ENDBRANCH   9  14
ENDBRANCH   8   9
ENDBRANCH   1   8
TORSDOF 7
ENDMDL
MODEL 7
REMARK VINA RESULT:    -2.568      8.962     10.163
REMARK INTER + INTRA:          -3.584
REMARK INTER:                  -3.097
REMARK INTRA:                  -0.487
REMARK UNBOUND:                -0.116
REMARK SMILES [NH3+]CCCC[C@H]([NH3+])C(=O)[O-]
REMARK SMILES IDX 4 1 3 2 2 3 1 4 5 8 6 9 7 10 8 14 9 15 10 16
REMARK H PARENT 1 5 1 6 1 7 7 11 7 12 7 13
REMARK Flexibility Score: inf
ROOT
ATOM      1  C   UNL     1     -23.657  60.851 -45.601  1.00  0.00     0.012 C 
ENDROOT
BRANCH   1   2
ATOM      2  C   UNL     1     -24.324  59.876 -46.582  1.00  0.00     0.061 C 
BRANCH   2   3
ATOM      3  C   UNL     1     -25.036  60.598 -47.739  1.00  0.00     0.258 C 
BRANCH   3   4
ATOM      4  N   UNL     1     -26.467  60.292 -47.784  1.00  0.00    -0.358 N 
ATOM      5  H   UNL     1     -26.978  61.024 -48.328  1.00  0.00     0.344 HD
ATOM      6  H   UNL     1     -26.844  60.286 -46.808  1.00  0.00     0.344 HD
ATOM      7  H   UNL     1     -26.626  59.351 -48.212  1.00  0.00     0.344 HD
ENDBRANCH   3   4
ENDBRANCH   2   3
ENDBRANCH   1   2
BRANCH   1   8
ATOM      8  C   UNL     1     -24.546  61.075 -44.365  1.00  0.00     0.072 C 
BRANCH   8   9
ATOM      9  C   UNL     1     -25.176  62.486 -44.282  1.00  0.00     0.227 C 
BRANCH   9  10
ATOM     10  N   UNL     1     -24.787  63.193 -43.053  1.00  0.00    -0.350 N 
ATOM     11  H   UNL     1     -24.249  62.549 -42.429  1.00  0.00     0.345 HD
ATOM     12  H   UNL     1     -24.170  64.002 -43.297  1.00  0.00     0.345 HD
ATOM     13  H   UNL     1     -25.621  63.553 -42.538  1.00  0.00     0.345 HD
ENDBRANCH   9  10
BRANCH   9  14
ATOM     14  C   UNL     1     -26.675  62.434 -44.435  1.00  0.00     0.099 C 
ATOM     15  O   UNL     1     -27.388  63.343 -43.932  1.00  0.00    -0.544 OA
ATOM     16  O   UNL     1     -27.280  61.419 -45.167  1.00  0.00    -0.544 OA
ENDBRANCH   9  14
ENDBRANCH   8   9
ENDBRANCH   1   8
TORSDOF 7
ENDMDL
MODEL 8
REMARK VINA RESULT:    -2.530      2.287      3.103
REMARK INTER + INTRA:          -3.534
REMARK INTER:                  -3.024
REMARK INTRA:                  -0.509
REMARK UNBOUND:                -0.116
REMARK SMILES [NH3+]CCCC[C@H]([NH3+])C(=O)[O-]
REMARK SMILES IDX 4 1 3 2 2 3 1 4 5 8 6 9 7 10 8 14 9 15 10 16
REMARK H PARENT 1 5 1 6 1 7 7 11 7 12 7 13
REMARK Flexibility Score: inf
ROOT
ATOM      1  C   UNL     1     -27.889  60.283 -53.853  1.00  0.00     0.012 C 
ENDROOT
BRANCH   1   2
ATOM      2  C   UNL     1     -29.149  60.949 -53.281  1.00  0.00     0.061 C 
BRANCH   2   3
ATOM      3  C   UNL     1     -30.444  60.297 -53.791  1.00  0.00     0.258 C 
BRANCH   3   4
ATOM      4  N   UNL     1     -30.463  58.850 -53.563  1.00  0.00    -0.358 N 
ATOM      5  H   UNL     1     -29.687  58.389 -54.090  1.00  0.00     0.344 HD
ATOM      6  H   UNL     1     -31.370  58.464 -53.911  1.00  0.00     0.344 HD
ATOM      7  H   UNL     1     -30.377  58.641 -52.542  1.00  0.00     0.344 HD
ENDBRANCH   3   4
ENDBRANCH   2   3
ENDBRANCH   1   2
BRANCH   1   8
ATOM      8  C   UNL     1     -26.858  60.018 -52.740  1.00  0.00     0.072 C 
BRANCH   8   9
ATOM      9  C   UNL     1     -27.419  59.241 -51.526  1.00  0.00     0.227 C 
BRANCH   9  10
ATOM     10  N   UNL     1     -26.729  59.596 -50.278  1.00  0.00    -0.350 N 
ATOM     11  H   UNL     1     -27.262  59.222 -49.459  1.00  0.00     0.345 HD
ATOM     12  H   UNL     1     -25.777  59.163 -50.271  1.00  0.00     0.345 HD
ATOM     13  H   UNL     1     -26.627  60.631 -50.178  1.00  0.00     0.345 HD
ENDBRANCH   9  10
BRANCH   9  14
ATOM     14  C   UNL     1     -27.397  57.752 -51.762  1.00  0.00     0.099 C 
ATOM     15  O   UNL     1     -26.340  57.100 -51.551  1.00  0.00    -0.544 OA
ATOM     16  O   UNL     1     -28.544  57.078 -52.164  1.00  0.00    -0.544 OA
ENDBRANCH   9  14
ENDBRANCH   8   9
ENDBRANCH   1   8
TORSDOF 7
ENDMDL
MODEL 9
REMARK VINA RESULT:    -2.528      7.482      8.214
REMARK INTER + INTRA:          -3.531
REMARK INTER:                  -3.340
REMARK INTRA:                  -0.191
REMARK UNBOUND:                -0.116
REMARK SMILES [NH3+]CCCC[C@H]([NH3+])C(=O)[O-]
REMARK SMILES IDX 4 1 3 2 2 3 1 4 5 8 6 9 7 10 8 14 9 15 10 16
REMARK H PARENT 1 5 1 6 1 7 7 11 7 12 7 13
REMARK Flexibility Score: inf
ROOT
ATOM      1  C   UNL     1     -23.345  59.890 -46.973  1.00  0.00     0.012 C 
ENDROOT
BRANCH   1   2
ATOM      2  C   UNL     1     -24.750  60.176 -46.422  1.00  0.00     0.061 C 
BRANCH   2   3
ATOM      3  C   UNL     1     -25.616  60.984 -47.403  1.00  0.00     0.258 C 
BRANCH   3   4
ATOM      4  N   UNL     1     -26.740  60.202 -47.921  1.00  0.00    -0.358 N 
ATOM      5  H   UNL     1     -26.987  59.435 -47.257  1.00  0.00     0.344 HD
ATOM      6  H   UNL     1     -26.461  59.771 -48.833  1.00  0.00     0.344 HD
ATOM      7  H   UNL     1     -27.570  60.818 -48.081  1.00  0.00     0.344 HD
ENDBRANCH   3   4
ENDBRANCH   2   3
ENDBRANCH   1   2
BRANCH   1   8
ATOM      8  C   UNL     1     -23.180  58.394 -47.294  1.00  0.00     0.072 C 
BRANCH   8   9
ATOM      9  C   UNL     1     -22.959  58.086 -48.794  1.00  0.00     0.227 C 
BRANCH   9  10
ATOM     10  N   UNL     1     -24.073  58.563 -49.625  1.00  0.00    -0.350 N 
ATOM     11  H   UNL     1     -23.882  59.538 -49.951  1.00  0.00     0.345 HD
ATOM     12  H   UNL     1     -24.167  57.950 -50.467  1.00  0.00     0.345 HD
ATOM     13  H   UNL     1     -24.976  58.549 -49.099  1.00  0.00     0.345 HD
ENDBRANCH   9  10
BRANCH   9  14
ATOM     14  C   UNL     1     -22.689  56.621 -49.026  1.00  0.00     0.099 C 
ATOM     15  O   UNL     1     -23.624  55.785 -48.911  1.00  0.00    -0.544 OA
ATOM     16  O   UNL     1     -21.428  56.183 -49.415  1.00  0.00    -0.544 OA
ENDBRANCH   9  14
ENDBRANCH   8   9
ENDBRANCH   1   8
TORSDOF 7
ENDMDL
