MODEL 1
REMARK VINA RESULT:    -2.863      0.000      0.000
REMARK INTER + INTRA:          -3.504
REMARK INTER:                  -3.197
REMARK INTRA:                  -0.307
REMARK UNBOUND:                -0.307
REMARK SMILES CC(=O)c1ccc(O)cc1O
REMARK SMILES IDX 4 1 10 2 9 3 7 4 6 5 5 6 2 7 1 8 3 9 11 10 8 12
REMARK H PARENT 11 11 8 13
REMARK Flexibility Score: inf
ROOT
ATOM      1  C   UNL     1      31.923  22.980  27.989  1.00  0.00     0.059 A 
ATOM      2  C   UNL     1      32.494  23.575  29.143  1.00  0.00     0.130 A 
ATOM      3  C   UNL     1      33.844  23.945  29.139  1.00  0.00     0.093 A 
ATOM      4  C   UNL     1      34.647  23.702  28.018  1.00  0.00     0.119 A 
ATOM      5  C   UNL     1      34.096  23.091  26.891  1.00  0.00     0.047 A 
ATOM      6  C   UNL     1      32.746  22.732  26.875  1.00  0.00     0.019 A 
ENDROOT
BRANCH   1   7
ATOM      7  C   UNL     1      30.481  22.648  27.909  1.00  0.00     0.163 C 
ATOM      8  C   UNL     1      30.009  21.421  27.192  1.00  0.00     0.093 C 
ATOM      9  O   UNL     1      29.625  23.446  28.376  1.00  0.00    -0.294 OA
ENDBRANCH   1   7
BRANCH   2  10
ATOM     10  O   UNL     1      31.763  23.786  30.315  1.00  0.00    -0.507 OA
ATOM     11  H   UNL     1      31.852  24.617  30.884  1.00  0.00     0.293 HD
ENDBRANCH   2  10
BRANCH   4  12
ATOM     12  O   UNL     1      35.992  24.062  28.016  1.00  0.00    -0.508 OA
ATOM     13  H   UNL     1      36.438  24.453  28.839  1.00  0.00     0.293 HD
ENDBRANCH   4  12
TORSDOF 3
ENDMDL
MODEL 2
REMARK VINA RESULT:    -2.684      1.116      3.967
REMARK INTER + INTRA:          -3.305
REMARK INTER:                  -3.063
REMARK INTRA:                  -0.241
REMARK UNBOUND:                -0.307
REMARK SMILES CC(=O)c1ccc(O)cc1O
REMARK SMILES IDX 4 1 10 2 9 3 7 4 6 5 5 6 2 7 1 8 3 9 11 10 8 12
REMARK H PARENT 11 11 8 13
REMARK Flexibility Score: inf
ROOT
ATOM      1  C   UNL     1      33.361  23.106  28.013  1.00  0.00     0.059 A 
ATOM      2  C   UNL     1      32.542  23.448  29.118  1.00  0.00     0.130 A 
ATOM      3  C   UNL     1      31.178  23.134  29.097  1.00  0.00     0.093 A 
ATOM      4  C   UNL     1      30.606  22.515  27.979  1.00  0.00     0.119 A 
ATOM      5  C   UNL     1      31.403  22.203  26.877  1.00  0.00     0.047 A 
ATOM      6  C   UNL     1      32.769  22.495  26.892  1.00  0.00     0.019 A 
ENDROOT
BRANCH   1   7
ATOM      7  C   UNL     1      34.825  23.338  28.018  1.00  0.00     0.163 C 
ATOM      8  C   UNL     1      35.731  22.579  27.098  1.00  0.00     0.093 C 
ATOM      9  O   UNL     1      35.334  24.123  28.861  1.00  0.00    -0.294 OA
ENDBRANCH   1   7
BRANCH   2  10
ATOM     10  O   UNL     1      33.038  24.122  30.237  1.00  0.00    -0.507 OA
ATOM     11  H   UNL     1      33.039  23.730  31.168  1.00  0.00     0.293 HD
ENDBRANCH   2  10
BRANCH   4  12
ATOM     12  O   UNL     1      29.247  22.209  27.954  1.00  0.00    -0.508 OA
ATOM     13  H   UNL     1      28.837  21.679  27.193  1.00  0.00     0.293 HD
ENDBRANCH   4  12
TORSDOF 3
ENDMDL
