MODEL 1
REMARK VINA RESULT:    -6.422      0.000      0.000
REMARK INTER + INTRA:          -7.699
REMARK INTER:                  -7.549
REMARK INTRA:                  -0.151
REMARK UNBOUND:                -0.151
REMARK SMILES O=c1c(O)c(-c2ccc(O)cc2)oc2cc(O)cc(O)c12
REMARK SMILES IDX 5 1 3 2 2 3 1 4 21 5 19 6 18 7 16 8 15 9 14 10 13 11 6 12
REMARK SMILES IDX 7 13 8 14 9 15 12 16 11 17 10 18 4 20 20 22 17 24
REMARK H PARENT 10 19 4 21 20 23 17 25
REMARK Flexibility Score: inf
ROOT
ATOM      1  C   UNL     1      30.864 -91.971  37.422  1.00  0.00     0.180 A 
ATOM      2  C   UNL     1      29.632 -92.570  37.104  1.00  0.00     0.208 A 
ATOM      3  C   UNL     1      29.474 -93.950  37.304  1.00  0.00     0.238 A 
ATOM      4  O   UNL     1      28.387 -94.489  36.967  1.00  0.00    -0.285 OA
ATOM      5  C   UNL     1      30.542 -94.713  37.834  1.00  0.00     0.111 A 
ATOM      6  C   UNL     1      30.480 -96.110  38.114  1.00  0.00     0.134 A 
ATOM      7  C   UNL     1      31.638 -96.788  38.513  1.00  0.00     0.093 A 
ATOM      8  C   UNL     1      32.841 -96.107  38.704  1.00  0.00     0.123 A 
ATOM      9  C   UNL     1      32.898 -94.729  38.491  1.00  0.00     0.094 A 
ATOM     10  C   UNL     1      31.768 -94.032  38.057  1.00  0.00     0.146 A 
ATOM     11  O   UNL     1      31.868 -92.724  37.854  1.00  0.00    -0.452 OA
ENDROOT
BRANCH   1  12
ATOM     12  C   UNL     1      31.098 -90.517  37.263  1.00  0.00     0.021 A 
ATOM     13  C   UNL     1      32.104 -90.071  36.389  1.00  0.00     0.016 A 
ATOM     14  C   UNL     1      32.357 -88.704  36.241  1.00  0.00     0.047 A 
ATOM     15  C   UNL     1      31.618 -87.768  36.975  1.00  0.00     0.115 A 
ATOM     16  C   UNL     1      30.373 -89.572  38.011  1.00  0.00     0.016 A 
ATOM     17  C   UNL     1      30.630 -88.205  37.861  1.00  0.00     0.047 A 
BRANCH  15  18
ATOM     18  O   UNL     1      31.861 -86.403  36.835  1.00  0.00    -0.508 OA
ATOM     19  H   UNL     1      32.407 -86.039  36.063  1.00  0.00     0.293 HD
ENDBRANCH  15  18
ENDBRANCH   1  12
BRANCH   2  20
ATOM     20  O   UNL     1      28.597 -91.802  36.562  1.00  0.00    -0.502 OA
ATOM     21  H   UNL     1      27.863 -92.204  35.991  1.00  0.00     0.293 HD
ENDBRANCH   2  20
BRANCH   6  22
ATOM     22  O   UNL     1      29.308 -96.869  38.044  1.00  0.00    -0.507 OA
ATOM     23  H   UNL     1      28.955 -97.452  38.789  1.00  0.00     0.293 HD
ENDBRANCH   6  22
BRANCH   8  24
ATOM     24  O   UNL     1      33.970 -96.809  39.117  1.00  0.00    -0.508 OA
ATOM     25  H   UNL     1      34.863 -96.348  39.249  1.00  0.00     0.293 HD
ENDBRANCH   8  24
TORSDOF 5
ENDMDL
MODEL 2
REMARK VINA RESULT:    -5.789      9.461     10.798
REMARK INTER + INTRA:          -6.955
REMARK INTER:                  -6.708
REMARK INTRA:                  -0.247
REMARK UNBOUND:                -0.151
REMARK SMILES O=c1c(O)c(-c2ccc(O)cc2)oc2cc(O)cc(O)c12
REMARK SMILES IDX 5 1 3 2 2 3 1 4 21 5 19 6 18 7 16 8 15 9 14 10 13 11 6 12
REMARK SMILES IDX 7 13 8 14 9 15 12 16 11 17 10 18 4 20 20 22 17 24
REMARK H PARENT 10 19 4 21 20 23 17 25
REMARK Flexibility Score: inf
ROOT
ATOM      1  C   UNL     1      36.172 -95.292  29.847  1.00  0.00     0.180 A 
ATOM      2  C   UNL     1      37.241 -95.641  29.003  1.00  0.00     0.208 A 
ATOM      3  C   UNL     1      38.541 -95.677  29.530  1.00  0.00     0.238 A 
ATOM      4  O   UNL     1      39.499 -95.938  28.756  1.00  0.00    -0.285 OA
ATOM      5  C   UNL     1      38.756 -95.381  30.897  1.00  0.00     0.111 A 
ATOM      6  C   UNL     1      40.026 -95.425  31.547  1.00  0.00     0.134 A 
ATOM      7  C   UNL     1      40.141 -94.985  32.871  1.00  0.00     0.093 A 
ATOM      8  C   UNL     1      39.022 -94.563  33.589  1.00  0.00     0.123 A 
ATOM      9  C   UNL     1      37.766 -94.573  32.983  1.00  0.00     0.094 A 
ATOM     10  C   UNL     1      37.625 -94.972  31.651  1.00  0.00     0.146 A 
ATOM     11  O   UNL     1      36.414 -94.955  31.108  1.00  0.00    -0.452 OA
ENDROOT
BRANCH   1  12
ATOM     12  C   UNL     1      34.770 -95.257  29.371  1.00  0.00     0.021 A 
ATOM     13  C   UNL     1      33.920 -96.343  29.643  1.00  0.00     0.016 A 
ATOM     14  C   UNL     1      32.600 -96.341  29.183  1.00  0.00     0.047 A 
ATOM     15  C   UNL     1      32.117 -95.260  28.433  1.00  0.00     0.115 A 
ATOM     16  C   UNL     1      34.284 -94.185  28.601  1.00  0.00     0.016 A 
ATOM     17  C   UNL     1      32.963 -94.187  28.142  1.00  0.00     0.047 A 
BRANCH  15  18
ATOM     18  O   UNL     1      30.803 -95.247  27.970  1.00  0.00    -0.508 OA
ATOM     19  H   UNL     1      30.259 -96.099  27.899  1.00  0.00     0.293 HD
ENDBRANCH  15  18
ENDBRANCH   1  12
BRANCH   2  20
ATOM     20  O   UNL     1      37.009 -95.910  27.651  1.00  0.00    -0.502 OA
ATOM     21  H   UNL     1      36.191 -95.568  27.161  1.00  0.00     0.293 HD
ENDBRANCH   2  20
BRANCH   6  22
ATOM     22  O   UNL     1      41.191 -95.915  30.949  1.00  0.00    -0.507 OA
ATOM     23  H   UNL     1      41.338 -96.877  30.679  1.00  0.00     0.293 HD
ENDBRANCH   6  22
BRANCH   8  24
ATOM     24  O   UNL     1      39.171 -94.147  34.910  1.00  0.00    -0.508 OA
ATOM     25  H   UNL     1      38.433 -94.277  35.593  1.00  0.00     0.293 HD
ENDBRANCH   8  24
TORSDOF 5
ENDMDL
MODEL 3
REMARK VINA RESULT:    -5.543      9.464     10.993
REMARK INTER + INTRA:          -6.666
REMARK INTER:                  -6.505
REMARK INTRA:                  -0.161
REMARK UNBOUND:                -0.151
REMARK SMILES O=c1c(O)c(-c2ccc(O)cc2)oc2cc(O)cc(O)c12
REMARK SMILES IDX 5 1 3 2 2 3 1 4 21 5 19 6 18 7 16 8 15 9 14 10 13 11 6 12
REMARK SMILES IDX 7 13 8 14 9 15 12 16 11 17 10 18 4 20 20 22 17 24
REMARK H PARENT 10 19 4 21 20 23 17 25
REMARK Flexibility Score: inf
ROOT
ATOM      1  C   UNL     1      37.383 -95.381  30.908  1.00  0.00     0.180 A 
ATOM      2  C   UNL     1      37.970 -96.171  29.904  1.00  0.00     0.208 A 
ATOM      3  C   UNL     1      37.278 -96.366  28.699  1.00  0.00     0.238 A 
ATOM      4  O   UNL     1      37.785 -97.118  27.826  1.00  0.00    -0.285 OA
ATOM      5  C   UNL     1      36.015 -95.757  28.504  1.00  0.00     0.111 A 
ATOM      6  C   UNL     1      35.243 -95.854  27.308  1.00  0.00     0.134 A 
ATOM      7  C   UNL     1      33.950 -95.319  27.274  1.00  0.00     0.093 A 
ATOM      8  C   UNL     1      33.425 -94.634  28.371  1.00  0.00     0.123 A 
ATOM      9  C   UNL     1      34.194 -94.482  29.525  1.00  0.00     0.094 A 
ATOM     10  C   UNL     1      35.475 -95.035  29.601  1.00  0.00     0.146 A 
ATOM     11  O   UNL     1      36.169 -94.877  30.721  1.00  0.00    -0.452 OA
ENDROOT
BRANCH   1  12
ATOM     12  C   UNL     1      38.063 -95.108  32.195  1.00  0.00     0.021 A 
ATOM     13  C   UNL     1      37.474 -95.545  33.394  1.00  0.00     0.016 A 
ATOM     14  C   UNL     1      38.087 -95.279  34.621  1.00  0.00     0.047 A 
ATOM     15  C   UNL     1      39.288 -94.561  34.668  1.00  0.00     0.115 A 
ATOM     16  C   UNL     1      39.260 -94.371  32.251  1.00  0.00     0.016 A 
ATOM     17  C   UNL     1      39.869 -94.106  33.481  1.00  0.00     0.047 A 
BRANCH  15  18
ATOM     18  O   UNL     1      39.909 -94.290  35.885  1.00  0.00    -0.508 OA
ATOM     19  H   UNL     1      39.379 -93.977  36.691  1.00  0.00     0.293 HD
ENDBRANCH  15  18
ENDBRANCH   1  12
BRANCH   2  20
ATOM     20  O   UNL     1      39.208 -96.781  30.124  1.00  0.00    -0.502 OA
ATOM     21  H   UNL     1      39.726 -97.244  29.387  1.00  0.00     0.293 HD
ENDBRANCH   2  20
BRANCH   6  22
ATOM     22  O   UNL     1      35.707 -96.436  26.125  1.00  0.00    -0.507 OA
ATOM     23  H   UNL     1      35.120 -96.719  25.354  1.00  0.00     0.293 HD
ENDBRANCH   6  22
BRANCH   8  24
ATOM     24  O   UNL     1      32.141 -94.101  28.297  1.00  0.00    -0.508 OA
ATOM     25  H   UNL     1      31.515 -94.329  27.534  1.00  0.00     0.293 HD
ENDBRANCH   8  24
TORSDOF 5
ENDMDL
MODEL 4
REMARK VINA RESULT:    -5.400      7.718     10.240
REMARK INTER + INTRA:          -6.498
REMARK INTER:                  -6.254
REMARK INTRA:                  -0.244
REMARK UNBOUND:                -0.151
REMARK SMILES O=c1c(O)c(-c2ccc(O)cc2)oc2cc(O)cc(O)c12
REMARK SMILES IDX 5 1 3 2 2 3 1 4 21 5 19 6 18 7 16 8 15 9 14 10 13 11 6 12
REMARK SMILES IDX 7 13 8 14 9 15 12 16 11 17 10 18 4 20 20 22 17 24
REMARK H PARENT 10 19 4 21 20 23 17 25
REMARK Flexibility Score: inf
ROOT
ATOM      1  C   UNL     1      39.746 -95.375  35.251  1.00  0.00     0.180 A 
ATOM      2  C   UNL     1      40.761 -94.979  36.140  1.00  0.00     0.208 A 
ATOM      3  C   UNL     1      40.539 -95.091  37.521  1.00  0.00     0.238 A 
ATOM      4  O   UNL     1      41.430 -94.685  38.312  1.00  0.00    -0.285 OA
ATOM      5  C   UNL     1      39.312 -95.613  37.997  1.00  0.00     0.111 A 
ATOM      6  C   UNL     1      38.994 -95.808  39.375  1.00  0.00     0.134 A 
ATOM      7  C   UNL     1      37.702 -96.209  39.736  1.00  0.00     0.093 A 
ATOM      8  C   UNL     1      36.736 -96.482  38.767  1.00  0.00     0.123 A 
ATOM      9  C   UNL     1      37.054 -96.352  37.415  1.00  0.00     0.094 A 
ATOM     10  C   UNL     1      38.324 -95.920  37.025  1.00  0.00     0.146 A 
ATOM     11  O   UNL     1      38.582 -95.798  35.729  1.00  0.00    -0.452 OA
ENDROOT
BRANCH   1  12
ATOM     12  C   UNL     1      39.917 -95.310  33.781  1.00  0.00     0.021 A 
ATOM     13  C   UNL     1      39.220 -94.335  33.047  1.00  0.00     0.016 A 
ATOM     14  C   UNL     1      39.348 -94.270  31.657  1.00  0.00     0.047 A 
ATOM     15  C   UNL     1      40.163 -95.188  30.981  1.00  0.00     0.115 A 
ATOM     16  C   UNL     1      40.718 -96.240  33.094  1.00  0.00     0.016 A 
ATOM     17  C   UNL     1      40.843 -96.173  31.702  1.00  0.00     0.047 A 
BRANCH  15  18
ATOM     18  O   UNL     1      40.298 -95.132  29.596  1.00  0.00    -0.508 OA
ATOM     19  H   UNL     1      40.859 -94.417  29.147  1.00  0.00     0.293 HD
ENDBRANCH  15  18
ENDBRANCH   1  12
BRANCH   2  20
ATOM     20  O   UNL     1      41.956 -94.446  35.649  1.00  0.00    -0.502 OA
ATOM     21  H   UNL     1      41.979 -93.714  34.950  1.00  0.00     0.293 HD
ENDBRANCH   2  20
BRANCH   6  22
ATOM     22  O   UNL     1      39.912 -95.652  40.417  1.00  0.00    -0.507 OA
ATOM     23  H   UNL     1      39.802 -95.011  41.189  1.00  0.00     0.293 HD
ENDBRANCH   6  22
BRANCH   8  24
ATOM     24  O   UNL     1      35.465 -96.893  39.162  1.00  0.00    -0.508 OA
ATOM     25  H   UNL     1      35.214 -97.874  39.203  1.00  0.00     0.293 HD
ENDBRANCH   8  24
TORSDOF 5
ENDMDL
MODEL 5
REMARK VINA RESULT:    -5.109     15.095     16.697
REMARK INTER + INTRA:          -6.156
REMARK INTER:                  -5.965
REMARK INTRA:                  -0.191
REMARK UNBOUND:                -0.151
REMARK SMILES O=c1c(O)c(-c2ccc(O)cc2)oc2cc(O)cc(O)c12
REMARK SMILES IDX 5 1 3 2 2 3 1 4 21 5 19 6 18 7 16 8 15 9 14 10 13 11 6 12
REMARK SMILES IDX 7 13 8 14 9 15 12 16 11 17 10 18 4 20 20 22 17 24
REMARK H PARENT 10 19 4 21 20 23 17 25
REMARK Flexibility Score: inf
ROOT
ATOM      1  C   UNL     1      37.205 -77.917  37.755  1.00  0.00     0.180 A 
ATOM      2  C   UNL     1      37.778 -77.783  36.478  1.00  0.00     0.208 A 
ATOM      3  C   UNL     1      36.935 -77.678  35.361  1.00  0.00     0.238 A 
ATOM      4  O   UNL     1      37.455 -77.613  34.216  1.00  0.00    -0.285 OA
ATOM      5  C   UNL     1      35.530 -77.693  35.533  1.00  0.00     0.111 A 
ATOM      6  C   UNL     1      34.582 -77.554  34.477  1.00  0.00     0.134 A 
ATOM      7  C   UNL     1      33.217 -77.714  34.747  1.00  0.00     0.093 A 
ATOM      8  C   UNL     1      32.763 -77.944  36.045  1.00  0.00     0.123 A 
ATOM      9  C   UNL     1      33.677 -78.022  37.096  1.00  0.00     0.094 A 
ATOM     10  C   UNL     1      35.048 -77.902  36.852  1.00  0.00     0.146 A 
ATOM     11  O   UNL     1      35.885 -77.994  37.878  1.00  0.00    -0.452 OA
ENDROOT
BRANCH   1  12
ATOM     12  C   UNL     1      38.028 -78.007  38.983  1.00  0.00     0.021 A 
ATOM     13  C   UNL     1      38.730 -76.875  39.429  1.00  0.00     0.016 A 
ATOM     14  C   UNL     1      39.531 -76.944  40.572  1.00  0.00     0.047 A 
ATOM     15  C   UNL     1      39.651 -78.149  41.276  1.00  0.00     0.115 A 
ATOM     16  C   UNL     1      38.169 -79.219  39.684  1.00  0.00     0.016 A 
ATOM     17  C   UNL     1      38.972 -79.284  40.827  1.00  0.00     0.047 A 
BRANCH  15  18
ATOM     18  O   UNL     1      40.446 -78.229  42.418  1.00  0.00    -0.508 OA
ATOM     19  H   UNL     1      40.598 -79.110  42.896  1.00  0.00     0.293 HD
ENDBRANCH  15  18
ENDBRANCH   1  12
BRANCH   2  20
ATOM     20  O   UNL     1      39.168 -77.793  36.327  1.00  0.00    -0.502 OA
ATOM     21  H   UNL     1      39.800 -77.605  37.097  1.00  0.00     0.293 HD
ENDBRANCH   2  20
BRANCH   6  22
ATOM     22  O   UNL     1      34.923 -77.233  33.159  1.00  0.00    -0.507 OA
ATOM     23  H   UNL     1      35.621 -76.553  32.895  1.00  0.00     0.293 HD
ENDBRANCH   6  22
BRANCH   8  24
ATOM     24  O   UNL     1      31.397 -78.083  36.280  1.00  0.00    -0.508 OA
ATOM     25  H   UNL     1      31.030 -78.840  36.844  1.00  0.00     0.293 HD
ENDBRANCH   8  24
TORSDOF 5
ENDMDL
MODEL 6
REMARK VINA RESULT:    -5.092      9.213     10.625
REMARK INTER + INTRA:          -6.135
REMARK INTER:                  -5.874
REMARK INTRA:                  -0.261
REMARK UNBOUND:                -0.151
REMARK SMILES O=c1c(O)c(-c2ccc(O)cc2)oc2cc(O)cc(O)c12
REMARK SMILES IDX 5 1 3 2 2 3 1 4 21 5 19 6 18 7 16 8 15 9 14 10 13 11 6 12
REMARK SMILES IDX 7 13 8 14 9 15 12 16 11 17 10 18 4 20 20 22 17 24
REMARK H PARENT 10 19 4 21 20 23 17 25
REMARK Flexibility Score: inf
ROOT
ATOM      1  C   UNL     1      30.926 -95.921  28.998  1.00  0.00     0.180 A 
ATOM      2  C   UNL     1      30.460 -96.111  30.311  1.00  0.00     0.208 A 
ATOM      3  C   UNL     1      29.095 -96.364  30.520  1.00  0.00     0.238 A 
ATOM      4  O   UNL     1      28.676 -96.479  31.701  1.00  0.00    -0.285 OA
ATOM      5  C   UNL     1      28.215 -96.439  29.414  1.00  0.00     0.111 A 
ATOM      6  C   UNL     1      26.821 -96.729  29.505  1.00  0.00     0.134 A 
ATOM      7  C   UNL     1      26.022 -96.650  28.358  1.00  0.00     0.093 A 
ATOM      8  C   UNL     1      26.577 -96.354  27.113  1.00  0.00     0.123 A 
ATOM      9  C   UNL     1      27.949 -96.127  27.002  1.00  0.00     0.094 A 
ATOM     10  C   UNL     1      28.766 -96.164  28.134  1.00  0.00     0.146 A 
ATOM     11  O   UNL     1      30.065 -95.932  27.988  1.00  0.00    -0.452 OA
ENDROOT
BRANCH   1  12
ATOM     12  C   UNL     1      32.355 -95.675  28.696  1.00  0.00     0.021 A 
ATOM     13  C   UNL     1      32.775 -94.381  28.347  1.00  0.00     0.016 A 
ATOM     14  C   UNL     1      34.115 -94.132  28.036  1.00  0.00     0.047 A 
ATOM     15  C   UNL     1      35.049 -95.176  28.057  1.00  0.00     0.115 A 
ATOM     16  C   UNL     1      33.295 -96.723  28.696  1.00  0.00     0.016 A 
ATOM     17  C   UNL     1      34.634 -96.469  28.384  1.00  0.00     0.047 A 
BRANCH  15  18
ATOM     18  O   UNL     1      36.387 -94.939  27.749  1.00  0.00    -0.508 OA
ATOM     19  H   UNL     1      36.872 -95.481  27.043  1.00  0.00     0.293 HD
ENDBRANCH  15  18
ENDBRANCH   1  12
BRANCH   2  20
ATOM     20  O   UNL     1      31.342 -96.011  31.391  1.00  0.00    -0.502 OA
ATOM     21  H   UNL     1      31.089 -95.555  32.259  1.00  0.00     0.293 HD
ENDBRANCH   2  20
BRANCH   6  22
ATOM     22  O   UNL     1      26.182 -97.125  30.683  1.00  0.00    -0.507 OA
ATOM     23  H   UNL     1      26.486 -96.877  31.614  1.00  0.00     0.293 HD
ENDBRANCH   6  22
BRANCH   8  24
ATOM     24  O   UNL     1      25.754 -96.298  25.990  1.00  0.00    -0.508 OA
ATOM     25  H   UNL     1      25.035 -96.992  25.825  1.00  0.00     0.293 HD
ENDBRANCH   8  24
TORSDOF 5
ENDMDL
MODEL 7
REMARK VINA RESULT:    -4.936     15.521     16.860
REMARK INTER + INTRA:          -5.952
REMARK INTER:                  -5.763
REMARK INTRA:                  -0.189
REMARK UNBOUND:                -0.151
REMARK SMILES O=c1c(O)c(-c2ccc(O)cc2)oc2cc(O)cc(O)c12
REMARK SMILES IDX 5 1 3 2 2 3 1 4 21 5 19 6 18 7 16 8 15 9 14 10 13 11 6 12
REMARK SMILES IDX 7 13 8 14 9 15 12 16 11 17 10 18 4 20 20 22 17 24
REMARK H PARENT 10 19 4 21 20 23 17 25
REMARK Flexibility Score: inf
ROOT
ATOM      1  C   UNL     1      37.061 -77.813  37.673  1.00  0.00     0.180 A 
ATOM      2  C   UNL     1      35.657 -77.849  37.721  1.00  0.00     0.208 A 
ATOM      3  C   UNL     1      34.931 -77.735  36.525  1.00  0.00     0.238 A 
ATOM      4  O   UNL     1      33.674 -77.714  36.581  1.00  0.00    -0.285 OA
ATOM      5  C   UNL     1      35.617 -77.602  35.294  1.00  0.00     0.111 A 
ATOM      6  C   UNL     1      34.985 -77.518  34.018  1.00  0.00     0.134 A 
ATOM      7  C   UNL     1      35.757 -77.258  32.879  1.00  0.00     0.093 A 
ATOM      8  C   UNL     1      37.144 -77.141  32.962  1.00  0.00     0.123 A 
ATOM      9  C   UNL     1      37.779 -77.281  34.196  1.00  0.00     0.094 A 
ATOM     10  C   UNL     1      37.033 -77.506  35.355  1.00  0.00     0.146 A 
ATOM     11  O   UNL     1      37.674 -77.621  36.511  1.00  0.00    -0.452 OA
ENDROOT
BRANCH   1  12
ATOM     12  C   UNL     1      37.896 -77.953  38.889  1.00  0.00     0.021 A 
ATOM     13  C   UNL     1      38.694 -76.875  39.307  1.00  0.00     0.016 A 
ATOM     14  C   UNL     1      39.506 -76.993  40.439  1.00  0.00     0.047 A 
ATOM     15  C   UNL     1      39.542 -78.195  41.158  1.00  0.00     0.115 A 
ATOM     16  C   UNL     1      37.951 -79.163  39.605  1.00  0.00     0.016 A 
ATOM     17  C   UNL     1      38.766 -79.278  40.736  1.00  0.00     0.047 A 
BRANCH  15  18
ATOM     18  O   UNL     1      40.347 -78.324  42.287  1.00  0.00    -0.508 OA
ATOM     19  H   UNL     1      40.058 -77.961  43.188  1.00  0.00     0.293 HD
ENDBRANCH  15  18
ENDBRANCH   1  12
BRANCH   2  20
ATOM     20  O   UNL     1      34.999 -77.959  38.949  1.00  0.00    -0.502 OA
ATOM     21  H   UNL     1      35.337 -77.508  39.791  1.00  0.00     0.293 HD
ENDBRANCH   2  20
BRANCH   6  22
ATOM     22  O   UNL     1      33.615 -77.711  33.812  1.00  0.00    -0.507 OA
ATOM     23  H   UNL     1      33.218 -78.428  33.222  1.00  0.00     0.293 HD
ENDBRANCH   6  22
BRANCH   8  24
ATOM     24  O   UNL     1      37.883 -76.897  31.806  1.00  0.00    -0.508 OA
ATOM     25  H   UNL     1      37.851 -76.000  31.336  1.00  0.00     0.293 HD
ENDBRANCH   8  24
TORSDOF 5
ENDMDL
MODEL 8
REMARK VINA RESULT:    -4.929     15.330     16.227
REMARK INTER + INTRA:          -5.944
REMARK INTER:                  -5.992
REMARK INTRA:                   0.048
REMARK UNBOUND:                -0.151
REMARK SMILES O=c1c(O)c(-c2ccc(O)cc2)oc2cc(O)cc(O)c12
REMARK SMILES IDX 5 1 3 2 2 3 1 4 21 5 19 6 18 7 16 8 15 9 14 10 13 11 6 12
REMARK SMILES IDX 7 13 8 14 9 15 12 16 11 17 10 18 4 20 20 22 17 24
REMARK H PARENT 10 19 4 21 20 23 17 25
REMARK Flexibility Score: inf
ROOT
ATOM      1  C   UNL     1      36.261 -77.884  37.615  1.00  0.00     0.180 A 
ATOM      2  C   UNL     1      37.337 -77.550  36.775  1.00  0.00     0.208 A 
ATOM      3  C   UNL     1      38.645 -77.831  37.199  1.00  0.00     0.238 A 
ATOM      4  O   UNL     1      39.606 -77.480  36.466  1.00  0.00    -0.285 OA
ATOM      5  C   UNL     1      38.861 -78.457  38.450  1.00  0.00     0.111 A 
ATOM      6  C   UNL     1      40.141 -78.824  38.963  1.00  0.00     0.134 A 
ATOM      7  C   UNL     1      40.247 -79.319  40.268  1.00  0.00     0.093 A 
ATOM      8  C   UNL     1      39.114 -79.521  41.056  1.00  0.00     0.123 A 
ATOM      9  C   UNL     1      37.851 -79.221  40.543  1.00  0.00     0.094 A 
ATOM     10  C   UNL     1      37.717 -78.692  39.257  1.00  0.00     0.146 A 
ATOM     11  O   UNL     1      36.499 -78.410  38.811  1.00  0.00    -0.452 OA
ENDROOT
BRANCH   1  12
ATOM     12  C   UNL     1      34.852 -77.642  37.226  1.00  0.00     0.021 A 
ATOM     13  C   UNL     1      33.961 -77.092  38.163  1.00  0.00     0.016 A 
ATOM     14  C   UNL     1      32.622 -76.876  37.824  1.00  0.00     0.047 A 
ATOM     15  C   UNL     1      32.154 -77.222  36.551  1.00  0.00     0.115 A 
ATOM     16  C   UNL     1      34.370 -78.005  35.955  1.00  0.00     0.016 A 
ATOM     17  C   UNL     1      33.029 -77.789  35.621  1.00  0.00     0.047 A 
BRANCH  15  18
ATOM     18  O   UNL     1      30.821 -77.011  36.202  1.00  0.00    -0.508 OA
ATOM     19  H   UNL     1      30.321 -76.182  36.500  1.00  0.00     0.293 HD
ENDBRANCH  15  18
ENDBRANCH   1  12
BRANCH   2  20
ATOM     20  O   UNL     1      37.103 -76.912  35.553  1.00  0.00    -0.502 OA
ATOM     21  H   UNL     1      37.813 -76.834  34.835  1.00  0.00     0.293 HD
ENDBRANCH   2  20
BRANCH   6  22
ATOM     22  O   UNL     1      41.328 -78.750  38.226  1.00  0.00    -0.507 OA
ATOM     23  H   UNL     1      42.157 -79.294  38.415  1.00  0.00     0.293 HD
ENDBRANCH   6  22
BRANCH   8  24
ATOM     24  O   UNL     1      39.255 -80.030  42.344  1.00  0.00    -0.508 OA
ATOM     25  H   UNL     1      38.582 -80.679  42.735  1.00  0.00     0.293 HD
ENDBRANCH   8  24
TORSDOF 5
ENDMDL
MODEL 9
REMARK VINA RESULT:    -4.922      8.176     10.083
REMARK INTER + INTRA:          -5.936
REMARK INTER:                  -5.768
REMARK INTRA:                  -0.167
REMARK UNBOUND:                -0.151
REMARK SMILES O=c1c(O)c(-c2ccc(O)cc2)oc2cc(O)cc(O)c12
REMARK SMILES IDX 5 1 3 2 2 3 1 4 21 5 19 6 18 7 16 8 15 9 14 10 13 11 6 12
REMARK SMILES IDX 7 13 8 14 9 15 12 16 11 17 10 18 4 20 20 22 17 24
REMARK H PARENT 10 19 4 21 20 23 17 25
REMARK Flexibility Score: inf
ROOT
ATOM      1  C   UNL     1      39.395 -95.550  34.896  1.00  0.00     0.180 A 
ATOM      2  C   UNL     1      38.109 -95.934  35.315  1.00  0.00     0.208 A 
ATOM      3  C   UNL     1      37.826 -95.979  36.689  1.00  0.00     0.238 A 
ATOM      4  O   UNL     1      36.690 -96.375  37.059  1.00  0.00    -0.285 OA
ATOM      5  C   UNL     1      38.825 -95.625  37.627  1.00  0.00     0.111 A 
ATOM      6  C   UNL     1      38.637 -95.597  39.041  1.00  0.00     0.134 A 
ATOM      7  C   UNL     1      39.732 -95.358  39.880  1.00  0.00     0.093 A 
ATOM      8  C   UNL     1      40.995 -95.083  39.355  1.00  0.00     0.123 A 
ATOM      9  C   UNL     1      41.178 -95.050  37.972  1.00  0.00     0.094 A 
ATOM     10  C   UNL     1      40.112 -95.319  37.110  1.00  0.00     0.146 A 
ATOM     11  O   UNL     1      40.330 -95.288  35.801  1.00  0.00    -0.452 OA
ENDROOT
BRANCH   1  12
ATOM     12  C   UNL     1      39.761 -95.454  33.464  1.00  0.00     0.021 A 
ATOM     13  C   UNL     1      40.767 -96.289  32.951  1.00  0.00     0.016 A 
ATOM     14  C   UNL     1      41.144 -96.200  31.608  1.00  0.00     0.047 A 
ATOM     15  C   UNL     1      40.531 -95.264  30.765  1.00  0.00     0.115 A 
ATOM     16  C   UNL     1      39.163 -94.503  32.617  1.00  0.00     0.016 A 
ATOM     17  C   UNL     1      39.544 -94.416  31.274  1.00  0.00     0.047 A 
BRANCH  15  18
ATOM     18  O   UNL     1      40.899 -95.166  29.425  1.00  0.00    -0.508 OA
ATOM     19  H   UNL     1      41.630 -95.747  29.032  1.00  0.00     0.293 HD
ENDBRANCH  15  18
ENDBRANCH   1  12
BRANCH   2  20
ATOM     20  O   UNL     1      37.143 -96.300  34.374  1.00  0.00    -0.502 OA
ATOM     21  H   UNL     1      37.078 -95.862  33.463  1.00  0.00     0.293 HD
ENDBRANCH   2  20
BRANCH   6  22
ATOM     22  O   UNL     1      37.399 -95.767  39.667  1.00  0.00    -0.507 OA
ATOM     23  H   UNL     1      37.162 -95.408  40.581  1.00  0.00     0.293 HD
ENDBRANCH   6  22
BRANCH   8  24
ATOM     24  O   UNL     1      42.059 -94.835  40.218  1.00  0.00    -0.508 OA
ATOM     25  H   UNL     1      43.000 -94.689  39.872  1.00  0.00     0.293 HD
ENDBRANCH   8  24
TORSDOF 5
ENDMDL
