MODEL 1
REMARK VINA RESULT:    -4.164      0.000      0.000
REMARK INTER + INTRA:          -9.795
REMARK INTER:                  -7.572
REMARK INTRA:                  -2.223
REMARK UNBOUND:                -2.223
REMARK SMILES CCCCCCCCCCCCCCCC(=O)[O-]
REMARK SMILES IDX 9 1 10 2 11 3 12 4 13 5 14 6 15 7 16 8 17 9 18 10 8 11 7 12
REMARK SMILES IDX 6 13 5 14 4 15 3 16 2 17 1 18
REMARK H PARENT
REMARK Flexibility Score: inf
ROOT
ATOM      1  C   UNL     1       6.185  77.207  39.768  1.00  0.00     0.000 C 
ENDROOT
BRANCH   1   2
ATOM      2  C   UNL     1       4.998  76.360  39.275  1.00  0.00     0.000 C 
BRANCH   2   3
ATOM      3  C   UNL     1       5.249  75.748  37.888  1.00  0.00     0.000 C 
BRANCH   3   4
ATOM      4  C   UNL     1       6.729  75.816  37.475  1.00  0.00     0.000 C 
BRANCH   4   5
ATOM      5  C   UNL     1       7.323  74.434  37.149  1.00  0.00     0.000 C 
BRANCH   5   6
ATOM      6  C   UNL     1       6.357  73.248  37.349  1.00  0.00     0.006 C 
BRANCH   6   7
ATOM      7  C   UNL     1       6.763  72.275  38.468  1.00  0.00     0.053 C 
BRANCH   7   8
ATOM      8  C   UNL     1       5.947  72.476  39.708  1.00  0.00     0.041 C 
ATOM      9  O   UNL     1       4.886  71.821  39.880  1.00  0.00    -0.550 OA
ATOM     10  O   UNL     1       6.377  73.362  40.688  1.00  0.00    -0.550 OA
ENDBRANCH   7   8
ENDBRANCH   6   7
ENDBRANCH   5   6
ENDBRANCH   4   5
ENDBRANCH   3   4
ENDBRANCH   2   3
ENDBRANCH   1   2
BRANCH   1  11
ATOM     11  C   UNL     1       5.747  78.619  40.210  1.00  0.00     0.000 C 
BRANCH  11  12
ATOM     12  C   UNL     1       5.089  79.436  39.083  1.00  0.00    -0.000 C 
BRANCH  12  13
ATOM     13  C   UNL     1       6.114  80.058  38.122  1.00  0.00    -0.000 C 
BRANCH  13  14
ATOM     14  C   UNL     1       6.237  79.278  36.803  1.00  0.00    -0.000 C 
BRANCH  14  15
ATOM     15  C   UNL     1       7.690  79.190  36.303  1.00  0.00    -0.000 C 
BRANCH  15  16
ATOM     16  C   UNL     1       8.705  79.176  37.464  1.00  0.00    -0.000 C 
BRANCH  16  17
ATOM     17  C   UNL     1       9.689  77.996  37.406  1.00  0.00    -0.003 C 
ATOM     18  C   UNL     1       9.973  77.523  35.982  1.00  0.00     0.004 C 
ENDBRANCH  16  17
ENDBRANCH  15  16
ENDBRANCH  14  15
ENDBRANCH  13  14
ENDBRANCH  12  13
ENDBRANCH  11  12
ENDBRANCH   1  11
TORSDOF 14
ENDMDL
MODEL 2
REMARK VINA RESULT:    -4.074      1.630      2.289
REMARK INTER + INTRA:          -9.632
REMARK INTER:                  -7.820
REMARK INTRA:                  -1.812
REMARK UNBOUND:                -2.223
REMARK SMILES CCCCCCCCCCCCCCCC(=O)[O-]
REMARK SMILES IDX 9 1 10 2 11 3 12 4 13 5 14 6 15 7 16 8 17 9 18 10 8 11 7 12
REMARK SMILES IDX 6 13 5 14 4 15 3 16 2 17 1 18
REMARK H PARENT
REMARK Flexibility Score: inf
ROOT
ATOM      1  C   UNL     1       6.403  77.921  39.882  1.00  0.00     0.000 C 
ENDROOT
BRANCH   1   2
ATOM      2  C   UNL     1       6.205  76.435  39.530  1.00  0.00     0.000 C 
BRANCH   2   3
ATOM      3  C   UNL     1       4.879  76.176  38.797  1.00  0.00     0.000 C 
BRANCH   3   4
ATOM      4  C   UNL     1       4.160  74.918  39.314  1.00  0.00     0.000 C 
BRANCH   4   5
ATOM      5  C   UNL     1       4.692  73.622  38.677  1.00  0.00     0.000 C 
BRANCH   5   6
ATOM      6  C   UNL     1       5.282  72.603  39.673  1.00  0.00     0.006 C 
BRANCH   6   7
ATOM      7  C   UNL     1       6.788  72.761  39.934  1.00  0.00     0.053 C 
BRANCH   7   8
ATOM      8  C   UNL     1       7.594  71.727  39.209  1.00  0.00     0.041 C 
ATOM      9  O   UNL     1       8.836  71.647  39.397  1.00  0.00    -0.550 OA
ATOM     10  O   UNL     1       6.968  70.832  38.351  1.00  0.00    -0.550 OA
ENDBRANCH   7   8
ENDBRANCH   6   7
ENDBRANCH   5   6
ENDBRANCH   4   5
ENDBRANCH   3   4
ENDBRANCH   2   3
ENDBRANCH   1   2
BRANCH   1  11
ATOM     11  C   UNL     1       5.266  78.805  39.327  1.00  0.00     0.000 C 
BRANCH  11  12
ATOM     12  C   UNL     1       5.746  79.838  38.291  1.00  0.00    -0.000 C 
BRANCH  12  13
ATOM     13  C   UNL     1       6.036  79.214  36.917  1.00  0.00    -0.000 C 
BRANCH  13  14
ATOM     14  C   UNL     1       7.511  79.346  36.507  1.00  0.00    -0.000 C 
BRANCH  14  15
ATOM     15  C   UNL     1       8.285  78.024  36.650  1.00  0.00    -0.000 C 
BRANCH  15  16
ATOM     16  C   UNL     1       9.650  78.221  37.341  1.00  0.00    -0.000 C 
BRANCH  16  17
ATOM     17  C   UNL     1       9.758  79.542  38.122  1.00  0.00    -0.003 C 
ATOM     18  C   UNL     1       9.756  79.344  39.636  1.00  0.00     0.004 C 
ENDBRANCH  16  17
ENDBRANCH  15  16
ENDBRANCH  14  15
ENDBRANCH  13  14
ENDBRANCH  12  13
ENDBRANCH  11  12
ENDBRANCH   1  11
TORSDOF 14
ENDMDL
MODEL 3
REMARK VINA RESULT:    -4.074      4.385      7.264
REMARK INTER + INTRA:          -9.632
REMARK INTER:                  -7.750
REMARK INTRA:                  -1.882
REMARK UNBOUND:                -2.223
REMARK SMILES CCCCCCCCCCCCCCCC(=O)[O-]
REMARK SMILES IDX 9 1 10 2 11 3 12 4 13 5 14 6 15 7 16 8 17 9 18 10 8 11 7 12
REMARK SMILES IDX 6 13 5 14 4 15 3 16 2 17 1 18
REMARK H PARENT
REMARK Flexibility Score: inf
ROOT
ATOM      1  C   UNL     1       9.701  78.806  38.479  1.00  0.00     0.000 C 
ENDROOT
BRANCH   1   2
ATOM      2  C   UNL     1      10.455  80.140  38.618  1.00  0.00     0.000 C 
BRANCH   2   3
ATOM      3  C   UNL     1       9.763  81.108  39.591  1.00  0.00     0.000 C 
BRANCH   3   4
ATOM      4  C   UNL     1       8.702  80.408  40.458  1.00  0.00     0.000 C 
BRANCH   4   5
ATOM      5  C   UNL     1       8.504  81.089  41.824  1.00  0.00     0.000 C 
BRANCH   5   6
ATOM      6  C   UNL     1       9.706  81.920  42.317  1.00  0.00     0.006 C 
BRANCH   6   7
ATOM      7  C   UNL     1      10.605  81.201  43.337  1.00  0.00     0.053 C 
BRANCH   7   8
ATOM      8  C   UNL     1      11.883  80.724  42.718  1.00  0.00     0.041 C 
ATOM      9  O   UNL     1      12.913  81.447  42.757  1.00  0.00    -0.550 OA
ATOM     10  O   UNL     1      11.945  79.468  42.128  1.00  0.00    -0.550 OA
ENDBRANCH   7   8
ENDBRANCH   6   7
ENDBRANCH   5   6
ENDBRANCH   4   5
ENDBRANCH   3   4
ENDBRANCH   2   3
ENDBRANCH   1   2
BRANCH   1  11
ATOM     11  C   UNL     1       9.692  78.292  37.024  1.00  0.00     0.000 C 
BRANCH  11  12
ATOM     12  C   UNL     1       8.410  78.660  36.254  1.00  0.00    -0.000 C 
BRANCH  12  13
ATOM     13  C   UNL     1       7.450  79.532  37.078  1.00  0.00    -0.000 C 
BRANCH  13  14
ATOM     14  C   UNL     1       6.096  78.848  37.327  1.00  0.00    -0.000 C 
BRANCH  14  15
ATOM     15  C   UNL     1       6.217  77.613  38.236  1.00  0.00    -0.000 C 
BRANCH  15  16
ATOM     16  C   UNL     1       6.117  77.980  39.732  1.00  0.00    -0.000 C 
BRANCH  16  17
ATOM     17  C   UNL     1       5.261  79.229  40.002  1.00  0.00    -0.003 C 
ATOM     18  C   UNL     1       4.915  79.410  41.478  1.00  0.00     0.004 C 
ENDBRANCH  16  17
ENDBRANCH  15  16
ENDBRANCH  14  15
ENDBRANCH  13  14
ENDBRANCH  12  13
ENDBRANCH  11  12
ENDBRANCH   1  11
TORSDOF 14
ENDMDL
MODEL 4
REMARK VINA RESULT:    -3.988      3.900      6.706
REMARK INTER + INTRA:          -9.476
REMARK INTER:                  -7.338
REMARK INTRA:                  -2.138
REMARK UNBOUND:                -2.223
REMARK SMILES CCCCCCCCCCCCCCCC(=O)[O-]
REMARK SMILES IDX 9 1 10 2 11 3 12 4 13 5 14 6 15 7 16 8 17 9 18 10 8 11 7 12
REMARK SMILES IDX 6 13 5 14 4 15 3 16 2 17 1 18
REMARK H PARENT
REMARK Flexibility Score: inf
ROOT
ATOM      1  C   UNL     1       8.303  77.707  36.699  1.00  0.00     0.000 C 
ENDROOT
BRANCH   1   2
ATOM      2  C   UNL     1       9.376  77.978  37.768  1.00  0.00     0.000 C 
BRANCH   2   3
ATOM      3  C   UNL     1       9.867  79.435  37.752  1.00  0.00     0.000 C 
BRANCH   3   4
ATOM      4  C   UNL     1       9.949  80.042  39.163  1.00  0.00     0.000 C 
BRANCH   4   5
ATOM      5  C   UNL     1      11.252  80.827  39.401  1.00  0.00     0.000 C 
BRANCH   5   6
ATOM      6  C   UNL     1      11.969  80.508  40.729  1.00  0.00     0.006 C 
BRANCH   6   7
ATOM      7  C   UNL     1      11.699  81.515  41.858  1.00  0.00     0.053 C 
BRANCH   7   8
ATOM      8  C   UNL     1      10.708  80.991  42.851  1.00  0.00     0.041 C 
ATOM      9  O   UNL     1      11.103  80.512  43.947  1.00  0.00    -0.550 OA
ATOM     10  O   UNL     1       9.348  81.062  42.581  1.00  0.00    -0.550 OA
ENDBRANCH   7   8
ENDBRANCH   6   7
ENDBRANCH   5   6
ENDBRANCH   4   5
ENDBRANCH   3   4
ENDBRANCH   2   3
ENDBRANCH   1   2
BRANCH   1  11
ATOM     11  C   UNL     1       7.839  79.002  35.999  1.00  0.00     0.000 C 
BRANCH  11  12
ATOM     12  C   UNL     1       6.382  79.381  36.320  1.00  0.00    -0.000 C 
BRANCH  12  13
ATOM     13  C   UNL     1       6.265  80.344  37.512  1.00  0.00    -0.000 C 
BRANCH  13  14
ATOM     14  C   UNL     1       5.454  79.751  38.675  1.00  0.00    -0.000 C 
BRANCH  14  15
ATOM     15  C   UNL     1       6.349  79.185  39.791  1.00  0.00    -0.000 C 
BRANCH  15  16
ATOM     16  C   UNL     1       6.269  77.646  39.877  1.00  0.00    -0.000 C 
BRANCH  16  17
ATOM     17  C   UNL     1       4.990  77.062  39.254  1.00  0.00    -0.003 C 
ATOM     18  C   UNL     1       5.272  76.062  38.134  1.00  0.00     0.004 C 
ENDBRANCH  16  17
ENDBRANCH  15  16
ENDBRANCH  14  15
ENDBRANCH  13  14
ENDBRANCH  12  13
ENDBRANCH  11  12
ENDBRANCH   1  11
TORSDOF 14
ENDMDL
MODEL 5
REMARK VINA RESULT:    -3.986      1.609      2.777
REMARK INTER + INTRA:          -9.470
REMARK INTER:                  -7.718
REMARK INTRA:                  -1.752
REMARK UNBOUND:                -2.223
REMARK SMILES CCCCCCCCCCCCCCCC(=O)[O-]
REMARK SMILES IDX 9 1 10 2 11 3 12 4 13 5 14 6 15 7 16 8 17 9 18 10 8 11 7 12
REMARK SMILES IDX 6 13 5 14 4 15 3 16 2 17 1 18
REMARK H PARENT
REMARK Flexibility Score: inf
ROOT
ATOM      1  C   UNL     1       5.787  79.453  39.532  1.00  0.00     0.000 C 
ENDROOT
BRANCH   1   2
ATOM      2  C   UNL     1       5.262  78.043  39.856  1.00  0.00     0.000 C 
BRANCH   2   3
ATOM      3  C   UNL     1       6.091  76.938  39.182  1.00  0.00     0.000 C 
BRANCH   3   4
ATOM      4  C   UNL     1       5.256  76.092  38.204  1.00  0.00     0.000 C 
BRANCH   4   5
ATOM      5  C   UNL     1       4.062  75.398  38.885  1.00  0.00     0.000 C 
BRANCH   5   6
ATOM      6  C   UNL     1       4.426  74.156  39.724  1.00  0.00     0.006 C 
BRANCH   6   7
ATOM      7  C   UNL     1       5.373  73.167  39.026  1.00  0.00     0.053 C 
BRANCH   7   8
ATOM      8  C   UNL     1       6.576  72.858  39.864  1.00  0.00     0.041 C 
ATOM      9  O   UNL     1       6.754  73.453  40.959  1.00  0.00    -0.550 OA
ATOM     10  O   UNL     1       7.482  71.890  39.450  1.00  0.00    -0.550 OA
ENDBRANCH   7   8
ENDBRANCH   6   7
ENDBRANCH   5   6
ENDBRANCH   4   5
ENDBRANCH   3   4
ENDBRANCH   2   3
ENDBRANCH   1   2
BRANCH   1  11
ATOM     11  C   UNL     1       5.564  79.831  38.052  1.00  0.00     0.000 C 
BRANCH  11  12
ATOM     12  C   UNL     1       6.870  80.136  37.296  1.00  0.00    -0.000 C 
BRANCH  12  13
ATOM     13  C   UNL     1       7.468  78.896  36.614  1.00  0.00    -0.000 C 
BRANCH  13  14
ATOM     14  C   UNL     1       8.989  78.791  36.808  1.00  0.00    -0.000 C 
BRANCH  14  15
ATOM     15  C   UNL     1       9.413  78.990  38.274  1.00  0.00    -0.000 C 
BRANCH  15  16
ATOM     16  C   UNL     1      10.439  80.132  38.433  1.00  0.00    -0.000 C 
BRANCH  16  17
ATOM     17  C   UNL     1      10.185  81.020  39.662  1.00  0.00    -0.003 C 
ATOM     18  C   UNL     1       9.094  80.472  40.581  1.00  0.00     0.004 C 
ENDBRANCH  16  17
ENDBRANCH  15  16
ENDBRANCH  14  15
ENDBRANCH  13  14
ENDBRANCH  12  13
ENDBRANCH  11  12
ENDBRANCH   1  11
TORSDOF 14
ENDMDL
MODEL 6
REMARK VINA RESULT:    -3.970      3.948      6.507
REMARK INTER + INTRA:          -9.441
REMARK INTER:                  -7.331
REMARK INTRA:                  -2.110
REMARK UNBOUND:                -2.223
REMARK SMILES CCCCCCCCCCCCCCCC(=O)[O-]
REMARK SMILES IDX 9 1 10 2 11 3 12 4 13 5 14 6 15 7 16 8 17 9 18 10 8 11 7 12
REMARK SMILES IDX 6 13 5 14 4 15 3 16 2 17 1 18
REMARK H PARENT
REMARK Flexibility Score: inf
ROOT
ATOM      1  C   UNL     1       7.458  79.025  36.608  1.00  0.00     0.000 C 
ENDROOT
BRANCH   1   2
ATOM      2  C   UNL     1       8.937  78.861  37.002  1.00  0.00     0.000 C 
BRANCH   2   3
ATOM      3  C   UNL     1       9.108  78.210  38.384  1.00  0.00     0.000 C 
BRANCH   3   4
ATOM      4  C   UNL     1       9.574  79.215  39.452  1.00  0.00     0.000 C 
BRANCH   4   5
ATOM      5  C   UNL     1      10.494  80.309  38.882  1.00  0.00     0.000 C 
BRANCH   5   6
ATOM      6  C   UNL     1      11.452  80.952  39.906  1.00  0.00     0.006 C 
BRANCH   6   7
ATOM      7  C   UNL     1      11.880  80.021  41.052  1.00  0.00     0.053 C 
BRANCH   7   8
ATOM      8  C   UNL     1      11.806  80.702  42.384  1.00  0.00     0.041 C 
ATOM      9  O   UNL     1      12.754  81.432  42.775  1.00  0.00    -0.550 OA
ATOM     10  O   UNL     1      10.676  80.557  43.178  1.00  0.00    -0.550 OA
ENDBRANCH   7   8
ENDBRANCH   6   7
ENDBRANCH   5   6
ENDBRANCH   4   5
ENDBRANCH   3   4
ENDBRANCH   2   3
ENDBRANCH   1   2
BRANCH   1  11
ATOM     11  C   UNL     1       6.784  80.195  37.355  1.00  0.00     0.000 C 
BRANCH  11  12
ATOM     12  C   UNL     1       5.521  79.778  38.130  1.00  0.00    -0.000 C 
BRANCH  12  13
ATOM     13  C   UNL     1       5.766  79.646  39.641  1.00  0.00    -0.000 C 
BRANCH  13  14
ATOM     14  C   UNL     1       5.723  78.186  40.121  1.00  0.00    -0.000 C 
BRANCH  14  15
ATOM     15  C   UNL     1       5.243  77.218  39.025  1.00  0.00    -0.000 C 
BRANCH  15  16
ATOM     16  C   UNL     1       6.254  76.079  38.773  1.00  0.00    -0.000 C 
BRANCH  16  17
ATOM     17  C   UNL     1       6.190  75.505  37.348  1.00  0.00    -0.003 C 
ATOM     18  C   UNL     1       7.507  74.880  36.895  1.00  0.00     0.004 C 
ENDBRANCH  16  17
ENDBRANCH  15  16
ENDBRANCH  14  15
ENDBRANCH  13  14
ENDBRANCH  12  13
ENDBRANCH  11  12
ENDBRANCH   1  11
TORSDOF 14
ENDMDL
MODEL 7
REMARK VINA RESULT:    -3.954      0.788      1.730
REMARK INTER + INTRA:          -9.413
REMARK INTER:                  -7.303
REMARK INTRA:                  -2.110
REMARK UNBOUND:                -2.223
REMARK SMILES CCCCCCCCCCCCCCCC(=O)[O-]
REMARK SMILES IDX 9 1 10 2 11 3 12 4 13 5 14 6 15 7 16 8 17 9 18 10 8 11 7 12
REMARK SMILES IDX 6 13 5 14 4 15 3 16 2 17 1 18
REMARK H PARENT
REMARK Flexibility Score: inf
ROOT
ATOM      1  C   UNL     1       4.752  75.819  38.540  1.00  0.00     0.000 C 
ENDROOT
BRANCH   1   2
ATOM      2  C   UNL     1       5.613  75.684  37.271  1.00  0.00     0.000 C 
BRANCH   2   3
ATOM      3  C   UNL     1       7.107  75.518  37.590  1.00  0.00     0.000 C 
BRANCH   3   4
ATOM      4  C   UNL     1       7.711  74.264  36.933  1.00  0.00     0.000 C 
BRANCH   4   5
ATOM      5  C   UNL     1       6.689  73.125  36.770  1.00  0.00     0.000 C 
BRANCH   5   6
ATOM      6  C   UNL     1       6.898  71.923  37.714  1.00  0.00     0.006 C 
BRANCH   6   7
ATOM      7  C   UNL     1       7.330  72.299  39.141  1.00  0.00     0.053 C 
BRANCH   7   8
ATOM      8  C   UNL     1       6.162  72.680  39.998  1.00  0.00     0.041 C 
ATOM      9  O   UNL     1       6.312  73.494  40.946  1.00  0.00    -0.550 OA
ATOM     10  O   UNL     1       4.903  72.160  39.728  1.00  0.00    -0.550 OA
ENDBRANCH   7   8
ENDBRANCH   6   7
ENDBRANCH   5   6
ENDBRANCH   4   5
ENDBRANCH   3   4
ENDBRANCH   2   3
ENDBRANCH   1   2
BRANCH   1  11
ATOM     11  C   UNL     1       5.397  76.756  39.583  1.00  0.00     0.000 C 
BRANCH  11  12
ATOM     12  C   UNL     1       5.132  78.248  39.311  1.00  0.00    -0.000 C 
BRANCH  12  13
ATOM     13  C   UNL     1       6.209  79.164  39.913  1.00  0.00    -0.000 C 
BRANCH  13  14
ATOM     14  C   UNL     1       7.400  79.379  38.965  1.00  0.00    -0.000 C 
BRANCH  14  15
ATOM     15  C   UNL     1       6.959  79.714  37.530  1.00  0.00    -0.000 C 
BRANCH  15  16
ATOM     16  C   UNL     1       7.803  78.971  36.473  1.00  0.00    -0.000 C 
BRANCH  16  17
ATOM     17  C   UNL     1       9.189  78.544  36.985  1.00  0.00    -0.003 C 
ATOM     18  C   UNL     1       9.920  77.610  36.023  1.00  0.00     0.004 C 
ENDBRANCH  16  17
ENDBRANCH  15  16
ENDBRANCH  14  15
ENDBRANCH  13  14
ENDBRANCH  12  13
ENDBRANCH  11  12
ENDBRANCH   1  11
TORSDOF 14
ENDMDL
MODEL 8
REMARK VINA RESULT:    -3.862      2.715      6.198
REMARK INTER + INTRA:          -9.247
REMARK INTER:                  -7.501
REMARK INTRA:                  -1.745
REMARK UNBOUND:                -2.223
REMARK SMILES CCCCCCCCCCCCCCCC(=O)[O-]
REMARK SMILES IDX 9 1 10 2 11 3 12 4 13 5 14 6 15 7 16 8 17 9 18 10 8 11 7 12
REMARK SMILES IDX 6 13 5 14 4 15 3 16 2 17 1 18
REMARK H PARENT
REMARK Flexibility Score: inf
ROOT
ATOM      1  C   UNL     1       5.922  76.822  39.234  1.00  0.00     0.000 C 
ENDROOT
BRANCH   1   2
ATOM      2  C   UNL     1       5.142  78.101  39.589  1.00  0.00     0.000 C 
BRANCH   2   3
ATOM      3  C   UNL     1       5.994  79.371  39.434  1.00  0.00     0.000 C 
BRANCH   3   4
ATOM      4  C   UNL     1       5.780  80.058  38.074  1.00  0.00     0.000 C 
BRANCH   4   5
ATOM      5  C   UNL     1       7.065  80.127  37.230  1.00  0.00     0.000 C 
BRANCH   5   6
ATOM      6  C   UNL     1       7.499  78.788  36.597  1.00  0.00     0.006 C 
BRANCH   6   7
ATOM      7  C   UNL     1       9.003  78.486  36.708  1.00  0.00     0.053 C 
BRANCH   7   8
ATOM      8  C   UNL     1       9.571  78.949  38.014  1.00  0.00     0.041 C 
ATOM      9  O   UNL     1       9.323  78.315  39.073  1.00  0.00    -0.550 OA
ATOM     10  O   UNL     1      10.403  80.061  38.056  1.00  0.00    -0.550 OA
ENDBRANCH   7   8
ENDBRANCH   6   7
ENDBRANCH   5   6
ENDBRANCH   4   5
ENDBRANCH   3   4
ENDBRANCH   2   3
ENDBRANCH   1   2
BRANCH   1  11
ATOM     11  C   UNL     1       5.143  75.920  38.254  1.00  0.00     0.000 C 
BRANCH  11  12
ATOM     12  C   UNL     1       3.852  75.337  38.856  1.00  0.00    -0.000 C 
BRANCH  12  13
ATOM     13  C   UNL     1       3.307  74.143  38.056  1.00  0.00    -0.000 C 
BRANCH  13  14
ATOM     14  C   UNL     1       4.423  73.239  37.510  1.00  0.00    -0.000 C 
BRANCH  14  15
ATOM     15  C   UNL     1       4.397  71.830  38.128  1.00  0.00    -0.000 C 
BRANCH  15  16
ATOM     16  C   UNL     1       4.966  71.814  39.563  1.00  0.00    -0.000 C 
BRANCH  16  17
ATOM     17  C   UNL     1       6.395  72.372  39.663  1.00  0.00    -0.003 C 
ATOM     18  C   UNL     1       6.538  73.462  40.723  1.00  0.00     0.004 C 
ENDBRANCH  16  17
ENDBRANCH  15  16
ENDBRANCH  14  15
ENDBRANCH  13  14
ENDBRANCH  12  13
ENDBRANCH  11  12
ENDBRANCH   1  11
TORSDOF 14
ENDMDL
MODEL 9
REMARK VINA RESULT:    -3.815      3.628      6.187
REMARK INTER + INTRA:          -9.161
REMARK INTER:                  -7.149
REMARK INTRA:                  -2.012
REMARK UNBOUND:                -2.223
REMARK SMILES CCCCCCCCCCCCCCCC(=O)[O-]
REMARK SMILES IDX 9 1 10 2 11 3 12 4 13 5 14 6 15 7 16 8 17 9 18 10 8 11 7 12
REMARK SMILES IDX 6 13 5 14 4 15 3 16 2 17 1 18
REMARK H PARENT
REMARK Flexibility Score: inf
ROOT
ATOM      1  C   UNL     1       6.022  80.041  38.236  1.00  0.00     0.000 C 
ENDROOT
BRANCH   1   2
ATOM      2  C   UNL     1       6.051  79.469  36.808  1.00  0.00     0.000 C 
BRANCH   2   3
ATOM      3  C   UNL     1       7.482  79.259  36.287  1.00  0.00     0.000 C 
BRANCH   3   4
ATOM      4  C   UNL     1       8.023  77.856  36.612  1.00  0.00     0.000 C 
BRANCH   4   5
ATOM      5  C   UNL     1       9.176  77.881  37.631  1.00  0.00     0.000 C 
BRANCH   5   6
ATOM      6  C   UNL     1       9.734  79.285  37.946  1.00  0.00     0.006 C 
BRANCH   6   7
ATOM      7  C   UNL     1       9.606  79.708  39.418  1.00  0.00     0.053 C 
BRANCH   7   8
ATOM      8  C   UNL     1      10.419  80.929  39.722  1.00  0.00     0.041 C 
ATOM      9  O   UNL     1      11.625  80.991  39.368  1.00  0.00    -0.550 OA
ATOM     10  O   UNL     1       9.833  82.012  40.366  1.00  0.00    -0.550 OA
ENDBRANCH   7   8
ENDBRANCH   6   7
ENDBRANCH   5   6
ENDBRANCH   4   5
ENDBRANCH   3   4
ENDBRANCH   2   3
ENDBRANCH   1   2
BRANCH   1  11
ATOM     11  C   UNL     1       5.249  79.129  39.212  1.00  0.00     0.000 C 
BRANCH  11  12
ATOM     12  C   UNL     1       6.163  78.201  40.034  1.00  0.00    -0.000 C 
BRANCH  12  13
ATOM     13  C   UNL     1       6.101  76.738  39.568  1.00  0.00    -0.000 C 
BRANCH  13  14
ATOM     14  C   UNL     1       4.796  76.409  38.825  1.00  0.00    -0.000 C 
BRANCH  14  15
ATOM     15  C   UNL     1       4.614  74.898  38.592  1.00  0.00    -0.000 C 
BRANCH  15  16
ATOM     16  C   UNL     1       4.648  74.098  39.911  1.00  0.00    -0.000 C 
BRANCH  16  17
ATOM     17  C   UNL     1       5.728  73.005  39.939  1.00  0.00    -0.003 C 
ATOM     18  C   UNL     1       6.686  73.079  38.751  1.00  0.00     0.004 C 
ENDBRANCH  16  17
ENDBRANCH  15  16
ENDBRANCH  14  15
ENDBRANCH  13  14
ENDBRANCH  12  13
ENDBRANCH  11  12
ENDBRANCH   1  11
TORSDOF 14
ENDMDL
