MODEL 1
REMARK VINA RESULT:    -5.348      0.000      0.000
REMARK INTER + INTRA:          -7.741
REMARK INTER:                  -7.223
REMARK INTRA:                  -0.517
REMARK UNBOUND:                -0.517
REMARK SMILES C[C@H](O)[C@@H](O)[C@@H](O)[C@H](O)C=O
REMARK SMILES IDX 4 1 2 2 1 3 3 4 6 6 8 7 10 8 11 9 9 10 7 12 5 14
REMARK H PARENT 3 5 9 11 7 13 5 15
REMARK Flexibility Score: inf
ROOT
ATOM      1  C   UNL     1    -142.826 104.573  34.135  1.00  0.00     0.174 C 
ENDROOT
BRANCH   1   2
ATOM      2  C   UNL     1    -141.820 105.094  35.194  1.00  0.00     0.142 C 
ATOM      3  C   UNL     1    -142.529 105.418  36.514  1.00  0.00     0.041 C 
BRANCH   2   4
ATOM      4  O   UNL     1    -141.174 106.248  34.719  1.00  0.00    -0.391 OA
ATOM      5  H   UNL     1    -141.554 106.442  33.822  1.00  0.00     0.211 HD
ENDBRANCH   2   4
ENDBRANCH   1   2
BRANCH   1   6
ATOM      6  C   UNL     1    -142.932 103.022  34.064  1.00  0.00     0.181 C 
BRANCH   6   7
ATOM      7  C   UNL     1    -143.288 102.449  32.662  1.00  0.00     0.209 C 
BRANCH   7   8
ATOM      8  C   UNL     1    -143.334 100.946  32.670  1.00  0.00     0.258 C 
ATOM      9  O   UNL     1    -142.635 100.307  33.440  1.00  0.00    -0.300 OA
ENDBRANCH   7   8
BRANCH   7  10
ATOM     10  O   UNL     1    -144.546 102.927  32.260  1.00  0.00    -0.383 OA
ATOM     11  H   UNL     1    -145.097 102.135  32.026  1.00  0.00     0.211 HD
ENDBRANCH   7  10
ENDBRANCH   6   7
BRANCH   6  12
ATOM     12  O   UNL     1    -143.809 102.536  35.052  1.00  0.00    -0.387 OA
ATOM     13  H   UNL     1    -144.033 101.596  34.829  1.00  0.00     0.211 HD
ENDBRANCH   6  12
ENDBRANCH   1   6
BRANCH   1  14
ATOM     14  O   UNL     1    -142.466 105.051  32.862  1.00  0.00    -0.388 OA
ATOM     15  H   UNL     1    -141.925 104.345  32.421  1.00  0.00     0.211 HD
ENDBRANCH   1  14
TORSDOF 8
ENDMDL
MODEL 2
REMARK VINA RESULT:    -5.120      1.584      2.720
REMARK INTER + INTRA:          -7.433
REMARK INTER:                  -7.102
REMARK INTRA:                  -0.331
REMARK UNBOUND:                -0.517
REMARK SMILES C[C@H](O)[C@@H](O)[C@@H](O)[C@H](O)C=O
REMARK SMILES IDX 4 1 2 2 1 3 3 4 6 6 8 7 10 8 11 9 9 10 7 12 5 14
REMARK H PARENT 3 5 9 11 7 13 5 15
REMARK Flexibility Score: inf
ROOT
ATOM      1  C   UNL     1    -142.966 102.575  33.784  1.00  0.00     0.174 C 
ENDROOT
BRANCH   1   2
ATOM      2  C   UNL     1    -142.549 104.011  33.372  1.00  0.00     0.142 C 
ATOM      3  C   UNL     1    -142.167 104.846  34.599  1.00  0.00     0.041 C 
BRANCH   2   4
ATOM      4  O   UNL     1    -143.604 104.643  32.692  1.00  0.00    -0.391 OA
ATOM      5  H   UNL     1    -143.351 105.598  32.590  1.00  0.00     0.211 HD
ENDBRANCH   2   4
ENDBRANCH   1   2
BRANCH   1   6
ATOM      6  C   UNL     1    -143.443 101.685  32.601  1.00  0.00     0.181 C 
BRANCH   6   7
ATOM      7  C   UNL     1    -142.866 100.240  32.588  1.00  0.00     0.209 C 
BRANCH   7   8
ATOM      8  C   UNL     1    -142.893  99.617  33.956  1.00  0.00     0.258 C 
ATOM      9  O   UNL     1    -143.947  99.479  34.556  1.00  0.00    -0.300 OA
ENDBRANCH   7   8
BRANCH   7  10
ATOM     10  O   UNL     1    -143.621  99.435  31.721  1.00  0.00    -0.383 OA
ATOM     11  H   UNL     1    -144.188  98.848  32.287  1.00  0.00     0.211 HD
ENDBRANCH   7  10
ENDBRANCH   6   7
BRANCH   6  12
ATOM     12  O   UNL     1    -143.227 102.332  31.370  1.00  0.00    -0.387 OA
ATOM     13  H   UNL     1    -142.811 103.214  31.555  1.00  0.00     0.211 HD
ENDBRANCH   6  12
ENDBRANCH   1   6
BRANCH   1  14
ATOM     14  O   UNL     1    -143.999 102.636  34.737  1.00  0.00    -0.388 OA
ATOM     15  H   UNL     1    -144.433 101.743  34.763  1.00  0.00     0.211 HD
ENDBRANCH   1  14
TORSDOF 8
ENDMDL
MODEL 3
REMARK VINA RESULT:    -4.953      1.550      4.298
REMARK INTER + INTRA:          -7.207
REMARK INTER:                  -6.713
REMARK INTRA:                  -0.494
REMARK UNBOUND:                -0.517
REMARK SMILES C[C@H](O)[C@@H](O)[C@@H](O)[C@H](O)C=O
REMARK SMILES IDX 4 1 2 2 1 3 3 4 6 6 8 7 10 8 11 9 9 10 7 12 5 14
REMARK H PARENT 3 5 9 11 7 13 5 15
REMARK Flexibility Score: inf
ROOT
ATOM      1  C   UNL     1    -143.960 101.686  33.678  1.00  0.00     0.174 C 
ENDROOT
BRANCH   1   2
ATOM      2  C   UNL     1    -143.418 100.235  33.746  1.00  0.00     0.142 C 
ATOM      3  C   UNL     1    -141.927 100.221  34.101  1.00  0.00     0.041 C 
BRANCH   2   4
ATOM      4  O   UNL     1    -143.607  99.591  32.512  1.00  0.00    -0.391 OA
ATOM      5  H   UNL     1    -144.202  98.814  32.680  1.00  0.00     0.211 HD
ENDBRANCH   2   4
ENDBRANCH   1   2
BRANCH   1   6
ATOM      6  C   UNL     1    -143.145 102.629  32.745  1.00  0.00     0.181 C 
BRANCH   6   7
ATOM      7  C   UNL     1    -143.451 104.145  32.910  1.00  0.00     0.209 C 
BRANCH   7   8
ATOM      8  C   UNL     1    -142.411 104.836  33.748  1.00  0.00     0.258 C 
ATOM      9  O   UNL     1    -142.391 104.690  34.960  1.00  0.00    -0.300 OA
ENDBRANCH   7   8
BRANCH   7  10
ATOM     10  O   UNL     1    -143.484 104.763  31.649  1.00  0.00    -0.383 OA
ATOM     11  H   UNL     1    -143.445 105.743  31.803  1.00  0.00     0.211 HD
ENDBRANCH   7  10
ENDBRANCH   6   7
BRANCH   6  12
ATOM     12  O   UNL     1    -143.265 102.227  31.402  1.00  0.00    -0.387 OA
ATOM     13  H   UNL     1    -144.130 101.753  31.298  1.00  0.00     0.211 HD
ENDBRANCH   6  12
ENDBRANCH   1   6
BRANCH   1  14
ATOM     14  O   UNL     1    -143.979 102.248  34.967  1.00  0.00    -0.388 OA
ATOM     15  H   UNL     1    -143.067 102.150  35.348  1.00  0.00     0.211 HD
ENDBRANCH   1  14
TORSDOF 8
ENDMDL
MODEL 4
REMARK VINA RESULT:    -4.808     19.689     21.463
REMARK INTER + INTRA:          -7.012
REMARK INTER:                  -6.518
REMARK INTRA:                  -0.494
REMARK UNBOUND:                -0.517
REMARK SMILES C[C@H](O)[C@@H](O)[C@@H](O)[C@H](O)C=O
REMARK SMILES IDX 4 1 2 2 1 3 3 4 6 6 8 7 10 8 11 9 9 10 7 12 5 14
REMARK H PARENT 3 5 9 11 7 13 5 15
REMARK Flexibility Score: inf
ROOT
ATOM      1  C   UNL     1    -129.824 114.961  44.918  1.00  0.00     0.174 C 
ENDROOT
BRANCH   1   2
ATOM      2  C   UNL     1    -129.931 114.858  43.375  1.00  0.00     0.142 C 
ATOM      3  C   UNL     1    -129.700 113.419  42.902  1.00  0.00     0.041 C 
BRANCH   2   4
ATOM      4  O   UNL     1    -128.986 115.703  42.768  1.00  0.00    -0.391 OA
ATOM      5  H   UNL     1    -129.294 115.858  41.837  1.00  0.00     0.211 HD
ENDBRANCH   2   4
ENDBRANCH   1   2
BRANCH   1   6
ATOM      6  C   UNL     1    -129.942 116.410  45.472  1.00  0.00     0.181 C 
BRANCH   6   7
ATOM      7  C   UNL     1    -130.683 116.538  46.833  1.00  0.00     0.209 C 
BRANCH   7   8
ATOM      8  C   UNL     1    -131.467 117.819  46.923  1.00  0.00     0.258 C 
ATOM      9  O   UNL     1    -130.910 118.871  47.194  1.00  0.00    -0.300 OA
ENDBRANCH   7   8
BRANCH   7  10
ATOM     10  O   UNL     1    -131.573 115.464  46.993  1.00  0.00    -0.383 OA
ATOM     11  H   UNL     1    -131.026 114.655  47.170  1.00  0.00     0.211 HD
ENDBRANCH   7  10
ENDBRANCH   6   7
BRANCH   6  12
ATOM     12  O   UNL     1    -130.498 117.269  44.505  1.00  0.00    -0.387 OA
ATOM     13  H   UNL     1    -129.815 117.947  44.266  1.00  0.00     0.211 HD
ENDBRANCH   6  12
ENDBRANCH   1   6
BRANCH   1  14
ATOM     14  O   UNL     1    -128.597 114.422  45.346  1.00  0.00    -0.388 OA
ATOM     15  H   UNL     1    -127.920 115.147  45.294  1.00  0.00     0.211 HD
ENDBRANCH   1  14
TORSDOF 8
ENDMDL
MODEL 5
REMARK VINA RESULT:    -4.763      1.136      4.443
REMARK INTER + INTRA:          -6.951
REMARK INTER:                  -6.710
REMARK INTRA:                  -0.241
REMARK UNBOUND:                -0.517
REMARK SMILES C[C@H](O)[C@@H](O)[C@@H](O)[C@H](O)C=O
REMARK SMILES IDX 4 1 2 2 1 3 3 4 6 6 8 7 10 8 11 9 9 10 7 12 5 14
REMARK H PARENT 3 5 9 11 7 13 5 15
REMARK Flexibility Score: inf
ROOT
ATOM      1  C   UNL     1    -143.572 102.429  32.230  1.00  0.00     0.174 C 
ENDROOT
BRANCH   1   2
ATOM      2  C   UNL     1    -143.109 101.149  32.972  1.00  0.00     0.142 C 
ATOM      3  C   UNL     1    -142.867  99.999  31.988  1.00  0.00     0.041 C 
BRANCH   2   4
ATOM      4  O   UNL     1    -144.079 100.758  33.912  1.00  0.00    -0.391 OA
ATOM      5  H   UNL     1    -144.485 101.591  34.270  1.00  0.00     0.211 HD
ENDBRANCH   2   4
ENDBRANCH   1   2
BRANCH   1   6
ATOM      6  C   UNL     1    -142.860 103.731  32.698  1.00  0.00     0.181 C 
BRANCH   6   7
ATOM      7  C   UNL     1    -142.485 103.772  34.207  1.00  0.00     0.209 C 
BRANCH   7   8
ATOM      8  C   UNL     1    -142.097 105.157  34.647  1.00  0.00     0.258 C 
ATOM      9  O   UNL     1    -142.278 105.517  35.800  1.00  0.00    -0.300 OA
ENDBRANCH   7   8
BRANCH   7  10
ATOM     10  O   UNL     1    -143.580 103.355  34.980  1.00  0.00    -0.383 OA
ATOM     11  H   UNL     1    -143.275 102.584  35.527  1.00  0.00     0.211 HD
ENDBRANCH   7  10
ENDBRANCH   6   7
BRANCH   6  12
ATOM     12  O   UNL     1    -143.603 104.867  32.325  1.00  0.00    -0.387 OA
ATOM     13  H   UNL     1    -143.933 104.730  31.400  1.00  0.00     0.211 HD
ENDBRANCH   6  12
ENDBRANCH   1   6
BRANCH   1  14
ATOM     14  O   UNL     1    -144.959 102.599  32.396  1.00  0.00    -0.388 OA
ATOM     15  H   UNL     1    -145.094 103.379  32.995  1.00  0.00     0.211 HD
ENDBRANCH   1  14
TORSDOF 8
ENDMDL
MODEL 6
REMARK VINA RESULT:    -4.583     18.819     21.019
REMARK INTER + INTRA:          -6.708
REMARK INTER:                  -6.269
REMARK INTRA:                  -0.439
REMARK UNBOUND:                -0.517
REMARK SMILES C[C@H](O)[C@@H](O)[C@@H](O)[C@H](O)C=O
REMARK SMILES IDX 4 1 2 2 1 3 3 4 6 6 8 7 10 8 11 9 9 10 7 12 5 14
REMARK H PARENT 3 5 9 11 7 13 5 15
REMARK Flexibility Score: inf
ROOT
ATOM      1  C   UNL     1    -129.756 114.580  44.162  1.00  0.00     0.174 C 
ENDROOT
BRANCH   1   2
ATOM      2  C   UNL     1    -129.090 113.510  43.257  1.00  0.00     0.142 C 
ATOM      3  C   UNL     1    -130.041 113.065  42.141  1.00  0.00     0.041 C 
BRANCH   2   4
ATOM      4  O   UNL     1    -128.720 112.392  44.025  1.00  0.00    -0.391 OA
ATOM      5  H   UNL     1    -129.531 112.100  44.518  1.00  0.00     0.211 HD
ENDBRANCH   2   4
ENDBRANCH   1   2
BRANCH   1   6
ATOM      6  C   UNL     1    -129.624 116.036  43.631  1.00  0.00     0.181 C 
BRANCH   6   7
ATOM      7  C   UNL     1    -129.516 117.132  44.731  1.00  0.00     0.209 C 
BRANCH   7   8
ATOM      8  C   UNL     1    -129.097 118.457  44.158  1.00  0.00     0.258 C 
ATOM      9  O   UNL     1    -128.627 118.528  43.033  1.00  0.00    -0.300 OA
ENDBRANCH   7   8
BRANCH   7  10
ATOM     10  O   UNL     1    -130.760 117.297  45.361  1.00  0.00    -0.383 OA
ATOM     11  H   UNL     1    -130.718 118.147  45.872  1.00  0.00     0.211 HD
ENDBRANCH   7  10
ENDBRANCH   6   7
BRANCH   6  12
ATOM     12  O   UNL     1    -130.654 116.330  42.718  1.00  0.00    -0.387 OA
ATOM     13  H   UNL     1    -131.439 116.651  43.232  1.00  0.00     0.211 HD
ENDBRANCH   6  12
ENDBRANCH   1   6
BRANCH   1  14
ATOM     14  O   UNL     1    -129.197 114.526  45.452  1.00  0.00    -0.388 OA
ATOM     15  H   UNL     1    -129.929 114.694  46.101  1.00  0.00     0.211 HD
ENDBRANCH   1  14
TORSDOF 8
ENDMDL
MODEL 7
REMARK VINA RESULT:    -4.503     18.002     20.157
REMARK INTER + INTRA:          -6.600
REMARK INTER:                  -6.132
REMARK INTRA:                  -0.468
REMARK UNBOUND:                -0.517
REMARK SMILES C[C@H](O)[C@@H](O)[C@@H](O)[C@H](O)C=O
REMARK SMILES IDX 4 1 2 2 1 3 3 4 6 6 8 7 10 8 11 9 9 10 7 12 5 14
REMARK H PARENT 3 5 9 11 7 13 5 15
REMARK Flexibility Score: inf
ROOT
ATOM      1  C   UNL     1    -129.771 115.191  45.252  1.00  0.00     0.174 C 
ENDROOT
BRANCH   1   2
ATOM      2  C   UNL     1    -129.857 116.737  45.346  1.00  0.00     0.142 C 
ATOM      3  C   UNL     1    -130.668 117.169  46.573  1.00  0.00     0.041 C 
BRANCH   2   4
ATOM      4  O   UNL     1    -130.458 117.257  44.186  1.00  0.00    -0.391 OA
ATOM      5  H   UNL     1    -131.441 117.204  44.322  1.00  0.00     0.211 HD
ENDBRANCH   2   4
ENDBRANCH   1   2
BRANCH   1   6
ATOM      6  C   UNL     1    -129.822 114.636  43.800  1.00  0.00     0.181 C 
BRANCH   6   7
ATOM      7  C   UNL     1    -129.557 113.108  43.668  1.00  0.00     0.209 C 
BRANCH   7   8
ATOM      8  C   UNL     1    -129.796 112.620  42.266  1.00  0.00     0.258 C 
ATOM      9  O   UNL     1    -130.162 113.391  41.393  1.00  0.00    -0.300 OA
ENDBRANCH   7   8
BRANCH   7  10
ATOM     10  O   UNL     1    -128.226 112.825  44.014  1.00  0.00    -0.383 OA
ATOM     11  H   UNL     1    -128.111 113.079  44.966  1.00  0.00     0.211 HD
ENDBRANCH   7  10
ENDBRANCH   6   7
BRANCH   6  12
ATOM     12  O   UNL     1    -128.974 115.375  42.953  1.00  0.00    -0.387 OA
ATOM     13  H   UNL     1    -129.410 115.443  42.065  1.00  0.00     0.211 HD
ENDBRANCH   6  12
ENDBRANCH   1   6
BRANCH   1  14
ATOM     14  O   UNL     1    -130.823 114.611  45.985  1.00  0.00    -0.388 OA
ATOM     15  H   UNL     1    -131.619 114.583  45.391  1.00  0.00     0.211 HD
ENDBRANCH   1  14
TORSDOF 8
ENDMDL
MODEL 8
REMARK VINA RESULT:    -4.415     14.108     15.601
REMARK INTER + INTRA:          -6.481
REMARK INTER:                  -5.753
REMARK INTRA:                  -0.727
REMARK UNBOUND:                -0.517
REMARK SMILES C[C@H](O)[C@@H](O)[C@@H](O)[C@H](O)C=O
REMARK SMILES IDX 4 1 2 2 1 3 3 4 6 6 8 7 10 8 11 9 9 10 7 12 5 14
REMARK H PARENT 3 5 9 11 7 13 5 15
REMARK Flexibility Score: inf
ROOT
ATOM      1  C   UNL     1    -129.736 106.198  40.087  1.00  0.00     0.174 C 
ENDROOT
BRANCH   1   2
ATOM      2  C   UNL     1    -129.854 105.124  38.975  1.00  0.00     0.142 C 
ATOM      3  C   UNL     1    -129.153 103.825  39.389  1.00  0.00     0.041 C 
BRANCH   2   4
ATOM      4  O   UNL     1    -129.281 105.600  37.783  1.00  0.00    -0.391 OA
ATOM      5  H   UNL     1    -128.767 106.417  38.016  1.00  0.00     0.211 HD
ENDBRANCH   2   4
ENDBRANCH   1   2
BRANCH   1   6
ATOM      6  C   UNL     1    -129.623 107.657  39.557  1.00  0.00     0.181 C 
BRANCH   6   7
ATOM      7  C   UNL     1    -129.330 108.732  40.642  1.00  0.00     0.209 C 
BRANCH   7   8
ATOM      8  C   UNL     1    -129.827 110.090  40.230  1.00  0.00     0.258 C 
ATOM      9  O   UNL     1    -129.429 110.612  39.200  1.00  0.00    -0.300 OA
ENDBRANCH   7   8
BRANCH   7  10
ATOM     10  O   UNL     1    -129.962 108.378  41.845  1.00  0.00    -0.383 OA
ATOM     11  H   UNL     1    -129.265 107.995  42.439  1.00  0.00     0.211 HD
ENDBRANCH   7  10
ENDBRANCH   6   7
BRANCH   6  12
ATOM     12  O   UNL     1    -130.754 107.999  38.792  1.00  0.00    -0.387 OA
ATOM     13  H   UNL     1    -130.513 108.766  38.212  1.00  0.00     0.211 HD
ENDBRANCH   6  12
ENDBRANCH   1   6
BRANCH   1  14
ATOM     14  O   UNL     1    -128.612 105.931  40.890  1.00  0.00    -0.388 OA
ATOM     15  H   UNL     1    -127.930 106.624  40.688  1.00  0.00     0.211 HD
ENDBRANCH   1  14
TORSDOF 8
ENDMDL
MODEL 9
REMARK VINA RESULT:    -4.409     14.013     15.986
REMARK INTER + INTRA:          -6.473
REMARK INTER:                  -5.796
REMARK INTRA:                  -0.678
REMARK UNBOUND:                -0.517
REMARK SMILES C[C@H](O)[C@@H](O)[C@@H](O)[C@H](O)C=O
REMARK SMILES IDX 4 1 2 2 1 3 3 4 6 6 8 7 10 8 11 9 9 10 7 12 5 14
REMARK H PARENT 3 5 9 11 7 13 5 15
REMARK Flexibility Score: inf
ROOT
ATOM      1  C   UNL     1    -129.258 106.573  39.563  1.00  0.00     0.174 C 
ENDROOT
BRANCH   1   2
ATOM      2  C   UNL     1    -129.125 105.032  39.459  1.00  0.00     0.142 C 
ATOM      3  C   UNL     1    -129.784 104.508  38.178  1.00  0.00     0.041 C 
BRANCH   2   4
ATOM      4  O   UNL     1    -129.725 104.420  40.572  1.00  0.00    -0.391 OA
ATOM      5  H   UNL     1    -129.421 104.920  41.375  1.00  0.00     0.211 HD
ENDBRANCH   2   4
ENDBRANCH   1   2
BRANCH   1   6
ATOM      6  C   UNL     1    -129.361 107.108  41.020  1.00  0.00     0.181 C 
BRANCH   6   7
ATOM      7  C   UNL     1    -129.659 108.630  41.145  1.00  0.00     0.209 C 
BRANCH   7   8
ATOM      8  C   UNL     1    -129.351 109.147  42.523  1.00  0.00     0.258 C 
ATOM      9  O   UNL     1    -129.910 108.679  43.502  1.00  0.00    -0.300 OA
ENDBRANCH   7   8
BRANCH   7  10
ATOM     10  O   UNL     1    -128.878 109.344  40.221  1.00  0.00    -0.383 OA
ATOM     11  H   UNL     1    -128.502 108.682  39.584  1.00  0.00     0.211 HD
ENDBRANCH   7  10
ENDBRANCH   6   7
BRANCH   6  12
ATOM     12  O   UNL     1    -128.222 106.749  41.765  1.00  0.00    -0.387 OA
ATOM     13  H   UNL     1    -128.131 107.389  42.517  1.00  0.00     0.211 HD
ENDBRANCH   6  12
ENDBRANCH   1   6
BRANCH   1  14
ATOM     14  O   UNL     1    -130.395 107.001  38.853  1.00  0.00    -0.388 OA
ATOM     15  H   UNL     1    -130.193 106.909  37.885  1.00  0.00     0.211 HD
ENDBRANCH   1  14
TORSDOF 8
ENDMDL
