MODEL 1
REMARK VINA RESULT:     0.000      0.000      0.000
REMARK INTER + INTRA:          -0.343
REMARK INTER:                   0.000
REMARK INTRA:                  -0.343
REMARK UNBOUND:                -0.343
REMARK SMILES CC1=CCC[C@H](C)C(=O)C[C@@H](C(C)C)C(=O)C1
REMARK SMILES IDX 8 1 9 2 6 3 7 4 5 5 4 6 3 7 2 8 1 9 10 11 11 12 15 13 16 14
REMARK SMILES IDX 17 15 12 17 13 18 14 19
REMARK H PARENT
REMARK Flexibility Score: 70.00
ROOT
ATOM      1  C   UNL     1     185.820 187.647 203.993  1.00  0.00     0.136 C 
ATOM      2  O   UNL     1     186.779 187.643 203.234  1.00  0.00    -0.299 OA
ENDROOT
BRANCH   1   3
ATOM      3  C   UNL     1     185.981 188.174 205.402  1.00  0.00     0.053 C 
ATOM      4  C   UNL     1     187.113 187.451 206.140  1.00  0.00     0.016 C 
BRANCH   3   5
ATOM      5  C   UNL     1     186.224 189.702 205.344  1.00  0.00     0.015 C 
BRANCH   5   6
ATOM      6  C   UNL     1     185.044 190.590 205.782  1.00  0.00     0.028 C 
BRANCH   6   7
ATOM      7  C   UNL     1     183.915 189.917 206.534  1.00  0.00    -0.028 C 
ATOM      8  C   UNL     1     182.659 189.682 206.080  1.00  0.00    -0.070 CG0
ATOM      9  C   UNL     1     181.663 189.099 207.052  1.00  0.00     0.039 C 
ATOM     10  G   UNL     1     182.218 189.890 204.641  1.00  0.00     0.000 G0
ENDBRANCH   6   7
ENDBRANCH   5   6
ENDBRANCH   3   5
ENDBRANCH   1   3
BRANCH   1  11
ATOM     11  C   UNL     1     184.471 187.191 203.482  1.00  0.00     0.087 C 
BRANCH  11  12
ATOM     12  C   UNL     1     183.607 188.370 202.948  1.00  0.00     0.066 C 
BRANCH  12  13
ATOM     13  C   UNL     1     182.392 188.609 203.835  1.00  0.00     0.140 C 
ATOM     14  O   UNL     1     181.518 187.755 203.891  1.00  0.00    -0.299 OA
BRANCH  13  15
ATOM     15  C   UNL     1     182.217 189.885 204.635  1.00  0.00     0.106 CG0
ATOM     16  G   UNL     1     182.661 189.683 206.074  1.00  0.00     0.000 G0
ENDBRANCH  13  15
ENDBRANCH  12  13
BRANCH  12  17
ATOM     17  C   UNL     1     183.215 188.175 201.452  1.00  0.00    -0.006 C 
ATOM     18  C   UNL     1     182.517 189.393 200.819  1.00  0.00     0.008 C 
ATOM     19  C   UNL     1     184.426 187.759 200.602  1.00  0.00     0.008 C 
ENDBRANCH  12  17
ENDBRANCH  11  12
ENDBRANCH   1  11
TORSDOF 1
ENDMDL
MODEL 2
REMARK VINA RESULT:     0.006      9.339     11.416
REMARK INTER + INTRA:          -0.334
REMARK INTER:                   0.000
REMARK INTRA:                  -0.334
REMARK UNBOUND:                -0.343
REMARK SMILES CC1=CCC[C@H](C)C(=O)C[C@@H](C(C)C)C(=O)C1
REMARK SMILES IDX 8 1 9 2 6 3 7 4 5 5 4 6 3 7 2 8 1 9 10 11 11 12 15 13 16 14
REMARK SMILES IDX 17 15 12 17 13 18 14 19
REMARK H PARENT
REMARK Flexibility Score: 70.00
ROOT
ATOM      1  C   UNL     1     177.963 191.747 194.995  1.00  0.00     0.136 C 
ATOM      2  O   UNL     1     177.198 191.415 195.890  1.00  0.00    -0.299 OA
ENDROOT
BRANCH   1   3
ATOM      3  C   UNL     1     178.146 193.212 194.671  1.00  0.00     0.053 C 
ATOM      4  C   UNL     1     176.837 193.841 194.180  1.00  0.00     0.016 C 
BRANCH   3   5
ATOM      5  C   UNL     1     178.693 193.941 195.923  1.00  0.00     0.015 C 
BRANCH   5   6
ATOM      6  C   UNL     1     180.208 193.813 196.170  1.00  0.00     0.028 C 
BRANCH   6   7
ATOM      7  C   UNL     1     181.113 193.877 194.957  1.00  0.00    -0.028 C 
ATOM      8  C   UNL     1     182.038 192.960 194.581  1.00  0.00    -0.070 CG0
ATOM      9  C   UNL     1     182.909 193.292 193.395  1.00  0.00     0.039 C 
ATOM     10  G   UNL     1     182.193 191.591 195.222  1.00  0.00     0.000 G0
ENDBRANCH   6   7
ENDBRANCH   5   6
ENDBRANCH   3   5
ENDBRANCH   1   3
BRANCH   1  11
ATOM     11  C   UNL     1     178.767 190.684 194.279  1.00  0.00     0.087 C 
BRANCH  11  12
ATOM     12  C   UNL     1     179.952 190.155 195.137  1.00  0.00     0.066 C 
BRANCH  12  13
ATOM     13  C   UNL     1     181.292 190.566 194.540  1.00  0.00     0.140 C 
ATOM     14  O   UNL     1     181.661 190.051 193.494  1.00  0.00    -0.299 OA
BRANCH  13  15
ATOM     15  C   UNL     1     182.197 191.578 195.214  1.00  0.00     0.106 CG0
ATOM     16  G   UNL     1     182.036 192.950 194.582  1.00  0.00     0.000 G0
ENDBRANCH  13  15
ENDBRANCH  12  13
BRANCH  12  17
ATOM     17  C   UNL     1     179.859 188.617 195.374  1.00  0.00    -0.006 C 
ATOM     18  C   UNL     1     180.943 188.058 196.314  1.00  0.00     0.008 C 
ATOM     19  C   UNL     1     178.465 188.206 195.871  1.00  0.00     0.008 C 
ENDBRANCH  12  17
ENDBRANCH  11  12
ENDBRANCH   1  11
TORSDOF 1
ENDMDL
MODEL 3
REMARK VINA RESULT:     0.006      8.558     10.369
REMARK INTER + INTRA:          -0.333
REMARK INTER:                   0.000
REMARK INTRA:                  -0.333
REMARK UNBOUND:                -0.343
REMARK SMILES CC1=CCC[C@H](C)C(=O)C[C@@H](C(C)C)C(=O)C1
REMARK SMILES IDX 8 1 9 2 6 3 7 4 5 5 4 6 3 7 2 8 1 9 10 11 11 12 15 13 16 14
REMARK SMILES IDX 17 15 12 17 13 18 14 19
REMARK H PARENT
REMARK Flexibility Score: 70.00
ROOT
ATOM      1  C   UNL     1     181.673 180.887 197.005  1.00  0.00     0.136 C 
ATOM      2  O   UNL     1     181.581 180.631 195.813  1.00  0.00    -0.299 OA
ENDROOT
BRANCH   1   3
ATOM      3  C   UNL     1     182.205 182.233 197.444  1.00  0.00     0.053 C 
ATOM      4  C   UNL     1     183.660 182.428 197.002  1.00  0.00     0.016 C 
BRANCH   3   5
ATOM      5  C   UNL     1     181.286 183.345 196.881  1.00  0.00     0.015 C 
BRANCH   5   6
ATOM      6  C   UNL     1     180.142 183.806 197.804  1.00  0.00     0.028 C 
BRANCH   6   7
ATOM      7  C   UNL     1     180.411 183.798 199.294  1.00  0.00    -0.028 C 
ATOM      8  C   UNL     1     179.764 183.069 200.236  1.00  0.00    -0.070 CG0
ATOM      9  C   UNL     1     180.128 183.312 201.680  1.00  0.00     0.039 C 
ATOM     10  G   UNL     1     178.762 181.970 199.925  1.00  0.00     0.000 G0
ENDBRANCH   6   7
ENDBRANCH   5   6
ENDBRANCH   3   5
ENDBRANCH   1   3
BRANCH   1  11
ATOM     11  C   UNL     1     181.185 179.875 198.018  1.00  0.00     0.087 C 
BRANCH  11  12
ATOM     12  C   UNL     1     179.670 180.034 198.335  1.00  0.00     0.066 C 
BRANCH  12  13
ATOM     13  C   UNL     1     179.455 180.631 199.719  1.00  0.00     0.140 C 
ATOM     14  O   UNL     1     179.836 180.010 200.702  1.00  0.00    -0.299 OA
BRANCH  13  15
ATOM     15  C   UNL     1     178.762 181.963 199.923  1.00  0.00     0.106 CG0
ATOM     16  G   UNL     1     179.771 183.054 200.237  1.00  0.00     0.000 G0
ENDBRANCH  13  15
ENDBRANCH  12  13
BRANCH  12  17
ATOM     17  C   UNL     1     178.891 178.696 198.143  1.00  0.00    -0.006 C 
ATOM     18  C   UNL     1     177.382 178.876 197.895  1.00  0.00     0.008 C 
ATOM     19  C   UNL     1     179.512 177.838 197.030  1.00  0.00     0.008 C 
ENDBRANCH  12  17
ENDBRANCH  11  12
ENDBRANCH   1  11
TORSDOF 1
ENDMDL
MODEL 4
REMARK VINA RESULT:     0.011      4.964      7.469
REMARK INTER + INTRA:          -0.327
REMARK INTER:                   0.000
REMARK INTRA:                  -0.327
REMARK UNBOUND:                -0.343
REMARK SMILES CC1=CCC[C@H](C)C(=O)C[C@@H](C(C)C)C(=O)C1
REMARK SMILES IDX 8 1 9 2 6 3 7 4 5 5 4 6 3 7 2 8 1 9 10 11 11 12 15 13 16 14
REMARK SMILES IDX 17 15 12 17 13 18 14 19
REMARK H PARENT
REMARK Flexibility Score: 70.00
ROOT
ATOM      1  C   UNL     1     180.227 191.760 206.069  1.00  0.00     0.136 C 
ATOM      2  O   UNL     1     179.042 191.519 206.253  1.00  0.00    -0.299 OA
ENDROOT
BRANCH   1   3
ATOM      3  C   UNL     1     180.798 191.689 204.670  1.00  0.00     0.053 C 
ATOM      4  C   UNL     1     180.606 190.296 204.061  1.00  0.00     0.016 C 
BRANCH   3   5
ATOM      5  C   UNL     1     180.137 192.786 203.800  1.00  0.00     0.015 C 
BRANCH   5   6
ATOM      6  C   UNL     1     180.888 194.130 203.723  1.00  0.00     0.028 C 
BRANCH   6   7
ATOM      7  C   UNL     1     182.393 194.089 203.882  1.00  0.00    -0.028 C 
ATOM      8  C   UNL     1     183.128 194.702 204.843  1.00  0.00    -0.070 CG0
ATOM      9  C   UNL     1     184.630 194.616 204.733  1.00  0.00     0.039 C 
ATOM     10  G   UNL     1     182.537 195.392 206.060  1.00  0.00     0.000 G0
ENDBRANCH   6   7
ENDBRANCH   5   6
ENDBRANCH   3   5
ENDBRANCH   1   3
BRANCH   1  11
ATOM     11  C   UNL     1     181.082 192.196 207.238  1.00  0.00     0.087 C 
BRANCH  11  12
ATOM     12  C   UNL     1     181.015 193.731 207.485  1.00  0.00     0.066 C 
BRANCH  12  13
ATOM     13  C   UNL     1     182.356 194.395 207.198  1.00  0.00     0.140 C 
ATOM     14  O   UNL     1     183.315 194.135 207.912  1.00  0.00    -0.299 OA
BRANCH  13  15
ATOM     15  C   UNL     1     182.537 195.389 206.069  1.00  0.00     0.106 CG0
ATOM     16  G   UNL     1     183.115 194.709 204.840  1.00  0.00     0.000 G0
ENDBRANCH  13  15
ENDBRANCH  12  13
BRANCH  12  17
ATOM     17  C   UNL     1     180.483 194.069 208.911  1.00  0.00    -0.006 C 
ATOM     18  C   UNL     1     180.375 195.577 209.202  1.00  0.00     0.008 C 
ATOM     19  C   UNL     1     179.139 193.379 209.189  1.00  0.00     0.008 C 
ENDBRANCH  12  17
ENDBRANCH  11  12
ENDBRANCH   1  11
TORSDOF 1
ENDMDL
MODEL 5
REMARK VINA RESULT:     0.012      6.678      9.242
REMARK INTER + INTRA:          -0.324
REMARK INTER:                   0.000
REMARK INTRA:                  -0.324
REMARK UNBOUND:                -0.343
REMARK SMILES CC1=CCC[C@H](C)C(=O)C[C@@H](C(C)C)C(=O)C1
REMARK SMILES IDX 8 1 9 2 6 3 7 4 5 5 4 6 3 7 2 8 1 9 10 11 11 12 15 13 16 14
REMARK SMILES IDX 17 15 12 17 13 18 14 19
REMARK H PARENT
REMARK Flexibility Score: 70.00
ROOT
ATOM      1  C   UNL     1     188.196 184.301 200.475  1.00  0.00     0.136 C 
ATOM      2  O   UNL     1     188.503 184.053 201.633  1.00  0.00    -0.299 OA
ENDROOT
BRANCH   1   3
ATOM      3  C   UNL     1     187.026 185.216 200.190  1.00  0.00     0.053 C 
ATOM      4  C   UNL     1     185.748 184.714 200.872  1.00  0.00     0.016 C 
BRANCH   3   5
ATOM      5  C   UNL     1     187.387 186.651 200.643  1.00  0.00     0.015 C 
BRANCH   5   6
ATOM      6  C   UNL     1     187.760 187.639 199.521  1.00  0.00     0.028 C 
BRANCH   6   7
ATOM      7  C   UNL     1     187.433 187.227 198.101  1.00  0.00    -0.028 C 
ATOM      8  C   UNL     1     188.314 186.889 197.127  1.00  0.00    -0.070 CG0
ATOM      9  C   UNL     1     187.762 186.625 195.748  1.00  0.00     0.039 C 
ATOM     10  G   UNL     1     189.801 186.681 197.355  1.00  0.00     0.000 G0
ENDBRANCH   6   7
ENDBRANCH   5   6
ENDBRANCH   3   5
ENDBRANCH   1   3
BRANCH   1  11
ATOM     11  C   UNL     1     189.040 183.742 199.352  1.00  0.00     0.087 C 
BRANCH  11  12
ATOM     12  C   UNL     1     190.252 184.656 199.007  1.00  0.00     0.066 C 
BRANCH  12  13
ATOM     13  C   UNL     1     190.130 185.227 197.600  1.00  0.00     0.140 C 
ATOM     14  O   UNL     1     190.312 184.491 196.640  1.00  0.00    -0.299 OA
BRANCH  13  15
ATOM     15  C   UNL     1     189.813 186.688 197.349  1.00  0.00     0.106 CG0
ATOM     16  G   UNL     1     188.322 186.887 197.137  1.00  0.00     0.000 G0
ENDBRANCH  13  15
ENDBRANCH  12  13
BRANCH  12  17
ATOM     17  C   UNL     1     191.613 183.928 199.232  1.00  0.00    -0.006 C 
ATOM     18  C   UNL     1     192.803 184.876 199.467  1.00  0.00     0.008 C 
ATOM     19  C   UNL     1     191.521 182.901 200.370  1.00  0.00     0.008 C 
ENDBRANCH  12  17
ENDBRANCH  11  12
ENDBRANCH   1  11
TORSDOF 1
ENDMDL
MODEL 6
REMARK VINA RESULT:     0.012      9.476     11.700
REMARK INTER + INTRA:          -0.324
REMARK INTER:                   0.000
REMARK INTRA:                  -0.324
REMARK UNBOUND:                -0.343
REMARK SMILES CC1=CCC[C@H](C)C(=O)C[C@@H](C(C)C)C(=O)C1
REMARK SMILES IDX 8 1 9 2 6 3 7 4 5 5 4 6 3 7 2 8 1 9 10 11 11 12 15 13 16 14
REMARK SMILES IDX 17 15 12 17 13 18 14 19
REMARK H PARENT
REMARK Flexibility Score: 70.00
ROOT
ATOM      1  C   UNL     1     193.126 188.720 199.114  1.00  0.00     0.136 C 
ATOM      2  O   UNL     1     192.461 188.372 200.080  1.00  0.00    -0.299 OA
ENDROOT
BRANCH   1   3
ATOM      3  C   UNL     1     193.421 187.729 198.010  1.00  0.00     0.053 C 
ATOM      4  C   UNL     1     194.256 186.552 198.529  1.00  0.00     0.016 C 
BRANCH   3   5
ATOM      5  C   UNL     1     192.085 187.249 197.393  1.00  0.00     0.015 C 
BRANCH   5   6
ATOM      6  C   UNL     1     191.263 188.319 196.648  1.00  0.00     0.028 C 
BRANCH   6   7
ATOM      7  C   UNL     1     191.991 189.151 195.614  1.00  0.00    -0.028 C 
ATOM      8  C   UNL     1     191.966 190.502 195.490  1.00  0.00    -0.070 CG0
ATOM      9  C   UNL     1     192.679 191.107 194.306  1.00  0.00     0.039 C 
ATOM     10  G   UNL     1     191.342 191.441 196.507  1.00  0.00     0.000 G0
ENDBRANCH   6   7
ENDBRANCH   5   6
ENDBRANCH   3   5
ENDBRANCH   1   3
BRANCH   1  11
ATOM     11  C   UNL     1     193.578 190.160 199.009  1.00  0.00     0.087 C 
BRANCH  11  12
ATOM     12  C   UNL     1     192.384 191.154 198.924  1.00  0.00     0.066 C 
BRANCH  12  13
ATOM     13  C   UNL     1     192.335 191.843 197.567  1.00  0.00     0.140 C 
ATOM     14  O   UNL     1     193.113 192.757 197.333  1.00  0.00    -0.299 OA
BRANCH  13  15
ATOM     15  C   UNL     1     191.334 191.447 196.500  1.00  0.00     0.106 CG0
ATOM     16  G   UNL     1     191.969 190.511 195.485  1.00  0.00     0.000 G0
ENDBRANCH  13  15
ENDBRANCH  12  13
BRANCH  12  17
ATOM     17  C   UNL     1     192.392 192.175 200.103  1.00  0.00    -0.006 C 
ATOM     18  C   UNL     1     191.199 192.035 201.065  1.00  0.00     0.008 C 
ATOM     19  C   UNL     1     193.713 192.121 200.886  1.00  0.00     0.008 C 
ENDBRANCH  12  17
ENDBRANCH  11  12
ENDBRANCH   1  11
TORSDOF 1
ENDMDL
MODEL 7
REMARK VINA RESULT:     0.045      8.379     10.872
REMARK INTER + INTRA:          -0.274
REMARK INTER:                   0.000
REMARK INTRA:                  -0.274
REMARK UNBOUND:                -0.343
REMARK SMILES CC1=CCC[C@H](C)C(=O)C[C@@H](C(C)C)C(=O)C1
REMARK SMILES IDX 8 1 9 2 6 3 7 4 5 5 4 6 3 7 2 8 1 9 10 11 11 12 15 13 16 14
REMARK SMILES IDX 17 15 12 17 13 18 14 19
REMARK H PARENT
REMARK Flexibility Score: 70.00
ROOT
ATOM      1  C   UNL     1     192.411 187.481 203.214  1.00  0.00     0.136 C 
ATOM      2  O   UNL     1     191.201 187.339 203.316  1.00  0.00    -0.299 OA
ENDROOT
BRANCH   1   3
ATOM      3  C   UNL     1     193.071 187.341 201.861  1.00  0.00     0.053 C 
ATOM      4  C   UNL     1     192.357 186.293 200.999  1.00  0.00     0.016 C 
BRANCH   3   5
ATOM      5  C   UNL     1     193.097 188.725 201.168  1.00  0.00     0.015 C 
BRANCH   5   6
ATOM      6  C   UNL     1     194.490 189.264 200.788  1.00  0.00     0.028 C 
BRANCH   6   7
ATOM      7  C   UNL     1     194.873 190.626 201.329  1.00  0.00    -0.028 C 
ATOM      8  C   UNL     1     195.250 190.923 202.597  1.00  0.00    -0.070 CG0
ATOM      9  C   UNL     1     195.474 192.376 202.937  1.00  0.00     0.039 C 
ATOM     10  G   UNL     1     195.539 189.885 203.668  1.00  0.00     0.000 G0
ENDBRANCH   6   7
ENDBRANCH   5   6
ENDBRANCH   3   5
ENDBRANCH   1   3
BRANCH   1  11
ATOM     11  C   UNL     1     193.215 187.865 204.437  1.00  0.00     0.087 C 
BRANCH  11  12
ATOM     12  C   UNL     1     193.149 189.390 204.737  1.00  0.00     0.066 C 
BRANCH  12  13
ATOM     13  C   UNL     1     194.543 189.998 204.814  1.00  0.00     0.140 C 
ATOM     14  O   UNL     1     194.869 190.618 205.817  1.00  0.00    -0.299 OA
BRANCH  13  15
ATOM     15  C   UNL     1     195.536 189.881 203.675  1.00  0.00     0.106 CG0
ATOM     16  G   UNL     1     195.253 190.921 202.604  1.00  0.00     0.000 G0
ENDBRANCH  13  15
ENDBRANCH  12  13
BRANCH  12  17
ATOM     17  C   UNL     1     192.301 189.697 206.010  1.00  0.00    -0.006 C 
ATOM     18  C   UNL     1     190.921 190.312 205.714  1.00  0.00     0.008 C 
ATOM     19  C   UNL     1     192.147 188.453 206.898  1.00  0.00     0.008 C 
ENDBRANCH  12  17
ENDBRANCH  11  12
ENDBRANCH   1  11
TORSDOF 1
ENDMDL
MODEL 8
REMARK VINA RESULT:     0.045      7.611     10.098
REMARK INTER + INTRA:          -0.274
REMARK INTER:                   0.000
REMARK INTRA:                  -0.274
REMARK UNBOUND:                -0.343
REMARK SMILES CC1=CCC[C@H](C)C(=O)C[C@@H](C(C)C)C(=O)C1
REMARK SMILES IDX 8 1 9 2 6 3 7 4 5 5 4 6 3 7 2 8 1 9 10 11 11 12 15 13 16 14
REMARK SMILES IDX 17 15 12 17 13 18 14 19
REMARK H PARENT
REMARK Flexibility Score: 70.00
ROOT
ATOM      1  C   UNL     1     191.435 186.828 203.595  1.00  0.00     0.136 C 
ATOM      2  O   UNL     1     190.231 186.979 203.441  1.00  0.00    -0.299 OA
ENDROOT
BRANCH   1   3
ATOM      3  C   UNL     1     192.370 187.004 202.420  1.00  0.00     0.053 C 
ATOM      4  C   UNL     1     191.712 186.544 201.113  1.00  0.00     0.016 C 
BRANCH   3   5
ATOM      5  C   UNL     1     192.812 188.485 202.344  1.00  0.00     0.015 C 
BRANCH   5   6
ATOM      6  C   UNL     1     194.328 188.743 202.433  1.00  0.00     0.028 C 
BRANCH   6   7
ATOM      7  C   UNL     1     194.806 189.682 203.521  1.00  0.00    -0.028 C 
ATOM      8  C   UNL     1     194.908 189.410 204.846  1.00  0.00    -0.070 CG0
ATOM      9  C   UNL     1     195.299 190.542 205.763  1.00  0.00     0.039 C 
ATOM     10  G   UNL     1     194.735 188.027 205.450  1.00  0.00     0.000 G0
ENDBRANCH   6   7
ENDBRANCH   5   6
ENDBRANCH   3   5
ENDBRANCH   1   3
BRANCH   1  11
ATOM     11  C   UNL     1     191.971 186.540 204.980  1.00  0.00     0.087 C 
BRANCH  11  12
ATOM     12  C   UNL     1     192.108 187.827 205.845  1.00  0.00     0.066 C 
BRANCH  12  13
ATOM     13  C   UNL     1     193.527 187.987 206.375  1.00  0.00     0.140 C 
ATOM     14  O   UNL     1     193.703 188.111 207.579  1.00  0.00    -0.299 OA
BRANCH  13  15
ATOM     15  C   UNL     1     194.731 188.022 205.454  1.00  0.00     0.106 CG0
ATOM     16  G   UNL     1     194.909 189.405 204.852  1.00  0.00     0.000 G0
ENDBRANCH  13  15
ENDBRANCH  12  13
BRANCH  12  17
ATOM     17  C   UNL     1     191.044 187.879 206.984  1.00  0.00    -0.006 C 
ATOM     18  C   UNL     1     189.911 188.893 206.742  1.00  0.00     0.008 C 
ATOM     19  C   UNL     1     190.457 186.489 207.271  1.00  0.00     0.008 C 
ENDBRANCH  12  17
ENDBRANCH  11  12
ENDBRANCH   1  11
TORSDOF 1
ENDMDL
MODEL 9
REMARK VINA RESULT:     0.045      4.701      7.196
REMARK INTER + INTRA:          -0.274
REMARK INTER:                   0.000
REMARK INTRA:                  -0.274
REMARK UNBOUND:                -0.343
REMARK SMILES CC1=CCC[C@H](C)C(=O)C[C@@H](C(C)C)C(=O)C1
REMARK SMILES IDX 8 1 9 2 6 3 7 4 5 5 4 6 3 7 2 8 1 9 10 11 11 12 15 13 16 14
REMARK SMILES IDX 17 15 12 17 13 18 14 19
REMARK H PARENT
REMARK Flexibility Score: 70.00
ROOT
ATOM      1  C   UNL     1     187.952 188.335 203.639  1.00  0.00     0.136 C 
ATOM      2  O   UNL     1     186.749 188.486 203.484  1.00  0.00    -0.299 OA
ENDROOT
BRANCH   1   3
ATOM      3  C   UNL     1     188.887 188.511 202.463  1.00  0.00     0.053 C 
ATOM      4  C   UNL     1     188.230 188.052 201.156  1.00  0.00     0.016 C 
BRANCH   3   5
ATOM      5  C   UNL     1     189.329 189.992 202.387  1.00  0.00     0.015 C 
BRANCH   5   6
ATOM      6  C   UNL     1     190.846 190.250 202.476  1.00  0.00     0.028 C 
BRANCH   6   7
ATOM      7  C   UNL     1     191.323 191.189 203.564  1.00  0.00    -0.028 C 
ATOM      8  C   UNL     1     191.425 190.917 204.889  1.00  0.00    -0.070 CG0
ATOM      9  C   UNL     1     191.817 192.049 205.806  1.00  0.00     0.039 C 
ATOM     10  G   UNL     1     191.253 189.534 205.493  1.00  0.00     0.000 G0
ENDBRANCH   6   7
ENDBRANCH   5   6
ENDBRANCH   3   5
ENDBRANCH   1   3
BRANCH   1  11
ATOM     11  C   UNL     1     188.488 188.047 205.023  1.00  0.00     0.087 C 
BRANCH  11  12
ATOM     12  C   UNL     1     188.625 189.334 205.888  1.00  0.00     0.066 C 
BRANCH  12  13
ATOM     13  C   UNL     1     190.044 189.494 206.418  1.00  0.00     0.140 C 
ATOM     14  O   UNL     1     190.221 189.618 207.622  1.00  0.00    -0.299 OA
BRANCH  13  15
ATOM     15  C   UNL     1     191.248 189.529 205.497  1.00  0.00     0.106 CG0
ATOM     16  G   UNL     1     191.426 190.912 204.895  1.00  0.00     0.000 G0
ENDBRANCH  13  15
ENDBRANCH  12  13
BRANCH  12  17
ATOM     17  C   UNL     1     187.561 189.386 207.027  1.00  0.00    -0.006 C 
ATOM     18  C   UNL     1     186.429 190.401 206.785  1.00  0.00     0.008 C 
ATOM     19  C   UNL     1     186.974 187.996 207.314  1.00  0.00     0.008 C 
ENDBRANCH  12  17
ENDBRANCH  11  12
ENDBRANCH   1  11
TORSDOF 1
ENDMDL
