MODEL 1
REMARK VINA RESULT:     2.092      0.000      0.000
REMARK INTER + INTRA:           2.730
REMARK INTER:                   3.192
REMARK INTRA:                  -0.462
REMARK UNBOUND:                -0.462
REMARK SMILES OC[C@H]1O[C@@H](O[C@@]2(CO)O[C@H](CO)[C@H](O)[C@@H]2O)[C@H](O)[C@H](O)[C@@H]1O
REMARK SMILES IDX 6 1 5 2 3 3 22 4 4 5 20 6 18 7 2 8 1 9 23 11 21 13 19 15
REMARK SMILES IDX 7 17 16 18 10 19 14 20 11 21 8 22 9 23 17 25 15 27 12 29
REMARK SMILES IDX 13 30
REMARK H PARENT 1 10 23 12 21 14 19 16 9 24 17 26 15 28 13 31
REMARK Flexibility Score: inf
ROOT
ATOM      1  O   UNL     1     -30.673  37.616  -4.519  1.00  0.00    -0.313 OA
ENDROOT
BRANCH   1   2
ATOM      2  C   UNL     1     -31.810  38.371  -5.006  1.00  0.00     0.285 C 
ATOM      3  C   UNL     1     -33.000  40.444  -5.467  1.00  0.00     0.178 C 
ATOM      4  C   UNL     1     -33.663  39.590  -6.598  1.00  0.00     0.177 C 
ATOM      5  O   UNL     1     -31.914  39.766  -4.738  1.00  0.00    -0.341 OA
ATOM      6  C   UNL     1     -34.086  38.195  -6.077  1.00  0.00     0.179 C 
ATOM      7  C   UNL     1     -33.206  37.750  -4.849  1.00  0.00     0.202 C 
BRANCH   3   8
ATOM      8  C   UNL     1     -34.125  41.024  -4.493  1.00  0.00     0.191 C 
BRANCH   8   9
ATOM      9  O   UNL     1     -33.923  40.757  -3.110  1.00  0.00    -0.394 OA
ATOM     10  H   UNL     1     -34.686  41.122  -2.610  1.00  0.00     0.210 HD
ENDBRANCH   8   9
ENDBRANCH   3   8
BRANCH   4  11
ATOM     11  O   UNL     1     -32.757  39.447  -7.672  1.00  0.00    -0.387 OA
ATOM     12  H   UNL     1     -33.262  39.137  -8.465  1.00  0.00     0.211 HD
ENDBRANCH   4  11
BRANCH   6  13
ATOM     13  O   UNL     1     -34.125  37.259  -7.153  1.00  0.00    -0.387 OA
ATOM     14  H   UNL     1     -34.742  37.683  -7.840  1.00  0.00     0.211 HD
ENDBRANCH   6  13
BRANCH   7  15
ATOM     15  O   UNL     1     -33.271  36.388  -4.551  1.00  0.00    -0.385 OA
ATOM     16  H   UNL     1     -33.054  36.346  -3.579  1.00  0.00     0.211 HD
ENDBRANCH   7  15
ENDBRANCH   1   2
BRANCH   1  17
ATOM     17  C   UNL     1     -30.228  37.461  -3.150  1.00  0.00     0.224 C 
ATOM     18  C   UNL     1     -30.585  36.078  -2.519  1.00  0.00     0.208 C 
ATOM     19  O   UNL     1     -30.946  38.438  -2.366  1.00  0.00    -0.337 OA
ATOM     20  C   UNL     1     -31.384  36.425  -1.283  1.00  0.00     0.180 C 
ATOM     21  C   UNL     1     -31.990  37.748  -1.700  1.00  0.00     0.179 C 
BRANCH  17  22
ATOM     22  C   UNL     1     -28.722  37.844  -3.055  1.00  0.00     0.225 C 
BRANCH  22  23
ATOM     23  O   UNL     1     -28.010  37.458  -4.196  1.00  0.00    -0.391 OA
ATOM     24  H   UNL     1     -28.605  37.534  -4.976  1.00  0.00     0.210 HD
ENDBRANCH  22  23
ENDBRANCH  17  22
BRANCH  18  25
ATOM     25  O   UNL     1     -29.536  35.181  -2.271  1.00  0.00    -0.385 OA
ATOM     26  H   UNL     1     -28.679  35.680  -2.309  1.00  0.00     0.211 HD
ENDBRANCH  18  25
BRANCH  20  27
ATOM     27  O   UNL     1     -30.552  36.603  -0.151  1.00  0.00    -0.387 OA
ATOM     28  H   UNL     1     -29.617  36.605  -0.490  1.00  0.00     0.211 HD
ENDBRANCH  20  27
BRANCH  21  29
ATOM     29  C   UNL     1     -32.602  38.534  -0.509  1.00  0.00     0.191 C 
BRANCH  29  30
ATOM     30  O   UNL     1     -33.883  38.025  -0.209  1.00  0.00    -0.394 OA
ATOM     31  H   UNL     1     -33.931  37.122  -0.617  1.00  0.00     0.210 HD
ENDBRANCH  29  30
ENDBRANCH  21  29
ENDBRANCH   1  17
TORSDOF 13
ENDMDL
MODEL 2
REMARK VINA RESULT:     2.100      1.516      5.422
REMARK INTER + INTRA:           2.743
REMARK INTER:                   3.109
REMARK INTRA:                  -0.366
REMARK UNBOUND:                -0.462
REMARK SMILES OC[C@H]1O[C@@H](O[C@@]2(CO)O[C@H](CO)[C@H](O)[C@@H]2O)[C@H](O)[C@H](O)[C@@H]1O
REMARK SMILES IDX 6 1 5 2 3 3 22 4 4 5 20 6 18 7 2 8 1 9 23 11 21 13 19 15
REMARK SMILES IDX 7 17 16 18 10 19 14 20 11 21 8 22 9 23 17 25 15 27 12 29
REMARK SMILES IDX 13 30
REMARK H PARENT 1 10 23 12 21 14 19 16 9 24 17 26 15 28 13 31
REMARK Flexibility Score: inf
ROOT
ATOM      1  O   UNL     1     -33.075  37.531  -4.859  1.00  0.00    -0.313 OA
ENDROOT
BRANCH   1   2
ATOM      2  C   UNL     1     -32.297  37.279  -3.663  1.00  0.00     0.285 C 
ATOM      3  C   UNL     1     -30.204  37.130  -2.427  1.00  0.00     0.178 C 
ATOM      4  C   UNL     1     -31.119  37.481  -1.208  1.00  0.00     0.177 C 
ATOM      5  O   UNL     1     -30.879  37.172  -3.736  1.00  0.00    -0.341 OA
ATOM      6  C   UNL     1     -32.424  36.651  -1.224  1.00  0.00     0.179 C 
ATOM      7  C   UNL     1     -32.806  36.208  -2.686  1.00  0.00     0.202 C 
BRANCH   3   8
ATOM      8  C   UNL     1     -29.458  35.742  -2.165  1.00  0.00     0.191 C 
BRANCH   8   9
ATOM      9  O   UNL     1     -29.174  34.979  -3.332  1.00  0.00    -0.394 OA
ATOM     10  H   UNL     1     -28.506  35.465  -3.865  1.00  0.00     0.210 HD
ENDBRANCH   8   9
ENDBRANCH   3   8
BRANCH   4  11
ATOM     11  O   UNL     1     -31.425  38.860  -1.232  1.00  0.00    -0.387 OA
ATOM     12  H   UNL     1     -30.783  39.310  -1.835  1.00  0.00     0.211 HD
ENDBRANCH   4  11
BRANCH   6  13
ATOM     13  O   UNL     1     -33.457  37.343  -0.523  1.00  0.00    -0.387 OA
ATOM     14  H   UNL     1     -33.324  38.320  -0.770  1.00  0.00     0.211 HD
ENDBRANCH   6  13
BRANCH   7  15
ATOM     15  O   UNL     1     -34.124  35.778  -2.838  1.00  0.00    -0.385 OA
ATOM     16  H   UNL     1     -34.588  36.142  -2.033  1.00  0.00     0.211 HD
ENDBRANCH   7  15
ENDBRANCH   1   2
BRANCH   1  17
ATOM     17  C   UNL     1     -33.237  38.784  -5.566  1.00  0.00     0.224 C 
ATOM     18  C   UNL     1     -31.919  39.611  -5.704  1.00  0.00     0.208 C 
ATOM     19  O   UNL     1     -34.122  39.601  -4.770  1.00  0.00    -0.337 OA
ATOM     20  C   UNL     1     -32.249  40.947  -5.076  1.00  0.00     0.180 C 
ATOM     21  C   UNL     1     -33.312  40.538  -4.080  1.00  0.00     0.179 C 
BRANCH  17  22
ATOM     22  C   UNL     1     -33.976  38.521  -6.910  1.00  0.00     0.225 C 
BRANCH  22  23
ATOM     23  O   UNL     1     -33.463  39.299  -7.953  1.00  0.00    -0.391 OA
ATOM     24  H   UNL     1     -32.523  39.511  -7.752  1.00  0.00     0.210 HD
ENDBRANCH  22  23
ENDBRANCH  17  22
BRANCH  18  25
ATOM     25  O   UNL     1     -31.344  39.720  -6.977  1.00  0.00    -0.385 OA
ATOM     26  H   UNL     1     -31.330  38.820  -7.395  1.00  0.00     0.211 HD
ENDBRANCH  18  25
BRANCH  20  27
ATOM     27  O   UNL     1     -32.787  41.855  -6.020  1.00  0.00    -0.387 OA
ATOM     28  H   UNL     1     -33.007  42.683  -5.515  1.00  0.00     0.211 HD
ENDBRANCH  20  27
BRANCH  21  29
ATOM     29  C   UNL     1     -34.100  41.747  -3.507  1.00  0.00     0.191 C 
BRANCH  29  30
ATOM     30  O   UNL     1     -34.018  41.745  -2.099  1.00  0.00    -0.394 OA
ATOM     31  H   UNL     1     -33.826  42.679  -1.824  1.00  0.00     0.210 HD
ENDBRANCH  29  30
ENDBRANCH  21  29
ENDBRANCH   1  17
TORSDOF 13
ENDMDL
MODEL 3
REMARK VINA RESULT:     4.023      1.625      5.351
REMARK INTER + INTRA:           5.677
REMARK INTER:                   5.828
REMARK INTRA:                  -0.150
REMARK UNBOUND:                -0.462
REMARK SMILES OC[C@H]1O[C@@H](O[C@@]2(CO)O[C@H](CO)[C@H](O)[C@@H]2O)[C@H](O)[C@H](O)[C@@H]1O
REMARK SMILES IDX 6 1 5 2 3 3 22 4 4 5 20 6 18 7 2 8 1 9 23 11 21 13 19 15
REMARK SMILES IDX 7 17 16 18 10 19 14 20 11 21 8 22 9 23 17 25 15 27 12 29
REMARK SMILES IDX 13 30
REMARK H PARENT 1 10 23 12 21 14 19 16 9 24 17 26 15 28 13 31
REMARK Flexibility Score: inf
ROOT
ATOM      1  O   UNL     1     -32.813  37.992  -5.820  1.00  0.00    -0.313 OA
ENDROOT
BRANCH   1   2
ATOM      2  C   UNL     1     -32.915  37.668  -4.412  1.00  0.00     0.285 C 
ATOM      3  C   UNL     1     -34.125  37.506  -2.305  1.00  0.00     0.178 C 
ATOM      4  C   UNL     1     -33.113  36.344  -2.032  1.00  0.00     0.177 C 
ATOM      5  O   UNL     1     -34.050  38.083  -3.658  1.00  0.00    -0.341 OA
ATOM      6  C   UNL     1     -31.671  36.750  -2.420  1.00  0.00     0.179 C 
ATOM      7  C   UNL     1     -31.667  37.859  -3.537  1.00  0.00     0.202 C 
BRANCH   3   8
ATOM      8  C   UNL     1     -34.006  38.611  -1.159  1.00  0.00     0.191 C 
BRANCH   8   9
ATOM      9  O   UNL     1     -33.635  38.116   0.123  1.00  0.00    -0.394 OA
ATOM     10  H   UNL     1     -33.868  37.162   0.165  1.00  0.00     0.210 HD
ENDBRANCH   8   9
ENDBRANCH   3   8
BRANCH   4  11
ATOM     11  O   UNL     1     -33.503  35.199  -2.761  1.00  0.00    -0.387 OA
ATOM     12  H   UNL     1     -33.827  34.519  -2.119  1.00  0.00     0.211 HD
ENDBRANCH   4  11
BRANCH   6  13
ATOM     13  O   UNL     1     -30.900  35.589  -2.730  1.00  0.00    -0.387 OA
ATOM     14  H   UNL     1     -30.133  35.605  -2.064  1.00  0.00     0.211 HD
ENDBRANCH   6  13
BRANCH   7  15
ATOM     15  O   UNL     1     -30.445  38.021  -4.191  1.00  0.00    -0.385 OA
ATOM     16  H   UNL     1     -30.019  37.121  -4.128  1.00  0.00     0.211 HD
ENDBRANCH   7  15
ENDBRANCH   1   2
BRANCH   1  17
ATOM     17  C   UNL     1     -33.067  39.267  -6.460  1.00  0.00     0.224 C 
ATOM     18  C   UNL     1     -31.811  40.190  -6.556  1.00  0.00     0.208 C 
ATOM     19  O   UNL     1     -34.003  39.976  -5.619  1.00  0.00    -0.337 OA
ATOM     20  C   UNL     1     -32.231  41.465  -5.857  1.00  0.00     0.180 C 
ATOM     21  C   UNL     1     -33.256  40.930  -4.882  1.00  0.00     0.179 C 
BRANCH  17  22
ATOM     22  C   UNL     1     -33.793  39.023  -7.815  1.00  0.00     0.225 C 
BRANCH  22  23
ATOM     23  O   UNL     1     -34.088  37.670  -8.016  1.00  0.00    -0.391 OA
ATOM     24  H   UNL     1     -33.908  37.183  -7.180  1.00  0.00     0.210 HD
ENDBRANCH  22  23
ENDBRANCH  17  22
BRANCH  18  25
ATOM     25  O   UNL     1     -31.253  40.408  -7.823  1.00  0.00    -0.385 OA
ATOM     26  H   UNL     1     -31.268  39.551  -8.325  1.00  0.00     0.211 HD
ENDBRANCH  18  25
BRANCH  20  27
ATOM     27  O   UNL     1     -32.836  42.381  -6.751  1.00  0.00    -0.387 OA
ATOM     28  H   UNL     1     -32.099  42.764  -7.298  1.00  0.00     0.211 HD
ENDBRANCH  20  27
BRANCH  21  29
ATOM     29  C   UNL     1     -34.125  42.048  -4.244  1.00  0.00     0.191 C 
BRANCH  29  30
ATOM     30  O   UNL     1     -34.056  41.961  -2.838  1.00  0.00    -0.394 OA
ATOM     31  H   UNL     1     -34.676  41.235  -2.568  1.00  0.00     0.210 HD
ENDBRANCH  29  30
ENDBRANCH  21  29
ENDBRANCH   1  17
TORSDOF 13
ENDMDL
MODEL 4
REMARK VINA RESULT:     4.401      1.382      3.811
REMARK INTER + INTRA:           6.255
REMARK INTER:                   5.720
REMARK INTRA:                   0.535
REMARK UNBOUND:                -0.462
REMARK SMILES OC[C@H]1O[C@@H](O[C@@]2(CO)O[C@H](CO)[C@H](O)[C@@H]2O)[C@H](O)[C@H](O)[C@@H]1O
REMARK SMILES IDX 6 1 5 2 3 3 22 4 4 5 20 6 18 7 2 8 1 9 23 11 21 13 19 15
REMARK SMILES IDX 7 17 16 18 10 19 14 20 11 21 8 22 9 23 17 25 15 27 12 29
REMARK SMILES IDX 13 30
REMARK H PARENT 1 10 23 12 21 14 19 16 9 24 17 26 15 28 13 31
REMARK Flexibility Score: inf
ROOT
ATOM      1  O   UNL     1     -33.212  36.690  -3.721  1.00  0.00    -0.313 OA
ENDROOT
BRANCH   1   2
ATOM      2  C   UNL     1     -33.197  37.773  -4.683  1.00  0.00     0.285 C 
ATOM      3  C   UNL     1     -34.122  39.026  -6.554  1.00  0.00     0.178 C 
ATOM      4  C   UNL     1     -33.370  40.221  -5.880  1.00  0.00     0.177 C 
ATOM      5  O   UNL     1     -34.100  37.771  -5.784  1.00  0.00    -0.341 OA
ATOM      6  C   UNL     1     -31.938  39.817  -5.454  1.00  0.00     0.179 C 
ATOM      7  C   UNL     1     -31.833  38.270  -5.186  1.00  0.00     0.202 C 
BRANCH   3   8
ATOM      8  C   UNL     1     -33.607  38.836  -8.054  1.00  0.00     0.191 C 
BRANCH   8   9
ATOM      9  O   UNL     1     -32.399  39.518  -8.369  1.00  0.00    -0.394 OA
ATOM     10  H   UNL     1     -32.151  39.297  -9.294  1.00  0.00     0.210 HD
ENDBRANCH   8   9
ENDBRANCH   3   8
BRANCH   4  11
ATOM     11  O   UNL     1     -34.100  40.663  -4.755  1.00  0.00    -0.387 OA
ATOM     12  H   UNL     1     -33.473  41.110  -4.134  1.00  0.00     0.211 HD
ENDBRANCH   4  11
BRANCH   6  13
ATOM     13  O   UNL     1     -31.495  40.640  -4.375  1.00  0.00    -0.387 OA
ATOM     14  H   UNL     1     -30.994  41.403  -4.823  1.00  0.00     0.211 HD
ENDBRANCH   6  13
BRANCH   7  15
ATOM     15  O   UNL     1     -30.704  37.880  -4.465  1.00  0.00    -0.385 OA
ATOM     16  H   UNL     1     -31.079  37.397  -3.677  1.00  0.00     0.211 HD
ENDBRANCH   7  15
ENDBRANCH   1   2
BRANCH   1  17
ATOM     17  C   UNL     1     -32.871  36.744  -2.314  1.00  0.00     0.224 C 
ATOM     18  C   UNL     1     -32.259  38.108  -1.863  1.00  0.00     0.208 C 
ATOM     19  O   UNL     1     -31.831  35.766  -2.099  1.00  0.00    -0.337 OA
ATOM     20  C   UNL     1     -30.922  37.737  -1.259  1.00  0.00     0.180 C 
ATOM     21  C   UNL     1     -30.604  36.474  -2.030  1.00  0.00     0.179 C 
BRANCH  17  22
ATOM     22  C   UNL     1     -34.094  36.276  -1.473  1.00  0.00     0.225 C 
BRANCH  22  23
ATOM     23  O   UNL     1     -33.775  35.199  -0.639  1.00  0.00    -0.391 OA
ATOM     24  H   UNL     1     -32.800  35.184  -0.506  1.00  0.00     0.210 HD
ENDBRANCH  22  23
ENDBRANCH  17  22
BRANCH  18  25
ATOM     25  O   UNL     1     -33.034  38.932  -1.034  1.00  0.00    -0.385 OA
ATOM     26  H   UNL     1     -33.912  39.082  -1.473  1.00  0.00     0.211 HD
ENDBRANCH  18  25
BRANCH  20  27
ATOM     27  O   UNL     1     -31.029  37.452   0.124  1.00  0.00    -0.387 OA
ATOM     28  H   UNL     1     -31.519  38.217   0.528  1.00  0.00     0.211 HD
ENDBRANCH  20  27
BRANCH  21  29
ATOM     29  C   UNL     1     -29.444  35.657  -1.400  1.00  0.00     0.191 C 
BRANCH  29  30
ATOM     30  O   UNL     1     -28.688  35.039  -2.418  1.00  0.00    -0.394 OA
ATOM     31  H   UNL     1     -28.769  35.617  -3.221  1.00  0.00     0.210 HD
ENDBRANCH  29  30
ENDBRANCH  21  29
ENDBRANCH   1  17
TORSDOF 13
ENDMDL
