MODEL 1
REMARK VINA RESULT:    -3.827      0.000      0.000
REMARK INTER + INTRA:          -8.110
REMARK INTER:                  -6.960
REMARK INTRA:                  -1.150
REMARK UNBOUND:                -1.150
REMARK SMILES CCCCCCCCCCCCCCCC(=O)[O-]
REMARK SMILES IDX 9 1 10 2 11 3 12 4 13 5 14 6 15 7 16 8 17 9 18 10 8 11 7 12
REMARK SMILES IDX 6 13 5 14 4 15 3 16 2 17 1 18
REMARK H PARENT
REMARK Flexibility Score: inf
ROOT
ATOM      1  C   UNL     1      12.464 -11.063 -28.694  1.00  0.00     0.000 C 
ENDROOT
BRANCH   1   2
ATOM      2  C   UNL     1      12.070  -9.827 -27.865  1.00  0.00     0.000 C 
BRANCH   2   3
ATOM      3  C   UNL     1      13.153  -8.737 -27.883  1.00  0.00     0.000 C 
BRANCH   3   4
ATOM      4  C   UNL     1      12.707  -7.474 -28.637  1.00  0.00     0.000 C 
BRANCH   4   5
ATOM      5  C   UNL     1      13.584  -6.273 -28.263  1.00  0.00     0.000 C 
BRANCH   5   6
ATOM      6  C   UNL     1      13.079  -4.990 -28.940  1.00  0.00     0.006 C 
BRANCH   6   7
ATOM      7  C   UNL     1      14.207  -4.219 -29.635  1.00  0.00     0.053 C 
BRANCH   7   8
ATOM      8  C   UNL     1      14.131  -2.750 -29.354  1.00  0.00     0.041 C 
ATOM      9  O   UNL     1      13.091  -2.101 -29.643  1.00  0.00    -0.550 OA
ATOM     10  O   UNL     1      15.223  -2.089 -28.802  1.00  0.00    -0.550 OA
ENDBRANCH   7   8
ENDBRANCH   6   7
ENDBRANCH   5   6
ENDBRANCH   4   5
ENDBRANCH   3   4
ENDBRANCH   2   3
ENDBRANCH   1   2
BRANCH   1  11
ATOM     11  C   UNL     1      11.250 -11.752 -29.337  1.00  0.00     0.000 C 
BRANCH  11  12
ATOM     12  C   UNL     1      10.383 -12.499 -28.313  1.00  0.00    -0.000 C 
BRANCH  12  13
ATOM     13  C   UNL     1      11.210 -13.545 -27.553  1.00  0.00    -0.000 C 
BRANCH  13  14
ATOM     14  C   UNL     1      11.304 -13.195 -26.063  1.00  0.00    -0.000 C 
BRANCH  14  15
ATOM     15  C   UNL     1      12.762 -12.991 -25.637  1.00  0.00    -0.000 C 
BRANCH  15  16
ATOM     16  C   UNL     1      13.721 -13.731 -26.582  1.00  0.00    -0.000 C 
BRANCH  16  17
ATOM     17  C   UNL     1      14.860 -12.834 -27.090  1.00  0.00    -0.003 C 
ATOM     18  C   UNL     1      14.958 -11.513 -26.327  1.00  0.00     0.004 C 
ENDBRANCH  16  17
ENDBRANCH  15  16
ENDBRANCH  14  15
ENDBRANCH  13  14
ENDBRANCH  12  13
ENDBRANCH  11  12
ENDBRANCH   1  11
TORSDOF 14
ENDMDL
MODEL 2
REMARK VINA RESULT:    -3.795      0.869      2.630
REMARK INTER + INTRA:          -8.050
REMARK INTER:                  -6.554
REMARK INTRA:                  -1.496
REMARK UNBOUND:                -1.150
REMARK SMILES CCCCCCCCCCCCCCCC(=O)[O-]
REMARK SMILES IDX 9 1 10 2 11 3 12 4 13 5 14 6 15 7 16 8 17 9 18 10 8 11 7 12
REMARK SMILES IDX 6 13 5 14 4 15 3 16 2 17 1 18
REMARK H PARENT
REMARK Flexibility Score: inf
ROOT
ATOM      1  C   UNL     1      13.955 -10.504 -27.509  1.00  0.00     0.000 C 
ENDROOT
BRANCH   1   2
ATOM      2  C   UNL     1      12.723  -9.647 -27.169  1.00  0.00     0.000 C 
BRANCH   2   3
ATOM      3  C   UNL     1      12.437  -8.577 -28.235  1.00  0.00     0.000 C 
BRANCH   3   4
ATOM      4  C   UNL     1      13.542  -7.512 -28.314  1.00  0.00     0.000 C 
BRANCH   4   5
ATOM      5  C   UNL     1      13.030  -6.239 -28.997  1.00  0.00     0.000 C 
BRANCH   5   6
ATOM      6  C   UNL     1      14.055  -5.101 -28.881  1.00  0.00     0.006 C 
BRANCH   6   7
ATOM      7  C   UNL     1      13.394  -3.717 -28.922  1.00  0.00     0.053 C 
BRANCH   7   8
ATOM      8  C   UNL     1      14.315  -2.678 -29.480  1.00  0.00     0.041 C 
ATOM      9  O   UNL     1      15.065  -2.017 -28.714  1.00  0.00    -0.550 OA
ATOM     10  O   UNL     1      14.322  -2.414 -30.845  1.00  0.00    -0.550 OA
ENDBRANCH   7   8
ENDBRANCH   6   7
ENDBRANCH   5   6
ENDBRANCH   4   5
ENDBRANCH   3   4
ENDBRANCH   2   3
ENDBRANCH   1   2
BRANCH   1  11
ATOM     11  C   UNL     1      14.320 -11.483 -26.381  1.00  0.00     0.000 C 
BRANCH  11  12
ATOM     12  C   UNL     1      14.700 -12.875 -26.908  1.00  0.00    -0.000 C 
BRANCH  12  13
ATOM     13  C   UNL     1      13.505 -13.835 -26.833  1.00  0.00    -0.000 C 
BRANCH  13  14
ATOM     14  C   UNL     1      12.517 -13.398 -25.745  1.00  0.00    -0.000 C 
BRANCH  14  15
ATOM     15  C   UNL     1      11.109 -13.213 -26.322  1.00  0.00    -0.000 C 
BRANCH  15  16
ATOM     16  C   UNL     1      11.098 -13.467 -27.837  1.00  0.00    -0.000 C 
BRANCH  16  17
ATOM     17  C   UNL     1      10.465 -12.311 -28.627  1.00  0.00    -0.003 C 
ATOM     18  C   UNL     1      11.362 -11.806 -29.756  1.00  0.00     0.004 C 
ENDBRANCH  16  17
ENDBRANCH  15  16
ENDBRANCH  14  15
ENDBRANCH  13  14
ENDBRANCH  12  13
ENDBRANCH  11  12
ENDBRANCH   1  11
TORSDOF 14
ENDMDL
MODEL 3
REMARK VINA RESULT:    -3.739      1.121      1.720
REMARK INTER + INTRA:          -7.948
REMARK INTER:                  -6.730
REMARK INTRA:                  -1.218
REMARK UNBOUND:                -1.150
REMARK SMILES CCCCCCCCCCCCCCCC(=O)[O-]
REMARK SMILES IDX 9 1 10 2 11 3 12 4 13 5 14 6 15 7 16 8 17 9 18 10 8 11 7 12
REMARK SMILES IDX 6 13 5 14 4 15 3 16 2 17 1 18
REMARK H PARENT
REMARK Flexibility Score: inf
ROOT
ATOM      1  C   UNL     1      11.860  -9.818 -26.486  1.00  0.00     0.000 C 
ENDROOT
BRANCH   1   2
ATOM      2  C   UNL     1      12.309  -9.833 -27.959  1.00  0.00     0.000 C 
BRANCH   2   3
ATOM      3  C   UNL     1      13.415  -8.807 -28.248  1.00  0.00     0.000 C 
BRANCH   3   4
ATOM      4  C   UNL     1      12.909  -7.358 -28.176  1.00  0.00     0.000 C 
BRANCH   4   5
ATOM      5  C   UNL     1      13.853  -6.409 -28.924  1.00  0.00     0.000 C 
BRANCH   5   6
ATOM      6  C   UNL     1      13.789  -4.991 -28.337  1.00  0.00     0.006 C 
BRANCH   6   7
ATOM      7  C   UNL     1      13.241  -3.971 -29.343  1.00  0.00     0.053 C 
BRANCH   7   8
ATOM      8  C   UNL     1      14.196  -2.837 -29.559  1.00  0.00     0.041 C 
ATOM      9  O   UNL     1      14.831  -2.348 -28.588  1.00  0.00    -0.550 OA
ATOM     10  O   UNL     1      14.359  -2.298 -30.830  1.00  0.00    -0.550 OA
ENDBRANCH   7   8
ENDBRANCH   6   7
ENDBRANCH   5   6
ENDBRANCH   4   5
ENDBRANCH   3   4
ENDBRANCH   2   3
ENDBRANCH   1   2
BRANCH   1  11
ATOM     11  C   UNL     1      10.931 -10.994 -26.141  1.00  0.00     0.000 C 
BRANCH  11  12
ATOM     12  C   UNL     1      11.420 -11.795 -24.925  1.00  0.00    -0.000 C 
BRANCH  12  13
ATOM     13  C   UNL     1      11.481 -13.294 -25.244  1.00  0.00    -0.000 C 
BRANCH  13  14
ATOM     14  C   UNL     1      11.166 -13.555 -26.722  1.00  0.00    -0.000 C 
BRANCH  14  15
ATOM     15  C   UNL     1      12.452 -13.781 -27.527  1.00  0.00    -0.000 C 
BRANCH  15  16
ATOM     16  C   UNL     1      13.682 -13.793 -26.608  1.00  0.00    -0.000 C 
BRANCH  16  17
ATOM     17  C   UNL     1      14.821 -12.905 -27.131  1.00  0.00    -0.003 C 
ATOM     18  C   UNL     1      14.909 -11.565 -26.400  1.00  0.00     0.004 C 
ENDBRANCH  16  17
ENDBRANCH  15  16
ENDBRANCH  14  15
ENDBRANCH  13  14
ENDBRANCH  12  13
ENDBRANCH  11  12
ENDBRANCH   1  11
TORSDOF 14
ENDMDL
MODEL 4
REMARK VINA RESULT:    -3.731      3.521      7.969
REMARK INTER + INTRA:          -7.935
REMARK INTER:                  -6.954
REMARK INTRA:                  -0.981
REMARK UNBOUND:                -1.150
REMARK SMILES CCCCCCCCCCCCCCCC(=O)[O-]
REMARK SMILES IDX 9 1 10 2 11 3 12 4 13 5 14 6 15 7 16 8 17 9 18 10 8 11 7 12
REMARK SMILES IDX 6 13 5 14 4 15 3 16 2 17 1 18
REMARK H PARENT
REMARK Flexibility Score: inf
ROOT
ATOM      1  C   UNL     1      12.363 -11.192 -28.974  1.00  0.00     0.000 C 
ENDROOT
BRANCH   1   2
ATOM      2  C   UNL     1      11.055 -11.810 -29.500  1.00  0.00     0.000 C 
BRANCH   2   3
ATOM      3  C   UNL     1      10.277 -12.559 -28.406  1.00  0.00     0.000 C 
BRANCH   3   4
ATOM      4  C   UNL     1      11.131 -13.622 -27.697  1.00  0.00     0.000 C 
BRANCH   4   5
ATOM      5  C   UNL     1      11.146 -13.393 -26.181  1.00  0.00     0.000 C 
BRANCH   5   6
ATOM      6  C   UNL     1      12.579 -13.191 -25.668  1.00  0.00     0.006 C 
BRANCH   6   7
ATOM      7  C   UNL     1      13.629 -13.700 -26.664  1.00  0.00     0.053 C 
BRANCH   7   8
ATOM      8  C   UNL     1      14.790 -12.760 -26.775  1.00  0.00     0.041 C 
ATOM      9  O   UNL     1      15.882 -13.156 -27.261  1.00  0.00    -0.550 OA
ATOM     10  O   UNL     1      14.676 -11.455 -26.310  1.00  0.00    -0.550 OA
ENDBRANCH   7   8
ENDBRANCH   6   7
ENDBRANCH   5   6
ENDBRANCH   4   5
ENDBRANCH   3   4
ENDBRANCH   2   3
ENDBRANCH   1   2
BRANCH   1  11
ATOM     11  C   UNL     1      12.118 -10.125 -27.895  1.00  0.00     0.000 C 
BRANCH  11  12
ATOM     12  C   UNL     1      13.185  -9.020 -27.904  1.00  0.00    -0.000 C 
BRANCH  12  13
ATOM     13  C   UNL     1      12.576  -7.674 -28.318  1.00  0.00    -0.000 C 
BRANCH  13  14
ATOM     14  C   UNL     1      13.670  -6.659 -28.669  1.00  0.00    -0.000 C 
BRANCH  14  15
ATOM     15  C   UNL     1      13.062  -5.312 -29.078  1.00  0.00    -0.000 C 
BRANCH  15  16
ATOM     16  C   UNL     1      14.044  -4.161 -28.809  1.00  0.00    -0.000 C 
BRANCH  16  17
ATOM     17  C   UNL     1      13.602  -2.843 -29.463  1.00  0.00    -0.003 C 
ATOM     18  C   UNL     1      14.778  -2.021 -29.990  1.00  0.00     0.004 C 
ENDBRANCH  16  17
ENDBRANCH  15  16
ENDBRANCH  14  15
ENDBRANCH  13  14
ENDBRANCH  12  13
ENDBRANCH  11  12
ENDBRANCH   1  11
TORSDOF 14
ENDMDL
MODEL 5
REMARK VINA RESULT:    -3.658      3.617      7.940
REMARK INTER + INTRA:          -7.801
REMARK INTER:                  -6.679
REMARK INTRA:                  -1.122
REMARK UNBOUND:                -1.150
REMARK SMILES CCCCCCCCCCCCCCCC(=O)[O-]
REMARK SMILES IDX 9 1 10 2 11 3 12 4 13 5 14 6 15 7 16 8 17 9 18 10 8 11 7 12
REMARK SMILES IDX 6 13 5 14 4 15 3 16 2 17 1 18
REMARK H PARENT
REMARK Flexibility Score: inf
ROOT
ATOM      1  C   UNL     1      14.089 -10.638 -26.634  1.00  0.00     0.000 C 
ENDROOT
BRANCH   1   2
ATOM      2  C   UNL     1      14.983 -11.883 -26.773  1.00  0.00     0.000 C 
BRANCH   2   3
ATOM      3  C   UNL     1      14.284 -13.029 -27.522  1.00  0.00     0.000 C 
BRANCH   3   4
ATOM      4  C   UNL     1      13.351 -13.845 -26.615  1.00  0.00     0.000 C 
BRANCH   4   5
ATOM      5  C   UNL     1      11.917 -13.844 -27.159  1.00  0.00     0.000 C 
BRANCH   5   6
ATOM      6  C   UNL     1      10.944 -13.224 -26.146  1.00  0.00     0.006 C 
BRANCH   6   7
ATOM      7  C   UNL     1      11.670 -12.624 -24.935  1.00  0.00     0.053 C 
BRANCH   7   8
ATOM      8  C   UNL     1      11.061 -11.323 -24.511  1.00  0.00     0.041 C 
ATOM      9  O   UNL     1      10.815 -11.104 -23.296  1.00  0.00    -0.550 OA
ATOM     10  O   UNL     1      10.735 -10.364 -25.463  1.00  0.00    -0.550 OA
ENDBRANCH   7   8
ENDBRANCH   6   7
ENDBRANCH   5   6
ENDBRANCH   4   5
ENDBRANCH   3   4
ENDBRANCH   2   3
ENDBRANCH   1   2
BRANCH   1  11
ATOM     11  C   UNL     1      13.166 -10.437 -27.847  1.00  0.00     0.000 C 
BRANCH  11  12
ATOM     12  C   UNL     1      12.589  -9.015 -27.920  1.00  0.00    -0.000 C 
BRANCH  12  13
ATOM     13  C   UNL     1      13.627  -8.029 -28.471  1.00  0.00    -0.000 C 
BRANCH  13  14
ATOM     14  C   UNL     1      13.259  -6.585 -28.111  1.00  0.00    -0.000 C 
BRANCH  14  15
ATOM     15  C   UNL     1      13.985  -5.588 -29.022  1.00  0.00    -0.000 C 
BRANCH  15  16
ATOM     16  C   UNL     1      13.272  -4.227 -29.028  1.00  0.00    -0.000 C 
BRANCH  16  17
ATOM     17  C   UNL     1      13.999  -3.182 -29.888  1.00  0.00    -0.003 C 
ATOM     18  C   UNL     1      14.680  -2.099 -29.051  1.00  0.00     0.004 C 
ENDBRANCH  16  17
ENDBRANCH  15  16
ENDBRANCH  14  15
ENDBRANCH  13  14
ENDBRANCH  12  13
ENDBRANCH  11  12
ENDBRANCH   1  11
TORSDOF 14
ENDMDL
MODEL 6
REMARK VINA RESULT:    -3.640      3.625      7.908
REMARK INTER + INTRA:          -7.768
REMARK INTER:                  -6.872
REMARK INTRA:                  -0.896
REMARK UNBOUND:                -1.150
REMARK SMILES CCCCCCCCCCCCCCCC(=O)[O-]
REMARK SMILES IDX 9 1 10 2 11 3 12 4 13 5 14 6 15 7 16 8 17 9 18 10 8 11 7 12
REMARK SMILES IDX 6 13 5 14 4 15 3 16 2 17 1 18
REMARK H PARENT
REMARK Flexibility Score: inf
ROOT
ATOM      1  C   UNL     1      11.300 -11.066 -27.448  1.00  0.00     0.000 C 
ENDROOT
BRANCH   1   2
ATOM      2  C   UNL     1      11.249 -10.560 -25.995  1.00  0.00     0.000 C 
BRANCH   2   3
ATOM      3  C   UNL     1      11.389 -11.696 -24.970  1.00  0.00     0.000 C 
BRANCH   3   4
ATOM      4  C   UNL     1      11.309 -13.088 -25.617  1.00  0.00     0.000 C 
BRANCH   4   5
ATOM      5  C   UNL     1      12.532 -13.936 -25.247  1.00  0.00     0.000 C 
BRANCH   5   6
ATOM      6  C   UNL     1      13.287 -14.392 -26.504  1.00  0.00     0.006 C 
BRANCH   6   7
ATOM      7  C   UNL     1      13.677 -13.214 -27.406  1.00  0.00     0.053 C 
BRANCH   7   8
ATOM      8  C   UNL     1      14.955 -12.573 -26.960  1.00  0.00     0.041 C 
ATOM      9  O   UNL     1      16.053 -13.166 -27.123  1.00  0.00    -0.550 OA
ATOM     10  O   UNL     1      14.929 -11.332 -26.333  1.00  0.00    -0.550 OA
ENDBRANCH   7   8
ENDBRANCH   6   7
ENDBRANCH   5   6
ENDBRANCH   4   5
ENDBRANCH   3   4
ENDBRANCH   2   3
ENDBRANCH   1   2
BRANCH   1  11
ATOM     11  C   UNL     1      12.168 -10.176 -28.351  1.00  0.00     0.000 C 
BRANCH  11  12
ATOM     12  C   UNL     1      12.892  -9.069 -27.570  1.00  0.00    -0.000 C 
BRANCH  12  13
ATOM     13  C   UNL     1      13.624  -8.114 -28.522  1.00  0.00    -0.000 C 
BRANCH  13  14
ATOM     14  C   UNL     1      13.060  -6.692 -28.415  1.00  0.00    -0.000 C 
BRANCH  14  15
ATOM     15  C   UNL     1      14.009  -5.674 -29.056  1.00  0.00    -0.000 C 
BRANCH  15  16
ATOM     16  C   UNL     1      13.362  -4.282 -29.121  1.00  0.00    -0.000 C 
BRANCH  16  17
ATOM     17  C   UNL     1      14.390  -3.146 -29.019  1.00  0.00    -0.003 C 
ATOM     18  C   UNL     1      14.284  -2.148 -30.173  1.00  0.00     0.004 C 
ENDBRANCH  16  17
ENDBRANCH  15  16
ENDBRANCH  14  15
ENDBRANCH  13  14
ENDBRANCH  12  13
ENDBRANCH  11  12
ENDBRANCH   1  11
TORSDOF 14
ENDMDL
MODEL 7
REMARK VINA RESULT:    -3.452      3.571      7.944
REMARK INTER + INTRA:          -7.427
REMARK INTER:                  -6.668
REMARK INTRA:                  -0.759
REMARK UNBOUND:                -1.150
REMARK SMILES CCCCCCCCCCCCCCCC(=O)[O-]
REMARK SMILES IDX 9 1 10 2 11 3 12 4 13 5 14 6 15 7 16 8 17 9 18 10 8 11 7 12
REMARK SMILES IDX 6 13 5 14 4 15 3 16 2 17 1 18
REMARK H PARENT
REMARK Flexibility Score: inf
ROOT
ATOM      1  C   UNL     1      13.084 -10.958 -26.090  1.00  0.00     0.000 C 
ENDROOT
BRANCH   1   2
ATOM      2  C   UNL     1      14.406 -11.400 -26.743  1.00  0.00     0.000 C 
BRANCH   2   3
ATOM      3  C   UNL     1      14.409 -12.890 -27.118  1.00  0.00     0.000 C 
BRANCH   3   4
ATOM      4  C   UNL     1      13.260 -13.668 -26.457  1.00  0.00     0.000 C 
BRANCH   4   5
ATOM      5  C   UNL     1      12.372 -14.339 -27.512  1.00  0.00     0.000 C 
BRANCH   5   6
ATOM      6  C   UNL     1      10.897 -13.963 -27.309  1.00  0.00     0.006 C 
BRANCH   6   7
ATOM      7  C   UNL     1      10.610 -12.507 -27.696  1.00  0.00     0.053 C 
BRANCH   7   8
ATOM      8  C   UNL     1      10.642 -12.310 -29.180  1.00  0.00     0.041 C 
ATOM      9  O   UNL     1       9.761 -12.837 -29.909  1.00  0.00    -0.550 OA
ATOM     10  O   UNL     1      11.665 -11.571 -29.763  1.00  0.00    -0.550 OA
ENDBRANCH   7   8
ENDBRANCH   6   7
ENDBRANCH   5   6
ENDBRANCH   4   5
ENDBRANCH   3   4
ENDBRANCH   2   3
ENDBRANCH   1   2
BRANCH   1  11
ATOM     11  C   UNL     1      12.335  -9.910 -26.928  1.00  0.00     0.000 C 
BRANCH  11  12
ATOM     12  C   UNL     1      13.269  -9.122 -27.859  1.00  0.00    -0.000 C 
BRANCH  12  13
ATOM     13  C   UNL     1      12.642  -7.779 -28.256  1.00  0.00    -0.000 C 
BRANCH  13  14
ATOM     14  C   UNL     1      13.723  -6.741 -28.581  1.00  0.00    -0.000 C 
BRANCH  14  15
ATOM     15  C   UNL     1      13.098  -5.389 -28.943  1.00  0.00    -0.000 C 
BRANCH  15  16
ATOM     16  C   UNL     1      14.087  -4.520 -29.734  1.00  0.00    -0.000 C 
BRANCH  16  17
ATOM     17  C   UNL     1      14.438  -3.212 -29.008  1.00  0.00    -0.003 C 
ATOM     18  C   UNL     1      13.699  -2.002 -29.579  1.00  0.00     0.004 C 
ENDBRANCH  16  17
ENDBRANCH  15  16
ENDBRANCH  14  15
ENDBRANCH  13  14
ENDBRANCH  12  13
ENDBRANCH  11  12
ENDBRANCH   1  11
TORSDOF 14
ENDMDL
MODEL 8
REMARK VINA RESULT:    -3.313      3.617      7.901
REMARK INTER + INTRA:          -7.173
REMARK INTER:                  -6.413
REMARK INTRA:                  -0.760
REMARK UNBOUND:                -1.150
REMARK SMILES CCCCCCCCCCCCCCCC(=O)[O-]
REMARK SMILES IDX 9 1 10 2 11 3 12 4 13 5 14 6 15 7 16 8 17 9 18 10 8 11 7 12
REMARK SMILES IDX 6 13 5 14 4 15 3 16 2 17 1 18
REMARK H PARENT
REMARK Flexibility Score: inf
ROOT
ATOM      1  C   UNL     1      13.045 -11.520 -28.006  1.00  0.00     0.000 C 
ENDROOT
BRANCH   1   2
ATOM      2  C   UNL     1      11.769 -11.366 -28.853  1.00  0.00     0.000 C 
BRANCH   2   3
ATOM      3  C   UNL     1      10.735 -12.466 -28.567  1.00  0.00     0.000 C 
BRANCH   3   4
ATOM      4  C   UNL     1      11.296 -13.587 -27.679  1.00  0.00     0.000 C 
BRANCH   4   5
ATOM      5  C   UNL     1      10.646 -13.565 -26.290  1.00  0.00     0.000 C 
BRANCH   5   6
ATOM      6  C   UNL     1      11.710 -13.535 -25.184  1.00  0.00     0.006 C 
BRANCH   6   7
ATOM      7  C   UNL     1      12.262 -12.123 -24.949  1.00  0.00     0.053 C 
BRANCH   7   8
ATOM      8  C   UNL     1      11.179 -11.158 -24.576  1.00  0.00     0.041 C 
ATOM      9  O   UNL     1      10.717 -11.144 -23.405  1.00  0.00    -0.550 OA
ATOM     10  O   UNL     1      10.656 -10.296 -25.533  1.00  0.00    -0.550 OA
ENDBRANCH   7   8
ENDBRANCH   6   7
ENDBRANCH   5   6
ENDBRANCH   4   5
ENDBRANCH   3   4
ENDBRANCH   2   3
ENDBRANCH   1   2
BRANCH   1  11
ATOM     11  C   UNL     1      13.498 -10.193 -27.377  1.00  0.00     0.000 C 
BRANCH  11  12
ATOM     12  C   UNL     1      12.718  -8.986 -27.919  1.00  0.00    -0.000 C 
BRANCH  12  13
ATOM     13  C   UNL     1      13.671  -7.928 -28.489  1.00  0.00    -0.000 C 
BRANCH  13  14
ATOM     14  C   UNL     1      12.971  -6.570 -28.619  1.00  0.00    -0.000 C 
BRANCH  14  15
ATOM     15  C   UNL     1      13.975  -5.463 -28.963  1.00  0.00    -0.000 C 
BRANCH  15  16
ATOM     16  C   UNL     1      13.393  -4.076 -28.651  1.00  0.00    -0.000 C 
BRANCH  16  17
ATOM     17  C   UNL     1      13.763  -3.027 -29.711  1.00  0.00    -0.003 C 
ATOM     18  C   UNL     1      14.940  -2.149 -29.287  1.00  0.00     0.004 C 
ENDBRANCH  16  17
ENDBRANCH  15  16
ENDBRANCH  14  15
ENDBRANCH  13  14
ENDBRANCH  12  13
ENDBRANCH  11  12
ENDBRANCH   1  11
TORSDOF 14
ENDMDL
MODEL 9
REMARK VINA RESULT:    -3.076      4.186      8.491
REMARK INTER + INTRA:          -6.743
REMARK INTER:                  -5.771
REMARK INTRA:                  -0.971
REMARK UNBOUND:                -1.150
REMARK SMILES CCCCCCCCCCCCCCCC(=O)[O-]
REMARK SMILES IDX 9 1 10 2 11 3 12 4 13 5 14 6 15 7 16 8 17 9 18 10 8 11 7 12
REMARK SMILES IDX 6 13 5 14 4 15 3 16 2 17 1 18
REMARK H PARENT
REMARK Flexibility Score: inf
ROOT
ATOM      1  C   UNL     1      12.444 -10.186 -26.769  1.00  0.00     0.000 C 
ENDROOT
BRANCH   1   2
ATOM      2  C   UNL     1      11.045 -10.213 -26.129  1.00  0.00     0.000 C 
BRANCH   2   3
ATOM      3  C   UNL     1      10.992 -11.082 -24.862  1.00  0.00     0.000 C 
BRANCH   3   4
ATOM      4  C   UNL     1      12.207 -12.014 -24.735  1.00  0.00     0.000 C 
BRANCH   4   5
ATOM      5  C   UNL     1      11.864 -13.431 -25.208  1.00  0.00     0.000 C 
BRANCH   5   6
ATOM      6  C   UNL     1      12.963 -13.987 -26.126  1.00  0.00     0.006 C 
BRANCH   6   7
ATOM      7  C   UNL     1      12.734 -13.617 -27.596  1.00  0.00     0.053 C 
BRANCH   7   8
ATOM      8  C   UNL     1      11.296 -13.761 -27.988  1.00  0.00     0.041 C 
ATOM      9  O   UNL     1      10.730 -14.884 -27.921  1.00  0.00    -0.550 OA
ATOM     10  O   UNL     1      10.589 -12.661 -28.459  1.00  0.00    -0.550 OA
ENDBRANCH   7   8
ENDBRANCH   6   7
ENDBRANCH   5   6
ENDBRANCH   4   5
ENDBRANCH   3   4
ENDBRANCH   2   3
ENDBRANCH   1   2
BRANCH   1  11
ATOM     11  C   UNL     1      12.462  -9.449 -28.117  1.00  0.00     0.000 C 
BRANCH  11  12
ATOM     12  C   UNL     1      13.610  -8.433 -28.220  1.00  0.00    -0.000 C 
BRANCH  12  13
ATOM     13  C   UNL     1      13.068  -7.007 -28.376  1.00  0.00    -0.000 C 
BRANCH  13  14
ATOM     14  C   UNL     1      14.017  -6.148 -29.221  1.00  0.00    -0.000 C 
BRANCH  14  15
ATOM     15  C   UNL     1      13.535  -4.693 -29.282  1.00  0.00    -0.000 C 
BRANCH  15  16
ATOM     16  C   UNL     1      14.408  -3.786 -28.402  1.00  0.00    -0.000 C 
BRANCH  16  17
ATOM     17  C   UNL     1      14.634  -2.399 -29.022  1.00  0.00    -0.003 C 
ATOM     18  C   UNL     1      14.060  -2.283 -30.434  1.00  0.00     0.004 C 
ENDBRANCH  16  17
ENDBRANCH  15  16
ENDBRANCH  14  15
ENDBRANCH  13  14
ENDBRANCH  12  13
ENDBRANCH  11  12
ENDBRANCH   1  11
TORSDOF 14
ENDMDL
