MODEL 1
REMARK VINA RESULT:    -2.550      0.000      0.000
REMARK INTER + INTRA:         -10.120
REMARK INTER:                  -5.829
REMARK INTRA:                  -4.290
REMARK UNBOUND:                -4.290
REMARK SMILES CCCCCCCCCCCCCCCCCCCCCCCC(=O)[O-]
REMARK SMILES IDX 13 1 14 2 15 3 16 4 17 5 18 6 19 7 20 8 21 9 22 10 23 11
REMARK SMILES IDX 24 12 25 13 26 14 12 15 11 16 10 17 9 18 8 19 7 20 6 21 5 22
REMARK SMILES IDX 4 23 3 24 2 25 1 26
REMARK H PARENT
REMARK Flexibility Score: inf
ROOT
ATOM      1  C   UNL     1     147.212 149.116 142.991  1.00  0.00     0.000 C 
ENDROOT
BRANCH   1   2
ATOM      2  C   UNL     1     146.629 149.971 141.844  1.00  0.00     0.000 C 
BRANCH   2   3
ATOM      3  C   UNL     1     145.496 149.307 141.035  1.00  0.00     0.000 C 
BRANCH   3   4
ATOM      4  C   UNL     1     144.302 150.228 140.727  1.00  0.00     0.000 C 
BRANCH   4   5
ATOM      5  C   UNL     1     143.225 150.182 141.821  1.00  0.00     0.000 C 
BRANCH   5   6
ATOM      6  C   UNL     1     143.200 148.810 142.507  1.00  0.00     0.000 C 
BRANCH   6   7
ATOM      7  C   UNL     1     143.222 148.957 144.036  1.00  0.00     0.000 C 
BRANCH   7   8
ATOM      8  C   UNL     1     143.826 150.292 144.498  1.00  0.00     0.000 C 
BRANCH   8   9
ATOM      9  C   UNL     1     144.822 150.125 145.658  1.00  0.00     0.000 C 
BRANCH   9  10
ATOM     10  C   UNL     1     144.164 150.461 147.002  1.00  0.00     0.006 C 
BRANCH  10  11
ATOM     11  C   UNL     1     145.052 151.399 147.827  1.00  0.00     0.053 C 
BRANCH  11  12
ATOM     12  C   UNL     1     145.509 150.721 149.082  1.00  0.00     0.041 C 
ATOM     13  O   UNL     1     145.771 151.400 150.109  1.00  0.00    -0.550 OA
ATOM     14  O   UNL     1     145.620 149.337 149.124  1.00  0.00    -0.550 OA
ENDBRANCH  11  12
ENDBRANCH  10  11
ENDBRANCH   9  10
ENDBRANCH   8   9
ENDBRANCH   7   8
ENDBRANCH   6   7
ENDBRANCH   5   6
ENDBRANCH   4   5
ENDBRANCH   3   4
ENDBRANCH   2   3
ENDBRANCH   1   2
BRANCH   1  15
ATOM     15  C   UNL     1     146.777 147.639 143.003  1.00  0.00     0.000 C 
BRANCH  15  16
ATOM     16  C   UNL     1     147.966 146.664 142.992  1.00  0.00     0.000 C 
BRANCH  16  17
ATOM     17  C   UNL     1     147.765 145.502 142.006  1.00  0.00     0.000 C 
BRANCH  17  18
ATOM     18  C   UNL     1     147.054 145.889 140.696  1.00  0.00    -0.000 C 
BRANCH  18  19
ATOM     19  C   UNL     1     145.817 145.019 140.391  1.00  0.00    -0.000 C 
BRANCH  19  20
ATOM     20  C   UNL     1     144.510 145.700 140.830  1.00  0.00    -0.000 C 
BRANCH  20  21
ATOM     21  C   UNL     1     143.602 144.753 141.628  1.00  0.00    -0.000 C 
BRANCH  21  22
ATOM     22  C   UNL     1     143.381 145.238 143.072  1.00  0.00    -0.000 C 
BRANCH  22  23
ATOM     23  C   UNL     1     144.430 144.672 144.044  1.00  0.00    -0.000 C 
BRANCH  23  24
ATOM     24  C   UNL     1     144.877 145.708 145.086  1.00  0.00    -0.000 C 
BRANCH  24  25
ATOM     25  C   UNL     1     144.221 145.443 146.447  1.00  0.00    -0.003 C 
ATOM     26  C   UNL     1     143.725 146.741 147.079  1.00  0.00     0.004 C 
ENDBRANCH  24  25
ENDBRANCH  23  24
ENDBRANCH  22  23
ENDBRANCH  21  22
ENDBRANCH  20  21
ENDBRANCH  19  20
ENDBRANCH  18  19
ENDBRANCH  17  18
ENDBRANCH  16  17
ENDBRANCH  15  16
ENDBRANCH   1  15
TORSDOF 22
ENDMDL
MODEL 2
REMARK VINA RESULT:    -2.463      2.058      4.721
REMARK INTER + INTRA:          -9.921
REMARK INTER:                  -5.729
REMARK INTRA:                  -4.192
REMARK UNBOUND:                -4.290
REMARK SMILES CCCCCCCCCCCCCCCCCCCCCCCC(=O)[O-]
REMARK SMILES IDX 13 1 14 2 15 3 16 4 17 5 18 6 19 7 20 8 21 9 22 10 23 11
REMARK SMILES IDX 24 12 25 13 26 14 12 15 11 16 10 17 9 18 8 19 7 20 6 21 5 22
REMARK SMILES IDX 4 23 3 24 2 25 1 26
REMARK H PARENT
REMARK Flexibility Score: inf
ROOT
ATOM      1  C   UNL     1     146.856 148.947 143.032  1.00  0.00     0.000 C 
ENDROOT
BRANCH   1   2
ATOM      2  C   UNL     1     147.400 147.573 142.581  1.00  0.00     0.000 C 
BRANCH   2   3
ATOM      3  C   UNL     1     146.708 146.349 143.214  1.00  0.00     0.000 C 
BRANCH   3   4
ATOM      4  C   UNL     1     145.332 146.640 143.839  1.00  0.00     0.000 C 
BRANCH   4   5
ATOM      5  C   UNL     1     144.171 146.295 142.894  1.00  0.00     0.000 C 
BRANCH   5   6
ATOM      6  C   UNL     1     142.971 147.218 143.143  1.00  0.00     0.000 C 
BRANCH   6   7
ATOM      7  C   UNL     1     143.266 148.216 144.272  1.00  0.00     0.000 C 
BRANCH   7   8
ATOM      8  C   UNL     1     142.875 149.657 143.911  1.00  0.00     0.000 C 
BRANCH   8   9
ATOM      9  C   UNL     1     143.839 150.701 144.499  1.00  0.00     0.000 C 
BRANCH   9  10
ATOM     10  C   UNL     1     144.522 150.169 145.766  1.00  0.00     0.006 C 
BRANCH  10  11
ATOM     11  C   UNL     1     144.487 151.214 146.886  1.00  0.00     0.053 C 
BRANCH  11  12
ATOM     12  C   UNL     1     145.354 150.786 148.030  1.00  0.00     0.041 C 
ATOM     13  O   UNL     1     145.082 149.740 148.675  1.00  0.00    -0.550 OA
ATOM     14  O   UNL     1     146.478 151.529 148.367  1.00  0.00    -0.550 OA
ENDBRANCH  11  12
ENDBRANCH  10  11
ENDBRANCH   9  10
ENDBRANCH   8   9
ENDBRANCH   7   8
ENDBRANCH   6   7
ENDBRANCH   5   6
ENDBRANCH   4   5
ENDBRANCH   3   4
ENDBRANCH   2   3
ENDBRANCH   1   2
BRANCH   1  15
ATOM     15  C   UNL     1     146.290 149.836 141.908  1.00  0.00     0.000 C 
BRANCH  15  16
ATOM     16  C   UNL     1     145.609 149.028 140.791  1.00  0.00     0.000 C 
BRANCH  16  17
ATOM     17  C   UNL     1     144.151 149.457 140.559  1.00  0.00     0.000 C 
BRANCH  17  18
ATOM     18  C   UNL     1     143.972 150.590 139.533  1.00  0.00    -0.000 C 
BRANCH  18  19
ATOM     19  C   UNL     1     143.163 150.167 138.289  1.00  0.00    -0.000 C 
BRANCH  19  20
ATOM     20  C   UNL     1     144.004 150.228 137.004  1.00  0.00    -0.000 C 
BRANCH  20  21
ATOM     21  C   UNL     1     144.277 148.833 136.421  1.00  0.00    -0.000 C 
BRANCH  21  22
ATOM     22  C   UNL     1     143.648 147.714 137.270  1.00  0.00    -0.000 C 
BRANCH  22  23
ATOM     23  C   UNL     1     144.698 146.722 137.797  1.00  0.00    -0.000 C 
BRANCH  23  24
ATOM     24  C   UNL     1     146.120 147.085 137.343  1.00  0.00    -0.000 C 
BRANCH  24  25
ATOM     25  C   UNL     1     147.135 146.856 138.470  1.00  0.00    -0.003 C 
ATOM     26  C   UNL     1     146.687 145.721 139.388  1.00  0.00     0.004 C 
ENDBRANCH  24  25
ENDBRANCH  23  24
ENDBRANCH  22  23
ENDBRANCH  21  22
ENDBRANCH  20  21
ENDBRANCH  19  20
ENDBRANCH  18  19
ENDBRANCH  17  18
ENDBRANCH  16  17
ENDBRANCH  15  16
ENDBRANCH   1  15
TORSDOF 22
ENDMDL
MODEL 3
REMARK VINA RESULT:    -2.392      2.638      5.912
REMARK INTER + INTRA:          -9.759
REMARK INTER:                  -6.777
REMARK INTRA:                  -2.981
REMARK UNBOUND:                -4.290
REMARK SMILES CCCCCCCCCCCCCCCCCCCCCCCC(=O)[O-]
REMARK SMILES IDX 13 1 14 2 15 3 16 4 17 5 18 6 19 7 20 8 21 9 22 10 23 11
REMARK SMILES IDX 24 12 25 13 26 14 12 15 11 16 10 17 9 18 8 19 7 20 6 21 5 22
REMARK SMILES IDX 4 23 3 24 2 25 1 26
REMARK H PARENT
REMARK Flexibility Score: inf
ROOT
ATOM      1  C   UNL     1     144.414 150.252 145.503  1.00  0.00     0.000 C 
ENDROOT
BRANCH   1   2
ATOM      2  C   UNL     1     143.961 150.645 146.926  1.00  0.00     0.000 C 
BRANCH   2   3
ATOM      3  C   UNL     1     144.853 151.679 147.642  1.00  0.00     0.000 C 
BRANCH   3   4
ATOM      4  C   UNL     1     145.892 151.074 148.604  1.00  0.00     0.000 C 
BRANCH   4   5
ATOM      5  C   UNL     1     145.514 149.660 149.067  1.00  0.00     0.000 C 
BRANCH   5   6
ATOM      6  C   UNL     1     145.354 149.608 150.592  1.00  0.00     0.000 C 
BRANCH   6   7
ATOM      7  C   UNL     1     143.881 149.758 150.999  1.00  0.00     0.000 C 
BRANCH   7   8
ATOM      8  C   UNL     1     143.664 150.843 152.064  1.00  0.00     0.000 C 
BRANCH   8   9
ATOM      9  C   UNL     1     143.916 152.263 151.528  1.00  0.00     0.000 C 
BRANCH   9  10
ATOM     10  C   UNL     1     145.115 152.913 152.230  1.00  0.00     0.006 C 
BRANCH  10  11
ATOM     11  C   UNL     1     144.771 154.327 152.707  1.00  0.00     0.053 C 
BRANCH  11  12
ATOM     12  C   UNL     1     145.993 155.020 153.225  1.00  0.00     0.041 C 
ATOM     13  O   UNL     1     145.913 156.190 153.681  1.00  0.00    -0.550 OA
ATOM     14  O   UNL     1     147.216 154.362 153.229  1.00  0.00    -0.550 OA
ENDBRANCH  11  12
ENDBRANCH  10  11
ENDBRANCH   9  10
ENDBRANCH   8   9
ENDBRANCH   7   8
ENDBRANCH   6   7
ENDBRANCH   5   6
ENDBRANCH   4   5
ENDBRANCH   3   4
ENDBRANCH   2   3
ENDBRANCH   1   2
BRANCH   1  15
ATOM     15  C   UNL     1     144.123 148.795 145.094  1.00  0.00     0.000 C 
BRANCH  15  16
ATOM     16  C   UNL     1     143.115 148.688 143.938  1.00  0.00     0.000 C 
BRANCH  16  17
ATOM     17  C   UNL     1     143.026 149.982 143.113  1.00  0.00     0.000 C 
BRANCH  17  18
ATOM     18  C   UNL     1     143.104 149.776 141.589  1.00  0.00    -0.000 C 
BRANCH  18  19
ATOM     19  C   UNL     1     144.384 150.364 140.957  1.00  0.00    -0.000 C 
BRANCH  19  20
ATOM     20  C   UNL     1     145.594 149.432 141.130  1.00  0.00    -0.000 C 
BRANCH  20  21
ATOM     21  C   UNL     1     146.608 149.978 142.146  1.00  0.00    -0.000 C 
BRANCH  21  22
ATOM     22  C   UNL     1     147.285 148.857 142.954  1.00  0.00    -0.000 C 
BRANCH  22  23
ATOM     23  C   UNL     1     147.080 147.473 142.316  1.00  0.00    -0.000 C 
BRANCH  23  24
ATOM     24  C   UNL     1     147.272 146.333 143.327  1.00  0.00    -0.000 C 
BRANCH  24  25
ATOM     25  C   UNL     1     145.922 145.788 143.811  1.00  0.00    -0.003 C 
ATOM     26  C   UNL     1     144.895 145.789 142.680  1.00  0.00     0.004 C 
ENDBRANCH  24  25
ENDBRANCH  23  24
ENDBRANCH  22  23
ENDBRANCH  21  22
ENDBRANCH  20  21
ENDBRANCH  19  20
ENDBRANCH  18  19
ENDBRANCH  17  18
ENDBRANCH  16  17
ENDBRANCH  15  16
ENDBRANCH   1  15
TORSDOF 22
ENDMDL
MODEL 4
REMARK VINA RESULT:    -2.351      3.426      7.569
REMARK INTER + INTRA:          -9.666
REMARK INTER:                  -6.762
REMARK INTRA:                  -2.904
REMARK UNBOUND:                -4.290
REMARK SMILES CCCCCCCCCCCCCCCCCCCCCCCC(=O)[O-]
REMARK SMILES IDX 13 1 14 2 15 3 16 4 17 5 18 6 19 7 20 8 21 9 22 10 23 11
REMARK SMILES IDX 24 12 25 13 26 14 12 15 11 16 10 17 9 18 8 19 7 20 6 21 5 22
REMARK SMILES IDX 4 23 3 24 2 25 1 26
REMARK H PARENT
REMARK Flexibility Score: inf
ROOT
ATOM      1  C   UNL     1     145.954 151.140 149.278  1.00  0.00     0.000 C 
ENDROOT
BRANCH   1   2
ATOM      2  C   UNL     1     145.909 149.680 149.783  1.00  0.00     0.000 C 
BRANCH   2   3
ATOM      3  C   UNL     1     145.108 149.454 151.080  1.00  0.00     0.000 C 
BRANCH   3   4
ATOM      4  C   UNL     1     143.671 150.004 151.053  1.00  0.00     0.000 C 
BRANCH   4   5
ATOM      5  C   UNL     1     142.875 149.639 152.315  1.00  0.00     0.000 C 
BRANCH   5   6
ATOM      6  C   UNL     1     143.788 149.008 153.373  1.00  0.00     0.000 C 
BRANCH   6   7
ATOM      7  C   UNL     1     143.732 149.794 154.691  1.00  0.00     0.000 C 
BRANCH   7   8
ATOM      8  C   UNL     1     144.974 150.669 154.917  1.00  0.00     0.000 C 
BRANCH   8   9
ATOM      9  C   UNL     1     144.732 152.148 154.571  1.00  0.00     0.000 C 
BRANCH   9  10
ATOM     10  C   UNL     1     145.298 152.491 153.187  1.00  0.00     0.006 C 
BRANCH  10  11
ATOM     11  C   UNL     1     144.927 153.921 152.782  1.00  0.00     0.053 C 
BRANCH  11  12
ATOM     12  C   UNL     1     146.076 154.850 153.024  1.00  0.00     0.041 C 
ATOM     13  O   UNL     1     145.914 156.095 152.936  1.00  0.00    -0.550 OA
ATOM     14  O   UNL     1     147.320 154.342 153.376  1.00  0.00    -0.550 OA
ENDBRANCH  11  12
ENDBRANCH  10  11
ENDBRANCH   9  10
ENDBRANCH   8   9
ENDBRANCH   7   8
ENDBRANCH   6   7
ENDBRANCH   5   6
ENDBRANCH   4   5
ENDBRANCH   3   4
ENDBRANCH   2   3
ENDBRANCH   1   2
BRANCH   1  15
ATOM     15  C   UNL     1     145.484 151.353 147.827  1.00  0.00     0.000 C 
BRANCH  15  16
ATOM     16  C   UNL     1     143.982 151.666 147.723  1.00  0.00     0.000 C 
BRANCH  16  17
ATOM     17  C   UNL     1     143.161 150.459 147.241  1.00  0.00     0.000 C 
BRANCH  17  18
ATOM     18  C   UNL     1     144.001 149.291 146.694  1.00  0.00    -0.000 C 
BRANCH  18  19
ATOM     19  C   UNL     1     143.864 149.100 145.170  1.00  0.00    -0.000 C 
BRANCH  19  20
ATOM     20  C   UNL     1     144.735 150.092 144.383  1.00  0.00    -0.000 C 
BRANCH  20  21
ATOM     21  C   UNL     1     144.361 150.139 142.893  1.00  0.00    -0.000 C 
BRANCH  21  22
ATOM     22  C   UNL     1     145.431 149.482 142.004  1.00  0.00    -0.000 C 
BRANCH  22  23
ATOM     23  C   UNL     1     146.834 149.552 142.631  1.00  0.00    -0.000 C 
BRANCH  23  24
ATOM     24  C   UNL     1     147.422 148.157 142.896  1.00  0.00    -0.000 C 
BRANCH  24  25
ATOM     25  C   UNL     1     146.452 147.055 142.451  1.00  0.00    -0.003 C 
ATOM     26  C   UNL     1     146.033 146.185 143.634  1.00  0.00     0.004 C 
ENDBRANCH  24  25
ENDBRANCH  23  24
ENDBRANCH  22  23
ENDBRANCH  21  22
ENDBRANCH  20  21
ENDBRANCH  19  20
ENDBRANCH  18  19
ENDBRANCH  17  18
ENDBRANCH  16  17
ENDBRANCH  15  16
ENDBRANCH   1  15
TORSDOF 22
ENDMDL
MODEL 5
REMARK VINA RESULT:    -2.308      4.251      9.854
REMARK INTER + INTRA:          -9.567
REMARK INTER:                  -7.134
REMARK INTRA:                  -2.433
REMARK UNBOUND:                -4.290
REMARK SMILES CCCCCCCCCCCCCCCCCCCCCCCC(=O)[O-]
REMARK SMILES IDX 13 1 14 2 15 3 16 4 17 5 18 6 19 7 20 8 21 9 22 10 23 11
REMARK SMILES IDX 24 12 25 13 26 14 12 15 11 16 10 17 9 18 8 19 7 20 6 21 5 22
REMARK SMILES IDX 4 23 3 24 2 25 1 26
REMARK H PARENT
REMARK Flexibility Score: inf
ROOT
ATOM      1  C   UNL     1     146.119 151.092 149.204  1.00  0.00     0.000 C 
ENDROOT
BRANCH   1   2
ATOM      2  C   UNL     1     145.537 151.372 147.801  1.00  0.00     0.000 C 
BRANCH   2   3
ATOM      3  C   UNL     1     144.010 151.575 147.748  1.00  0.00     0.000 C 
BRANCH   3   4
ATOM      4  C   UNL     1     143.275 150.665 146.746  1.00  0.00     0.000 C 
BRANCH   4   5
ATOM      5  C   UNL     1     143.998 149.329 146.522  1.00  0.00     0.000 C 
BRANCH   5   6
ATOM      6  C   UNL     1     144.053 148.980 145.029  1.00  0.00     0.000 C 
BRANCH   6   7
ATOM      7  C   UNL     1     144.710 150.109 144.222  1.00  0.00     0.000 C 
BRANCH   7   8
ATOM      8  C   UNL     1     145.895 149.622 143.374  1.00  0.00     0.000 C 
BRANCH   8   9
ATOM      9  C   UNL     1     145.978 148.089 143.289  1.00  0.00     0.000 C 
BRANCH   9  10
ATOM     10  C   UNL     1     147.382 147.635 142.870  1.00  0.00     0.006 C 
BRANCH  10  11
ATOM     11  C   UNL     1     147.330 146.828 141.569  1.00  0.00     0.053 C 
BRANCH  11  12
ATOM     12  C   UNL     1     146.853 145.433 141.833  1.00  0.00     0.041 C 
ATOM     13  O   UNL     1     147.489 144.685 142.621  1.00  0.00    -0.550 OA
ATOM     14  O   UNL     1     145.690 144.970 141.232  1.00  0.00    -0.550 OA
ENDBRANCH  11  12
ENDBRANCH  10  11
ENDBRANCH   9  10
ENDBRANCH   8   9
ENDBRANCH   7   8
ENDBRANCH   6   7
ENDBRANCH   5   6
ENDBRANCH   4   5
ENDBRANCH   3   4
ENDBRANCH   2   3
ENDBRANCH   1   2
BRANCH   1  15
ATOM     15  C   UNL     1     145.856 149.681 149.761  1.00  0.00     0.000 C 
BRANCH  15  16
ATOM     16  C   UNL     1     145.003 149.691 151.041  1.00  0.00     0.000 C 
BRANCH  16  17
ATOM     17  C   UNL     1     144.805 151.108 151.605  1.00  0.00     0.000 C 
BRANCH  17  18
ATOM     18  C   UNL     1     143.530 151.288 152.448  1.00  0.00    -0.000 C 
BRANCH  18  19
ATOM     19  C   UNL     1     143.814 151.730 153.899  1.00  0.00    -0.000 C 
BRANCH  19  20
ATOM     20  C   UNL     1     145.041 151.016 154.490  1.00  0.00    -0.000 C 
BRANCH  20  21
ATOM     21  C   UNL     1     146.044 152.001 155.110  1.00  0.00    -0.000 C 
BRANCH  21  22
ATOM     22  C   UNL     1     145.770 153.454 154.686  1.00  0.00    -0.000 C 
BRANCH  22  23
ATOM     23  C   UNL     1     146.949 154.069 153.914  1.00  0.00    -0.000 C 
BRANCH  23  24
ATOM     24  C   UNL     1     146.490 154.833 152.663  1.00  0.00    -0.000 C 
BRANCH  24  25
ATOM     25  C   UNL     1     144.975 155.072 152.686  1.00  0.00    -0.003 C 
ATOM     26  C   UNL     1     144.646 156.531 152.376  1.00  0.00     0.004 C 
ENDBRANCH  24  25
ENDBRANCH  23  24
ENDBRANCH  22  23
ENDBRANCH  21  22
ENDBRANCH  20  21
ENDBRANCH  19  20
ENDBRANCH  18  19
ENDBRANCH  17  18
ENDBRANCH  16  17
ENDBRANCH  15  16
ENDBRANCH   1  15
TORSDOF 22
ENDMDL
MODEL 6
REMARK VINA RESULT:    -2.288      3.322      7.059
REMARK INTER + INTRA:          -9.521
REMARK INTER:                  -6.758
REMARK INTRA:                  -2.763
REMARK UNBOUND:                -4.290
REMARK SMILES CCCCCCCCCCCCCCCCCCCCCCCC(=O)[O-]
REMARK SMILES IDX 13 1 14 2 15 3 16 4 17 5 18 6 19 7 20 8 21 9 22 10 23 11
REMARK SMILES IDX 24 12 25 13 26 14 12 15 11 16 10 17 9 18 8 19 7 20 6 21 5 22
REMARK SMILES IDX 4 23 3 24 2 25 1 26
REMARK H PARENT
REMARK Flexibility Score: inf
ROOT
ATOM      1  C   UNL     1     145.530 151.373 147.700  1.00  0.00     0.000 C 
ENDROOT
BRANCH   1   2
ATOM      2  C   UNL     1     145.884 151.166 149.190  1.00  0.00     0.000 C 
BRANCH   2   3
ATOM      3  C   UNL     1     145.934 149.698 149.659  1.00  0.00     0.000 C 
BRANCH   3   4
ATOM      4  C   UNL     1     145.091 149.395 150.911  1.00  0.00     0.000 C 
BRANCH   4   5
ATOM      5  C   UNL     1     143.766 150.171 150.932  1.00  0.00     0.000 C 
BRANCH   5   6
ATOM      6  C   UNL     1     143.275 150.376 152.371  1.00  0.00     0.000 C 
BRANCH   6   7
ATOM      7  C   UNL     1     144.339 149.933 153.386  1.00  0.00     0.000 C 
BRANCH   7   8
ATOM      8  C   UNL     1     144.234 150.683 154.723  1.00  0.00     0.000 C 
BRANCH   8   9
ATOM      9  C   UNL     1     145.606 150.946 155.367  1.00  0.00     0.000 C 
BRANCH   9  10
ATOM     10  C   UNL     1     145.779 152.432 155.708  1.00  0.00     0.006 C 
BRANCH  10  11
ATOM     11  C   UNL     1     145.010 153.314 154.720  1.00  0.00     0.053 C 
BRANCH  11  12
ATOM     12  C   UNL     1     145.871 153.660 153.545  1.00  0.00     0.041 C 
ATOM     13  O   UNL     1     146.935 154.312 153.708  1.00  0.00    -0.550 OA
ATOM     14  O   UNL     1     145.512 153.237 152.271  1.00  0.00    -0.550 OA
ENDBRANCH  11  12
ENDBRANCH  10  11
ENDBRANCH   9  10
ENDBRANCH   8   9
ENDBRANCH   7   8
ENDBRANCH   6   7
ENDBRANCH   5   6
ENDBRANCH   4   5
ENDBRANCH   3   4
ENDBRANCH   2   3
ENDBRANCH   1   2
BRANCH   1  15
ATOM     15  C   UNL     1     144.056 151.715 147.412  1.00  0.00     0.000 C 
BRANCH  15  16
ATOM     16  C   UNL     1     143.191 150.470 147.154  1.00  0.00     0.000 C 
BRANCH  16  17
ATOM     17  C   UNL     1     143.992 149.317 146.529  1.00  0.00     0.000 C 
BRANCH  17  18
ATOM     18  C   UNL     1     143.919 149.246 144.992  1.00  0.00    -0.000 C 
BRANCH  18  19
ATOM     19  C   UNL     1     145.132 149.894 144.292  1.00  0.00    -0.000 C 
BRANCH  19  20
ATOM     20  C   UNL     1     144.998 149.866 142.761  1.00  0.00    -0.000 C 
BRANCH  20  21
ATOM     21  C   UNL     1     146.347 149.637 142.064  1.00  0.00    -0.000 C 
BRANCH  21  22
ATOM     22  C   UNL     1     146.623 148.146 141.805  1.00  0.00    -0.000 C 
BRANCH  22  23
ATOM     23  C   UNL     1     147.581 147.541 142.845  1.00  0.00    -0.000 C 
BRANCH  23  24
ATOM     24  C   UNL     1     147.064 146.207 143.406  1.00  0.00    -0.000 C 
BRANCH  24  25
ATOM     25  C   UNL     1     145.531 146.177 143.434  1.00  0.00    -0.003 C 
ATOM     26  C   UNL     1     145.018 145.637 144.768  1.00  0.00     0.004 C 
ENDBRANCH  24  25
ENDBRANCH  23  24
ENDBRANCH  22  23
ENDBRANCH  21  22
ENDBRANCH  20  21
ENDBRANCH  19  20
ENDBRANCH  18  19
ENDBRANCH  17  18
ENDBRANCH  16  17
ENDBRANCH  15  16
ENDBRANCH   1  15
TORSDOF 22
ENDMDL
MODEL 7
REMARK VINA RESULT:    -2.253      4.030      6.181
REMARK INTER + INTRA:          -9.440
REMARK INTER:                  -4.857
REMARK INTRA:                  -4.583
REMARK UNBOUND:                -4.290
REMARK SMILES CCCCCCCCCCCCCCCCCCCCCCCC(=O)[O-]
REMARK SMILES IDX 13 1 14 2 15 3 16 4 17 5 18 6 19 7 20 8 21 9 22 10 23 11
REMARK SMILES IDX 24 12 25 13 26 14 12 15 11 16 10 17 9 18 8 19 7 20 6 21 5 22
REMARK SMILES IDX 4 23 3 24 2 25 1 26
REMARK H PARENT
REMARK Flexibility Score: inf
ROOT
ATOM      1  C   UNL     1     147.714 147.662 142.703  1.00  0.00     0.000 C 
ENDROOT
BRANCH   1   2
ATOM      2  C   UNL     1     146.775 148.889 142.688  1.00  0.00     0.000 C 
BRANCH   2   3
ATOM      3  C   UNL     1     145.860 149.005 141.452  1.00  0.00     0.000 C 
BRANCH   3   4
ATOM      4  C   UNL     1     144.846 150.161 141.510  1.00  0.00     0.000 C 
BRANCH   4   5
ATOM      5  C   UNL     1     144.002 150.270 140.232  1.00  0.00     0.000 C 
BRANCH   5   6
ATOM      6  C   UNL     1     142.959 149.148 140.168  1.00  0.00     0.000 C 
BRANCH   6   7
ATOM      7  C   UNL     1     142.973 148.458 138.796  1.00  0.00     0.000 C 
BRANCH   7   8
ATOM      8  C   UNL     1     143.687 149.288 137.719  1.00  0.00     0.000 C 
BRANCH   8   9
ATOM      9  C   UNL     1     144.795 148.503 136.998  1.00  0.00     0.000 C 
BRANCH   9  10
ATOM     10  C   UNL     1     145.119 147.199 137.740  1.00  0.00     0.006 C 
BRANCH  10  11
ATOM     11  C   UNL     1     146.559 147.209 138.262  1.00  0.00     0.053 C 
BRANCH  11  12
ATOM     12  C   UNL     1     147.397 146.221 137.511  1.00  0.00     0.041 C 
ATOM     13  O   UNL     1     148.332 146.618 136.768  1.00  0.00    -0.550 OA
ATOM     14  O   UNL     1     147.163 144.859 137.654  1.00  0.00    -0.550 OA
ENDBRANCH  11  12
ENDBRANCH  10  11
ENDBRANCH   9  10
ENDBRANCH   8   9
ENDBRANCH   7   8
ENDBRANCH   6   7
ENDBRANCH   5   6
ENDBRANCH   4   5
ENDBRANCH   3   4
ENDBRANCH   2   3
ENDBRANCH   1   2
BRANCH   1  15
ATOM     15  C   UNL     1     147.139 146.396 143.365  1.00  0.00     0.000 C 
BRANCH  15  16
ATOM     16  C   UNL     1     147.497 145.108 142.606  1.00  0.00     0.000 C 
BRANCH  16  17
ATOM     17  C   UNL     1     146.845 145.043 141.216  1.00  0.00     0.000 C 
BRANCH  17  18
ATOM     18  C   UNL     1     145.369 144.604 141.220  1.00  0.00    -0.000 C 
BRANCH  18  19
ATOM     19  C   UNL     1     144.382 145.773 141.025  1.00  0.00    -0.000 C 
BRANCH  19  20
ATOM     20  C   UNL     1     143.043 145.524 141.738  1.00  0.00    -0.000 C 
BRANCH  20  21
ATOM     21  C   UNL     1     143.107 145.875 143.232  1.00  0.00    -0.000 C 
BRANCH  21  22
ATOM     22  C   UNL     1     143.201 147.392 143.471  1.00  0.00    -0.000 C 
BRANCH  22  23
ATOM     23  C   UNL     1     144.045 147.736 144.709  1.00  0.00    -0.000 C 
BRANCH  23  24
ATOM     24  C   UNL     1     143.513 148.973 145.450  1.00  0.00    -0.000 C 
BRANCH  24  25
ATOM     25  C   UNL     1     144.482 150.155 145.320  1.00  0.00    -0.003 C 
ATOM     26  C   UNL     1     143.750 151.416 144.866  1.00  0.00     0.004 C 
ENDBRANCH  24  25
ENDBRANCH  23  24
ENDBRANCH  22  23
ENDBRANCH  21  22
ENDBRANCH  20  21
ENDBRANCH  19  20
ENDBRANCH  18  19
ENDBRANCH  17  18
ENDBRANCH  16  17
ENDBRANCH  15  16
ENDBRANCH   1  15
TORSDOF 22
ENDMDL
MODEL 8
REMARK VINA RESULT:    -2.230      2.431      5.668
REMARK INTER + INTRA:          -9.387
REMARK INTER:                  -6.251
REMARK INTRA:                  -3.136
REMARK UNBOUND:                -4.290
REMARK SMILES CCCCCCCCCCCCCCCCCCCCCCCC(=O)[O-]
REMARK SMILES IDX 13 1 14 2 15 3 16 4 17 5 18 6 19 7 20 8 21 9 22 10 23 11
REMARK SMILES IDX 24 12 25 13 26 14 12 15 11 16 10 17 9 18 8 19 7 20 6 21 5 22
REMARK SMILES IDX 4 23 3 24 2 25 1 26
REMARK H PARENT
REMARK Flexibility Score: inf
ROOT
ATOM      1  C   UNL     1     144.392 149.879 144.891  1.00  0.00     0.000 C 
ENDROOT
BRANCH   1   2
ATOM      2  C   UNL     1     143.993 151.223 145.540  1.00  0.00     0.000 C 
BRANCH   2   3
ATOM      3  C   UNL     1     143.354 151.118 146.939  1.00  0.00     0.000 C 
BRANCH   3   4
ATOM      4  C   UNL     1     144.164 151.782 148.067  1.00  0.00     0.000 C 
BRANCH   4   5
ATOM      5  C   UNL     1     145.520 151.101 148.299  1.00  0.00     0.000 C 
BRANCH   5   6
ATOM      6  C   UNL     1     145.334 149.699 148.894  1.00  0.00     0.000 C 
BRANCH   6   7
ATOM      7  C   UNL     1     145.680 149.684 150.390  1.00  0.00     0.000 C 
BRANCH   7   8
ATOM      8  C   UNL     1     144.436 149.732 151.290  1.00  0.00     0.000 C 
BRANCH   8   9
ATOM      9  C   UNL     1     144.624 150.638 152.518  1.00  0.00     0.000 C 
BRANCH   9  10
ATOM     10  C   UNL     1     144.810 152.102 152.101  1.00  0.00     0.006 C 
BRANCH  10  11
ATOM     11  C   UNL     1     145.293 152.952 153.281  1.00  0.00     0.053 C 
BRANCH  11  12
ATOM     12  C   UNL     1     145.476 154.378 152.862  1.00  0.00     0.041 C 
ATOM     13  O   UNL     1     146.624 154.893 152.852  1.00  0.00    -0.550 OA
ATOM     14  O   UNL     1     144.381 155.129 152.456  1.00  0.00    -0.550 OA
ENDBRANCH  11  12
ENDBRANCH  10  11
ENDBRANCH   9  10
ENDBRANCH   8   9
ENDBRANCH   7   8
ENDBRANCH   6   7
ENDBRANCH   5   6
ENDBRANCH   4   5
ENDBRANCH   3   4
ENDBRANCH   2   3
ENDBRANCH   1   2
BRANCH   1  15
ATOM     15  C   UNL     1     143.869 148.618 145.605  1.00  0.00     0.000 C 
BRANCH  15  16
ATOM     16  C   UNL     1     143.042 147.708 144.683  1.00  0.00     0.000 C 
BRANCH  16  17
ATOM     17  C   UNL     1     143.744 147.431 143.344  1.00  0.00     0.000 C 
BRANCH  17  18
ATOM     18  C   UNL     1     143.904 145.939 143.001  1.00  0.00    -0.000 C 
BRANCH  18  19
ATOM     19  C   UNL     1     145.369 145.519 142.764  1.00  0.00    -0.000 C 
BRANCH  19  20
ATOM     20  C   UNL     1     146.344 146.287 143.671  1.00  0.00    -0.000 C 
BRANCH  20  21
ATOM     21  C   UNL     1     147.451 146.990 142.871  1.00  0.00    -0.000 C 
BRANCH  21  22
ATOM     22  C   UNL     1     147.368 148.522 142.984  1.00  0.00    -0.000 C 
BRANCH  22  23
ATOM     23  C   UNL     1     146.561 149.149 141.835  1.00  0.00    -0.000 C 
BRANCH  23  24
ATOM     24  C   UNL     1     146.537 148.255 140.586  1.00  0.00    -0.000 C 
BRANCH  24  25
ATOM     25  C   UNL     1     145.147 148.247 139.938  1.00  0.00    -0.003 C 
ATOM     26  C   UNL     1     144.356 149.495 140.324  1.00  0.00     0.004 C 
ENDBRANCH  24  25
ENDBRANCH  23  24
ENDBRANCH  22  23
ENDBRANCH  21  22
ENDBRANCH  20  21
ENDBRANCH  19  20
ENDBRANCH  18  19
ENDBRANCH  17  18
ENDBRANCH  16  17
ENDBRANCH  15  16
ENDBRANCH   1  15
TORSDOF 22
ENDMDL
MODEL 9
REMARK VINA RESULT:    -2.216      3.064      8.119
REMARK INTER + INTRA:          -9.356
REMARK INTER:                  -6.363
REMARK INTRA:                  -2.993
REMARK UNBOUND:                -4.290
REMARK SMILES CCCCCCCCCCCCCCCCCCCCCCCC(=O)[O-]
REMARK SMILES IDX 13 1 14 2 15 3 16 4 17 5 18 6 19 7 20 8 21 9 22 10 23 11
REMARK SMILES IDX 24 12 25 13 26 14 12 15 11 16 10 17 9 18 8 19 7 20 6 21 5 22
REMARK SMILES IDX 4 23 3 24 2 25 1 26
REMARK H PARENT
REMARK Flexibility Score: inf
ROOT
ATOM      1  C   UNL     1     143.982 149.016 145.173  1.00  0.00     0.000 C 
ENDROOT
BRANCH   1   2
ATOM      2  C   UNL     1     143.160 148.240 146.226  1.00  0.00     0.000 C 
BRANCH   2   3
ATOM      3  C   UNL     1     143.972 147.284 147.124  1.00  0.00     0.000 C 
BRANCH   3   4
ATOM      4  C   UNL     1     143.755 145.788 146.832  1.00  0.00     0.000 C 
BRANCH   4   5
ATOM      5  C   UNL     1     145.076 145.019 146.686  1.00  0.00     0.000 C 
BRANCH   5   6
ATOM      6  C   UNL     1     145.178 144.366 145.302  1.00  0.00     0.000 C 
BRANCH   6   7
ATOM      7  C   UNL     1     144.176 144.991 144.320  1.00  0.00     0.000 C 
BRANCH   7   8
ATOM      8  C   UNL     1     144.845 145.924 143.299  1.00  0.00     0.000 C 
BRANCH   8   9
ATOM      9  C   UNL     1     146.380 145.826 143.319  1.00  0.00     0.000 C 
BRANCH   9  10
ATOM     10  C   UNL     1     147.022 147.217 143.235  1.00  0.00     0.006 C 
BRANCH  10  11
ATOM     11  C   UNL     1     146.566 147.956 141.973  1.00  0.00     0.053 C 
BRANCH  11  12
ATOM     12  C   UNL     1     146.624 149.437 142.181  1.00  0.00     0.041 C 
ATOM     13  O   UNL     1     147.406 149.927 143.037  1.00  0.00    -0.550 OA
ATOM     14  O   UNL     1     145.834 150.280 141.410  1.00  0.00    -0.550 OA
ENDBRANCH  11  12
ENDBRANCH  10  11
ENDBRANCH   9  10
ENDBRANCH   8   9
ENDBRANCH   7   8
ENDBRANCH   6   7
ENDBRANCH   5   6
ENDBRANCH   4   5
ENDBRANCH   3   4
ENDBRANCH   2   3
ENDBRANCH   1   2
BRANCH   1  15
ATOM     15  C   UNL     1     144.734 150.252 145.699  1.00  0.00     0.000 C 
BRANCH  15  16
ATOM     16  C   UNL     1     143.825 151.225 146.468  1.00  0.00     0.000 C 
BRANCH  16  17
ATOM     17  C   UNL     1     144.200 151.330 147.955  1.00  0.00     0.000 C 
BRANCH  17  18
ATOM     18  C   UNL     1     145.678 151.035 148.266  1.00  0.00    -0.000 C 
BRANCH  18  19
ATOM     19  C   UNL     1     145.872 149.912 149.306  1.00  0.00    -0.000 C 
BRANCH  19  20
ATOM     20  C   UNL     1     144.587 149.634 150.102  1.00  0.00    -0.000 C 
BRANCH  20  21
ATOM     21  C   UNL     1     144.761 149.916 151.602  1.00  0.00    -0.000 C 
BRANCH  21  22
ATOM     22  C   UNL     1     143.972 151.156 152.057  1.00  0.00    -0.000 C 
BRANCH  22  23
ATOM     23  C   UNL     1     144.740 152.463 151.802  1.00  0.00    -0.000 C 
BRANCH  23  24
ATOM     24  C   UNL     1     145.336 153.049 153.091  1.00  0.00    -0.000 C 
BRANCH  24  25
ATOM     25  C   UNL     1     146.391 154.117 152.777  1.00  0.00    -0.003 C 
ATOM     26  C   UNL     1     146.148 155.383 153.595  1.00  0.00     0.004 C 
ENDBRANCH  24  25
ENDBRANCH  23  24
ENDBRANCH  22  23
ENDBRANCH  21  22
ENDBRANCH  20  21
ENDBRANCH  19  20
ENDBRANCH  18  19
ENDBRANCH  17  18
ENDBRANCH  16  17
ENDBRANCH  15  16
ENDBRANCH   1  15
TORSDOF 22
ENDMDL
