MODEL 1
REMARK VINA RESULT:    -6.097      0.000      0.000
REMARK INTER + INTRA:         -19.119
REMARK INTER:                 -15.363
REMARK INTRA:                  -3.756
REMARK UNBOUND:                -3.756
REMARK SMILES CCCCCCCCCCCCCCCCCCCCCCCCCCCC(=O)[O-]
REMARK SMILES IDX 15 1 16 2 17 3 18 4 19 5 20 6 21 7 22 8 23 9 24 10 25 11
REMARK SMILES IDX 26 12 27 13 28 14 29 15 30 16 14 17 13 18 12 19 11 20 10 21
REMARK SMILES IDX 9 22 8 23 7 24 6 25 5 26 4 27 3 28 2 29 1 30
REMARK H PARENT
REMARK Flexibility Score: inf
ROOT
ATOM      1  C   UNL     1       4.993   4.106   8.142  1.00  0.00     0.000 C 
ENDROOT
BRANCH   1   2
ATOM      2  C   UNL     1       6.401   4.215   7.530  1.00  0.00     0.000 C 
BRANCH   2   3
ATOM      3  C   UNL     1       7.450   4.750   8.523  1.00  0.00     0.000 C 
BRANCH   3   4
ATOM      4  C   UNL     1       8.564   5.616   7.904  1.00  0.00     0.000 C 
BRANCH   4   5
ATOM      5  C   UNL     1       8.082   7.023   7.507  1.00  0.00     0.000 C 
BRANCH   5   6
ATOM      6  C   UNL     1       8.171   7.274   5.991  1.00  0.00     0.000 C 
BRANCH   6   7
ATOM      7  C   UNL     1       7.738   8.681   5.542  1.00  0.00     0.000 C 
BRANCH   7   8
ATOM      8  C   UNL     1       6.240   8.766   5.199  1.00  0.00     0.000 C 
BRANCH   8   9
ATOM      9  C   UNL     1       5.553   7.389   5.264  1.00  0.00     0.000 C 
BRANCH   9  10
ATOM     10  C   UNL     1       4.401   7.327   6.291  1.00  0.00     0.000 C 
BRANCH  10  11
ATOM     11  C   UNL     1       4.842   7.572   7.747  1.00  0.00     0.000 C 
BRANCH  11  12
ATOM     12  C   UNL     1       3.675   7.662   8.751  1.00  0.00     0.006 C 
BRANCH  12  13
ATOM     13  C   UNL     1       2.420   8.296   8.132  1.00  0.00     0.053 C 
BRANCH  13  14
ATOM     14  C   UNL     1       2.417   9.781   8.328  1.00  0.00     0.041 C 
ATOM     15  O   UNL     1       2.501  10.553   7.335  1.00  0.00    -0.550 OA
ATOM     16  O   UNL     1       2.286  10.314   9.605  1.00  0.00    -0.550 OA
ENDBRANCH  13  14
ENDBRANCH  12  13
ENDBRANCH  11  12
ENDBRANCH  10  11
ENDBRANCH   9  10
ENDBRANCH   8   9
ENDBRANCH   7   8
ENDBRANCH   6   7
ENDBRANCH   5   6
ENDBRANCH   4   5
ENDBRANCH   3   4
ENDBRANCH   2   3
ENDBRANCH   1   2
BRANCH   1  17
ATOM     17  C   UNL     1       3.893   3.918   7.081  1.00  0.00     0.000 C 
BRANCH  17  18
ATOM     18  C   UNL     1       2.475   4.320   7.528  1.00  0.00     0.000 C 
BRANCH  18  19
ATOM     19  C   UNL     1       2.089   3.736   8.898  1.00  0.00     0.000 C 
BRANCH  19  20
ATOM     20  C   UNL     1       1.370   4.756   9.795  1.00  0.00     0.000 C 
BRANCH  20  21
ATOM     21  C   UNL     1       0.030   5.225   9.207  1.00  0.00     0.000 C 
BRANCH  21  22
ATOM     22  C   UNL     1      -0.675   6.199  10.163  1.00  0.00    -0.000 C 
BRANCH  22  23
ATOM     23  C   UNL     1      -0.547   5.786  11.641  1.00  0.00    -0.000 C 
BRANCH  23  24
ATOM     24  C   UNL     1       0.313   6.726  12.509  1.00  0.00    -0.000 C 
BRANCH  24  25
ATOM     25  C   UNL     1       0.935   7.919  11.762  1.00  0.00    -0.000 C 
BRANCH  25  26
ATOM     26  C   UNL     1       2.040   8.620  12.566  1.00  0.00    -0.000 C 
BRANCH  26  27
ATOM     27  C   UNL     1       2.110   8.072  14.000  1.00  0.00    -0.000 C 
BRANCH  27  28
ATOM     28  C   UNL     1       3.210   8.740  14.843  1.00  0.00    -0.000 C 
BRANCH  28  29
ATOM     29  C   UNL     1       3.472  10.219  14.507  1.00  0.00    -0.003 C 
ATOM     30  C   UNL     1       4.902  10.656  14.816  1.00  0.00     0.004 C 
ENDBRANCH  28  29
ENDBRANCH  27  28
ENDBRANCH  26  27
ENDBRANCH  25  26
ENDBRANCH  24  25
ENDBRANCH  23  24
ENDBRANCH  22  23
ENDBRANCH  21  22
ENDBRANCH  20  21
ENDBRANCH  19  20
ENDBRANCH  18  19
ENDBRANCH  17  18
ENDBRANCH   1  17
TORSDOF 26
ENDMDL
MODEL 2
REMARK VINA RESULT:    -6.096      1.606      7.632
REMARK INTER + INTRA:         -19.117
REMARK INTER:                 -15.295
REMARK INTRA:                  -3.821
REMARK UNBOUND:                -3.756
REMARK SMILES CCCCCCCCCCCCCCCCCCCCCCCCCCCC(=O)[O-]
REMARK SMILES IDX 15 1 16 2 17 3 18 4 19 5 20 6 21 7 22 8 23 9 24 10 25 11
REMARK SMILES IDX 26 12 27 13 28 14 29 15 30 16 14 17 13 18 12 19 11 20 10 21
REMARK SMILES IDX 9 22 8 23 7 24 6 25 5 26 4 27 3 28 2 29 1 30
REMARK H PARENT
REMARK Flexibility Score: inf
ROOT
ATOM      1  C   UNL     1       1.777   5.248   8.837  1.00  0.00     0.000 C 
ENDROOT
BRANCH   1   2
ATOM      2  C   UNL     1       0.573   5.840   8.084  1.00  0.00     0.000 C 
BRANCH   2   3
ATOM      3  C   UNL     1      -0.722   5.833   8.918  1.00  0.00     0.000 C 
BRANCH   3   4
ATOM      4  C   UNL     1      -1.075   4.487   9.579  1.00  0.00     0.000 C 
BRANCH   4   5
ATOM      5  C   UNL     1      -1.210   4.586  11.109  1.00  0.00     0.000 C 
BRANCH   5   6
ATOM      6  C   UNL     1      -0.875   5.989  11.645  1.00  0.00     0.000 C 
BRANCH   6   7
ATOM      7  C   UNL     1       0.570   6.161  12.149  1.00  0.00     0.000 C 
BRANCH   7   8
ATOM      8  C   UNL     1       0.653   6.946  13.470  1.00  0.00     0.000 C 
BRANCH   8   9
ATOM      9  C   UNL     1       1.382   8.291  13.300  1.00  0.00     0.000 C 
BRANCH   9  10
ATOM     10  C   UNL     1       2.099   8.432  11.939  1.00  0.00     0.000 C 
BRANCH  10  11
ATOM     11  C   UNL     1       1.341   9.300  10.916  1.00  0.00     0.000 C 
BRANCH  11  12
ATOM     12  C   UNL     1       1.541   8.864   9.450  1.00  0.00     0.006 C 
BRANCH  12  13
ATOM     13  C   UNL     1       3.022   8.842   9.045  1.00  0.00     0.053 C 
BRANCH  13  14
ATOM     14  C   UNL     1       3.180   9.073   7.574  1.00  0.00     0.041 C 
ATOM     15  O   UNL     1       2.562   8.350   6.747  1.00  0.00    -0.550 OA
ATOM     16  O   UNL     1       3.984  10.110   7.114  1.00  0.00    -0.550 OA
ENDBRANCH  13  14
ENDBRANCH  12  13
ENDBRANCH  11  12
ENDBRANCH  10  11
ENDBRANCH   9  10
ENDBRANCH   8   9
ENDBRANCH   7   8
ENDBRANCH   6   7
ENDBRANCH   5   6
ENDBRANCH   4   5
ENDBRANCH   3   4
ENDBRANCH   2   3
ENDBRANCH   1   2
BRANCH   1  17
ATOM     17  C   UNL     1       2.132   3.825   8.370  1.00  0.00     0.000 C 
BRANCH  17  18
ATOM     18  C   UNL     1       3.434   3.708   7.554  1.00  0.00     0.000 C 
BRANCH  18  19
ATOM     19  C   UNL     1       4.028   5.075   7.174  1.00  0.00     0.000 C 
BRANCH  19  20
ATOM     20  C   UNL     1       5.355   5.365   7.895  1.00  0.00     0.000 C 
BRANCH  20  21
ATOM     21  C   UNL     1       6.130   4.087   8.250  1.00  0.00     0.000 C 
BRANCH  21  22
ATOM     22  C   UNL     1       7.618   4.236   7.901  1.00  0.00    -0.000 C 
BRANCH  22  23
ATOM     23  C   UNL     1       8.426   4.936   9.010  1.00  0.00    -0.000 C 
BRANCH  23  24
ATOM     24  C   UNL     1       9.100   6.258   8.592  1.00  0.00    -0.000 C 
BRANCH  24  25
ATOM     25  C   UNL     1       8.927   6.640   7.111  1.00  0.00    -0.000 C 
BRANCH  25  26
ATOM     26  C   UNL     1       8.006   7.851   6.908  1.00  0.00    -0.000 C 
BRANCH  26  27
ATOM     27  C   UNL     1       7.759   8.112   5.414  1.00  0.00    -0.000 C 
BRANCH  27  28
ATOM     28  C   UNL     1       6.316   8.555   5.114  1.00  0.00    -0.000 C 
BRANCH  28  29
ATOM     29  C   UNL     1       5.369   7.421   4.686  1.00  0.00    -0.003 C 
ATOM     30  C   UNL     1       6.107   6.138   4.308  1.00  0.00     0.004 C 
ENDBRANCH  28  29
ENDBRANCH  27  28
ENDBRANCH  26  27
ENDBRANCH  25  26
ENDBRANCH  24  25
ENDBRANCH  23  24
ENDBRANCH  22  23
ENDBRANCH  21  22
ENDBRANCH  20  21
ENDBRANCH  19  20
ENDBRANCH  18  19
ENDBRANCH  17  18
ENDBRANCH   1  17
TORSDOF 26
ENDMDL
MODEL 3
REMARK VINA RESULT:    -6.085      2.563      4.132
REMARK INTER + INTRA:         -19.091
REMARK INTER:                 -14.444
REMARK INTRA:                  -4.648
REMARK UNBOUND:                -3.756
REMARK SMILES CCCCCCCCCCCCCCCCCCCCCCCCCCCC(=O)[O-]
REMARK SMILES IDX 15 1 16 2 17 3 18 4 19 5 20 6 21 7 22 8 23 9 24 10 25 11
REMARK SMILES IDX 26 12 27 13 28 14 29 15 30 16 14 17 13 18 12 19 11 20 10 21
REMARK SMILES IDX 9 22 8 23 7 24 6 25 5 26 4 27 3 28 2 29 1 30
REMARK H PARENT
REMARK Flexibility Score: inf
ROOT
ATOM      1  C   UNL     1       2.318   6.915   6.378  1.00  0.00     0.000 C 
ENDROOT
BRANCH   1   2
ATOM      2  C   UNL     1       3.161   7.652   7.433  1.00  0.00     0.000 C 
BRANCH   2   3
ATOM      3  C   UNL     1       3.200   9.177   7.215  1.00  0.00     0.000 C 
BRANCH   3   4
ATOM      4  C   UNL     1       4.607   9.802   7.169  1.00  0.00     0.000 C 
BRANCH   4   5
ATOM      5  C   UNL     1       5.727   8.783   7.441  1.00  0.00     0.000 C 
BRANCH   5   6
ATOM      6  C   UNL     1       6.740   8.692   6.286  1.00  0.00     0.000 C 
BRANCH   6   7
ATOM      7  C   UNL     1       6.115   8.625   4.881  1.00  0.00     0.000 C 
BRANCH   7   8
ATOM      8  C   UNL     1       5.579   7.226   4.530  1.00  0.00     0.000 C 
BRANCH   8   9
ATOM      9  C   UNL     1       6.407   6.108   5.188  1.00  0.00     0.000 C 
BRANCH   9  10
ATOM     10  C   UNL     1       5.579   5.200   6.124  1.00  0.00     0.000 C 
BRANCH  10  11
ATOM     11  C   UNL     1       6.414   4.475   7.198  1.00  0.00     0.000 C 
BRANCH  11  12
ATOM     12  C   UNL     1       6.929   5.395   8.323  1.00  0.00     0.006 C 
BRANCH  12  13
ATOM     13  C   UNL     1       8.421   5.179   8.616  1.00  0.00     0.053 C 
BRANCH  13  14
ATOM     14  C   UNL     1       9.213   6.410   8.299  1.00  0.00     0.041 C 
ATOM     15  O   UNL     1       9.876   6.989   9.200  1.00  0.00    -0.550 OA
ATOM     16  O   UNL     1       9.247   6.899   6.998  1.00  0.00    -0.550 OA
ENDBRANCH  13  14
ENDBRANCH  12  13
ENDBRANCH  11  12
ENDBRANCH  10  11
ENDBRANCH   9  10
ENDBRANCH   8   9
ENDBRANCH   7   8
ENDBRANCH   6   7
ENDBRANCH   5   6
ENDBRANCH   4   5
ENDBRANCH   3   4
ENDBRANCH   2   3
ENDBRANCH   1   2
BRANCH   1  17
ATOM     17  C   UNL     1       1.952   5.480   6.801  1.00  0.00     0.000 C 
BRANCH  17  18
ATOM     18  C   UNL     1       2.742   4.929   8.003  1.00  0.00     0.000 C 
BRANCH  18  19
ATOM     19  C   UNL     1       1.888   4.042   8.926  1.00  0.00     0.000 C 
BRANCH  19  20
ATOM     20  C   UNL     1       1.570   4.720  10.269  1.00  0.00     0.000 C 
BRANCH  20  21
ATOM     21  C   UNL     1       0.060   4.861  10.521  1.00  0.00     0.000 C 
BRANCH  21  22
ATOM     22  C   UNL     1      -0.706   4.975   9.195  1.00  0.00    -0.000 C 
BRANCH  22  23
ATOM     23  C   UNL     1      -1.069   6.428   8.836  1.00  0.00    -0.000 C 
BRANCH  23  24
ATOM     24  C   UNL     1      -0.669   7.480   9.889  1.00  0.00    -0.000 C 
BRANCH  24  25
ATOM     25  C   UNL     1       0.557   8.335   9.525  1.00  0.00    -0.000 C 
BRANCH  25  26
ATOM     26  C   UNL     1       1.679   8.249  10.571  1.00  0.00    -0.000 C 
BRANCH  26  27
ATOM     27  C   UNL     1       1.320   9.051  11.831  1.00  0.00    -0.000 C 
BRANCH  27  28
ATOM     28  C   UNL     1       1.632   8.292  13.133  1.00  0.00    -0.000 C 
BRANCH  28  29
ATOM     29  C   UNL     1       0.731   7.075  13.402  1.00  0.00    -0.003 C 
ATOM     30  C   UNL     1       1.155   6.281  14.637  1.00  0.00     0.004 C 
ENDBRANCH  28  29
ENDBRANCH  27  28
ENDBRANCH  26  27
ENDBRANCH  25  26
ENDBRANCH  24  25
ENDBRANCH  23  24
ENDBRANCH  22  23
ENDBRANCH  21  22
ENDBRANCH  20  21
ENDBRANCH  19  20
ENDBRANCH  18  19
ENDBRANCH  17  18
ENDBRANCH   1  17
TORSDOF 26
ENDMDL
MODEL 4
REMARK VINA RESULT:    -6.034      2.338      7.152
REMARK INTER + INTRA:         -18.961
REMARK INTER:                 -14.903
REMARK INTRA:                  -4.058
REMARK UNBOUND:                -3.756
REMARK SMILES CCCCCCCCCCCCCCCCCCCCCCCCCCCC(=O)[O-]
REMARK SMILES IDX 15 1 16 2 17 3 18 4 19 5 20 6 21 7 22 8 23 9 24 10 25 11
REMARK SMILES IDX 26 12 27 13 28 14 29 15 30 16 14 17 13 18 12 19 11 20 10 21
REMARK SMILES IDX 9 22 8 23 7 24 6 25 5 26 4 27 3 28 2 29 1 30
REMARK H PARENT
REMARK Flexibility Score: inf
ROOT
ATOM      1  C   UNL     1       2.542   6.021   9.278  1.00  0.00     0.000 C 
ENDROOT
BRANCH   1   2
ATOM      2  C   UNL     1       3.909   6.669   9.560  1.00  0.00     0.000 C 
BRANCH   2   3
ATOM      3  C   UNL     1       4.610   7.175   8.286  1.00  0.00     0.000 C 
BRANCH   3   4
ATOM      4  C   UNL     1       4.681   8.707   8.135  1.00  0.00     0.000 C 
BRANCH   4   5
ATOM      5  C   UNL     1       3.511   9.285   7.319  1.00  0.00     0.000 C 
BRANCH   5   6
ATOM      6  C   UNL     1       2.591  10.187   8.161  1.00  0.00     0.000 C 
BRANCH   6   7
ATOM      7  C   UNL     1       1.707   9.441   9.177  1.00  0.00     0.000 C 
BRANCH   7   8
ATOM      8  C   UNL     1       2.207   9.587  10.625  1.00  0.00     0.000 C 
BRANCH   8   9
ATOM      9  C   UNL     1       1.128   9.198  11.652  1.00  0.00     0.000 C 
BRANCH   9  10
ATOM     10  C   UNL     1       1.652   8.271  12.771  1.00  0.00     0.000 C 
BRANCH  10  11
ATOM     11  C   UNL     1       0.810   6.997  12.979  1.00  0.00     0.000 C 
BRANCH  11  12
ATOM     12  C   UNL     1       0.274   6.378  11.673  1.00  0.00     0.006 C 
BRANCH  12  13
ATOM     13  C   UNL     1      -1.134   5.788  11.843  1.00  0.00     0.053 C 
BRANCH  13  14
ATOM     14  C   UNL     1      -1.311   4.568  10.991  1.00  0.00     0.041 C 
ATOM     15  O   UNL     1      -1.810   3.519  11.480  1.00  0.00    -0.550 OA
ATOM     16  O   UNL     1      -0.958   4.601   9.647  1.00  0.00    -0.550 OA
ENDBRANCH  13  14
ENDBRANCH  12  13
ENDBRANCH  11  12
ENDBRANCH  10  11
ENDBRANCH   9  10
ENDBRANCH   8   9
ENDBRANCH   7   8
ENDBRANCH   6   7
ENDBRANCH   5   6
ENDBRANCH   4   5
ENDBRANCH   3   4
ENDBRANCH   2   3
ENDBRANCH   1   2
BRANCH   1  17
ATOM     17  C   UNL     1       2.543   4.499   9.509  1.00  0.00     0.000 C 
BRANCH  17  18
ATOM     18  C   UNL     1       2.099   3.651   8.302  1.00  0.00     0.000 C 
BRANCH  18  19
ATOM     19  C   UNL     1       3.186   3.532   7.220  1.00  0.00     0.000 C 
BRANCH  19  20
ATOM     20  C   UNL     1       4.549   3.113   7.795  1.00  0.00     0.000 C 
BRANCH  20  21
ATOM     21  C   UNL     1       5.666   4.117   7.469  1.00  0.00     0.000 C 
BRANCH  21  22
ATOM     22  C   UNL     1       6.699   4.173   8.604  1.00  0.00    -0.000 C 
BRANCH  22  23
ATOM     23  C   UNL     1       8.131   4.428   8.098  1.00  0.00    -0.000 C 
BRANCH  23  24
ATOM     24  C   UNL     1       8.746   5.774   8.531  1.00  0.00    -0.000 C 
BRANCH  24  25
ATOM     25  C   UNL     1       9.104   6.730   7.379  1.00  0.00    -0.000 C 
BRANCH  25  26
ATOM     26  C   UNL     1       7.953   7.676   7.006  1.00  0.00    -0.000 C 
BRANCH  26  27
ATOM     27  C   UNL     1       8.057   8.119   5.539  1.00  0.00    -0.000 C 
BRANCH  27  28
ATOM     28  C   UNL     1       6.709   8.576   4.954  1.00  0.00    -0.000 C 
BRANCH  28  29
ATOM     29  C   UNL     1       5.635   7.478   4.874  1.00  0.00    -0.003 C 
ATOM     30  C   UNL     1       6.171   6.157   4.326  1.00  0.00     0.004 C 
ENDBRANCH  28  29
ENDBRANCH  27  28
ENDBRANCH  26  27
ENDBRANCH  25  26
ENDBRANCH  24  25
ENDBRANCH  23  24
ENDBRANCH  22  23
ENDBRANCH  21  22
ENDBRANCH  20  21
ENDBRANCH  19  20
ENDBRANCH  18  19
ENDBRANCH  17  18
ENDBRANCH   1  17
TORSDOF 26
ENDMDL
MODEL 5
REMARK VINA RESULT:    -6.032      2.469      7.700
REMARK INTER + INTRA:         -18.955
REMARK INTER:                 -15.561
REMARK INTRA:                  -3.395
REMARK UNBOUND:                -3.756
REMARK SMILES CCCCCCCCCCCCCCCCCCCCCCCCCCCC(=O)[O-]
REMARK SMILES IDX 15 1 16 2 17 3 18 4 19 5 20 6 21 7 22 8 23 9 24 10 25 11
REMARK SMILES IDX 26 12 27 13 28 14 29 15 30 16 14 17 13 18 12 19 11 20 10 21
REMARK SMILES IDX 9 22 8 23 7 24 6 25 5 26 4 27 3 28 2 29 1 30
REMARK H PARENT
REMARK Flexibility Score: inf
ROOT
ATOM      1  C   UNL     1       2.340   9.532   9.322  1.00  0.00     0.000 C 
ENDROOT
BRANCH   1   2
ATOM      2  C   UNL     1       1.601   9.505  10.672  1.00  0.00     0.000 C 
BRANCH   2   3
ATOM      3  C   UNL     1       1.829   8.200  11.457  1.00  0.00     0.000 C 
BRANCH   3   4
ATOM      4  C   UNL     1       1.094   8.104  12.808  1.00  0.00     0.000 C 
BRANCH   4   5
ATOM      5  C   UNL     1       0.297   6.797  12.967  1.00  0.00     0.000 C 
BRANCH   5   6
ATOM      6  C   UNL     1       0.466   5.850  11.766  1.00  0.00     0.000 C 
BRANCH   6   7
ATOM      7  C   UNL     1      -0.835   5.524  11.010  1.00  0.00     0.000 C 
BRANCH   7   8
ATOM      8  C   UNL     1      -0.599   5.201   9.524  1.00  0.00     0.000 C 
BRANCH   8   9
ATOM      9  C   UNL     1      -0.179   6.445   8.721  1.00  0.00     0.000 C 
BRANCH   9  10
ATOM     10  C   UNL     1       1.108   6.235   7.893  1.00  0.00     0.000 C 
BRANCH  10  11
ATOM     11  C   UNL     1       1.692   4.812   7.987  1.00  0.00     0.000 C 
BRANCH  11  12
ATOM     12  C   UNL     1       2.698   4.620   9.140  1.00  0.00     0.006 C 
BRANCH  12  13
ATOM     13  C   UNL     1       4.129   5.005   8.736  1.00  0.00     0.053 C 
BRANCH  13  14
ATOM     14  C   UNL     1       4.721   3.983   7.815  1.00  0.00     0.041 C 
ATOM     15  O   UNL     1       4.139   2.881   7.631  1.00  0.00    -0.550 OA
ATOM     16  O   UNL     1       5.900   4.262   7.132  1.00  0.00    -0.550 OA
ENDBRANCH  13  14
ENDBRANCH  12  13
ENDBRANCH  11  12
ENDBRANCH  10  11
ENDBRANCH   9  10
ENDBRANCH   8   9
ENDBRANCH   7   8
ENDBRANCH   6   7
ENDBRANCH   5   6
ENDBRANCH   4   5
ENDBRANCH   3   4
ENDBRANCH   2   3
ENDBRANCH   1   2
BRANCH   1  17
ATOM     17  C   UNL     1       3.316   8.354   9.151  1.00  0.00     0.000 C 
BRANCH  17  18
ATOM     18  C   UNL     1       4.572   8.658   8.313  1.00  0.00     0.000 C 
BRANCH  18  19
ATOM     19  C   UNL     1       4.268   8.811   6.812  1.00  0.00     0.000 C 
BRANCH  19  20
ATOM     20  C   UNL     1       4.141   7.458   6.093  1.00  0.00     0.000 C 
BRANCH  20  21
ATOM     21  C   UNL     1       5.400   7.088   5.294  1.00  0.00     0.000 C 
BRANCH  21  22
ATOM     22  C   UNL     1       6.308   8.313   5.107  1.00  0.00    -0.000 C 
BRANCH  22  23
ATOM     23  C   UNL     1       7.718   8.107   5.689  1.00  0.00    -0.000 C 
BRANCH  23  24
ATOM     24  C   UNL     1       7.774   7.290   6.995  1.00  0.00    -0.000 C 
BRANCH  24  25
ATOM     25  C   UNL     1       9.087   6.524   7.232  1.00  0.00    -0.000 C 
BRANCH  25  26
ATOM     26  C   UNL     1       9.408   6.331   8.721  1.00  0.00    -0.000 C 
BRANCH  26  27
ATOM     27  C   UNL     1       8.604   5.162   9.311  1.00  0.00    -0.000 C 
BRANCH  27  28
ATOM     28  C   UNL     1       9.137   4.697  10.677  1.00  0.00    -0.000 C 
BRANCH  28  29
ATOM     29  C   UNL     1       8.789   3.245  11.046  1.00  0.00    -0.003 C 
ATOM     30  C   UNL     1       8.775   2.999  12.554  1.00  0.00     0.004 C 
ENDBRANCH  28  29
ENDBRANCH  27  28
ENDBRANCH  26  27
ENDBRANCH  25  26
ENDBRANCH  24  25
ENDBRANCH  23  24
ENDBRANCH  22  23
ENDBRANCH  21  22
ENDBRANCH  20  21
ENDBRANCH  19  20
ENDBRANCH  18  19
ENDBRANCH  17  18
ENDBRANCH   1  17
TORSDOF 26
ENDMDL
MODEL 6
REMARK VINA RESULT:    -6.023      2.805      5.676
REMARK INTER + INTRA:         -18.934
REMARK INTER:                 -14.552
REMARK INTRA:                  -4.382
REMARK UNBOUND:                -3.756
REMARK SMILES CCCCCCCCCCCCCCCCCCCCCCCCCCCC(=O)[O-]
REMARK SMILES IDX 15 1 16 2 17 3 18 4 19 5 20 6 21 7 22 8 23 9 24 10 25 11
REMARK SMILES IDX 26 12 27 13 28 14 29 15 30 16 14 17 13 18 12 19 11 20 10 21
REMARK SMILES IDX 9 22 8 23 7 24 6 25 5 26 4 27 3 28 2 29 1 30
REMARK H PARENT
REMARK Flexibility Score: inf
ROOT
ATOM      1  C   UNL     1       2.521   9.267   8.105  1.00  0.00     0.000 C 
ENDROOT
BRANCH   1   2
ATOM      2  C   UNL     1       3.939   9.236   7.507  1.00  0.00     0.000 C 
BRANCH   2   3
ATOM      3  C   UNL     1       4.937   8.433   8.363  1.00  0.00     0.000 C 
BRANCH   3   4
ATOM      4  C   UNL     1       4.960   6.915   8.102  1.00  0.00     0.000 C 
BRANCH   4   5
ATOM      5  C   UNL     1       4.533   6.545   6.670  1.00  0.00     0.000 C 
BRANCH   5   6
ATOM      6  C   UNL     1       5.630   5.784   5.903  1.00  0.00     0.000 C 
BRANCH   6   7
ATOM      7  C   UNL     1       6.150   6.497   4.642  1.00  0.00     0.000 C 
BRANCH   7   8
ATOM      8  C   UNL     1       5.946   8.022   4.689  1.00  0.00     0.000 C 
BRANCH   8   9
ATOM      9  C   UNL     1       7.099   8.738   5.416  1.00  0.00     0.000 C 
BRANCH   9  10
ATOM     10  C   UNL     1       8.266   7.798   5.791  1.00  0.00     0.000 C 
BRANCH  10  11
ATOM     11  C   UNL     1       8.368   7.490   7.298  1.00  0.00     0.000 C 
BRANCH  11  12
ATOM     12  C   UNL     1       9.232   6.258   7.631  1.00  0.00     0.006 C 
BRANCH  12  13
ATOM     13  C   UNL     1       8.436   5.167   8.362  1.00  0.00     0.053 C 
BRANCH  13  14
ATOM     14  C   UNL     1       8.920   5.002   9.770  1.00  0.00     0.041 C 
ATOM     15  O   UNL     1       8.500   4.048  10.479  1.00  0.00    -0.550 OA
ATOM     16  O   UNL     1       9.862   5.882  10.290  1.00  0.00    -0.550 OA
ENDBRANCH  13  14
ENDBRANCH  12  13
ENDBRANCH  11  12
ENDBRANCH  10  11
ENDBRANCH   9  10
ENDBRANCH   8   9
ENDBRANCH   7   8
ENDBRANCH   6   7
ENDBRANCH   5   6
ENDBRANCH   4   5
ENDBRANCH   3   4
ENDBRANCH   2   3
ENDBRANCH   1   2
BRANCH   1  17
ATOM     17  C   UNL     1       2.515   9.101   9.636  1.00  0.00     0.000 C 
BRANCH  17  18
ATOM     18  C   UNL     1       1.119   9.052  10.286  1.00  0.00     0.000 C 
BRANCH  18  19
ATOM     19  C   UNL     1       1.165   9.189  11.818  1.00  0.00     0.000 C 
BRANCH  19  20
ATOM     20  C   UNL     1       1.748   7.945  12.506  1.00  0.00     0.000 C 
BRANCH  20  21
ATOM     21  C   UNL     1       1.212   6.632  11.913  1.00  0.00     0.000 C 
BRANCH  21  22
ATOM     22  C   UNL     1      -0.195   6.326  12.447  1.00  0.00    -0.000 C 
BRANCH  22  23
ATOM     23  C   UNL     1      -1.038   5.489  11.468  1.00  0.00    -0.000 C 
BRANCH  23  24
ATOM     24  C   UNL     1      -1.377   6.186  10.135  1.00  0.00    -0.000 C 
BRANCH  24  25
ATOM     25  C   UNL     1      -0.811   5.503   8.878  1.00  0.00    -0.000 C 
BRANCH  25  26
ATOM     26  C   UNL     1       0.353   6.280   8.245  1.00  0.00    -0.000 C 
BRANCH  26  27
ATOM     27  C   UNL     1       1.694   5.580   8.514  1.00  0.00    -0.000 C 
BRANCH  27  28
ATOM     28  C   UNL     1       1.524   4.171   9.109  1.00  0.00    -0.000 C 
BRANCH  28  29
ATOM     29  C   UNL     1       2.336   3.071   8.405  1.00  0.00    -0.003 C 
ATOM     30  C   UNL     1       2.905   3.518   7.059  1.00  0.00     0.004 C 
ENDBRANCH  28  29
ENDBRANCH  27  28
ENDBRANCH  26  27
ENDBRANCH  25  26
ENDBRANCH  24  25
ENDBRANCH  23  24
ENDBRANCH  22  23
ENDBRANCH  21  22
ENDBRANCH  20  21
ENDBRANCH  19  20
ENDBRANCH  18  19
ENDBRANCH  17  18
ENDBRANCH   1  17
TORSDOF 26
ENDMDL
MODEL 7
REMARK VINA RESULT:    -6.011      2.167      5.860
REMARK INTER + INTRA:         -18.905
REMARK INTER:                 -14.424
REMARK INTRA:                  -4.481
REMARK UNBOUND:                -3.756
REMARK SMILES CCCCCCCCCCCCCCCCCCCCCCCCCCCC(=O)[O-]
REMARK SMILES IDX 15 1 16 2 17 3 18 4 19 5 20 6 21 7 22 8 23 9 24 10 25 11
REMARK SMILES IDX 26 12 27 13 28 14 29 15 30 16 14 17 13 18 12 19 11 20 10 21
REMARK SMILES IDX 9 22 8 23 7 24 6 25 5 26 4 27 3 28 2 29 1 30
REMARK H PARENT
REMARK Flexibility Score: inf
ROOT
ATOM      1  C   UNL     1       8.153   7.310   5.860  1.00  0.00     0.000 C 
ENDROOT
BRANCH   1   2
ATOM      2  C   UNL     1       7.674   8.545   5.077  1.00  0.00     0.000 C 
BRANCH   2   3
ATOM      3  C   UNL     1       6.140   8.684   5.050  1.00  0.00     0.000 C 
BRANCH   3   4
ATOM      4  C   UNL     1       5.357   7.358   5.005  1.00  0.00     0.000 C 
BRANCH   4   5
ATOM      5  C   UNL     1       4.194   7.313   6.012  1.00  0.00     0.000 C 
BRANCH   5   6
ATOM      6  C   UNL     1       4.675   7.200   7.470  1.00  0.00     0.000 C 
BRANCH   6   7
ATOM      7  C   UNL     1       4.628   8.514   8.271  1.00  0.00     0.000 C 
BRANCH   7   8
ATOM      8  C   UNL     1       3.623   9.528   7.697  1.00  0.00     0.000 C 
BRANCH   8   9
ATOM      9  C   UNL     1       2.236   9.402   8.352  1.00  0.00     0.000 C 
BRANCH   9  10
ATOM     10  C   UNL     1       2.213   9.845   9.832  1.00  0.00     0.000 C 
BRANCH  10  11
ATOM     11  C   UNL     1       1.237   9.044  10.714  1.00  0.00     0.000 C 
BRANCH  11  12
ATOM     12  C   UNL     1       1.736   8.812  12.155  1.00  0.00     0.006 C 
BRANCH  12  13
ATOM     13  C   UNL     1       1.014   7.644  12.842  1.00  0.00     0.053 C 
BRANCH  13  14
ATOM     14  C   UNL     1       1.628   7.342  14.174  1.00  0.00     0.041 C 
ATOM     15  O   UNL     1       1.274   6.320  14.820  1.00  0.00    -0.550 OA
ATOM     16  O   UNL     1       2.617   8.173  14.689  1.00  0.00    -0.550 OA
ENDBRANCH  13  14
ENDBRANCH  12  13
ENDBRANCH  11  12
ENDBRANCH  10  11
ENDBRANCH   9  10
ENDBRANCH   8   9
ENDBRANCH   7   8
ENDBRANCH   6   7
ENDBRANCH   5   6
ENDBRANCH   4   5
ENDBRANCH   3   4
ENDBRANCH   2   3
ENDBRANCH   1   2
BRANCH   1  17
ATOM     17  C   UNL     1       8.295   7.578   7.370  1.00  0.00     0.000 C 
BRANCH  17  18
ATOM     18  C   UNL     1       9.021   6.477   8.166  1.00  0.00     0.000 C 
BRANCH  18  19
ATOM     19  C   UNL     1       8.054   5.508   8.870  1.00  0.00     0.000 C 
BRANCH  19  20
ATOM     20  C   UNL     1       7.746   4.262   8.024  1.00  0.00     0.000 C 
BRANCH  20  21
ATOM     21  C   UNL     1       6.407   4.366   7.277  1.00  0.00     0.000 C 
BRANCH  21  22
ATOM     22  C   UNL     1       5.254   3.848   8.149  1.00  0.00    -0.000 C 
BRANCH  22  23
ATOM     23  C   UNL     1       4.043   3.378   7.322  1.00  0.00    -0.000 C 
BRANCH  23  24
ATOM     24  C   UNL     1       2.684   3.955   7.768  1.00  0.00    -0.000 C 
BRANCH  24  25
ATOM     25  C   UNL     1       2.587   4.320   9.259  1.00  0.00    -0.000 C 
BRANCH  25  26
ATOM     26  C   UNL     1       2.126   5.767   9.493  1.00  0.00    -0.000 C 
BRANCH  26  27
ATOM     27  C   UNL     1       1.032   6.165   8.490  1.00  0.00    -0.000 C 
BRANCH  27  28
ATOM     28  C   UNL     1      -0.340   5.557   8.828  1.00  0.00    -0.000 C 
BRANCH  28  29
ATOM     29  C   UNL     1      -0.997   6.114  10.102  1.00  0.00    -0.003 C 
ATOM     30  C   UNL     1      -1.103   5.080  11.221  1.00  0.00     0.004 C 
ENDBRANCH  28  29
ENDBRANCH  27  28
ENDBRANCH  26  27
ENDBRANCH  25  26
ENDBRANCH  24  25
ENDBRANCH  23  24
ENDBRANCH  22  23
ENDBRANCH  21  22
ENDBRANCH  20  21
ENDBRANCH  19  20
ENDBRANCH  18  19
ENDBRANCH  17  18
ENDBRANCH   1  17
TORSDOF 26
ENDMDL
MODEL 8
REMARK VINA RESULT:    -5.993      2.395      6.569
REMARK INTER + INTRA:         -18.857
REMARK INTER:                 -15.062
REMARK INTRA:                  -3.795
REMARK UNBOUND:                -3.756
REMARK SMILES CCCCCCCCCCCCCCCCCCCCCCCCCCCC(=O)[O-]
REMARK SMILES IDX 15 1 16 2 17 3 18 4 19 5 20 6 21 7 22 8 23 9 24 10 25 11
REMARK SMILES IDX 26 12 27 13 28 14 29 15 30 16 14 17 13 18 12 19 11 20 10 21
REMARK SMILES IDX 9 22 8 23 7 24 6 25 5 26 4 27 3 28 2 29 1 30
REMARK H PARENT
REMARK Flexibility Score: inf
ROOT
ATOM      1  C   UNL     1      -1.173   5.442  11.515  1.00  0.00     0.000 C 
ENDROOT
BRANCH   1   2
ATOM      2  C   UNL     1       0.179   5.998  11.995  1.00  0.00     0.000 C 
BRANCH   2   3
ATOM      3  C   UNL     1       0.035   7.250  12.881  1.00  0.00     0.000 C 
BRANCH   3   4
ATOM      4  C   UNL     1       1.220   8.233  12.833  1.00  0.00     0.000 C 
BRANCH   4   5
ATOM      5  C   UNL     1       2.129   8.020  11.609  1.00  0.00     0.000 C 
BRANCH   5   6
ATOM      6  C   UNL     1       2.029   9.170  10.590  1.00  0.00     0.000 C 
BRANCH   6   7
ATOM      7  C   UNL     1       1.301   8.813   9.281  1.00  0.00     0.000 C 
BRANCH   7   8
ATOM      8  C   UNL     1       2.204   8.938   8.041  1.00  0.00     0.000 C 
BRANCH   8   9
ATOM      9  C   UNL     1       3.699   8.930   8.411  1.00  0.00     0.000 C 
BRANCH   9  10
ATOM     10  C   UNL     1       4.635   8.950   7.182  1.00  0.00     0.000 C 
BRANCH  10  11
ATOM     11  C   UNL     1       4.449   7.753   6.229  1.00  0.00     0.000 C 
BRANCH  11  12
ATOM     12  C   UNL     1       5.618   7.543   5.247  1.00  0.00     0.006 C 
BRANCH  12  13
ATOM     13  C   UNL     1       6.444   8.821   5.041  1.00  0.00     0.053 C 
BRANCH  13  14
ATOM     14  C   UNL     1       7.901   8.561   5.270  1.00  0.00     0.041 C 
ATOM     15  O   UNL     1       8.771   9.194   4.612  1.00  0.00    -0.550 OA
ATOM     16  O   UNL     1       8.302   7.644   6.234  1.00  0.00    -0.550 OA
ENDBRANCH  13  14
ENDBRANCH  12  13
ENDBRANCH  11  12
ENDBRANCH  10  11
ENDBRANCH   9  10
ENDBRANCH   8   9
ENDBRANCH   7   8
ENDBRANCH   6   7
ENDBRANCH   5   6
ENDBRANCH   4   5
ENDBRANCH   3   4
ENDBRANCH   2   3
ENDBRANCH   1   2
BRANCH   1  17
ATOM     17  C   UNL     1      -1.149   5.009  10.037  1.00  0.00     0.000 C 
BRANCH  17  18
ATOM     18  C   UNL     1      -0.443   5.987   9.078  1.00  0.00     0.000 C 
BRANCH  18  19
ATOM     19  C   UNL     1       0.716   5.334   8.303  1.00  0.00     0.000 C 
BRANCH  19  20
ATOM     20  C   UNL     1       1.508   4.331   9.158  1.00  0.00     0.000 C 
BRANCH  20  21
ATOM     21  C   UNL     1       2.724   4.968   9.847  1.00  0.00     0.000 C 
BRANCH  21  22
ATOM     22  C   UNL     1       3.774   5.400   8.812  1.00  0.00    -0.000 C 
BRANCH  22  23
ATOM     23  C   UNL     1       4.218   4.248   7.892  1.00  0.00    -0.000 C 
BRANCH  23  24
ATOM     24  C   UNL     1       5.627   4.402   7.286  1.00  0.00    -0.000 C 
BRANCH  24  25
ATOM     25  C   UNL     1       6.614   5.229   8.129  1.00  0.00    -0.000 C 
BRANCH  25  26
ATOM     26  C   UNL     1       7.791   4.397   8.661  1.00  0.00    -0.000 C 
BRANCH  26  27
ATOM     27  C   UNL     1       8.810   5.287   9.389  1.00  0.00    -0.000 C 
BRANCH  27  28
ATOM     28  C   UNL     1       9.331   4.657  10.693  1.00  0.00    -0.000 C 
BRANCH  28  29
ATOM     29  C   UNL     1       8.678   3.316  11.068  1.00  0.00    -0.003 C 
ATOM     30  C   UNL     1       8.704   3.038  12.570  1.00  0.00     0.004 C 
ENDBRANCH  28  29
ENDBRANCH  27  28
ENDBRANCH  26  27
ENDBRANCH  25  26
ENDBRANCH  24  25
ENDBRANCH  23  24
ENDBRANCH  22  23
ENDBRANCH  21  22
ENDBRANCH  20  21
ENDBRANCH  19  20
ENDBRANCH  18  19
ENDBRANCH  17  18
ENDBRANCH   1  17
TORSDOF 26
ENDMDL
MODEL 9
REMARK VINA RESULT:    -5.919      1.550      7.318
REMARK INTER + INTRA:         -18.672
REMARK INTER:                 -15.046
REMARK INTRA:                  -3.626
REMARK UNBOUND:                -3.756
REMARK SMILES CCCCCCCCCCCCCCCCCCCCCCCCCCCC(=O)[O-]
REMARK SMILES IDX 15 1 16 2 17 3 18 4 19 5 20 6 21 7 22 8 23 9 24 10 25 11
REMARK SMILES IDX 26 12 27 13 28 14 29 15 30 16 14 17 13 18 12 19 11 20 10 21
REMARK SMILES IDX 9 22 8 23 7 24 6 25 5 26 4 27 3 28 2 29 1 30
REMARK H PARENT
REMARK Flexibility Score: inf
ROOT
ATOM      1  C   UNL     1       2.713   3.584   8.526  1.00  0.00     0.000 C 
ENDROOT
BRANCH   1   2
ATOM      2  C   UNL     1       1.824   4.531   9.350  1.00  0.00     0.000 C 
BRANCH   2   3
ATOM      3  C   UNL     1       0.719   5.201   8.513  1.00  0.00     0.000 C 
BRANCH   3   4
ATOM      4  C   UNL     1      -0.690   5.175   9.136  1.00  0.00     0.000 C 
BRANCH   4   5
ATOM      5  C   UNL     1      -0.915   6.299  10.163  1.00  0.00     0.000 C 
BRANCH   5   6
ATOM      6  C   UNL     1      -0.746   5.818  11.615  1.00  0.00     0.000 C 
BRANCH   6   7
ATOM      7  C   UNL     1       0.608   6.166  12.259  1.00  0.00     0.000 C 
BRANCH   7   8
ATOM      8  C   UNL     1       0.523   7.367  13.218  1.00  0.00     0.000 C 
BRANCH   8   9
ATOM      9  C   UNL     1       1.488   8.498  12.816  1.00  0.00     0.000 C 
BRANCH   9  10
ATOM     10  C   UNL     1       1.208   9.072  11.410  1.00  0.00     0.000 C 
BRANCH  10  11
ATOM     11  C   UNL     1       2.222   8.631  10.336  1.00  0.00     0.000 C 
BRANCH  11  12
ATOM     12  C   UNL     1       1.701   8.755   8.890  1.00  0.00     0.006 C 
BRANCH  12  13
ATOM     13  C   UNL     1       2.714   8.236   7.859  1.00  0.00     0.053 C 
BRANCH  13  14
ATOM     14  C   UNL     1       3.881   9.166   7.737  1.00  0.00     0.041 C 
ATOM     15  O   UNL     1       3.756  10.268   7.139  1.00  0.00    -0.550 OA
ATOM     16  O   UNL     1       5.101   8.831   8.313  1.00  0.00    -0.550 OA
ENDBRANCH  13  14
ENDBRANCH  12  13
ENDBRANCH  11  12
ENDBRANCH  10  11
ENDBRANCH   9  10
ENDBRANCH   8   9
ENDBRANCH   7   8
ENDBRANCH   6   7
ENDBRANCH   5   6
ENDBRANCH   4   5
ENDBRANCH   3   4
ENDBRANCH   2   3
ENDBRANCH   1   2
BRANCH   1  17
ATOM     17  C   UNL     1       3.317   4.262   7.282  1.00  0.00     0.000 C 
BRANCH  17  18
ATOM     18  C   UNL     1       4.785   4.706   7.424  1.00  0.00     0.000 C 
BRANCH  18  19
ATOM     19  C   UNL     1       5.142   5.895   6.515  1.00  0.00     0.000 C 
BRANCH  19  20
ATOM     20  C   UNL     1       5.831   5.458   5.213  1.00  0.00     0.000 C 
BRANCH  20  21
ATOM     21  C   UNL     1       6.151   6.640   4.284  1.00  0.00     0.000 C 
BRANCH  21  22
ATOM     22  C   UNL     1       5.968   7.976   5.018  1.00  0.00    -0.000 C 
BRANCH  22  23
ATOM     23  C   UNL     1       7.304   8.679   5.323  1.00  0.00    -0.000 C 
BRANCH  23  24
ATOM     24  C   UNL     1       8.379   7.785   5.973  1.00  0.00    -0.000 C 
BRANCH  24  25
ATOM     25  C   UNL     1       8.104   7.391   7.435  1.00  0.00    -0.000 C 
BRANCH  25  26
ATOM     26  C   UNL     1       9.148   6.416   8.000  1.00  0.00    -0.000 C 
BRANCH  26  27
ATOM     27  C   UNL     1       8.586   4.988   8.071  1.00  0.00    -0.000 C 
BRANCH  27  28
ATOM     28  C   UNL     1       8.053   4.624   9.468  1.00  0.00    -0.000 C 
BRANCH  28  29
ATOM     29  C   UNL     1       9.139   4.357  10.524  1.00  0.00    -0.003 C 
ATOM     30  C   UNL     1       8.793   3.198  11.457  1.00  0.00     0.004 C 
ENDBRANCH  28  29
ENDBRANCH  27  28
ENDBRANCH  26  27
ENDBRANCH  25  26
ENDBRANCH  24  25
ENDBRANCH  23  24
ENDBRANCH  22  23
ENDBRANCH  21  22
ENDBRANCH  20  21
ENDBRANCH  19  20
ENDBRANCH  18  19
ENDBRANCH  17  18
ENDBRANCH   1  17
TORSDOF 26
ENDMDL
