MODEL 1
REMARK VINA RESULT:    -5.644      0.000      0.000
REMARK INTER + INTRA:          -6.392
REMARK INTER:                  -6.139
REMARK INTRA:                  -0.253
REMARK UNBOUND:                -0.253
REMARK SMILES O=C([O-])c1ccccc1O
REMARK SMILES IDX 4 1 9 2 5 3 8 4 6 5 7 6 2 7 1 8 3 9 10 10
REMARK H PARENT 10 11
REMARK Flexibility Score: inf
ROOT
ATOM      1  C   UNL     1       7.266  -2.413  31.301  1.00  0.00     0.039 A 
ATOM      2  C   UNL     1       7.583  -1.344  32.177  1.00  0.00     0.124 A 
ATOM      3  C   UNL     1       8.101  -3.547  31.283  1.00  0.00     0.014 A 
ATOM      4  C   UNL     1       8.745  -1.405  32.955  1.00  0.00     0.047 A 
ATOM      5  C   UNL     1       9.246  -3.601  32.081  1.00  0.00     0.001 A 
ATOM      6  C   UNL     1       9.573  -2.528  32.909  1.00  0.00     0.004 A 
ENDROOT
BRANCH   1   7
ATOM      7  C   UNL     1       6.112  -2.369  30.378  1.00  0.00     0.075 C 
ATOM      8  O   UNL     1       5.474  -3.423  30.113  1.00  0.00    -0.545 OA
ATOM      9  O   UNL     1       5.756  -1.188  29.740  1.00  0.00    -0.545 OA
ENDBRANCH   1   7
BRANCH   2  10
ATOM     10  O   UNL     1       6.757  -0.228  32.328  1.00  0.00    -0.507 OA
ATOM     11  H   UNL     1       6.417   0.322  31.552  1.00  0.00     0.293 HD
ENDBRANCH   2  10
TORSDOF 2
ENDMDL
MODEL 2
REMARK VINA RESULT:    -5.440      1.856      3.646
REMARK INTER + INTRA:          -6.170
REMARK INTER:                  -5.955
REMARK INTRA:                  -0.215
REMARK UNBOUND:                -0.253
REMARK SMILES O=C([O-])c1ccccc1O
REMARK SMILES IDX 4 1 9 2 5 3 8 4 6 5 7 6 2 7 1 8 3 9 10 10
REMARK H PARENT 10 11
REMARK Flexibility Score: inf
ROOT
ATOM      1  C   UNL     1       7.071  -2.285  31.020  1.00  0.00     0.039 A 
ATOM      2  C   UNL     1       6.414  -1.139  30.503  1.00  0.00     0.124 A 
ATOM      3  C   UNL     1       6.767  -3.547  30.475  1.00  0.00     0.014 A 
ATOM      4  C   UNL     1       5.437  -1.288  29.511  1.00  0.00     0.047 A 
ATOM      5  C   UNL     1       5.805  -3.676  29.471  1.00  0.00     0.001 A 
ATOM      6  C   UNL     1       5.133  -2.550  28.996  1.00  0.00     0.004 A 
ENDROOT
BRANCH   1   7
ATOM      7  C   UNL     1       8.037  -2.209  32.137  1.00  0.00     0.075 C 
ATOM      8  O   UNL     1       8.095  -1.175  32.854  1.00  0.00    -0.545 OA
ATOM      9  O   UNL     1       8.937  -3.241  32.370  1.00  0.00    -0.545 OA
ENDBRANCH   1   7
BRANCH   2  10
ATOM     10  O   UNL     1       6.727   0.157  30.918  1.00  0.00    -0.507 OA
ATOM     11  H   UNL     1       6.029   0.854  31.138  1.00  0.00     0.293 HD
ENDBRANCH   2  10
TORSDOF 2
ENDMDL
MODEL 3
REMARK VINA RESULT:    -5.335      1.924      3.400
REMARK INTER + INTRA:          -6.055
REMARK INTER:                  -5.829
REMARK INTRA:                  -0.226
REMARK UNBOUND:                -0.253
REMARK SMILES O=C([O-])c1ccccc1O
REMARK SMILES IDX 4 1 9 2 5 3 8 4 6 5 7 6 2 7 1 8 3 9 10 10
REMARK H PARENT 10 11
REMARK Flexibility Score: inf
ROOT
ATOM      1  C   UNL     1       7.580  -2.511  31.749  1.00  0.00     0.039 A 
ATOM      2  C   UNL     1       6.587  -1.534  32.011  1.00  0.00     0.124 A 
ATOM      3  C   UNL     1       7.329  -3.491  30.771  1.00  0.00     0.014 A 
ATOM      4  C   UNL     1       5.358  -1.598  31.343  1.00  0.00     0.047 A 
ATOM      5  C   UNL     1       6.105  -3.529  30.098  1.00  0.00     0.001 A 
ATOM      6  C   UNL     1       5.117  -2.589  30.391  1.00  0.00     0.004 A 
ENDROOT
BRANCH   1   7
ATOM      7  C   UNL     1       8.859  -2.562  32.491  1.00  0.00     0.075 C 
ATOM      8  O   UNL     1       9.485  -3.650  32.597  1.00  0.00    -0.545 OA
ATOM      9  O   UNL     1       9.352  -1.436  33.138  1.00  0.00    -0.545 OA
ENDBRANCH   1   7
BRANCH   2  10
ATOM     10  O   UNL     1       6.793  -0.471  32.893  1.00  0.00    -0.507 OA
ATOM     11  H   UNL     1       7.465  -0.496  33.647  1.00  0.00     0.293 HD
ENDBRANCH   2  10
TORSDOF 2
ENDMDL
MODEL 4
REMARK VINA RESULT:    -5.107      1.210      2.337
REMARK INTER + INTRA:          -5.807
REMARK INTER:                  -5.639
REMARK INTRA:                  -0.168
REMARK UNBOUND:                -0.253
REMARK SMILES O=C([O-])c1ccccc1O
REMARK SMILES IDX 4 1 9 2 5 3 8 4 6 5 7 6 2 7 1 8 3 9 10 10
REMARK H PARENT 10 11
REMARK Flexibility Score: inf
ROOT
ATOM      1  C   UNL     1       7.691  -1.854  32.071  1.00  0.00     0.039 A 
ATOM      2  C   UNL     1       8.062  -3.178  31.724  1.00  0.00     0.124 A 
ATOM      3  C   UNL     1       8.570  -1.085  32.857  1.00  0.00     0.014 A 
ATOM      4  C   UNL     1       9.258  -3.715  32.217  1.00  0.00     0.047 A 
ATOM      5  C   UNL     1       9.769  -1.629  33.324  1.00  0.00     0.001 A 
ATOM      6  C   UNL     1      10.108  -2.946  33.013  1.00  0.00     0.004 A 
ENDROOT
BRANCH   1   7
ATOM      7  C   UNL     1       6.397  -1.261  31.669  1.00  0.00     0.075 C 
ATOM      8  O   UNL     1       5.321  -1.713  32.142  1.00  0.00    -0.545 OA
ATOM      9  O   UNL     1       6.343  -0.249  30.718  1.00  0.00    -0.545 OA
ENDBRANCH   1   7
BRANCH   2  10
ATOM     10  O   UNL     1       7.296  -3.973  30.869  1.00  0.00    -0.507 OA
ATOM     11  H   UNL     1       6.342  -4.242  31.065  1.00  0.00     0.293 HD
ENDBRANCH   2  10
TORSDOF 2
ENDMDL
MODEL 5
REMARK VINA RESULT:    -5.054      7.628      9.228
REMARK INTER + INTRA:          -5.750
REMARK INTER:                  -5.670
REMARK INTRA:                  -0.080
REMARK UNBOUND:                -0.253
REMARK SMILES O=C([O-])c1ccccc1O
REMARK SMILES IDX 4 1 9 2 5 3 8 4 6 5 7 6 2 7 1 8 3 9 10 10
REMARK H PARENT 10 11
REMARK Flexibility Score: inf
ROOT
ATOM      1  C   UNL     1       6.844  -6.761  24.700  1.00  0.00     0.039 A 
ATOM      2  C   UNL     1       6.854  -8.179  24.719  1.00  0.00     0.124 A 
ATOM      3  C   UNL     1       6.814  -6.098  23.458  1.00  0.00     0.014 A 
ATOM      4  C   UNL     1       6.897  -8.889  23.513  1.00  0.00     0.047 A 
ATOM      5  C   UNL     1       6.836  -6.822  22.263  1.00  0.00     0.001 A 
ATOM      6  C   UNL     1       6.887  -8.215  22.290  1.00  0.00     0.004 A 
ENDROOT
BRANCH   1   7
ATOM      7  C   UNL     1       6.902  -5.950  25.935  1.00  0.00     0.075 C 
ATOM      8  O   UNL     1       8.004  -5.760  26.515  1.00  0.00    -0.545 OA
ATOM      9  O   UNL     1       5.743  -5.445  26.510  1.00  0.00    -0.545 OA
ENDBRANCH   1   7
BRANCH   2  10
ATOM     10  O   UNL     1       6.785  -8.914  25.905  1.00  0.00    -0.507 OA
ATOM     11  H   UNL     1       6.049  -9.577  26.106  1.00  0.00     0.293 HD
ENDBRANCH   2  10
TORSDOF 2
ENDMDL
MODEL 6
REMARK VINA RESULT:    -4.900      8.333      9.459
REMARK INTER + INTRA:          -5.583
REMARK INTER:                  -5.330
REMARK INTRA:                  -0.253
REMARK UNBOUND:                -0.253
REMARK SMILES O=C([O-])c1ccccc1O
REMARK SMILES IDX 4 1 9 2 5 3 8 4 6 5 7 6 2 7 1 8 3 9 10 10
REMARK H PARENT 10 11
REMARK Flexibility Score: inf
ROOT
ATOM      1  C   UNL     1       7.071  -7.473  23.495  1.00  0.00     0.039 A 
ATOM      2  C   UNL     1       7.040  -6.402  24.424  1.00  0.00     0.124 A 
ATOM      3  C   UNL     1       6.725  -8.765  23.934  1.00  0.00     0.014 A 
ATOM      4  C   UNL     1       6.729  -6.657  25.765  1.00  0.00     0.047 A 
ATOM      5  C   UNL     1       6.396  -8.998  25.272  1.00  0.00     0.001 A 
ATOM      6  C   UNL     1       6.408  -7.948  26.189  1.00  0.00     0.004 A 
ENDROOT
BRANCH   1   7
ATOM      7  C   UNL     1       7.490  -7.292  22.088  1.00  0.00     0.075 C 
ATOM      8  O   UNL     1       8.345  -8.064  21.579  1.00  0.00    -0.545 OA
ATOM      9  O   UNL     1       7.002  -6.234  21.331  1.00  0.00    -0.545 OA
ENDBRANCH   1   7
BRANCH   2  10
ATOM     10  O   UNL     1       7.274  -5.077  24.050  1.00  0.00    -0.507 OA
ATOM     11  H   UNL     1       6.931  -4.283  24.573  1.00  0.00     0.293 HD
ENDBRANCH   2  10
TORSDOF 2
ENDMDL
MODEL 7
REMARK VINA RESULT:    -4.819     18.716     19.769
REMARK INTER + INTRA:          -5.495
REMARK INTER:                  -5.271
REMARK INTRA:                  -0.223
REMARK UNBOUND:                -0.253
REMARK SMILES O=C([O-])c1ccccc1O
REMARK SMILES IDX 4 1 9 2 5 3 8 4 6 5 7 6 2 7 1 8 3 9 10 10
REMARK H PARENT 10 11
REMARK Flexibility Score: inf
ROOT
ATOM      1  C   UNL     1      18.840 -13.432  19.507  1.00  0.00     0.039 A 
ATOM      2  C   UNL     1      18.366 -12.803  20.686  1.00  0.00     0.124 A 
ATOM      3  C   UNL     1      19.996 -14.233  19.581  1.00  0.00     0.014 A 
ATOM      4  C   UNL     1      19.085 -12.936  21.880  1.00  0.00     0.047 A 
ATOM      5  C   UNL     1      20.690 -14.373  20.785  1.00  0.00     0.001 A 
ATOM      6  C   UNL     1      20.241 -13.717  21.931  1.00  0.00     0.004 A 
ENDROOT
BRANCH   1   7
ATOM      7  C   UNL     1      18.187 -13.250  18.192  1.00  0.00     0.075 C 
ATOM      8  O   UNL     1      16.994 -13.619  18.022  1.00  0.00    -0.545 OA
ATOM      9  O   UNL     1      18.894 -12.737  17.112  1.00  0.00    -0.545 OA
ENDBRANCH   1   7
BRANCH   2  10
ATOM     10  O   UNL     1      17.176 -12.073  20.721  1.00  0.00    -0.507 OA
ATOM     11  H   UNL     1      17.135 -11.087  20.935  1.00  0.00     0.293 HD
ENDBRANCH   2  10
TORSDOF 2
ENDMDL
MODEL 8
REMARK VINA RESULT:    -4.643     17.354     18.553
REMARK INTER + INTRA:          -5.303
REMARK INTER:                  -5.055
REMARK INTRA:                  -0.248
REMARK UNBOUND:                -0.253
REMARK SMILES O=C([O-])c1ccccc1O
REMARK SMILES IDX 4 1 9 2 5 3 8 4 6 5 7 6 2 7 1 8 3 9 10 10
REMARK H PARENT 10 11
REMARK Flexibility Score: inf
ROOT
ATOM      1  C   UNL     1      19.042 -12.798  22.259  1.00  0.00     0.039 A 
ATOM      2  C   UNL     1      18.194 -12.485  21.167  1.00  0.00     0.124 A 
ATOM      3  C   UNL     1      20.119 -13.680  22.052  1.00  0.00     0.014 A 
ATOM      4  C   UNL     1      18.402 -13.102  19.928  1.00  0.00     0.047 A 
ATOM      5  C   UNL     1      20.326 -14.271  20.804  1.00  0.00     0.001 A 
ATOM      6  C   UNL     1      19.463 -13.990  19.745  1.00  0.00     0.004 A 
ENDROOT
BRANCH   1   7
ATOM      7  C   UNL     1      18.817 -12.261  23.619  1.00  0.00     0.075 C 
ATOM      8  O   UNL     1      19.014 -12.991  24.627  1.00  0.00    -0.545 OA
ATOM      9  O   UNL     1      18.321 -10.977  23.804  1.00  0.00    -0.545 OA
ENDBRANCH   1   7
BRANCH   2  10
ATOM     10  O   UNL     1      17.163 -11.546  21.261  1.00  0.00    -0.507 OA
ATOM     11  H   UNL     1      17.277 -10.570  21.027  1.00  0.00     0.293 HD
ENDBRANCH   2  10
TORSDOF 2
ENDMDL
MODEL 9
REMARK VINA RESULT:    -4.613     19.185     20.290
REMARK INTER + INTRA:          -5.271
REMARK INTER:                  -5.029
REMARK INTRA:                  -0.242
REMARK UNBOUND:                -0.253
REMARK SMILES O=C([O-])c1ccccc1O
REMARK SMILES IDX 4 1 9 2 5 3 8 4 6 5 7 6 2 7 1 8 3 9 10 10
REMARK H PARENT 10 11
REMARK Flexibility Score: inf
ROOT
ATOM      1  C   UNL     1      18.659 -13.434  19.295  1.00  0.00     0.039 A 
ATOM      2  C   UNL     1      19.843 -14.152  19.597  1.00  0.00     0.124 A 
ATOM      3  C   UNL     1      17.879 -12.933  20.354  1.00  0.00     0.014 A 
ATOM      4  C   UNL     1      20.180 -14.404  20.933  1.00  0.00     0.047 A 
ATOM      5  C   UNL     1      18.240 -13.174  21.682  1.00  0.00     0.001 A 
ATOM      6  C   UNL     1      19.384 -13.917  21.971  1.00  0.00     0.004 A 
ENDROOT
BRANCH   1   7
ATOM      7  C   UNL     1      18.191 -13.221  17.908  1.00  0.00     0.075 C 
ATOM      8  O   UNL     1      17.044 -13.611  17.561  1.00  0.00    -0.545 OA
ATOM      9  O   UNL     1      19.027 -12.655  16.954  1.00  0.00    -0.545 OA
ENDBRANCH   1   7
BRANCH   2  10
ATOM     10  O   UNL     1      20.724 -14.598  18.609  1.00  0.00    -0.507 OA
ATOM     11  H   UNL     1      20.552 -14.487  17.620  1.00  0.00     0.293 HD
ENDBRANCH   2  10
TORSDOF 2
ENDMDL
