MODEL 1
REMARK VINA RESULT:    -1.564      0.000      0.000
REMARK INTER + INTRA:          -2.488
REMARK INTER:                  -2.204
REMARK INTRA:                  -0.284
REMARK UNBOUND:                -0.284
REMARK SMILES CCCCCCCCC(=O)[O-]
REMARK SMILES IDX 6 1 7 2 8 3 9 4 10 5 11 6 5 7 4 8 3 9 2 10 1 11
REMARK H PARENT
REMARK Flexibility Score: inf
ROOT
ATOM      1  C   UNL     1      31.098  -9.613  17.371  1.00  0.00     0.000 C 
ENDROOT
BRANCH   1   2
ATOM      2  C   UNL     1      31.016  -9.584  18.907  1.00  0.00     0.006 C 
BRANCH   2   3
ATOM      3  C   UNL     1      29.635 -10.010  19.422  1.00  0.00     0.053 C 
BRANCH   3   4
ATOM      4  C   UNL     1      29.430  -9.616  20.854  1.00  0.00     0.041 C 
ATOM      5  O   UNL     1      30.254  -9.977  21.734  1.00  0.00    -0.550 OA
ATOM      6  O   UNL     1      28.348  -8.820  21.209  1.00  0.00    -0.550 OA
ENDBRANCH   3   4
ENDBRANCH   2   3
ENDBRANCH   1   2
BRANCH   1   7
ATOM      7  C   UNL     1      30.719 -10.981  16.786  1.00  0.00     0.000 C 
BRANCH   7   8
ATOM      8  C   UNL     1      31.124 -11.125  15.309  1.00  0.00    -0.000 C 
BRANCH   8   9
ATOM      9  C   UNL     1      30.959  -9.816  14.521  1.00  0.00    -0.000 C 
BRANCH   9  10
ATOM     10  C   UNL     1      30.528 -10.053  13.066  1.00  0.00    -0.003 C 
ATOM     11  C   UNL     1      29.312 -10.971  12.996  1.00  0.00     0.004 C 
ENDBRANCH   9  10
ENDBRANCH   8   9
ENDBRANCH   7   8
ENDBRANCH   1   7
TORSDOF 7
ENDMDL
MODEL 2
REMARK VINA RESULT:    -1.541      1.634      2.111
REMARK INTER + INTRA:          -2.455
REMARK INTER:                  -2.028
REMARK INTRA:                  -0.428
REMARK UNBOUND:                -0.284
REMARK SMILES CCCCCCCCC(=O)[O-]
REMARK SMILES IDX 6 1 7 2 8 3 9 4 10 5 11 6 5 7 4 8 3 9 2 10 1 11
REMARK H PARENT
REMARK Flexibility Score: inf
ROOT
ATOM      1  C   UNL     1      27.590 -10.043  17.268  1.00  0.00     0.000 C 
ENDROOT
BRANCH   1   2
ATOM      2  C   UNL     1      28.255 -10.728  18.474  1.00  0.00     0.006 C 
BRANCH   2   3
ATOM      3  C   UNL     1      28.432  -9.771  19.660  1.00  0.00     0.053 C 
BRANCH   3   4
ATOM      4  C   UNL     1      29.807  -9.865  20.250  1.00  0.00     0.041 C 
ATOM      5  O   UNL     1      29.958 -10.206  21.453  1.00  0.00    -0.550 OA
ATOM      6  O   UNL     1      30.922  -9.611  19.462  1.00  0.00    -0.550 OA
ENDBRANCH   3   4
ENDBRANCH   2   3
ENDBRANCH   1   2
BRANCH   1   7
ATOM      7  C   UNL     1      28.511  -9.986  16.040  1.00  0.00     0.000 C 
BRANCH   7   8
ATOM      8  C   UNL     1      29.829 -10.750  16.254  1.00  0.00    -0.000 C 
BRANCH   8   9
ATOM      9  C   UNL     1      30.556 -11.055  14.935  1.00  0.00    -0.000 C 
BRANCH   9  10
ATOM     10  C   UNL     1      29.599 -11.119  13.736  1.00  0.00    -0.003 C 
ATOM     11  C   UNL     1      30.122 -10.284  12.570  1.00  0.00     0.004 C 
ENDBRANCH   9  10
ENDBRANCH   8   9
ENDBRANCH   7   8
ENDBRANCH   1   7
TORSDOF 7
ENDMDL
MODEL 3
REMARK VINA RESULT:    -1.523      3.188      6.159
REMARK INTER + INTRA:          -2.431
REMARK INTER:                  -1.694
REMARK INTRA:                  -0.736
REMARK UNBOUND:                -0.284
REMARK SMILES CCCCCCCCC(=O)[O-]
REMARK SMILES IDX 6 1 7 2 8 3 9 4 10 5 11 6 5 7 4 8 3 9 2 10 1 11
REMARK H PARENT
REMARK Flexibility Score: inf
ROOT
ATOM      1  C   UNL     1      28.308  -9.271  19.117  1.00  0.00     0.000 C 
ENDROOT
BRANCH   1   2
ATOM      2  C   UNL     1      29.712  -8.645  19.175  1.00  0.00     0.006 C 
BRANCH   2   3
ATOM      3  C   UNL     1      30.808  -9.642  18.776  1.00  0.00     0.053 C 
BRANCH   3   4
ATOM      4  C   UNL     1      30.765  -9.959  17.312  1.00  0.00     0.041 C 
ATOM      5  O   UNL     1      30.488 -11.125  16.924  1.00  0.00    -0.550 OA
ATOM      6  O   UNL     1      30.995  -8.959  16.375  1.00  0.00    -0.550 OA
ENDBRANCH   3   4
ENDBRANCH   2   3
ENDBRANCH   1   2
BRANCH   1   7
ATOM      7  C   UNL     1      27.553  -9.150  20.449  1.00  0.00     0.000 C 
BRANCH   7   8
ATOM      8  C   UNL     1      28.466  -8.713  21.608  1.00  0.00    -0.000 C 
BRANCH   8   9
ATOM      9  C   UNL     1      28.619  -9.801  22.682  1.00  0.00    -0.000 C 
BRANCH   9  10
ATOM     10  C   UNL     1      29.787 -10.756  22.393  1.00  0.00    -0.003 C 
ATOM     11  C   UNL     1      31.121 -10.016  22.417  1.00  0.00     0.004 C 
ENDBRANCH   9  10
ENDBRANCH   8   9
ENDBRANCH   7   8
ENDBRANCH   1   7
TORSDOF 7
ENDMDL
MODEL 4
REMARK VINA RESULT:    -1.493      2.062      2.515
REMARK INTER + INTRA:          -2.388
REMARK INTER:                  -1.703
REMARK INTRA:                  -0.685
REMARK UNBOUND:                -0.284
REMARK SMILES CCCCCCCCC(=O)[O-]
REMARK SMILES IDX 6 1 7 2 8 3 9 4 10 5 11 6 5 7 4 8 3 9 2 10 1 11
REMARK H PARENT
REMARK Flexibility Score: inf
ROOT
ATOM      1  C   UNL     1      30.733 -10.606  16.946  1.00  0.00     0.000 C 
ENDROOT
BRANCH   1   2
ATOM      2  C   UNL     1      29.489 -11.081  17.717  1.00  0.00     0.006 C 
BRANCH   2   3
ATOM      3  C   UNL     1      29.089 -10.103  18.829  1.00  0.00     0.053 C 
BRANCH   3   4
ATOM      4  C   UNL     1      28.240 -10.765  19.873  1.00  0.00     0.041 C 
ATOM      5  O   UNL     1      28.710 -10.992  21.019  1.00  0.00    -0.550 OA
ATOM      6  O   UNL     1      26.922 -11.097  19.590  1.00  0.00    -0.550 OA
ENDBRANCH   3   4
ENDBRANCH   2   3
ENDBRANCH   1   2
BRANCH   1   7
ATOM      7  C   UNL     1      30.689 -10.992  15.460  1.00  0.00     0.000 C 
BRANCH   7   8
ATOM      8  C   UNL     1      29.381 -10.558  14.776  1.00  0.00    -0.000 C 
BRANCH   8   9
ATOM      9  C   UNL     1      29.386  -9.073  14.380  1.00  0.00    -0.000 C 
BRANCH   9  10
ATOM     10  C   UNL     1      28.330  -8.257  15.140  1.00  0.00    -0.003 C 
ATOM     11  C   UNL     1      28.980  -7.359  16.189  1.00  0.00     0.004 C 
ENDBRANCH   9  10
ENDBRANCH   8   9
ENDBRANCH   7   8
ENDBRANCH   1   7
TORSDOF 7
ENDMDL
MODEL 5
REMARK VINA RESULT:    -1.481      3.928      6.327
REMARK INTER + INTRA:          -2.371
REMARK INTER:                  -2.037
REMARK INTRA:                  -0.334
REMARK UNBOUND:                -0.284
REMARK SMILES CCCCCCCCC(=O)[O-]
REMARK SMILES IDX 6 1 7 2 8 3 9 4 10 5 11 6 5 7 4 8 3 9 2 10 1 11
REMARK H PARENT
REMARK Flexibility Score: inf
ROOT
ATOM      1  C   UNL     1      31.085 -10.173  16.884  1.00  0.00     0.000 C 
ENDROOT
BRANCH   1   2
ATOM      2  C   UNL     1      31.124  -9.799  15.392  1.00  0.00     0.006 C 
BRANCH   2   3
ATOM      3  C   UNL     1      30.328 -10.783  14.526  1.00  0.00     0.053 C 
BRANCH   3   4
ATOM      4  C   UNL     1      30.109 -10.254  13.142  1.00  0.00     0.041 C 
ATOM      5  O   UNL     1      29.015  -9.709  12.838  1.00  0.00    -0.550 OA
ATOM      6  O   UNL     1      31.125 -10.331  12.197  1.00  0.00    -0.550 OA
ENDBRANCH   3   4
ENDBRANCH   2   3
ENDBRANCH   1   2
BRANCH   1   7
ATOM      7  C   UNL     1      29.928 -11.125  17.222  1.00  0.00     0.000 C 
BRANCH   7   8
ATOM      8  C   UNL     1      29.246 -10.776  18.557  1.00  0.00    -0.000 C 
BRANCH   8   9
ATOM      9  C   UNL     1      29.959  -9.638  19.305  1.00  0.00    -0.000 C 
BRANCH   9  10
ATOM     10  C   UNL     1      29.389  -9.410  20.712  1.00  0.00    -0.003 C 
ATOM     11  C   UNL     1      29.088 -10.736  21.406  1.00  0.00     0.004 C 
ENDBRANCH   9  10
ENDBRANCH   8   9
ENDBRANCH   7   8
ENDBRANCH   1   7
TORSDOF 7
ENDMDL
MODEL 6
REMARK VINA RESULT:    -1.479      3.022      5.836
REMARK INTER + INTRA:          -2.368
REMARK INTER:                  -1.721
REMARK INTRA:                  -0.647
REMARK UNBOUND:                -0.284
REMARK SMILES CCCCCCCCC(=O)[O-]
REMARK SMILES IDX 6 1 7 2 8 3 9 4 10 5 11 6 5 7 4 8 3 9 2 10 1 11
REMARK H PARENT
REMARK Flexibility Score: inf
ROOT
ATOM      1  C   UNL     1      30.005  -7.576  19.360  1.00  0.00     0.000 C 
ENDROOT
BRANCH   1   2
ATOM      2  C   UNL     1      30.881  -8.215  18.268  1.00  0.00     0.006 C 
BRANCH   2   3
ATOM      3  C   UNL     1      31.121  -9.710  18.519  1.00  0.00     0.053 C 
BRANCH   3   4
ATOM      4  C   UNL     1      30.500 -10.559  17.452  1.00  0.00     0.041 C 
ATOM      5  O   UNL     1      31.125 -10.790  16.384  1.00  0.00    -0.550 OA
ATOM      6  O   UNL     1      29.247 -11.125  17.653  1.00  0.00    -0.550 OA
ENDBRANCH   3   4
ENDBRANCH   2   3
ENDBRANCH   1   2
BRANCH   1   7
ATOM      7  C   UNL     1      30.835  -6.940  20.485  1.00  0.00     0.000 C 
BRANCH   7   8
ATOM      8  C   UNL     1      30.747  -7.728  21.803  1.00  0.00    -0.000 C 
BRANCH   8   9
ATOM      9  C   UNL     1      29.545  -8.685  21.840  1.00  0.00    -0.000 C 
BRANCH   9  10
ATOM     10  C   UNL     1      29.953 -10.133  22.147  1.00  0.00    -0.003 C 
ATOM     11  C   UNL     1      28.934 -11.122  21.587  1.00  0.00     0.004 C 
ENDBRANCH   9  10
ENDBRANCH   8   9
ENDBRANCH   7   8
ENDBRANCH   1   7
TORSDOF 7
ENDMDL
MODEL 7
REMARK VINA RESULT:    -1.469      2.247      3.140
REMARK INTER + INTRA:          -2.354
REMARK INTER:                  -1.633
REMARK INTRA:                  -0.720
REMARK UNBOUND:                -0.284
REMARK SMILES CCCCCCCCC(=O)[O-]
REMARK SMILES IDX 6 1 7 2 8 3 9 4 10 5 11 6 5 7 4 8 3 9 2 10 1 11
REMARK H PARENT
REMARK Flexibility Score: inf
ROOT
ATOM      1  C   UNL     1      30.492 -11.125  14.743  1.00  0.00     0.000 C 
ENDROOT
BRANCH   1   2
ATOM      2  C   UNL     1      31.055 -10.471  16.017  1.00  0.00     0.006 C 
BRANCH   2   3
ATOM      3  C   UNL     1      30.305 -10.919  17.278  1.00  0.00     0.053 C 
BRANCH   3   4
ATOM      4  C   UNL     1      30.204  -9.814  18.286  1.00  0.00     0.041 C 
ATOM      5  O   UNL     1      30.967  -8.816  18.210  1.00  0.00    -0.550 OA
ATOM      6  O   UNL     1      29.243  -9.870  19.288  1.00  0.00    -0.550 OA
ENDBRANCH   3   4
ENDBRANCH   2   3
ENDBRANCH   1   2
BRANCH   1   7
ATOM      7  C   UNL     1      30.473 -10.163  13.545  1.00  0.00     0.000 C 
BRANCH   7   8
ATOM      8  C   UNL     1      30.660  -8.694  13.964  1.00  0.00    -0.000 C 
BRANCH   8   9
ATOM      9  C   UNL     1      29.421  -7.834  13.673  1.00  0.00    -0.000 C 
BRANCH   9  10
ATOM     10  C   UNL     1      28.794  -7.252  14.948  1.00  0.00    -0.003 C 
ATOM     11  C   UNL     1      27.960  -8.299  15.679  1.00  0.00     0.004 C 
ENDBRANCH   9  10
ENDBRANCH   8   9
ENDBRANCH   7   8
ENDBRANCH   1   7
TORSDOF 7
ENDMDL
MODEL 8
REMARK VINA RESULT:    -1.455      1.417      2.311
REMARK INTER + INTRA:          -2.334
REMARK INTER:                  -1.806
REMARK INTRA:                  -0.528
REMARK UNBOUND:                -0.284
REMARK SMILES CCCCCCCCC(=O)[O-]
REMARK SMILES IDX 6 1 7 2 8 3 9 4 10 5 11 6 5 7 4 8 3 9 2 10 1 11
REMARK H PARENT
REMARK Flexibility Score: inf
ROOT
ATOM      1  C   UNL     1      29.723  -8.872  15.687  1.00  0.00     0.000 C 
ENDROOT
BRANCH   1   2
ATOM      2  C   UNL     1      29.863 -10.155  16.524  1.00  0.00     0.006 C 
BRANCH   2   3
ATOM      3  C   UNL     1      30.891 -10.002  17.653  1.00  0.00     0.053 C 
BRANCH   3   4
ATOM      4  C   UNL     1      30.231  -9.858  18.990  1.00  0.00     0.041 C 
ATOM      5  O   UNL     1      29.024 -10.185  19.139  1.00  0.00    -0.550 OA
ATOM      6  O   UNL     1      30.958  -9.396  20.080  1.00  0.00    -0.550 OA
ENDBRANCH   3   4
ENDBRANCH   2   3
ENDBRANCH   1   2
BRANCH   1   7
ATOM      7  C   UNL     1      30.748  -8.798  14.545  1.00  0.00     0.000 C 
BRANCH   7   8
ATOM      8  C   UNL     1      31.068 -10.180  13.948  1.00  0.00    -0.000 C 
BRANCH   8   9
ATOM      9  C   UNL     1      30.740 -10.266  12.449  1.00  0.00    -0.000 C 
BRANCH   9  10
ATOM     10  C   UNL     1      29.269  -9.943  12.148  1.00  0.00    -0.003 C 
ATOM     11  C   UNL     1      28.342 -11.011  12.720  1.00  0.00     0.004 C 
ENDBRANCH   9  10
ENDBRANCH   8   9
ENDBRANCH   7   8
ENDBRANCH   1   7
TORSDOF 7
ENDMDL
MODEL 9
REMARK VINA RESULT:    -1.445      2.700      4.396
REMARK INTER + INTRA:          -2.320
REMARK INTER:                  -1.562
REMARK INTRA:                  -0.758
REMARK UNBOUND:                -0.284
REMARK SMILES CCCCCCCCC(=O)[O-]
REMARK SMILES IDX 6 1 7 2 8 3 9 4 10 5 11 6 5 7 4 8 3 9 2 10 1 11
REMARK H PARENT
REMARK Flexibility Score: inf
ROOT
ATOM      1  C   UNL     1      30.957  -9.181  14.456  1.00  0.00     0.000 C 
ENDROOT
BRANCH   1   2
ATOM      2  C   UNL     1      30.608 -10.652  14.737  1.00  0.00     0.006 C 
BRANCH   2   3
ATOM      3  C   UNL     1      31.125 -11.120  16.104  1.00  0.00     0.053 C 
BRANCH   3   4
ATOM      4  C   UNL     1      30.333 -10.527  17.229  1.00  0.00     0.041 C 
ATOM      5  O   UNL     1      29.074 -10.566  17.206  1.00  0.00    -0.550 OA
ATOM      6  O   UNL     1      30.984  -9.965  18.320  1.00  0.00    -0.550 OA
ENDBRANCH   3   4
ENDBRANCH   2   3
ENDBRANCH   1   2
BRANCH   1   7
ATOM      7  C   UNL     1      29.719  -8.336  14.115  1.00  0.00     0.000 C 
BRANCH   7   8
ATOM      8  C   UNL     1      29.183  -7.558  15.329  1.00  0.00    -0.000 C 
BRANCH   8   9
ATOM      9  C   UNL     1      30.297  -6.853  16.119  1.00  0.00    -0.000 C 
BRANCH   9  10
ATOM     10  C   UNL     1      29.823  -6.355  17.492  1.00  0.00    -0.003 C 
ATOM     11  C   UNL     1      28.631  -7.166  17.990  1.00  0.00     0.004 C 
ENDBRANCH   9  10
ENDBRANCH   8   9
ENDBRANCH   7   8
ENDBRANCH   1   7
TORSDOF 7
ENDMDL
