MODEL 1
REMARK VINA RESULT:    -0.579      0.000      0.000
REMARK INTER + INTRA:          -0.955
REMARK INTER:                  -0.664
REMARK INTRA:                  -0.292
REMARK UNBOUND:                -0.292
REMARK SMILES O=C1C[C@H](c2ccc(O)cc2)Oc2cc(O)cc(O)c21
REMARK SMILES IDX 3 1 4 2 12 3 13 4 14 5 15 6 17 7 18 8 20 9 2 10 1 11 5 12
REMARK SMILES IDX 6 13 11 14 7 15 10 16 8 17 9 18 19 20 16 22
REMARK H PARENT 9 19 19 21 16 23
REMARK Flexibility Score: inf
ROOT
ATOM      1  C   UNL     1      14.708 -12.393  29.584  1.00  0.00     0.131 C 
ATOM      2  C   UNL     1      13.765 -13.548  29.217  1.00  0.00     0.211 C 
ATOM      3  O   UNL     1      12.543 -13.046  28.670  1.00  0.00    -0.484 OA
ATOM      4  C   UNL     1      11.907 -11.899  29.166  1.00  0.00     0.138 A 
ATOM      5  C   UNL     1      10.594 -11.630  28.774  1.00  0.00     0.093 A 
ATOM      6  C   UNL     1       9.928 -10.502  29.263  1.00  0.00     0.123 A 
ATOM      7  C   UNL     1      10.591  -9.626  30.125  1.00  0.00     0.093 A 
ATOM      8  C   UNL     1      11.921  -9.854  30.500  1.00  0.00     0.133 A 
ATOM      9  C   UNL     1      12.584 -11.024  30.043  1.00  0.00     0.102 A 
ATOM     10  C   UNL     1      13.965 -11.403  30.431  1.00  0.00     0.174 C 
ATOM     11  O   UNL     1      14.506 -10.958  31.478  1.00  0.00    -0.294 OA
ENDROOT
BRANCH   2  12
ATOM     12  C   UNL     1      14.425 -14.485  28.236  1.00  0.00    -0.007 A 
ATOM     13  C   UNL     1      14.674 -15.826  28.582  1.00  0.00     0.011 A 
ATOM     14  C   UNL     1      14.749 -14.041  26.943  1.00  0.00     0.011 A 
ATOM     15  C   UNL     1      15.258 -16.697  27.658  1.00  0.00     0.046 A 
ATOM     16  C   UNL     1      15.333 -14.915  26.021  1.00  0.00     0.046 A 
ATOM     17  C   UNL     1      15.591 -16.245  26.377  1.00  0.00     0.115 A 
BRANCH  17  18
ATOM     18  O   UNL     1      16.174 -17.125  25.468  1.00  0.00    -0.508 OA
ATOM     19  H   UNL     1      16.701 -17.934  25.777  1.00  0.00     0.293 HD
ENDBRANCH  17  18
ENDBRANCH   2  12
BRANCH   8  20
ATOM     20  O   UNL     1      12.542  -8.883  31.288  1.00  0.00    -0.507 OA
ATOM     21  H   UNL     1      13.534  -8.856  31.473  1.00  0.00     0.293 HD
ENDBRANCH   8  20
BRANCH   6  22
ATOM     22  O   UNL     1       8.612 -10.239  28.894  1.00  0.00    -0.508 OA
ATOM     23  H   UNL     1       7.908  -9.991  29.581  1.00  0.00     0.293 HD
ENDBRANCH   6  22
TORSDOF 4
ENDMDL
MODEL 2
REMARK VINA RESULT:    -0.240      2.026      6.963
REMARK INTER + INTRA:          -0.567
REMARK INTER:                  -0.274
REMARK INTRA:                  -0.293
REMARK UNBOUND:                -0.292
REMARK SMILES O=C1C[C@H](c2ccc(O)cc2)Oc2cc(O)cc(O)c21
REMARK SMILES IDX 3 1 4 2 12 3 13 4 14 5 15 6 17 7 18 8 20 9 2 10 1 11 5 12
REMARK SMILES IDX 6 13 11 14 7 15 10 16 8 17 9 18 19 20 16 22
REMARK H PARENT 9 19 19 21 16 23
REMARK Flexibility Score: inf
ROOT
ATOM      1  C   UNL     1      13.155 -13.017  27.382  1.00  0.00     0.131 C 
ATOM      2  C   UNL     1      12.319 -13.056  28.670  1.00  0.00     0.211 C 
ATOM      3  O   UNL     1      13.079 -13.612  29.747  1.00  0.00    -0.484 OA
ATOM      4  C   UNL     1      13.952 -14.696  29.576  1.00  0.00     0.138 A 
ATOM      5  C   UNL     1      14.442 -15.355  30.705  1.00  0.00     0.093 A 
ATOM      6  C   UNL     1      15.302 -16.448  30.566  1.00  0.00     0.123 A 
ATOM      7  C   UNL     1      15.695 -16.863  29.292  1.00  0.00     0.093 A 
ATOM      8  C   UNL     1      15.249 -16.191  28.147  1.00  0.00     0.133 A 
ATOM      9  C   UNL     1      14.337 -15.111  28.283  1.00  0.00     0.102 A 
ATOM     10  C   UNL     1      13.746 -14.373  27.139  1.00  0.00     0.174 C 
ATOM     11  O   UNL     1      13.678 -14.878  25.987  1.00  0.00    -0.294 OA
ENDROOT
BRANCH   2  12
ATOM     12  C   UNL     1      11.837 -11.674  29.036  1.00  0.00    -0.007 A 
ATOM     13  C   UNL     1      10.464 -11.368  29.025  1.00  0.00     0.011 A 
ATOM     14  C   UNL     1      12.754 -10.691  29.446  1.00  0.00     0.011 A 
ATOM     15  C   UNL     1      10.021 -10.095  29.395  1.00  0.00     0.046 A 
ATOM     16  C   UNL     1      12.308  -9.419  29.815  1.00  0.00     0.046 A 
ATOM     17  C   UNL     1      10.940  -9.116  29.788  1.00  0.00     0.115 A 
BRANCH  17  18
ATOM     18  O   UNL     1      10.483  -7.852  30.152  1.00  0.00    -0.508 OA
ATOM     19  H   UNL     1       9.573  -7.719  30.577  1.00  0.00     0.293 HD
ENDBRANCH  17  18
ENDBRANCH   2  12
BRANCH   8  20
ATOM     20  O   UNL     1      15.762 -16.608  26.918  1.00  0.00    -0.507 OA
ATOM     21  H   UNL     1      15.290 -16.476  26.035  1.00  0.00     0.293 HD
ENDBRANCH   8  20
BRANCH   6  22
ATOM     22  O   UNL     1      15.777 -17.125  31.687  1.00  0.00    -0.508 OA
ATOM     23  H   UNL     1      16.674 -17.597  31.680  1.00  0.00     0.293 HD
ENDBRANCH   6  22
TORSDOF 4
ENDMDL
MODEL 3
REMARK VINA RESULT:     0.690      4.593      6.330
REMARK INTER + INTRA:           0.499
REMARK INTER:                   0.800
REMARK INTRA:                  -0.301
REMARK UNBOUND:                -0.292
REMARK SMILES O=C1C[C@H](c2ccc(O)cc2)Oc2cc(O)cc(O)c21
REMARK SMILES IDX 3 1 4 2 12 3 13 4 14 5 15 6 17 7 18 8 20 9 2 10 1 11 5 12
REMARK SMILES IDX 6 13 11 14 7 15 10 16 8 17 9 18 19 20 16 22
REMARK H PARENT 9 19 19 21 16 23
REMARK Flexibility Score: inf
ROOT
ATOM      1  C   UNL     1      12.421  -9.003  27.415  1.00  0.00     0.131 C 
ATOM      2  C   UNL     1      13.946  -8.961  27.235  1.00  0.00     0.211 C 
ATOM      3  O   UNL     1      14.486 -10.286  27.206  1.00  0.00    -0.484 OA
ATOM      4  C   UNL     1      14.018 -11.311  28.040  1.00  0.00     0.138 A 
ATOM      5  C   UNL     1      14.767 -12.485  28.155  1.00  0.00     0.093 A 
ATOM      6  C   UNL     1      14.333 -13.519  28.989  1.00  0.00     0.123 A 
ATOM      7  C   UNL     1      13.131 -13.388  29.687  1.00  0.00     0.093 A 
ATOM      8  C   UNL     1      12.344 -12.237  29.556  1.00  0.00     0.133 A 
ATOM      9  C   UNL     1      12.805 -11.165  28.747  1.00  0.00     0.102 A 
ATOM     10  C   UNL     1      12.090  -9.875  28.590  1.00  0.00     0.174 C 
ATOM     11  O   UNL     1      11.257  -9.469  29.443  1.00  0.00    -0.294 OA
ENDROOT
BRANCH   2  12
ATOM     12  C   UNL     1      14.313  -8.226  25.970  1.00  0.00    -0.007 A 
ATOM     13  C   UNL     1      14.646  -6.859  26.007  1.00  0.00     0.011 A 
ATOM     14  C   UNL     1      14.381  -8.912  24.746  1.00  0.00     0.011 A 
ATOM     15  C   UNL     1      15.015  -6.189  24.837  1.00  0.00     0.046 A 
ATOM     16  C   UNL     1      14.750  -8.240  23.577  1.00  0.00     0.046 A 
ATOM     17  C   UNL     1      15.067  -6.875  23.620  1.00  0.00     0.115 A 
BRANCH  17  18
ATOM     18  O   UNL     1      15.435  -6.194  22.462  1.00  0.00    -0.508 OA
ATOM     19  H   UNL     1      14.751  -5.706  21.895  1.00  0.00     0.293 HD
ENDBRANCH  17  18
ENDBRANCH   2  12
BRANCH   8  20
ATOM     20  O   UNL     1      11.112 -12.224  30.213  1.00  0.00    -0.507 OA
ATOM     21  H   UNL     1      10.221 -12.199  29.740  1.00  0.00     0.293 HD
ENDBRANCH   8  20
BRANCH   6  22
ATOM     22  O   UNL     1      15.085 -14.683  29.126  1.00  0.00    -0.508 OA
ATOM     23  H   UNL     1      16.018 -14.761  28.736  1.00  0.00     0.293 HD
ENDBRANCH   6  22
TORSDOF 4
ENDMDL
