MODEL 1
REMARK VINA RESULT:    -6.828      0.000      0.000
REMARK INTER + INTRA:          -8.292
REMARK INTER:                  -8.025
REMARK INTRA:                  -0.267
REMARK UNBOUND:                -0.267
REMARK SMILES O=c1cc(-c2ccc(O)c(O)c2)oc2cc(O)cc(O)c12
REMARK SMILES IDX 4 1 3 2 2 3 1 4 21 5 19 6 18 7 16 8 15 9 14 10 13 11 5 12
REMARK SMILES IDX 6 13 7 14 8 15 12 16 10 17 9 18 11 20 20 22 17 24
REMARK H PARENT 9 19 11 21 20 23 17 25
REMARK Flexibility Score: inf
ROOT
ATOM      1  C   UNL     1       8.441  16.050 -18.854  1.00  0.00     0.138 A 
ATOM      2  C   UNL     1       8.471  15.725 -20.220  1.00  0.00     0.100 A 
ATOM      3  C   UNL     1       8.819  14.432 -20.610  1.00  0.00     0.197 A 
ATOM      4  O   UNL     1       8.842  14.148 -21.839  1.00  0.00    -0.289 OA
ATOM      5  C   UNL     1       9.133  13.469 -19.630  1.00  0.00     0.107 A 
ATOM      6  C   UNL     1       9.497  12.138 -19.939  1.00  0.00     0.134 A 
ATOM      7  C   UNL     1       9.790  11.238 -18.903  1.00  0.00     0.093 A 
ATOM      8  C   UNL     1       9.724  11.643 -17.568  1.00  0.00     0.123 A 
ATOM      9  C   UNL     1       9.364  12.958 -17.257  1.00  0.00     0.094 A 
ATOM     10  C   UNL     1       9.070  13.871 -18.274  1.00  0.00     0.146 A 
ATOM     11  O   UNL     1       8.733  15.115 -17.951  1.00  0.00    -0.456 OA
ENDROOT
BRANCH   1  12
ATOM     12  C   UNL     1       8.076  17.408 -18.380  1.00  0.00     0.021 A 
ATOM     13  C   UNL     1       6.954  17.574 -17.549  1.00  0.00     0.016 A 
ATOM     14  C   UNL     1       6.594  18.840 -17.084  1.00  0.00     0.051 A 
ATOM     15  C   UNL     1       7.354  19.963 -17.431  1.00  0.00     0.157 A 
ATOM     16  C   UNL     1       8.845  18.542 -18.715  1.00  0.00     0.062 A 
ATOM     17  C   UNL     1       8.487  19.811 -18.248  1.00  0.00     0.158 A 
BRANCH  15  18
ATOM     18  O   UNL     1       6.992  21.227 -16.966  1.00  0.00    -0.504 OA
ATOM     19  H   UNL     1       6.533  21.351 -16.071  1.00  0.00     0.293 HD
ENDBRANCH  15  18
BRANCH  17  20
ATOM     20  O   UNL     1       9.272  20.908 -18.602  1.00  0.00    -0.504 OA
ATOM     21  H   UNL     1       9.552  21.610 -17.927  1.00  0.00     0.293 HD
ENDBRANCH  17  20
ENDBRANCH   1  12
BRANCH   6  22
ATOM     22  O   UNL     1       9.570  11.703 -21.264  1.00  0.00    -0.507 OA
ATOM     23  H   UNL     1       9.876  10.767 -21.501  1.00  0.00     0.293 HD
ENDBRANCH   6  22
BRANCH   8  24
ATOM     24  O   UNL     1      10.019  10.729 -16.558  1.00  0.00    -0.508 OA
ATOM     25  H   UNL     1       9.576  10.784 -15.649  1.00  0.00     0.293 HD
ENDBRANCH   8  24
TORSDOF 5
ENDMDL
MODEL 2
REMARK VINA RESULT:    -6.736      5.384     10.645
REMARK INTER + INTRA:          -8.184
REMARK INTER:                  -7.906
REMARK INTRA:                  -0.279
REMARK UNBOUND:                -0.267
REMARK SMILES O=c1cc(-c2ccc(O)c(O)c2)oc2cc(O)cc(O)c12
REMARK SMILES IDX 4 1 3 2 2 3 1 4 21 5 19 6 18 7 16 8 15 9 14 10 13 11 5 12
REMARK SMILES IDX 6 13 7 14 8 15 12 16 10 17 9 18 11 20 20 22 17 24
REMARK H PARENT 9 19 11 21 20 23 17 25
REMARK Flexibility Score: inf
ROOT
ATOM      1  C   UNL     1       7.658   8.030 -15.311  1.00  0.00     0.138 A 
ATOM      2  C   UNL     1       7.316   8.326 -13.981  1.00  0.00     0.100 A 
ATOM      3  C   UNL     1       7.609   9.587 -13.461  1.00  0.00     0.197 A 
ATOM      4  O   UNL     1       7.296   9.845 -12.267  1.00  0.00    -0.289 OA
ATOM      5  C   UNL     1       8.241  10.547 -14.277  1.00  0.00     0.107 A 
ATOM      6  C   UNL     1       8.575  11.846 -13.829  1.00  0.00     0.134 A 
ATOM      7  C   UNL     1       9.199  12.746 -14.707  1.00  0.00     0.093 A 
ATOM      8  C   UNL     1       9.494  12.372 -16.019  1.00  0.00     0.123 A 
ATOM      9  C   UNL     1       9.166  11.088 -16.468  1.00  0.00     0.094 A 
ATOM     10  C   UNL     1       8.545  10.176 -15.609  1.00  0.00     0.146 A 
ATOM     11  O   UNL     1       8.246   8.962 -16.059  1.00  0.00    -0.456 OA
ENDROOT
BRANCH   1  12
ATOM     12  C   UNL     1       7.369   6.707 -15.918  1.00  0.00     0.021 A 
ATOM     13  C   UNL     1       6.835   6.643 -17.217  1.00  0.00     0.016 A 
ATOM     14  C   UNL     1       6.561   5.410 -17.813  1.00  0.00     0.051 A 
ATOM     15  C   UNL     1       6.826   4.219 -17.128  1.00  0.00     0.157 A 
ATOM     16  C   UNL     1       7.645   5.503 -15.238  1.00  0.00     0.062 A 
ATOM     17  C   UNL     1       7.374   4.267 -15.835  1.00  0.00     0.158 A 
BRANCH  15  18
ATOM     18  O   UNL     1       6.550   2.990 -17.725  1.00  0.00    -0.504 OA
ATOM     19  H   UNL     1       5.784   2.877 -18.378  1.00  0.00     0.293 HD
ENDBRANCH  15  18
BRANCH  17  20
ATOM     20  O   UNL     1       7.660   3.098 -15.130  1.00  0.00    -0.504 OA
ATOM     21  H   UNL     1       8.603   2.739 -15.043  1.00  0.00     0.293 HD
ENDBRANCH  17  20
ENDBRANCH   1  12
BRANCH   6  22
ATOM     22  O   UNL     1       8.291  12.250 -12.523  1.00  0.00    -0.507 OA
ATOM     23  H   UNL     1       8.072  13.214 -12.299  1.00  0.00     0.293 HD
ENDBRANCH   6  22
BRANCH   8  24
ATOM     24  O   UNL     1      10.114  13.285 -16.870  1.00  0.00    -0.508 OA
ATOM     25  H   UNL     1       9.749  14.222 -16.998  1.00  0.00     0.293 HD
ENDBRANCH   8  24
TORSDOF 5
ENDMDL
MODEL 3
REMARK VINA RESULT:    -6.732      2.618      4.408
REMARK INTER + INTRA:          -8.180
REMARK INTER:                  -7.867
REMARK INTRA:                  -0.313
REMARK UNBOUND:                -0.267
REMARK SMILES O=c1cc(-c2ccc(O)c(O)c2)oc2cc(O)cc(O)c12
REMARK SMILES IDX 4 1 3 2 2 3 1 4 21 5 19 6 18 7 16 8 15 9 14 10 13 11 5 12
REMARK SMILES IDX 6 13 7 14 8 15 12 16 10 17 9 18 11 20 20 22 17 24
REMARK H PARENT 9 19 11 21 20 23 17 25
REMARK Flexibility Score: inf
ROOT
ATOM      1  C   UNL     1       8.998  13.275 -18.895  1.00  0.00     0.138 A 
ATOM      2  C   UNL     1       9.572  12.038 -19.229  1.00  0.00     0.100 A 
ATOM      3  C   UNL     1       9.728  11.065 -18.241  1.00  0.00     0.197 A 
ATOM      4  O   UNL     1      10.244   9.956 -18.551  1.00  0.00    -0.289 OA
ATOM      5  C   UNL     1       9.305  11.334 -16.924  1.00  0.00     0.107 A 
ATOM      6  C   UNL     1       9.428  10.406 -15.865  1.00  0.00     0.134 A 
ATOM      7  C   UNL     1       8.977  10.751 -14.582  1.00  0.00     0.093 A 
ATOM      8  C   UNL     1       8.406  12.002 -14.339  1.00  0.00     0.123 A 
ATOM      9  C   UNL     1       8.282  12.924 -15.384  1.00  0.00     0.094 A 
ATOM     10  C   UNL     1       8.726  12.601 -16.669  1.00  0.00     0.146 A 
ATOM     11  O   UNL     1       8.599  13.496 -17.644  1.00  0.00    -0.456 OA
ENDROOT
BRANCH   1  12
ATOM     12  C   UNL     1       8.805  14.347 -19.904  1.00  0.00     0.021 A 
ATOM     13  C   UNL     1       8.818  14.021 -21.271  1.00  0.00     0.016 A 
ATOM     14  C   UNL     1       8.631  15.009 -22.240  1.00  0.00     0.051 A 
ATOM     15  C   UNL     1       8.418  16.340 -21.860  1.00  0.00     0.157 A 
ATOM     16  C   UNL     1       8.576  15.686 -19.528  1.00  0.00     0.062 A 
ATOM     17  C   UNL     1       8.388  16.678 -20.497  1.00  0.00     0.158 A 
BRANCH  15  18
ATOM     18  O   UNL     1       8.234  17.325 -22.829  1.00  0.00    -0.504 OA
ATOM     19  H   UNL     1       8.679  18.232 -22.755  1.00  0.00     0.293 HD
ENDBRANCH  15  18
BRANCH  17  20
ATOM     20  O   UNL     1       8.166  17.992 -20.085  1.00  0.00    -0.504 OA
ATOM     21  H   UNL     1       7.616  18.642 -20.634  1.00  0.00     0.293 HD
ENDBRANCH  17  20
ENDBRANCH   1  12
BRANCH   6  22
ATOM     22  O   UNL     1       9.993   9.147 -16.076  1.00  0.00    -0.507 OA
ATOM     23  H   UNL     1      10.568   8.951 -16.888  1.00  0.00     0.293 HD
ENDBRANCH   6  22
BRANCH   8  24
ATOM     24  O   UNL     1       7.965  12.319 -13.056  1.00  0.00    -0.508 OA
ATOM     25  H   UNL     1       7.014  12.622 -12.883  1.00  0.00     0.293 HD
ENDBRANCH   8  24
TORSDOF 5
ENDMDL
MODEL 4
REMARK VINA RESULT:    -6.731      3.410      6.223
REMARK INTER + INTRA:          -8.179
REMARK INTER:                  -7.914
REMARK INTRA:                  -0.264
REMARK UNBOUND:                -0.267
REMARK SMILES O=c1cc(-c2ccc(O)c(O)c2)oc2cc(O)cc(O)c12
REMARK SMILES IDX 4 1 3 2 2 3 1 4 21 5 19 6 18 7 16 8 15 9 14 10 13 11 5 12
REMARK SMILES IDX 6 13 7 14 8 15 12 16 10 17 9 18 11 20 20 22 17 24
REMARK H PARENT 9 19 11 21 20 23 17 25
REMARK Flexibility Score: inf
ROOT
ATOM      1  C   UNL     1       9.781  11.495 -16.368  1.00  0.00     0.138 A 
ATOM      2  C   UNL     1      10.558  10.356 -16.636  1.00  0.00     0.100 A 
ATOM      3  C   UNL     1      10.291   9.167 -15.957  1.00  0.00     0.197 A 
ATOM      4  O   UNL     1      10.993   8.149 -16.206  1.00  0.00    -0.289 OA
ATOM      5  C   UNL     1       9.245   9.124 -15.014  1.00  0.00     0.107 A 
ATOM      6  C   UNL     1       8.909   7.962 -14.281  1.00  0.00     0.134 A 
ATOM      7  C   UNL     1       7.848   8.000 -13.363  1.00  0.00     0.093 A 
ATOM      8  C   UNL     1       7.119   9.175 -13.165  1.00  0.00     0.123 A 
ATOM      9  C   UNL     1       7.447  10.327 -13.888  1.00  0.00     0.094 A 
ATOM     10  C   UNL     1       8.501  10.311 -14.806  1.00  0.00     0.146 A 
ATOM     11  O   UNL     1       8.793  11.419 -15.478  1.00  0.00    -0.456 OA
ENDROOT
BRANCH   1  12
ATOM     12  C   UNL     1      10.018  12.786 -17.061  1.00  0.00     0.021 A 
ATOM     13  C   UNL     1      10.903  13.722 -16.498  1.00  0.00     0.016 A 
ATOM     14  C   UNL     1      11.149  14.940 -17.135  1.00  0.00     0.051 A 
ATOM     15  C   UNL     1      10.523  15.242 -18.350  1.00  0.00     0.157 A 
ATOM     16  C   UNL     1       9.401  13.090 -18.292  1.00  0.00     0.062 A 
ATOM     17  C   UNL     1       9.647  14.310 -18.932  1.00  0.00     0.158 A 
BRANCH  15  18
ATOM     18  O   UNL     1      10.769  16.460 -18.982  1.00  0.00    -0.504 OA
ATOM     19  H   UNL     1      10.374  17.327 -18.636  1.00  0.00     0.293 HD
ENDBRANCH  15  18
BRANCH  17  20
ATOM     20  O   UNL     1       9.017  14.575 -20.147  1.00  0.00    -0.504 OA
ATOM     21  H   UNL     1       9.539  14.797 -20.987  1.00  0.00     0.293 HD
ENDBRANCH  17  20
ENDBRANCH   1  12
BRANCH   6  22
ATOM     22  O   UNL     1       9.619   6.773 -14.457  1.00  0.00    -0.507 OA
ATOM     23  H   UNL     1      10.619   6.722 -14.304  1.00  0.00     0.293 HD
ENDBRANCH   6  22
BRANCH   8  24
ATOM     24  O   UNL     1       6.070   9.186 -12.249  1.00  0.00    -0.508 OA
ATOM     25  H   UNL     1       5.693   8.327 -11.865  1.00  0.00     0.293 HD
ENDBRANCH   8  24
TORSDOF 5
ENDMDL
MODEL 5
REMARK VINA RESULT:    -6.607      4.199      8.534
REMARK INTER + INTRA:          -8.033
REMARK INTER:                  -7.716
REMARK INTRA:                  -0.317
REMARK UNBOUND:                -0.267
REMARK SMILES O=c1cc(-c2ccc(O)c(O)c2)oc2cc(O)cc(O)c12
REMARK SMILES IDX 4 1 3 2 2 3 1 4 21 5 19 6 18 7 16 8 15 9 14 10 13 11 5 12
REMARK SMILES IDX 6 13 7 14 8 15 12 16 10 17 9 18 11 20 20 22 17 24
REMARK H PARENT 9 19 11 21 20 23 17 25
REMARK Flexibility Score: inf
ROOT
ATOM      1  C   UNL     1       8.138  10.702 -14.938  1.00  0.00     0.138 A 
ATOM      2  C   UNL     1       8.665  11.897 -14.420  1.00  0.00     0.100 A 
ATOM      3  C   UNL     1       9.198  12.847 -15.291  1.00  0.00     0.197 A 
ATOM      4  O   UNL     1       9.667  13.917 -14.817  1.00  0.00    -0.289 OA
ATOM      5  C   UNL     1       9.198  12.598 -16.678  1.00  0.00     0.107 A 
ATOM      6  C   UNL     1       9.720  13.505 -17.629  1.00  0.00     0.134 A 
ATOM      7  C   UNL     1       9.678  13.184 -18.994  1.00  0.00     0.093 A 
ATOM      8  C   UNL     1       9.125  11.975 -19.425  1.00  0.00     0.123 A 
ATOM      9  C   UNL     1       8.607  11.074 -18.489  1.00  0.00     0.094 A 
ATOM     10  C   UNL     1       8.640  11.375 -17.124  1.00  0.00     0.146 A 
ATOM     11  O   UNL     1       8.144  10.500 -16.254  1.00  0.00    -0.456 OA
ENDROOT
BRANCH   1  12
ATOM     12  C   UNL     1       7.557   9.656 -14.060  1.00  0.00     0.021 A 
ATOM     13  C   UNL     1       7.331   9.940 -12.702  1.00  0.00     0.016 A 
ATOM     14  C   UNL     1       6.778   8.976 -11.857  1.00  0.00     0.051 A 
ATOM     15  C   UNL     1       6.431   7.714 -12.354  1.00  0.00     0.157 A 
ATOM     16  C   UNL     1       7.192   8.389 -14.558  1.00  0.00     0.062 A 
ATOM     17  C   UNL     1       6.637   7.422 -13.713  1.00  0.00     0.158 A 
BRANCH  15  18
ATOM     18  O   UNL     1       5.880   6.753 -11.508  1.00  0.00    -0.504 OA
ATOM     19  H   UNL     1       6.054   5.764 -11.644  1.00  0.00     0.293 HD
ENDBRANCH  15  18
BRANCH  17  20
ATOM     20  O   UNL     1       6.290   6.179 -14.243  1.00  0.00    -0.504 OA
ATOM     21  H   UNL     1       5.404   6.020 -14.707  1.00  0.00     0.293 HD
ENDBRANCH  17  20
ENDBRANCH   1  12
BRANCH   6  22
ATOM     22  O   UNL     1      10.278  14.721 -17.229  1.00  0.00    -0.507 OA
ATOM     23  H   UNL     1       9.985  15.601 -17.638  1.00  0.00     0.293 HD
ENDBRANCH   6  22
BRANCH   8  24
ATOM     24  O   UNL     1       9.094  11.681 -20.786  1.00  0.00    -0.508 OA
ATOM     25  H   UNL     1       8.228  11.446 -21.258  1.00  0.00     0.293 HD
ENDBRANCH   8  24
TORSDOF 5
ENDMDL
MODEL 6
REMARK VINA RESULT:    -6.590      3.255      7.710
REMARK INTER + INTRA:          -8.013
REMARK INTER:                  -7.748
REMARK INTRA:                  -0.264
REMARK UNBOUND:                -0.267
REMARK SMILES O=c1cc(-c2ccc(O)c(O)c2)oc2cc(O)cc(O)c12
REMARK SMILES IDX 4 1 3 2 2 3 1 4 21 5 19 6 18 7 16 8 15 9 14 10 13 11 5 12
REMARK SMILES IDX 6 13 7 14 8 15 12 16 10 17 9 18 11 20 20 22 17 24
REMARK H PARENT 9 19 11 21 20 23 17 25
REMARK Flexibility Score: inf
ROOT
ATOM      1  C   UNL     1       9.794  11.893 -16.866  1.00  0.00     0.138 A 
ATOM      2  C   UNL     1      10.639  12.908 -16.387  1.00  0.00     0.100 A 
ATOM      3  C   UNL     1      10.774  14.089 -17.116  1.00  0.00     0.197 A 
ATOM      4  O   UNL     1      11.533  14.996 -16.677  1.00  0.00    -0.289 OA
ATOM      5  C   UNL     1      10.060  14.251 -18.320  1.00  0.00     0.107 A 
ATOM      6  C   UNL     1      10.141  15.414 -19.120  1.00  0.00     0.134 A 
ATOM      7  C   UNL     1       9.393  15.498 -20.304  1.00  0.00     0.093 A 
ATOM      8  C   UNL     1       8.567  14.444 -20.701  1.00  0.00     0.123 A 
ATOM      9  C   UNL     1       8.483  13.291 -19.914  1.00  0.00     0.094 A 
ATOM     10  C   UNL     1       9.221  13.187 -18.731  1.00  0.00     0.146 A 
ATOM     11  O   UNL     1       9.126  12.079 -18.002  1.00  0.00    -0.456 OA
ENDROOT
BRANCH   1  12
ATOM     12  C   UNL     1       9.610  10.616 -16.132  1.00  0.00     0.021 A 
ATOM     13  C   UNL     1      10.446   9.524 -16.423  1.00  0.00     0.016 A 
ATOM     14  C   UNL     1      10.298   8.314 -15.742  1.00  0.00     0.051 A 
ATOM     15  C   UNL     1       9.319   8.175 -14.751  1.00  0.00     0.157 A 
ATOM     16  C   UNL     1       8.635  10.474 -15.125  1.00  0.00     0.062 A 
ATOM     17  C   UNL     1       8.486   9.263 -14.440  1.00  0.00     0.158 A 
BRANCH  15  18
ATOM     18  O   UNL     1       9.172   6.966 -14.073  1.00  0.00    -0.504 OA
ATOM     19  H   UNL     1       9.344   6.892 -13.077  1.00  0.00     0.293 HD
ENDBRANCH  15  18
BRANCH  17  20
ATOM     20  O   UNL     1       7.509   9.161 -13.450  1.00  0.00    -0.504 OA
ATOM     21  H   UNL     1       7.181   9.968 -12.933  1.00  0.00     0.293 HD
ENDBRANCH  17  20
ENDBRANCH   1  12
BRANCH   6  22
ATOM     22  O   UNL     1      10.956  16.485 -18.748  1.00  0.00    -0.507 OA
ATOM     23  H   UNL     1      11.233  17.199 -19.412  1.00  0.00     0.293 HD
ENDBRANCH   6  22
BRANCH   8  24
ATOM     24  O   UNL     1       7.834  14.553 -21.881  1.00  0.00    -0.508 OA
ATOM     25  H   UNL     1       6.843  14.343 -21.910  1.00  0.00     0.293 HD
ENDBRANCH   8  24
TORSDOF 5
ENDMDL
MODEL 7
REMARK VINA RESULT:    -6.517      4.904      7.590
REMARK INTER + INTRA:          -7.928
REMARK INTER:                  -7.626
REMARK INTRA:                  -0.301
REMARK UNBOUND:                -0.267
REMARK SMILES O=c1cc(-c2ccc(O)c(O)c2)oc2cc(O)cc(O)c12
REMARK SMILES IDX 4 1 3 2 2 3 1 4 21 5 19 6 18 7 16 8 15 9 14 10 13 11 5 12
REMARK SMILES IDX 6 13 7 14 8 15 12 16 10 17 9 18 11 20 20 22 17 24
REMARK H PARENT 9 19 11 21 20 23 17 25
REMARK Flexibility Score: inf
ROOT
ATOM      1  C   UNL     1       8.798  10.393 -15.057  1.00  0.00     0.138 A 
ATOM      2  C   UNL     1       8.547   9.331 -15.941  1.00  0.00     0.100 A 
ATOM      3  C   UNL     1       7.832   8.220 -15.495  1.00  0.00     0.197 A 
ATOM      4  O   UNL     1       7.609   7.272 -16.297  1.00  0.00    -0.289 OA
ATOM      5  C   UNL     1       7.367   8.178 -14.165  1.00  0.00     0.107 A 
ATOM      6  C   UNL     1       6.637   7.091 -13.631  1.00  0.00     0.134 A 
ATOM      7  C   UNL     1       6.206   7.130 -12.297  1.00  0.00     0.093 A 
ATOM      8  C   UNL     1       6.490   8.233 -11.488  1.00  0.00     0.123 A 
ATOM      9  C   UNL     1       7.212   9.311 -12.010  1.00  0.00     0.094 A 
ATOM     10  C   UNL     1       7.652   9.292 -13.337  1.00  0.00     0.146 A 
ATOM     11  O   UNL     1       8.338  10.328 -13.809  1.00  0.00    -0.456 OA
ENDROOT
BRANCH   1  12
ATOM     12  C   UNL     1       9.552  11.600 -15.476  1.00  0.00     0.021 A 
ATOM     13  C   UNL     1      10.617  11.471 -16.385  1.00  0.00     0.016 A 
ATOM     14  C   UNL     1      11.337  12.592 -16.801  1.00  0.00     0.051 A 
ATOM     15  C   UNL     1      11.001  13.865 -16.325  1.00  0.00     0.157 A 
ATOM     16  C   UNL     1       9.211  12.886 -15.011  1.00  0.00     0.062 A 
ATOM     17  C   UNL     1       9.930  14.011 -15.428  1.00  0.00     0.158 A 
BRANCH  15  18
ATOM     18  O   UNL     1      11.722  14.983 -16.741  1.00  0.00    -0.504 OA
ATOM     19  H   UNL     1      11.271  15.763 -17.205  1.00  0.00     0.293 HD
ENDBRANCH  15  18
BRANCH  17  20
ATOM     20  O   UNL     1       9.562  15.267 -14.944  1.00  0.00    -0.504 OA
ATOM     21  H   UNL     1      10.156  16.080 -15.052  1.00  0.00     0.293 HD
ENDBRANCH  17  20
ENDBRANCH   1  12
BRANCH   6  22
ATOM     22  O   UNL     1       6.337   5.976 -14.415  1.00  0.00    -0.507 OA
ATOM     23  H   UNL     1       6.580   5.037 -14.121  1.00  0.00     0.293 HD
ENDBRANCH   6  22
BRANCH   8  24
ATOM     24  O   UNL     1       6.050   8.247 -10.166  1.00  0.00    -0.508 OA
ATOM     25  H   UNL     1       5.569   7.453  -9.760  1.00  0.00     0.293 HD
ENDBRANCH   8  24
TORSDOF 5
ENDMDL
MODEL 8
REMARK VINA RESULT:    -6.509      2.458      7.262
REMARK INTER + INTRA:          -7.918
REMARK INTER:                  -7.629
REMARK INTRA:                  -0.289
REMARK UNBOUND:                -0.267
REMARK SMILES O=c1cc(-c2ccc(O)c(O)c2)oc2cc(O)cc(O)c12
REMARK SMILES IDX 4 1 3 2 2 3 1 4 21 5 19 6 18 7 16 8 15 9 14 10 13 11 5 12
REMARK SMILES IDX 6 13 7 14 8 15 12 16 10 17 9 18 11 20 20 22 17 24
REMARK H PARENT 9 19 11 21 20 23 17 25
REMARK Flexibility Score: inf
ROOT
ATOM      1  C   UNL     1       9.306  13.330 -18.694  1.00  0.00     0.138 A 
ATOM      2  C   UNL     1       9.048  14.475 -17.921  1.00  0.00     0.100 A 
ATOM      3  C   UNL     1       8.768  15.684 -18.558  1.00  0.00     0.197 A 
ATOM      4  O   UNL     1       8.535  16.705 -17.856  1.00  0.00    -0.289 OA
ATOM      5  C   UNL     1       8.745  15.742 -19.966  1.00  0.00     0.107 A 
ATOM      6  C   UNL     1       8.473  16.926 -20.689  1.00  0.00     0.134 A 
ATOM      7  C   UNL     1       8.464  16.898 -22.092  1.00  0.00     0.093 A 
ATOM      8  C   UNL     1       8.722  15.711 -22.783  1.00  0.00     0.123 A 
ATOM      9  C   UNL     1       8.992  14.537 -22.072  1.00  0.00     0.094 A 
ATOM     10  C   UNL     1       9.006  14.543 -20.674  1.00  0.00     0.146 A 
ATOM     11  O   UNL     1       9.268  13.415 -20.023  1.00  0.00    -0.456 OA
ENDROOT
BRANCH   1  12
ATOM     12  C   UNL     1       9.608  12.017 -18.073  1.00  0.00     0.021 A 
ATOM     13  C   UNL     1      10.563  11.941 -17.044  1.00  0.00     0.016 A 
ATOM     14  C   UNL     1      10.859  10.718 -16.438  1.00  0.00     0.051 A 
ATOM     15  C   UNL     1      10.200   9.551 -16.841  1.00  0.00     0.157 A 
ATOM     16  C   UNL     1       8.938  10.840 -18.465  1.00  0.00     0.062 A 
ATOM     17  C   UNL     1       9.232   9.615 -17.858  1.00  0.00     0.158 A 
BRANCH  15  18
ATOM     18  O   UNL     1      10.498   8.331 -16.235  1.00  0.00    -0.504 OA
ATOM     19  H   UNL     1       9.795   7.611 -16.118  1.00  0.00     0.293 HD
ENDBRANCH  15  18
BRANCH  17  20
ATOM     20  O   UNL     1       8.549   8.472 -18.274  1.00  0.00    -0.504 OA
ATOM     21  H   UNL     1       8.076   7.859 -17.620  1.00  0.00     0.293 HD
ENDBRANCH  17  20
ENDBRANCH   1  12
BRANCH   6  22
ATOM     22  O   UNL     1       8.211  18.126 -20.027  1.00  0.00    -0.507 OA
ATOM     23  H   UNL     1       8.928  18.830 -19.895  1.00  0.00     0.293 HD
ENDBRANCH   6  22
BRANCH   8  24
ATOM     24  O   UNL     1       8.706  15.710 -24.176  1.00  0.00    -0.508 OA
ATOM     25  H   UNL     1       8.791  16.569 -24.707  1.00  0.00     0.293 HD
ENDBRANCH   8  24
TORSDOF 5
ENDMDL
MODEL 9
REMARK VINA RESULT:    -6.366      2.227      6.436
REMARK INTER + INTRA:          -7.750
REMARK INTER:                  -7.440
REMARK INTRA:                  -0.310
REMARK UNBOUND:                -0.267
REMARK SMILES O=c1cc(-c2ccc(O)c(O)c2)oc2cc(O)cc(O)c12
REMARK SMILES IDX 4 1 3 2 2 3 1 4 21 5 19 6 18 7 16 8 15 9 14 10 13 11 5 12
REMARK SMILES IDX 6 13 7 14 8 15 12 16 10 17 9 18 11 20 20 22 17 24
REMARK H PARENT 9 19 11 21 20 23 17 25
REMARK Flexibility Score: inf
ROOT
ATOM      1  C   UNL     1       8.443  12.931 -17.776  1.00  0.00     0.138 A 
ATOM      2  C   UNL     1       8.765  12.363 -19.020  1.00  0.00     0.100 A 
ATOM      3  C   UNL     1       8.878  13.185 -20.141  1.00  0.00     0.197 A 
ATOM      4  O   UNL     1       9.169  12.667 -21.253  1.00  0.00    -0.289 OA
ATOM      5  C   UNL     1       8.672  14.573 -20.011  1.00  0.00     0.107 A 
ATOM      6  C   UNL     1       8.766  15.476 -21.095  1.00  0.00     0.134 A 
ATOM      7  C   UNL     1       8.551  16.846 -20.880  1.00  0.00     0.093 A 
ATOM      8  C   UNL     1       8.246  17.328 -19.606  1.00  0.00     0.123 A 
ATOM      9  C   UNL     1       8.152  16.440 -18.530  1.00  0.00     0.094 A 
ATOM     10  C   UNL     1       8.361  15.071 -18.722  1.00  0.00     0.146 A 
ATOM     11  O   UNL     1       8.264  14.247 -17.684  1.00  0.00    -0.456 OA
ENDROOT
BRANCH   1  12
ATOM     12  C   UNL     1       8.311  12.106 -16.549  1.00  0.00     0.021 A 
ATOM     13  C   UNL     1       8.020  10.736 -16.664  1.00  0.00     0.016 A 
ATOM     14  C   UNL     1       7.898   9.937 -15.525  1.00  0.00     0.051 A 
ATOM     15  C   UNL     1       8.074  10.490 -14.251  1.00  0.00     0.157 A 
ATOM     16  C   UNL     1       8.499  12.654 -15.264  1.00  0.00     0.062 A 
ATOM     17  C   UNL     1       8.379  11.855 -14.122  1.00  0.00     0.158 A 
BRANCH  15  18
ATOM     18  O   UNL     1       7.950   9.690 -13.116  1.00  0.00    -0.504 OA
ATOM     19  H   UNL     1       8.359   9.961 -12.229  1.00  0.00     0.293 HD
ENDBRANCH  15  18
BRANCH  17  20
ATOM     20  O   UNL     1       8.572  12.434 -12.868  1.00  0.00    -0.504 OA
ATOM     21  H   UNL     1       7.935  12.272 -12.097  1.00  0.00     0.293 HD
ENDBRANCH  17  20
ENDBRANCH   1  12
BRANCH   6  22
ATOM     22  O   UNL     1       9.071  15.024 -22.381  1.00  0.00    -0.507 OA
ATOM     23  H   UNL     1       8.812  15.552 -23.206  1.00  0.00     0.293 HD
ENDBRANCH   6  22
BRANCH   8  24
ATOM     24  O   UNL     1       8.039  18.693 -19.420  1.00  0.00    -0.508 OA
ATOM     25  H   UNL     1       8.010  19.103 -18.493  1.00  0.00     0.293 HD
ENDBRANCH   8  24
TORSDOF 5
ENDMDL
