MODEL 1
REMARK VINA RESULT:    -4.017      0.000      0.000
REMARK INTER + INTRA:          -5.025
REMARK INTER:                  -4.722
REMARK INTRA:                  -0.303
REMARK UNBOUND:                -0.303
REMARK SMILES C=CC(C)=CCC=C(C)C
REMARK SMILES IDX 5 1 3 2 4 3 6 4 7 5 9 6 8 7 10 8 2 9 1 10
REMARK H PARENT
REMARK Flexibility Score: inf
ROOT
ATOM      1  C   UNL     1     137.604 139.833 135.591  1.00  0.00    -0.020 C 
ATOM      2  C   UNL     1     136.680 140.399 134.790  1.00  0.00    -0.055 C 
ATOM      3  C   UNL     1     137.050 141.001 133.451  1.00  0.00     0.044 C 
ENDROOT
BRANCH   1   4
ATOM      4  C   UNL     1     139.070 139.754 135.253  1.00  0.00     0.055 C 
BRANCH   4   5
ATOM      5  C   UNL     1     139.426 138.409 134.669  1.00  0.00    -0.024 C 
ATOM      6  C   UNL     1     140.470 136.186 134.592  1.00  0.00     0.039 C 
ATOM      7  C   UNL     1     140.208 137.497 135.287  1.00  0.00    -0.080 C 
ATOM      8  C   UNL     1     140.826 137.764 136.639  1.00  0.00     0.039 C 
ENDBRANCH   4   5
ENDBRANCH   1   4
BRANCH   2   9
ATOM      9  C   UNL     1     135.260 140.355 135.225  1.00  0.00    -0.005 C 
ATOM     10  C   UNL     1     134.827 140.849 136.386  1.00  0.00     0.009 C 
ENDBRANCH   2   9
TORSDOF 3
ENDMDL
MODEL 2
REMARK VINA RESULT:    -4.007      3.918      6.116
REMARK INTER + INTRA:          -5.013
REMARK INTER:                  -4.703
REMARK INTRA:                  -0.310
REMARK UNBOUND:                -0.303
REMARK SMILES C=CC(C)=CCC=C(C)C
REMARK SMILES IDX 5 1 3 2 4 3 6 4 7 5 9 6 8 7 10 8 2 9 1 10
REMARK H PARENT
REMARK Flexibility Score: inf
ROOT
ATOM      1  C   UNL     1     139.786 134.946 135.635  1.00  0.00    -0.020 C 
ATOM      2  C   UNL     1     140.380 135.862 134.847  1.00  0.00    -0.055 C 
ATOM      3  C   UNL     1     141.048 135.477 133.545  1.00  0.00     0.044 C 
ENDROOT
BRANCH   1   4
ATOM      4  C   UNL     1     139.737 133.473 135.319  1.00  0.00     0.055 C 
BRANCH   4   5
ATOM      5  C   UNL     1     138.396 133.079 134.750  1.00  0.00    -0.024 C 
ATOM      6  C   UNL     1     136.159 132.062 134.742  1.00  0.00     0.039 C 
ATOM      7  C   UNL     1     137.463 132.375 135.428  1.00  0.00    -0.080 C 
ATOM      8  C   UNL     1     137.700 131.892 136.839  1.00  0.00     0.039 C 
ENDBRANCH   4   5
ENDBRANCH   1   4
BRANCH   2   9
ATOM      9  C   UNL     1     140.300 137.289 135.255  1.00  0.00    -0.005 C 
ATOM     10  C   UNL     1     140.937 137.790 136.315  1.00  0.00     0.009 C 
ENDBRANCH   2   9
TORSDOF 3
ENDMDL
MODEL 3
REMARK VINA RESULT:    -3.999      3.840      6.008
REMARK INTER + INTRA:          -5.004
REMARK INTER:                  -4.685
REMARK INTRA:                  -0.318
REMARK UNBOUND:                -0.303
REMARK SMILES C=CC(C)=CCC=C(C)C
REMARK SMILES IDX 5 1 3 2 4 3 6 4 7 5 9 6 8 7 10 8 2 9 1 10
REMARK H PARENT
REMARK Flexibility Score: inf
ROOT
ATOM      1  C   UNL     1     132.808 137.722 135.639  1.00  0.00    -0.020 C 
ATOM      2  C   UNL     1     132.242 136.802 134.834  1.00  0.00    -0.055 C 
ATOM      3  C   UNL     1     131.603 137.184 133.517  1.00  0.00     0.044 C 
ENDROOT
BRANCH   1   4
ATOM      4  C   UNL     1     132.852 139.195 135.326  1.00  0.00     0.055 C 
BRANCH   4   5
ATOM      5  C   UNL     1     134.192 139.596 134.760  1.00  0.00    -0.024 C 
ATOM      6  C   UNL     1     136.456 140.552 134.778  1.00  0.00     0.039 C 
ATOM      7  C   UNL     1     135.157 140.223 135.467  1.00  0.00    -0.080 C 
ATOM      8  C   UNL     1     134.961 140.606 136.915  1.00  0.00     0.039 C 
ENDBRANCH   4   5
ENDBRANCH   1   4
BRANCH   2   9
ATOM      9  C   UNL     1     132.323 135.375 135.242  1.00  0.00    -0.005 C 
ATOM     10  C   UNL     1     131.793 134.898 136.369  1.00  0.00     0.009 C 
ENDBRANCH   2   9
TORSDOF 3
ENDMDL
MODEL 4
REMARK VINA RESULT:    -3.994      6.183      8.550
REMARK INTER + INTRA:          -4.998
REMARK INTER:                  -4.690
REMARK INTRA:                  -0.307
REMARK UNBOUND:                -0.303
REMARK SMILES C=CC(C)=CCC=C(C)C
REMARK SMILES IDX 5 1 3 2 4 3 6 4 7 5 9 6 8 7 10 8 2 9 1 10
REMARK H PARENT
REMARK Flexibility Score: inf
ROOT
ATOM      1  C   UNL     1     134.993 132.879 135.602  1.00  0.00    -0.020 C 
ATOM      2  C   UNL     1     135.922 132.288 134.826  1.00  0.00    -0.055 C 
ATOM      3  C   UNL     1     135.560 131.629 133.513  1.00  0.00     0.044 C 
ENDROOT
BRANCH   1   4
ATOM      4  C   UNL     1     133.527 132.933 135.259  1.00  0.00     0.055 C 
BRANCH   4   5
ATOM      5  C   UNL     1     133.139 134.288 134.721  1.00  0.00    -0.024 C 
ATOM      6  C   UNL     1     132.083 136.507 134.742  1.00  0.00     0.039 C 
ATOM      7  C   UNL     1     132.382 135.182 135.394  1.00  0.00    -0.080 C 
ATOM      8  C   UNL     1     131.828 134.883 136.767  1.00  0.00     0.039 C 
ENDBRANCH   4   5
ENDBRANCH   1   4
BRANCH   2   9
ATOM      9  C   UNL     1     137.341 132.362 135.261  1.00  0.00    -0.005 C 
ATOM     10  C   UNL     1     137.805 131.783 136.370  1.00  0.00     0.009 C 
ENDBRANCH   2   9
TORSDOF 3
ENDMDL
MODEL 5
REMARK VINA RESULT:    -3.955      1.089      5.049
REMARK INTER + INTRA:          -4.952
REMARK INTER:                  -4.550
REMARK INTRA:                  -0.402
REMARK UNBOUND:                -0.303
REMARK SMILES C=CC(C)=CCC=C(C)C
REMARK SMILES IDX 5 1 3 2 4 3 6 4 7 5 9 6 8 7 10 8 2 9 1 10
REMARK H PARENT
REMARK Flexibility Score: inf
ROOT
ATOM      1  C   UNL     1     138.468 139.908 134.541  1.00  0.00    -0.020 C 
ATOM      2  C   UNL     1     138.997 139.244 135.587  1.00  0.00    -0.055 C 
ATOM      3  C   UNL     1     138.370 139.300 136.963  1.00  0.00     0.044 C 
ENDROOT
BRANCH   1   4
ATOM      4  C   UNL     1     137.234 140.768 134.631  1.00  0.00     0.055 C 
BRANCH   4   5
ATOM      5  C   UNL     1     135.984 139.962 134.377  1.00  0.00    -0.024 C 
ATOM      6  C   UNL     1     133.695 139.161 134.774  1.00  0.00     0.039 C 
ATOM      7  C   UNL     1     134.880 140.011 135.154  1.00  0.00    -0.080 C 
ATOM      8  C   UNL     1     134.810 140.882 136.385  1.00  0.00     0.039 C 
ENDBRANCH   4   5
ENDBRANCH   1   4
BRANCH   2   9
ATOM      9  C   UNL     1     140.184 138.386 135.338  1.00  0.00    -0.005 C 
ATOM     10  C   UNL     1     140.872 137.779 136.306  1.00  0.00     0.009 C 
ENDBRANCH   2   9
TORSDOF 3
ENDMDL
MODEL 6
REMARK VINA RESULT:    -3.949      4.696      6.289
REMARK INTER + INTRA:          -4.945
REMARK INTER:                  -4.526
REMARK INTRA:                  -0.420
REMARK UNBOUND:                -0.303
REMARK SMILES C=CC(C)=CCC=C(C)C
REMARK SMILES IDX 5 1 3 2 4 3 6 4 7 5 9 6 8 7 10 8 2 9 1 10
REMARK H PARENT
REMARK Flexibility Score: inf
ROOT
ATOM      1  C   UNL     1     132.769 138.422 134.569  1.00  0.00    -0.020 C 
ATOM      2  C   UNL     1     133.428 138.949 135.619  1.00  0.00    -0.055 C 
ATOM      3  C   UNL     1     133.335 138.342 137.002  1.00  0.00     0.044 C 
ENDROOT
BRANCH   1   4
ATOM      4  C   UNL     1     131.879 137.210 134.661  1.00  0.00     0.055 C 
BRANCH   4   5
ATOM      5  C   UNL     1     132.651 135.942 134.392  1.00  0.00    -0.024 C 
ATOM      6  C   UNL     1     133.432 133.646 134.793  1.00  0.00     0.039 C 
ATOM      7  C   UNL     1     132.621 134.852 135.191  1.00  0.00    -0.080 C 
ATOM      8  C   UNL     1     131.807 134.820 136.463  1.00  0.00     0.039 C 
ENDBRANCH   4   5
ENDBRANCH   1   4
BRANCH   2   9
ATOM      9  C   UNL     1     134.318 140.113 135.370  1.00  0.00    -0.005 C 
ATOM     10  C   UNL     1     134.793 140.900 136.337  1.00  0.00     0.009 C 
ENDBRANCH   2   9
TORSDOF 3
ENDMDL
MODEL 7
REMARK VINA RESULT:    -3.939      2.668      5.911
REMARK INTER + INTRA:          -4.933
REMARK INTER:                  -4.522
REMARK INTRA:                  -0.411
REMARK UNBOUND:                -0.303
REMARK SMILES C=CC(C)=CCC=C(C)C
REMARK SMILES IDX 5 1 3 2 4 3 6 4 7 5 9 6 8 7 10 8 2 9 1 10
REMARK H PARENT
REMARK Flexibility Score: inf
ROOT
ATOM      1  C   UNL     1     139.980 134.248 134.531  1.00  0.00    -0.020 C 
ATOM      2  C   UNL     1     139.300 133.713 135.564  1.00  0.00    -0.055 C 
ATOM      3  C   UNL     1     139.335 134.333 136.944  1.00  0.00     0.044 C 
ENDROOT
BRANCH   1   4
ATOM      4  C   UNL     1     140.838 135.482 134.642  1.00  0.00     0.055 C 
BRANCH   4   5
ATOM      5  C   UNL     1     140.032 136.733 134.394  1.00  0.00    -0.024 C 
ATOM      6  C   UNL     1     139.189 138.999 134.836  1.00  0.00     0.039 C 
ATOM      7  C   UNL     1     140.031 137.808 135.213  1.00  0.00    -0.080 C 
ATOM      8  C   UNL     1     140.840 137.838 136.489  1.00  0.00     0.039 C 
ENDBRANCH   4   5
ENDBRANCH   1   4
BRANCH   2   9
ATOM      9  C   UNL     1     138.447 132.527 135.297  1.00  0.00    -0.005 C 
ATOM     10  C   UNL     1     137.873 131.798 136.255  1.00  0.00     0.009 C 
ENDBRANCH   2   9
TORSDOF 3
ENDMDL
MODEL 8
REMARK VINA RESULT:    -3.937      6.124      7.018
REMARK INTER + INTRA:          -4.931
REMARK INTER:                  -4.524
REMARK INTRA:                  -0.406
REMARK UNBOUND:                -0.303
REMARK SMILES C=CC(C)=CCC=C(C)C
REMARK SMILES IDX 5 1 3 2 4 3 6 4 7 5 9 6 8 7 10 8 2 9 1 10
REMARK H PARENT
REMARK Flexibility Score: inf
ROOT
ATOM      1  C   UNL     1     134.164 132.733 134.593  1.00  0.00    -0.020 C 
ATOM      2  C   UNL     1     133.625 133.389 135.639  1.00  0.00    -0.055 C 
ATOM      3  C   UNL     1     134.236 133.321 137.021  1.00  0.00     0.044 C 
ENDROOT
BRANCH   1   4
ATOM      4  C   UNL     1     135.396 131.870 134.691  1.00  0.00     0.055 C 
BRANCH   4   5
ATOM      5  C   UNL     1     136.646 132.667 134.413  1.00  0.00    -0.024 C 
ATOM      6  C   UNL     1     138.944 133.463 134.775  1.00  0.00     0.039 C 
ATOM      7  C   UNL     1     137.759 132.623 135.179  1.00  0.00    -0.080 C 
ATOM      8  C   UNL     1     137.837 131.768 136.421  1.00  0.00     0.039 C 
ENDBRANCH   4   5
ENDBRANCH   1   4
BRANCH   2   9
ATOM      9  C   UNL     1     132.441 134.251 135.384  1.00  0.00    -0.005 C 
ATOM     10  C   UNL     1     131.812 134.941 136.336  1.00  0.00     0.009 C 
ENDBRANCH   2   9
TORSDOF 3
ENDMDL
MODEL 9
REMARK VINA RESULT:    -3.828      5.635      6.596
REMARK INTER + INTRA:          -4.802
REMARK INTER:                  -4.506
REMARK INTRA:                  -0.296
REMARK UNBOUND:                -0.303
REMARK SMILES C=CC(C)=CCC=C(C)C
REMARK SMILES IDX 5 1 3 2 4 3 6 4 7 5 9 6 8 7 10 8 2 9 1 10
REMARK H PARENT
REMARK Flexibility Score: inf
ROOT
ATOM      1  C   UNL     1     132.542 136.530 135.848  1.00  0.00    -0.020 C 
ATOM      2  C   UNL     1     132.409 137.475 134.897  1.00  0.00    -0.055 C 
ATOM      3  C   UNL     1     131.558 137.250 133.667  1.00  0.00     0.044 C 
ENDROOT
BRANCH   1   4
ATOM      4  C   UNL     1     131.885 135.176 135.781  1.00  0.00     0.055 C 
BRANCH   4   5
ATOM      5  C   UNL     1     132.790 134.159 135.130  1.00  0.00    -0.024 C 
ATOM      6  C   UNL     1     134.482 132.379 135.030  1.00  0.00     0.039 C 
ATOM      7  C   UNL     1     133.646 133.362 135.807  1.00  0.00    -0.080 C 
ATOM      8  C   UNL     1     133.787 133.441 137.309  1.00  0.00     0.039 C 
ENDBRANCH   4   5
ENDBRANCH   1   4
BRANCH   2   9
ATOM      9  C   UNL     1     133.069 138.787 135.124  1.00  0.00    -0.005 C 
ATOM     10  C   UNL     1     133.020 139.449 136.281  1.00  0.00     0.009 C 
ENDBRANCH   2   9
TORSDOF 3
ENDMDL
