MODEL 1
REMARK VINA RESULT:    -5.812      0.000      0.000
REMARK INTER + INTRA:          -7.954
REMARK INTER:                  -7.511
REMARK INTRA:                  -0.443
REMARK UNBOUND:                -0.443
REMARK SMILES CCO[C@@H]1O[C@@H](CO)[C@@H](O)[C@@H](O)[C@@H]1O
REMARK SMILES IDX 4 1 13 2 11 3 9 4 6 5 5 6 3 7 2 8 1 9 14 10 12 12 7 14 8 15
REMARK SMILES IDX 10 17
REMARK H PARENT 14 11 12 13 8 16 10 18
REMARK Flexibility Score: inf
ROOT
ATOM      1  C   UNL     1      10.886 -11.750  36.904  1.00  0.00     0.281 C 
ATOM      2  C   UNL     1      11.361 -13.097  36.313  1.00  0.00     0.202 C 
ATOM      3  C   UNL     1      10.298 -14.186  36.526  1.00  0.00     0.179 C 
ATOM      4  C   UNL     1       8.929 -13.688  36.022  1.00  0.00     0.177 C 
ATOM      5  C   UNL     1       8.619 -12.331  36.691  1.00  0.00     0.178 C 
ATOM      6  O   UNL     1       9.620 -11.373  36.377  1.00  0.00    -0.341 OA
ENDROOT
BRANCH   1   7
ATOM      7  O   UNL     1      10.857 -11.821  38.323  1.00  0.00    -0.350 OA
BRANCH   7   8
ATOM      8  C   UNL     1      11.341 -10.624  38.903  1.00  0.00     0.160 C 
ATOM      9  C   UNL     1      12.856 -10.542  38.758  1.00  0.00     0.035 C 
ENDBRANCH   7   8
ENDBRANCH   1   7
BRANCH   2  10
ATOM     10  O   UNL     1      12.564 -13.497  36.918  1.00  0.00    -0.385 OA
ATOM     11  H   UNL     1      12.783 -12.810  37.601  1.00  0.00     0.211 HD
ENDBRANCH   2  10
BRANCH   3  12
ATOM     12  O   UNL     1      10.679 -15.353  35.843  1.00  0.00    -0.387 OA
ATOM     13  H   UNL     1      10.117 -16.089  36.200  1.00  0.00     0.211 HD
ENDBRANCH   3  12
BRANCH   5  14
ATOM     14  C   UNL     1       7.245 -11.784  36.276  1.00  0.00     0.191 C 
BRANCH  14  15
ATOM     15  O   UNL     1       7.268 -11.313  34.955  1.00  0.00    -0.394 OA
ATOM     16  H   UNL     1       8.090 -11.677  34.528  1.00  0.00     0.210 HD
ENDBRANCH  14  15
ENDBRANCH   5  14
BRANCH   4  17
ATOM     17  O   UNL     1       8.955 -13.544  34.624  1.00  0.00    -0.387 OA
ATOM     18  H   UNL     1       8.341 -12.795  34.401  1.00  0.00     0.211 HD
ENDBRANCH   4  17
TORSDOF 7
ENDMDL
MODEL 2
REMARK VINA RESULT:    -5.726      1.722      4.095
REMARK INTER + INTRA:          -7.843
REMARK INTER:                  -7.367
REMARK INTRA:                  -0.475
REMARK UNBOUND:                -0.443
REMARK SMILES CCO[C@@H]1O[C@@H](CO)[C@@H](O)[C@@H](O)[C@@H]1O
REMARK SMILES IDX 4 1 13 2 11 3 9 4 6 5 5 6 3 7 2 8 1 9 14 10 12 12 7 14 8 15
REMARK SMILES IDX 10 17
REMARK H PARENT 14 11 12 13 8 16 10 18
REMARK Flexibility Score: inf
ROOT
ATOM      1  C   UNL     1       9.927 -12.606  37.138  1.00  0.00     0.281 C 
ATOM      2  C   UNL     1      10.917 -13.643  37.714  1.00  0.00     0.202 C 
ATOM      3  C   UNL     1      12.318 -13.445  37.114  1.00  0.00     0.179 C 
ATOM      4  C   UNL     1      12.747 -11.972  37.256  1.00  0.00     0.177 C 
ATOM      5  C   UNL     1      11.644 -11.075  36.653  1.00  0.00     0.178 C 
ATOM      6  O   UNL     1      10.407 -11.278  37.321  1.00  0.00    -0.341 OA
ENDROOT
BRANCH   1   7
ATOM      7  O   UNL     1       9.672 -12.880  35.768  1.00  0.00    -0.350 OA
BRANCH   7   8
ATOM      8  C   UNL     1       8.327 -12.592  35.433  1.00  0.00     0.160 C 
ATOM      9  C   UNL     1       7.382 -13.501  36.209  1.00  0.00     0.035 C 
ENDBRANCH   7   8
ENDBRANCH   1   7
BRANCH   2  10
ATOM     10  O   UNL     1      10.473 -14.946  37.437  1.00  0.00    -0.385 OA
ATOM     11  H   UNL     1      10.298 -14.987  36.460  1.00  0.00     0.211 HD
ENDBRANCH   2  10
BRANCH   3  12
ATOM     12  O   UNL     1      13.231 -14.290  37.767  1.00  0.00    -0.387 OA
ATOM     13  H   UNL     1      13.470 -15.005  37.122  1.00  0.00     0.211 HD
ENDBRANCH   3  12
BRANCH   5  14
ATOM     14  C   UNL     1      12.014  -9.585  36.714  1.00  0.00     0.191 C 
BRANCH  14  15
ATOM     15  O   UNL     1      11.703  -9.039  37.969  1.00  0.00    -0.394 OA
ATOM     16  H   UNL     1      11.371  -9.785  38.539  1.00  0.00     0.210 HD
ENDBRANCH  14  15
ENDBRANCH   5  14
BRANCH   4  17
ATOM     17  O   UNL     1      12.939 -11.657  38.613  1.00  0.00    -0.387 OA
ATOM     18  H   UNL     1      12.684 -12.463  39.135  1.00  0.00     0.211 HD
ENDBRANCH   4  17
TORSDOF 7
ENDMDL
MODEL 3
REMARK VINA RESULT:    -5.680      2.172      3.820
REMARK INTER + INTRA:          -7.783
REMARK INTER:                  -7.379
REMARK INTRA:                  -0.404
REMARK UNBOUND:                -0.443
REMARK SMILES CCO[C@@H]1O[C@@H](CO)[C@@H](O)[C@@H](O)[C@@H]1O
REMARK SMILES IDX 4 1 13 2 11 3 9 4 6 5 5 6 3 7 2 8 1 9 14 10 12 12 7 14 8 15
REMARK SMILES IDX 10 17
REMARK H PARENT 14 11 12 13 8 16 10 18
REMARK Flexibility Score: inf
ROOT
ATOM      1  C   UNL     1      10.976 -10.959  35.489  1.00  0.00     0.281 C 
ATOM      2  C   UNL     1       9.743 -11.876  35.649  1.00  0.00     0.202 C 
ATOM      3  C   UNL     1       9.946 -12.858  36.813  1.00  0.00     0.179 C 
ATOM      4  C   UNL     1      10.367 -12.089  38.080  1.00  0.00     0.177 C 
ATOM      5  C   UNL     1      11.593 -11.211  37.743  1.00  0.00     0.178 C 
ATOM      6  O   UNL     1      11.283 -10.290  36.707  1.00  0.00    -0.341 OA
ENDROOT
BRANCH   1   7
ATOM      7  O   UNL     1      12.086 -11.708  35.015  1.00  0.00    -0.350 OA
BRANCH   7   8
ATOM      8  C   UNL     1      13.046 -10.865  34.405  1.00  0.00     0.160 C 
ATOM      9  C   UNL     1      14.455 -11.313  34.778  1.00  0.00     0.035 C 
ENDBRANCH   7   8
ENDBRANCH   1   7
BRANCH   2  10
ATOM     10  O   UNL     1       9.517 -12.598  34.465  1.00  0.00    -0.385 OA
ATOM     11  H   UNL     1       8.532 -12.666  34.356  1.00  0.00     0.211 HD
ENDBRANCH   2  10
BRANCH   3  12
ATOM     12  O   UNL     1       8.756 -13.568  37.040  1.00  0.00    -0.387 OA
ATOM     13  H   UNL     1       8.487 -13.960  36.168  1.00  0.00     0.211 HD
ENDBRANCH   3  12
BRANCH   5  14
ATOM     14  C   UNL     1      12.107 -10.442  38.969  1.00  0.00     0.191 C 
BRANCH  14  15
ATOM     15  O   UNL     1      11.361  -9.272  39.180  1.00  0.00    -0.394 OA
ATOM     16  H   UNL     1      11.194  -8.866  38.286  1.00  0.00     0.210 HD
ENDBRANCH  14  15
ENDBRANCH   5  14
BRANCH   4  17
ATOM     17  O   UNL     1       9.305 -11.285  38.530  1.00  0.00    -0.387 OA
ATOM     18  H   UNL     1       8.477 -11.826  38.439  1.00  0.00     0.211 HD
ENDBRANCH   4  17
TORSDOF 7
ENDMDL
MODEL 4
REMARK VINA RESULT:    -5.570      1.735      2.862
REMARK INTER + INTRA:          -7.642
REMARK INTER:                  -7.281
REMARK INTRA:                  -0.361
REMARK UNBOUND:                -0.443
REMARK SMILES CCO[C@@H]1O[C@@H](CO)[C@@H](O)[C@@H](O)[C@@H]1O
REMARK SMILES IDX 4 1 13 2 11 3 9 4 6 5 5 6 3 7 2 8 1 9 14 10 12 12 7 14 8 15
REMARK SMILES IDX 10 17
REMARK H PARENT 14 11 12 13 8 16 10 18
REMARK Flexibility Score: inf
ROOT
ATOM      1  C   UNL     1      10.019 -11.487  38.033  1.00  0.00     0.281 C 
ATOM      2  C   UNL     1       9.673 -11.300  36.539  1.00  0.00     0.202 C 
ATOM      3  C   UNL     1      10.212 -12.475  35.708  1.00  0.00     0.179 C 
ATOM      4  C   UNL     1       9.758 -13.810  36.330  1.00  0.00     0.177 C 
ATOM      5  C   UNL     1      10.161 -13.823  37.821  1.00  0.00     0.178 C 
ATOM      6  O   UNL     1       9.557 -12.743  38.517  1.00  0.00    -0.341 OA
ENDROOT
BRANCH   1   7
ATOM      7  O   UNL     1      11.417 -11.337  38.235  1.00  0.00    -0.350 OA
BRANCH   7   8
ATOM      8  C   UNL     1      11.687 -10.365  39.228  1.00  0.00     0.160 C 
ATOM      9  C   UNL     1      13.168 -10.375  39.588  1.00  0.00     0.035 C 
ENDBRANCH   7   8
ENDBRANCH   1   7
BRANCH   2  10
ATOM     10  O   UNL     1      10.223 -10.100  36.058  1.00  0.00    -0.385 OA
ATOM     11  H   UNL     1      10.710 -10.323  35.222  1.00  0.00     0.211 HD
ENDBRANCH   2  10
BRANCH   3  12
ATOM     12  O   UNL     1       9.750 -12.364  34.386  1.00  0.00    -0.387 OA
ATOM     13  H   UNL     1       9.269 -11.498  34.323  1.00  0.00     0.211 HD
ENDBRANCH   3  12
BRANCH   5  14
ATOM     14  C   UNL     1       9.783 -15.144  38.508  1.00  0.00     0.191 C 
BRANCH  14  15
ATOM     15  O   UNL     1       8.507 -15.065  39.086  1.00  0.00    -0.394 OA
ATOM     16  H   UNL     1       8.009 -15.881  38.809  1.00  0.00     0.210 HD
ENDBRANCH  14  15
ENDBRANCH   5  14
BRANCH   4  17
ATOM     17  O   UNL     1       8.365 -13.949  36.204  1.00  0.00    -0.387 OA
ATOM     18  H   UNL     1       8.007 -13.055  35.961  1.00  0.00     0.211 HD
ENDBRANCH   4  17
TORSDOF 7
ENDMDL
MODEL 5
REMARK VINA RESULT:    -5.435      1.903      4.545
REMARK INTER + INTRA:          -7.466
REMARK INTER:                  -7.313
REMARK INTRA:                  -0.153
REMARK UNBOUND:                -0.443
REMARK SMILES CCO[C@@H]1O[C@@H](CO)[C@@H](O)[C@@H](O)[C@@H]1O
REMARK SMILES IDX 4 1 13 2 11 3 9 4 6 5 5 6 3 7 2 8 1 9 14 10 12 12 7 14 8 15
REMARK SMILES IDX 10 17
REMARK H PARENT 14 11 12 13 8 16 10 18
REMARK Flexibility Score: inf
ROOT
ATOM      1  C   UNL     1       9.518 -12.899  36.696  1.00  0.00     0.281 C 
ATOM      2  C   UNL     1       9.425 -11.474  36.105  1.00  0.00     0.202 C 
ATOM      3  C   UNL     1      10.599 -10.609  36.589  1.00  0.00     0.179 C 
ATOM      4  C   UNL     1      11.930 -11.343  36.337  1.00  0.00     0.177 C 
ATOM      5  C   UNL     1      11.848 -12.750  36.970  1.00  0.00     0.178 C 
ATOM      6  O   UNL     1      10.778 -13.495  36.407  1.00  0.00    -0.341 OA
ENDROOT
BRANCH   1   7
ATOM      7  O   UNL     1       9.268 -12.868  38.093  1.00  0.00    -0.350 OA
BRANCH   7   8
ATOM      8  C   UNL     1       8.920 -14.152  38.577  1.00  0.00     0.160 C 
ATOM      9  C   UNL     1       7.405 -14.298  38.645  1.00  0.00     0.035 C 
ENDBRANCH   7   8
ENDBRANCH   1   7
BRANCH   2  10
ATOM     10  O   UNL     1       8.215 -10.869  36.484  1.00  0.00    -0.385 OA
ATOM     11  H   UNL     1       7.984 -10.220  35.768  1.00  0.00     0.211 HD
ENDBRANCH   2  10
BRANCH   3  12
ATOM     12  O   UNL     1      10.581  -9.376  35.917  1.00  0.00    -0.387 OA
ATOM     13  H   UNL     1       9.808  -9.402  35.294  1.00  0.00     0.211 HD
ENDBRANCH   3  12
BRANCH   5  14
ATOM     14  C   UNL     1      13.157 -13.535  36.803  1.00  0.00     0.191 C 
BRANCH  14  15
ATOM     15  O   UNL     1      13.299 -14.500  37.812  1.00  0.00    -0.394 OA
ATOM     16  H   UNL     1      12.808 -15.312  37.513  1.00  0.00     0.210 HD
ENDBRANCH  14  15
ENDBRANCH   5  14
BRANCH   4  17
ATOM     17  O   UNL     1      12.167 -11.448  34.955  1.00  0.00    -0.387 OA
ATOM     18  H   UNL     1      12.455 -10.550  34.644  1.00  0.00     0.211 HD
ENDBRANCH   4  17
TORSDOF 7
ENDMDL
MODEL 6
REMARK VINA RESULT:    -5.418      1.991      3.681
REMARK INTER + INTRA:          -7.444
REMARK INTER:                  -7.020
REMARK INTRA:                  -0.425
REMARK UNBOUND:                -0.443
REMARK SMILES CCO[C@@H]1O[C@@H](CO)[C@@H](O)[C@@H](O)[C@@H]1O
REMARK SMILES IDX 4 1 13 2 11 3 9 4 6 5 5 6 3 7 2 8 1 9 14 10 12 12 7 14 8 15
REMARK SMILES IDX 10 17
REMARK H PARENT 14 11 12 13 8 16 10 18
REMARK Flexibility Score: inf
ROOT
ATOM      1  C   UNL     1      11.489 -11.982  36.778  1.00  0.00     0.281 C 
ATOM      2  C   UNL     1      10.423 -10.884  36.565  1.00  0.00     0.202 C 
ATOM      3  C   UNL     1       9.049 -11.511  36.285  1.00  0.00     0.179 C 
ATOM      4  C   UNL     1       8.717 -12.554  37.370  1.00  0.00     0.177 C 
ATOM      5  C   UNL     1       9.887 -13.557  37.467  1.00  0.00     0.178 C 
ATOM      6  O   UNL     1      11.097 -12.892  37.799  1.00  0.00    -0.341 OA
ENDROOT
BRANCH   1   7
ATOM      7  O   UNL     1      11.748 -12.657  35.555  1.00  0.00    -0.350 OA
BRANCH   7   8
ATOM      8  C   UNL     1      13.129 -12.929  35.406  1.00  0.00     0.160 C 
ATOM      9  C   UNL     1      13.832 -11.747  34.749  1.00  0.00     0.035 C 
ENDBRANCH   7   8
ENDBRANCH   1   7
BRANCH   2  10
ATOM     10  O   UNL     1      10.785 -10.057  35.490  1.00  0.00    -0.385 OA
ATOM     11  H   UNL     1      10.826  -9.129  35.844  1.00  0.00     0.211 HD
ENDBRANCH   2  10
BRANCH   3  12
ATOM     12  O   UNL     1       8.071 -10.503  36.255  1.00  0.00    -0.387 OA
ATOM     13  H   UNL     1       7.209 -10.948  36.045  1.00  0.00     0.211 HD
ENDBRANCH   3  12
BRANCH   5  14
ATOM     14  C   UNL     1       9.616 -14.662  38.499  1.00  0.00     0.191 C 
BRANCH  14  15
ATOM     15  O   UNL     1       8.280 -14.634  38.929  1.00  0.00    -0.394 OA
ATOM     16  H   UNL     1       8.070 -13.691  39.171  1.00  0.00     0.210 HD
ENDBRANCH  14  15
ENDBRANCH   5  14
BRANCH   4  17
ATOM     17  O   UNL     1       8.524 -11.915  38.608  1.00  0.00    -0.387 OA
ATOM     18  H   UNL     1       7.762 -12.372  39.052  1.00  0.00     0.211 HD
ENDBRANCH   4  17
TORSDOF 7
ENDMDL
MODEL 7
REMARK VINA RESULT:    -5.369      1.801      4.597
REMARK INTER + INTRA:          -7.382
REMARK INTER:                  -6.979
REMARK INTRA:                  -0.402
REMARK UNBOUND:                -0.443
REMARK SMILES CCO[C@@H]1O[C@@H](CO)[C@@H](O)[C@@H](O)[C@@H]1O
REMARK SMILES IDX 4 1 13 2 11 3 9 4 6 5 5 6 3 7 2 8 1 9 14 10 12 12 7 14 8 15
REMARK SMILES IDX 10 17
REMARK H PARENT 14 11 12 13 8 16 10 18
REMARK Flexibility Score: inf
ROOT
ATOM      1  C   UNL     1      10.132 -11.582  35.825  1.00  0.00     0.281 C 
ATOM      2  C   UNL     1      11.152 -10.421  35.829  1.00  0.00     0.202 C 
ATOM      3  C   UNL     1      12.129 -10.562  37.006  1.00  0.00     0.179 C 
ATOM      4  C   UNL     1      12.738 -11.978  37.017  1.00  0.00     0.177 C 
ATOM      5  C   UNL     1      11.590 -13.011  36.990  1.00  0.00     0.178 C 
ATOM      6  O   UNL     1      10.788 -12.845  35.830  1.00  0.00    -0.341 OA
ENDROOT
BRANCH   1   7
ATOM      7  O   UNL     1       9.243 -11.456  36.925  1.00  0.00    -0.350 OA
BRANCH   7   8
ATOM      8  C   UNL     1       7.899 -11.626  36.516  1.00  0.00     0.160 C 
ATOM      9  C   UNL     1       7.481 -13.084  36.664  1.00  0.00     0.035 C 
ENDBRANCH   7   8
ENDBRANCH   1   7
BRANCH   2  10
ATOM     10  O   UNL     1      10.486  -9.188  35.922  1.00  0.00    -0.385 OA
ATOM     11  H   UNL     1      10.146  -9.117  36.852  1.00  0.00     0.211 HD
ENDBRANCH   2  10
BRANCH   3  12
ATOM     12  O   UNL     1      13.138  -9.592  36.897  1.00  0.00    -0.387 OA
ATOM     13  H   UNL     1      13.662  -9.816  36.083  1.00  0.00     0.211 HD
ENDBRANCH   3  12
BRANCH   5  14
ATOM     14  C   UNL     1      12.111 -14.455  37.044  1.00  0.00     0.191 C 
BRANCH  14  15
ATOM     15  O   UNL     1      13.344 -14.521  37.712  1.00  0.00    -0.394 OA
ATOM     16  H   UNL     1      13.246 -14.007  38.558  1.00  0.00     0.210 HD
ENDBRANCH  14  15
ENDBRANCH   5  14
BRANCH   4  17
ATOM     17  O   UNL     1      13.570 -12.151  35.897  1.00  0.00    -0.387 OA
ATOM     18  H   UNL     1      13.062 -12.699  35.243  1.00  0.00     0.211 HD
ENDBRANCH   4  17
TORSDOF 7
ENDMDL
MODEL 8
REMARK VINA RESULT:    -5.337      1.772      2.916
REMARK INTER + INTRA:          -7.340
REMARK INTER:                  -7.127
REMARK INTRA:                  -0.214
REMARK UNBOUND:                -0.443
REMARK SMILES CCO[C@@H]1O[C@@H](CO)[C@@H](O)[C@@H](O)[C@@H]1O
REMARK SMILES IDX 4 1 13 2 11 3 9 4 6 5 5 6 3 7 2 8 1 9 14 10 12 12 7 14 8 15
REMARK SMILES IDX 10 17
REMARK H PARENT 14 11 12 13 8 16 10 18
REMARK Flexibility Score: inf
ROOT
ATOM      1  C   UNL     1      10.130 -12.979  37.718  1.00  0.00     0.281 C 
ATOM      2  C   UNL     1      11.492 -12.489  37.176  1.00  0.00     0.202 C 
ATOM      3  C   UNL     1      11.545 -12.621  35.646  1.00  0.00     0.179 C 
ATOM      4  C   UNL     1      10.305 -11.956  35.018  1.00  0.00     0.177 C 
ATOM      5  C   UNL     1       9.039 -12.541  35.683  1.00  0.00     0.178 C 
ATOM      6  O   UNL     1       9.049 -12.305  37.083  1.00  0.00    -0.341 OA
ENDROOT
BRANCH   1   7
ATOM      7  O   UNL     1      10.021 -14.387  37.569  1.00  0.00    -0.350 OA
BRANCH   7   8
ATOM      8  C   UNL     1       9.477 -14.982  38.732  1.00  0.00     0.160 C 
ATOM      9  C   UNL     1       8.011 -14.593  38.888  1.00  0.00     0.035 C 
ENDBRANCH   7   8
ENDBRANCH   1   7
BRANCH   2  10
ATOM     10  O   UNL     1      12.538 -13.234  37.744  1.00  0.00    -0.385 OA
ATOM     11  H   UNL     1      13.045 -13.636  36.991  1.00  0.00     0.211 HD
ENDBRANCH   2  10
BRANCH   3  12
ATOM     12  O   UNL     1      12.722 -12.024  35.165  1.00  0.00    -0.387 OA
ATOM     13  H   UNL     1      13.471 -12.619  35.428  1.00  0.00     0.211 HD
ENDBRANCH   3  12
BRANCH   5  14
ATOM     14  C   UNL     1       7.751 -11.961  35.080  1.00  0.00     0.191 C 
BRANCH  14  15
ATOM     15  O   UNL     1       7.953 -11.558  33.751  1.00  0.00    -0.394 OA
ATOM     16  H   UNL     1       7.140 -11.056  33.470  1.00  0.00     0.210 HD
ENDBRANCH  14  15
ENDBRANCH   5  14
BRANCH   4  17
ATOM     17  O   UNL     1      10.355 -10.565  35.214  1.00  0.00    -0.387 OA
ATOM     18  H   UNL     1      10.568 -10.158  34.334  1.00  0.00     0.211 HD
ENDBRANCH   4  17
TORSDOF 7
ENDMDL
MODEL 9
REMARK VINA RESULT:    -5.310      2.172      4.908
REMARK INTER + INTRA:          -7.306
REMARK INTER:                  -7.081
REMARK INTRA:                  -0.225
REMARK UNBOUND:                -0.443
REMARK SMILES CCO[C@@H]1O[C@@H](CO)[C@@H](O)[C@@H](O)[C@@H]1O
REMARK SMILES IDX 4 1 13 2 11 3 9 4 6 5 5 6 3 7 2 8 1 9 14 10 12 12 7 14 8 15
REMARK SMILES IDX 10 17
REMARK H PARENT 14 11 12 13 8 16 10 18
REMARK Flexibility Score: inf
ROOT
ATOM      1  C   UNL     1      10.921 -12.221  36.423  1.00  0.00     0.281 C 
ATOM      2  C   UNL     1      10.681 -11.101  37.461  1.00  0.00     0.202 C 
ATOM      3  C   UNL     1      12.014 -10.611  38.046  1.00  0.00     0.179 C 
ATOM      4  C   UNL     1      12.990 -10.259  36.907  1.00  0.00     0.177 C 
ATOM      5  C   UNL     1      13.099 -11.470  35.955  1.00  0.00     0.178 C 
ATOM      6  O   UNL     1      11.829 -11.801  35.411  1.00  0.00    -0.341 OA
ENDROOT
BRANCH   1   7
ATOM      7  O   UNL     1      11.377 -13.400  37.071  1.00  0.00    -0.350 OA
BRANCH   7   8
ATOM      8  C   UNL     1      10.712 -14.545  36.571  1.00  0.00     0.160 C 
ATOM      9  C   UNL     1       9.327 -14.171  36.058  1.00  0.00     0.035 C 
ENDBRANCH   7   8
ENDBRANCH   1   7
BRANCH   2  10
ATOM     10  O   UNL     1       9.860 -11.569  38.500  1.00  0.00    -0.385 OA
ATOM     11  H   UNL     1      10.434 -11.641  39.307  1.00  0.00     0.211 HD
ENDBRANCH   2  10
BRANCH   3  12
ATOM     12  O   UNL     1      11.784  -9.491  38.862  1.00  0.00    -0.387 OA
ATOM     13  H   UNL     1      11.235  -8.858  38.329  1.00  0.00     0.211 HD
ENDBRANCH   3  12
BRANCH   5  14
ATOM     14  C   UNL     1      14.091 -11.218  34.810  1.00  0.00     0.191 C 
BRANCH  14  15
ATOM     15  O   UNL     1      14.634 -12.423  34.339  1.00  0.00    -0.394 OA
ATOM     16  H   UNL     1      14.103 -12.692  33.542  1.00  0.00     0.210 HD
ENDBRANCH  14  15
ENDBRANCH   5  14
BRANCH   4  17
ATOM     17  O   UNL     1      12.523  -9.133  36.205  1.00  0.00    -0.387 OA
ATOM     18  H   UNL     1      11.531  -9.187  36.203  1.00  0.00     0.211 HD
ENDBRANCH   4  17
TORSDOF 7
ENDMDL
