MODEL 1
REMARK VINA RESULT:    -1.431      0.000      0.000
REMARK INTER + INTRA:          -2.508
REMARK INTER:                  -1.933
REMARK INTRA:                  -0.575
REMARK UNBOUND:                -0.575
REMARK SMILES O=c1c(-c2ccc(O)cc2)coc2c([C@H]3O[C@@H](CO)[C@H](O)[C@H](O)[C@@H]3O)c(O)ccc12
REMARK SMILES IDX 3 1 11 2 12 3 13 4 30 5 2 6 1 7 29 8 28 9 26 10 14 11 4 12
REMARK SMILES IDX 5 13 6 14 7 15 10 16 9 17 8 18 15 20 24 21 16 22 22 23 17 24
REMARK SMILES IDX 20 25 25 26 23 28 18 30 19 31 21 33 27 35
REMARK H PARENT 8 19 25 27 23 29 19 32 21 34 27 36
REMARK Flexibility Score: inf
ROOT
ATOM      1  C   UNL     1     -14.318  15.352  14.326  1.00  0.00     0.065 A 
ATOM      2  C   UNL     1     -13.822  14.653  13.218  1.00  0.00     0.208 A 
ATOM      3  O   UNL     1     -14.364  14.807  12.016  1.00  0.00    -0.463 OA
ATOM      4  C   UNL     1     -15.395  15.615  11.778  1.00  0.00     0.147 A 
ATOM      5  C   UNL     1     -15.967  16.347  12.843  1.00  0.00     0.066 A 
ATOM      6  C   UNL     1     -15.418  16.207  14.131  1.00  0.00     0.200 A 
ATOM      7  O   UNL     1     -15.921  16.827  15.109  1.00  0.00    -0.288 OA
ATOM      8  C   UNL     1     -17.066  17.182  12.599  1.00  0.00     0.020 A 
ATOM      9  C   UNL     1     -17.611  17.266  11.321  1.00  0.00     0.047 A 
ATOM     10  C   UNL     1     -17.073  16.534  10.258  1.00  0.00     0.125 A 
ATOM     11  C   UNL     1     -15.914  15.734  10.462  1.00  0.00     0.069 A 
ENDROOT
BRANCH   1  12
ATOM     12  C   UNL     1     -13.689  15.171  15.658  1.00  0.00    -0.011 A 
ATOM     13  C   UNL     1     -12.701  16.066  16.104  1.00  0.00     0.013 A 
ATOM     14  C   UNL     1     -12.113  15.903  17.363  1.00  0.00     0.047 A 
ATOM     15  C   UNL     1     -12.508  14.850  18.192  1.00  0.00     0.115 A 
ATOM     16  C   UNL     1     -14.085  14.116  16.501  1.00  0.00     0.013 A 
ATOM     17  C   UNL     1     -13.497  13.956  17.758  1.00  0.00     0.047 A 
BRANCH  15  18
ATOM     18  O   UNL     1     -11.914  14.698  19.444  1.00  0.00    -0.508 OA
ATOM     19  H   UNL     1     -11.897  13.803  19.917  1.00  0.00     0.293 HD
ENDBRANCH  15  18
ENDBRANCH   1  12
BRANCH  11  20
ATOM     20  C   UNL     1     -15.253  14.979   9.313  1.00  0.00     0.188 C 
ATOM     21  C   UNL     1     -13.962  15.712   8.867  1.00  0.00     0.179 C 
ATOM     22  O   UNL     1     -16.167  14.882   8.232  1.00  0.00    -0.362 OA
ATOM     23  C   UNL     1     -13.335  15.030   7.634  1.00  0.00     0.177 C 
ATOM     24  C   UNL     1     -15.650  14.067   7.193  1.00  0.00     0.176 C 
ATOM     25  C   UNL     1     -14.404  14.729   6.560  1.00  0.00     0.177 C 
BRANCH  21  26
ATOM     26  O   UNL     1     -13.020  15.739   9.910  1.00  0.00    -0.387 OA
ATOM     27  H   UNL     1     -12.245  15.192   9.618  1.00  0.00     0.211 HD
ENDBRANCH  21  26
BRANCH  23  28
ATOM     28  O   UNL     1     -12.609  13.876   7.985  1.00  0.00    -0.387 OA
ATOM     29  H   UNL     1     -11.655  14.122   8.085  1.00  0.00     0.211 HD
ENDBRANCH  23  28
BRANCH  24  30
ATOM     30  C   UNL     1     -16.752  13.876   6.143  1.00  0.00     0.191 C 
BRANCH  30  31
ATOM     31  O   UNL     1     -17.034  15.103   5.528  1.00  0.00    -0.394 OA
ATOM     32  H   UNL     1     -17.960  15.028   5.177  1.00  0.00     0.210 HD
ENDBRANCH  30  31
ENDBRANCH  24  30
BRANCH  25  33
ATOM     33  O   UNL     1     -13.868  13.892   5.567  1.00  0.00    -0.388 OA
ATOM     34  H   UNL     1     -14.550  13.828   4.849  1.00  0.00     0.211 HD
ENDBRANCH  25  33
ENDBRANCH  11  20
BRANCH  10  35
ATOM     35  O   UNL     1     -17.735  16.621   9.030  1.00  0.00    -0.507 OA
ATOM     36  H   UNL     1     -18.221  15.853   8.589  1.00  0.00     0.293 HD
ENDBRANCH  10  35
TORSDOF 9
ENDMDL
MODEL 2
REMARK VINA RESULT:    -0.702      2.012      4.303
REMARK INTER + INTRA:          -1.524
REMARK INTER:                  -1.605
REMARK INTRA:                   0.081
REMARK UNBOUND:                -0.575
REMARK SMILES O=c1c(-c2ccc(O)cc2)coc2c([C@H]3O[C@@H](CO)[C@H](O)[C@H](O)[C@@H]3O)c(O)ccc12
REMARK SMILES IDX 3 1 11 2 12 3 13 4 30 5 2 6 1 7 29 8 28 9 26 10 14 11 4 12
REMARK SMILES IDX 5 13 6 14 7 15 10 16 9 17 8 18 15 20 24 21 16 22 22 23 17 24
REMARK SMILES IDX 20 25 25 26 23 28 18 30 19 31 21 33 27 35
REMARK H PARENT 8 19 25 27 23 29 19 32 21 34 27 36
REMARK Flexibility Score: inf
ROOT
ATOM      1  C   UNL     1     -13.747  15.435  16.814  1.00  0.00     0.065 A 
ATOM      2  C   UNL     1     -14.703  16.133  16.065  1.00  0.00     0.208 A 
ATOM      3  O   UNL     1     -14.715  16.061  14.739  1.00  0.00    -0.463 OA
ATOM      4  C   UNL     1     -13.842  15.341  14.039  1.00  0.00     0.147 A 
ATOM      5  C   UNL     1     -12.833  14.617  14.716  1.00  0.00     0.066 A 
ATOM      6  C   UNL     1     -12.791  14.672  16.121  1.00  0.00     0.200 A 
ATOM      7  O   UNL     1     -11.888  14.058  16.756  1.00  0.00    -0.288 OA
ATOM      8  C   UNL     1     -11.900  13.875  13.979  1.00  0.00     0.020 A 
ATOM      9  C   UNL     1     -11.945  13.876  12.589  1.00  0.00     0.047 A 
ATOM     10  C   UNL     1     -12.921  14.602  11.900  1.00  0.00     0.125 A 
ATOM     11  C   UNL     1     -13.925  15.306  12.622  1.00  0.00     0.069 A 
ENDROOT
BRANCH   1  12
ATOM     12  C   UNL     1     -13.760  15.524  18.296  1.00  0.00    -0.011 A 
ATOM     13  C   UNL     1     -12.731  16.199  18.976  1.00  0.00     0.013 A 
ATOM     14  C   UNL     1     -12.746  16.292  20.371  1.00  0.00     0.047 A 
ATOM     15  C   UNL     1     -13.788  15.717  21.103  1.00  0.00     0.115 A 
ATOM     16  C   UNL     1     -14.809  14.953  19.040  1.00  0.00     0.013 A 
ATOM     17  C   UNL     1     -14.822  15.048  20.434  1.00  0.00     0.047 A 
BRANCH  15  18
ATOM     18  O   UNL     1     -13.790  15.816  22.493  1.00  0.00    -0.508 OA
ATOM     19  H   UNL     1     -14.568  16.227  22.994  1.00  0.00     0.293 HD
ENDBRANCH  15  18
ENDBRANCH   1  12
BRANCH  11  20
ATOM     20  C   UNL     1     -15.050  16.048  11.908  1.00  0.00     0.188 C 
ATOM     21  C   UNL     1     -16.406  15.350  12.181  1.00  0.00     0.179 C 
ATOM     22  O   UNL     1     -14.779  16.079  10.516  1.00  0.00    -0.362 OA
ATOM     23  C   UNL     1     -17.544  16.015  11.380  1.00  0.00     0.177 C 
ATOM     24  C   UNL     1     -15.723  16.879   9.825  1.00  0.00     0.176 C 
ATOM     25  C   UNL     1     -17.130  16.244   9.909  1.00  0.00     0.177 C 
BRANCH  21  26
ATOM     26  O   UNL     1     -16.720  15.389  13.551  1.00  0.00    -0.387 OA
ATOM     27  H   UNL     1     -15.868  15.525  14.041  1.00  0.00     0.211 HD
ENDBRANCH  21  26
BRANCH  23  28
ATOM     28  O   UNL     1     -17.987  17.206  11.989  1.00  0.00    -0.387 OA
ATOM     29  H   UNL     1     -18.940  17.098  12.235  1.00  0.00     0.211 HD
ENDBRANCH  23  28
BRANCH  24  30
ATOM     30  C   UNL     1     -15.272  16.997   8.364  1.00  0.00     0.191 C 
BRANCH  30  31
ATOM     31  O   UNL     1     -15.854  15.973   7.606  1.00  0.00    -0.394 OA
ATOM     32  H   UNL     1     -15.103  15.491   7.171  1.00  0.00     0.210 HD
ENDBRANCH  30  31
ENDBRANCH  24  30
BRANCH  25  33
ATOM     33  O   UNL     1     -18.069  17.069   9.267  1.00  0.00    -0.388 OA
ATOM     34  H   UNL     1     -17.811  17.104   8.309  1.00  0.00     0.211 HD
ENDBRANCH  25  33
ENDBRANCH  11  20
BRANCH  10  35
ATOM     35  O   UNL     1     -12.840  14.607  10.504  1.00  0.00    -0.507 OA
ATOM     36  H   UNL     1     -13.636  14.686   9.887  1.00  0.00     0.293 HD
ENDBRANCH  10  35
TORSDOF 9
ENDMDL
MODEL 3
REMARK VINA RESULT:     0.096      1.769      3.833
REMARK INTER + INTRA:          -0.446
REMARK INTER:                  -3.335
REMARK INTRA:                   2.889
REMARK UNBOUND:                -0.575
REMARK SMILES O=c1c(-c2ccc(O)cc2)coc2c([C@H]3O[C@@H](CO)[C@H](O)[C@H](O)[C@@H]3O)c(O)ccc12
REMARK SMILES IDX 3 1 11 2 12 3 13 4 30 5 2 6 1 7 29 8 28 9 26 10 14 11 4 12
REMARK SMILES IDX 5 13 6 14 7 15 10 16 9 17 8 18 15 20 24 21 16 22 22 23 17 24
REMARK SMILES IDX 20 25 25 26 23 28 18 30 19 31 21 33 27 35
REMARK H PARENT 8 19 25 27 23 29 19 32 21 34 27 36
REMARK Flexibility Score: inf
ROOT
ATOM      1  C   UNL     1     -14.036  14.786  14.890  1.00  0.00     0.065 A 
ATOM      2  C   UNL     1     -15.155  15.225  14.171  1.00  0.00     0.208 A 
ATOM      3  O   UNL     1     -15.166  15.196  12.844  1.00  0.00    -0.463 OA
ATOM      4  C   UNL     1     -14.141  14.761  12.114  1.00  0.00     0.147 A 
ATOM      5  C   UNL     1     -12.966  14.314  12.760  1.00  0.00     0.066 A 
ATOM      6  C   UNL     1     -12.919  14.332  14.166  1.00  0.00     0.200 A 
ATOM      7  O   UNL     1     -11.875  13.963  14.773  1.00  0.00    -0.288 OA
ATOM      8  C   UNL     1     -11.878  13.875  11.993  1.00  0.00     0.020 A 
ATOM      9  C   UNL     1     -11.942  13.909  10.603  1.00  0.00     0.047 A 
ATOM     10  C   UNL     1     -13.087  14.367   9.945  1.00  0.00     0.125 A 
ATOM     11  C   UNL     1     -14.232  14.751  10.697  1.00  0.00     0.069 A 
ENDROOT
BRANCH   1  12
ATOM     12  C   UNL     1     -14.050  14.819  16.375  1.00  0.00    -0.011 A 
ATOM     13  C   UNL     1     -13.174  15.667  17.074  1.00  0.00     0.013 A 
ATOM     14  C   UNL     1     -13.192  15.707  18.472  1.00  0.00     0.047 A 
ATOM     15  C   UNL     1     -14.087  14.907  19.187  1.00  0.00     0.115 A 
ATOM     16  C   UNL     1     -14.953  14.021  17.101  1.00  0.00     0.013 A 
ATOM     17  C   UNL     1     -14.969  14.063  18.497  1.00  0.00     0.047 A 
BRANCH  15  18
ATOM     18  O   UNL     1     -14.094  14.956  20.580  1.00  0.00    -0.508 OA
ATOM     19  H   UNL     1     -14.316  15.808  21.078  1.00  0.00     0.293 HD
ENDBRANCH  15  18
ENDBRANCH   1  12
BRANCH  11  20
ATOM     20  C   UNL     1     -15.526  15.186  10.016  1.00  0.00     0.188 C 
ATOM     21  C   UNL     1     -15.211  15.876   8.665  1.00  0.00     0.179 C 
ATOM     22  O   UNL     1     -16.230  16.071  10.873  1.00  0.00    -0.362 OA
ATOM     23  C   UNL     1     -16.495  16.424   8.009  1.00  0.00     0.177 C 
ATOM     24  C   UNL     1     -17.506  16.393  10.346  1.00  0.00     0.176 C 
ATOM     25  C   UNL     1     -17.357  17.196   9.033  1.00  0.00     0.177 C 
BRANCH  21  26
ATOM     26  O   UNL     1     -14.587  14.979   7.781  1.00  0.00    -0.387 OA
ATOM     27  H   UNL     1     -14.152  15.521   7.073  1.00  0.00     0.211 HD
ENDBRANCH  21  26
BRANCH  23  28
ATOM     28  O   UNL     1     -17.231  15.409   7.367  1.00  0.00    -0.387 OA
ATOM     29  H   UNL     1     -18.111  15.777   7.102  1.00  0.00     0.211 HD
ENDBRANCH  23  28
BRANCH  24  30
ATOM     30  C   UNL     1     -18.264  17.213  11.397  1.00  0.00     0.191 C 
BRANCH  30  31
ATOM     31  O   UNL     1     -17.861  16.823  12.680  1.00  0.00    -0.394 OA
ATOM     32  H   UNL     1     -17.572  17.654  13.142  1.00  0.00     0.210 HD
ENDBRANCH  30  31
ENDBRANCH  24  30
BRANCH  25  33
ATOM     33  O   UNL     1     -18.624  17.467   8.489  1.00  0.00    -0.388 OA
ATOM     34  H   UNL     1     -18.827  16.729   7.856  1.00  0.00     0.211 HD
ENDBRANCH  25  33
ENDBRANCH  11  20
BRANCH  10  35
ATOM     35  O   UNL     1     -13.030  14.440   8.550  1.00  0.00    -0.507 OA
ATOM     36  H   UNL     1     -13.788  14.181   7.934  1.00  0.00     0.293 HD
ENDBRANCH  10  35
TORSDOF 9
ENDMDL
