MODEL 1
REMARK VINA RESULT:    -7.572      0.000      0.000
REMARK INTER + INTRA:          -9.165
REMARK INTER:                  -9.121
REMARK INTRA:                  -0.044
REMARK UNBOUND:                -0.044
REMARK SMILES O=c1c(O)c(-c2ccc(O)c(O)c2)oc2cc(O)cc(O)c12
REMARK SMILES IDX 5 1 3 2 2 3 1 4 22 5 20 6 19 7 17 8 16 9 15 10 14 11 6 12
REMARK SMILES IDX 7 13 8 14 9 15 13 16 11 17 10 18 12 20 4 22 21 24 18 26
REMARK H PARENT 10 19 12 21 4 23 21 25 18 27
REMARK Flexibility Score: inf
ROOT
ATOM      1  C   UNL     1     203.025 207.497 276.763  1.00  0.00     0.180 A 
ATOM      2  C   UNL     1     203.877 208.571 276.450  1.00  0.00     0.208 A 
ATOM      3  C   UNL     1     204.322 209.410 277.483  1.00  0.00     0.238 A 
ATOM      4  O   UNL     1     205.041 210.402 277.190  1.00  0.00    -0.285 OA
ATOM      5  C   UNL     1     203.925 209.157 278.818  1.00  0.00     0.111 A 
ATOM      6  C   UNL     1     204.348 209.918 279.949  1.00  0.00     0.134 A 
ATOM      7  C   UNL     1     203.789 209.657 281.206  1.00  0.00     0.093 A 
ATOM      8  C   UNL     1     202.870 208.620 281.384  1.00  0.00     0.123 A 
ATOM      9  C   UNL     1     202.496 207.833 280.298  1.00  0.00     0.094 A 
ATOM     10  C   UNL     1     203.009 208.092 279.024  1.00  0.00     0.146 A 
ATOM     11  O   UNL     1     202.617 207.325 278.015  1.00  0.00    -0.452 OA
ENDROOT
BRANCH   1  12
ATOM     12  C   UNL     1     202.535 206.555 275.732  1.00  0.00     0.025 A 
ATOM     13  C   UNL     1     201.165 206.254 275.667  1.00  0.00     0.016 A 
ATOM     14  C   UNL     1     200.683 205.352 274.715  1.00  0.00     0.051 A 
ATOM     15  C   UNL     1     201.564 204.724 273.825  1.00  0.00     0.157 A 
ATOM     16  C   UNL     1     203.419 205.908 274.850  1.00  0.00     0.062 A 
ATOM     17  C   UNL     1     202.940 205.001 273.897  1.00  0.00     0.158 A 
BRANCH  15  18
ATOM     18  O   UNL     1     201.081 203.826 272.875  1.00  0.00    -0.504 OA
ATOM     19  H   UNL     1     200.119 203.508 272.888  1.00  0.00     0.293 HD
ENDBRANCH  15  18
BRANCH  17  20
ATOM     20  O   UNL     1     203.845 204.383 273.035  1.00  0.00    -0.504 OA
ATOM     21  H   UNL     1     204.643 203.861 273.377  1.00  0.00     0.293 HD
ENDBRANCH  17  20
ENDBRANCH   1  12
BRANCH   2  22
ATOM     22  O   UNL     1     204.239 208.816 275.123  1.00  0.00    -0.502 OA
ATOM     23  H   UNL     1     203.700 209.423 274.515  1.00  0.00     0.293 HD
ENDBRANCH   2  22
BRANCH   6  24
ATOM     24  O   UNL     1     205.328 210.914 279.897  1.00  0.00    -0.507 OA
ATOM     25  H   UNL     1     206.102 210.925 279.249  1.00  0.00     0.293 HD
ENDBRANCH   6  24
BRANCH   8  26
ATOM     26  O   UNL     1     202.330 208.357 282.641  1.00  0.00    -0.508 OA
ATOM     27  H   UNL     1     202.569 208.921 283.449  1.00  0.00     0.293 HD
ENDBRANCH   8  26
TORSDOF 6
ENDMDL
MODEL 2
REMARK VINA RESULT:    -7.488      1.555      6.911
REMARK INTER + INTRA:          -9.064
REMARK INTER:                  -8.760
REMARK INTRA:                  -0.304
REMARK UNBOUND:                -0.044
REMARK SMILES O=c1c(O)c(-c2ccc(O)c(O)c2)oc2cc(O)cc(O)c12
REMARK SMILES IDX 5 1 3 2 2 3 1 4 22 5 20 6 19 7 17 8 16 9 15 10 14 11 6 12
REMARK SMILES IDX 7 13 8 14 9 15 13 16 11 17 10 18 12 20 4 22 21 24 18 26
REMARK H PARENT 10 19 12 21 4 23 21 25 18 27
REMARK Flexibility Score: inf
ROOT
ATOM      1  C   UNL     1     203.352 207.928 276.890  1.00  0.00     0.180 A 
ATOM      2  C   UNL     1     204.286 207.017 276.367  1.00  0.00     0.208 A 
ATOM      3  C   UNL     1     203.864 206.087 275.404  1.00  0.00     0.238 A 
ATOM      4  O   UNL     1     204.691 205.238 274.979  1.00  0.00    -0.285 OA
ATOM      5  C   UNL     1     202.519 206.090 274.964  1.00  0.00     0.111 A 
ATOM      6  C   UNL     1     201.991 205.219 273.963  1.00  0.00     0.134 A 
ATOM      7  C   UNL     1     200.615 205.223 273.699  1.00  0.00     0.093 A 
ATOM      8  C   UNL     1     199.759 206.111 274.355  1.00  0.00     0.123 A 
ATOM      9  C   UNL     1     200.274 207.005 275.290  1.00  0.00     0.094 A 
ATOM     10  C   UNL     1     201.636 207.001 275.600  1.00  0.00     0.146 A 
ATOM     11  O   UNL     1     202.083 207.863 276.505  1.00  0.00    -0.452 OA
ENDROOT
BRANCH   1  12
ATOM     12  C   UNL     1     203.727 208.954 277.890  1.00  0.00     0.025 A 
ATOM     13  C   UNL     1     204.344 210.140 277.463  1.00  0.00     0.016 A 
ATOM     14  C   UNL     1     204.726 211.113 278.392  1.00  0.00     0.051 A 
ATOM     15  C   UNL     1     204.511 210.907 279.760  1.00  0.00     0.157 A 
ATOM     16  C   UNL     1     203.531 208.742 279.266  1.00  0.00     0.062 A 
ATOM     17  C   UNL     1     203.915 209.713 280.199  1.00  0.00     0.158 A 
BRANCH  15  18
ATOM     18  O   UNL     1     204.890 211.879 280.684  1.00  0.00    -0.504 OA
ATOM     19  H   UNL     1     204.568 211.851 281.645  1.00  0.00     0.293 HD
ENDBRANCH  15  18
BRANCH  17  20
ATOM     20  O   UNL     1     203.700 209.471 281.555  1.00  0.00    -0.504 OA
ATOM     21  H   UNL     1     203.955 210.143 282.269  1.00  0.00     0.293 HD
ENDBRANCH  17  20
ENDBRANCH   1  12
BRANCH   2  22
ATOM     22  O   UNL     1     205.604 207.017 276.832  1.00  0.00    -0.502 OA
ATOM     23  H   UNL     1     206.389 206.766 276.241  1.00  0.00     0.293 HD
ENDBRANCH   2  22
BRANCH   6  24
ATOM     24  O   UNL     1     202.773 204.360 273.185  1.00  0.00    -0.507 OA
ATOM     25  H   UNL     1     203.429 203.689 273.554  1.00  0.00     0.293 HD
ENDBRANCH   6  24
BRANCH   8  26
ATOM     26  O   UNL     1     198.394 206.118 274.076  1.00  0.00    -0.508 OA
ATOM     27  H   UNL     1     197.746 205.531 274.589  1.00  0.00     0.293 HD
ENDBRANCH   8  26
TORSDOF 6
ENDMDL
MODEL 3
REMARK VINA RESULT:    -7.398      0.632      1.444
REMARK INTER + INTRA:          -8.955
REMARK INTER:                  -8.822
REMARK INTRA:                  -0.133
REMARK UNBOUND:                -0.044
REMARK SMILES O=c1c(O)c(-c2ccc(O)c(O)c2)oc2cc(O)cc(O)c12
REMARK SMILES IDX 5 1 3 2 2 3 1 4 22 5 20 6 19 7 17 8 16 9 15 10 14 11 6 12
REMARK SMILES IDX 7 13 8 14 9 15 13 16 11 17 10 18 12 20 4 22 21 24 18 26
REMARK H PARENT 10 19 12 21 4 23 21 25 18 27
REMARK Flexibility Score: inf
ROOT
ATOM      1  C   UNL     1     203.245 207.558 276.762  1.00  0.00     0.180 A 
ATOM      2  C   UNL     1     204.086 208.626 276.404  1.00  0.00     0.208 A 
ATOM      3  C   UNL     1     204.537 209.503 277.404  1.00  0.00     0.238 A 
ATOM      4  O   UNL     1     205.244 210.489 277.070  1.00  0.00    -0.285 OA
ATOM      5  C   UNL     1     204.155 209.291 278.750  1.00  0.00     0.111 A 
ATOM      6  C   UNL     1     204.585 210.093 279.850  1.00  0.00     0.134 A 
ATOM      7  C   UNL     1     204.042 209.871 281.122  1.00  0.00     0.093 A 
ATOM      8  C   UNL     1     203.133 208.834 281.345  1.00  0.00     0.123 A 
ATOM      9  C   UNL     1     202.752 208.008 280.290  1.00  0.00     0.094 A 
ATOM     10  C   UNL     1     203.250 208.228 279.002  1.00  0.00     0.146 A 
ATOM     11  O   UNL     1     202.852 207.425 278.024  1.00  0.00    -0.452 OA
ENDROOT
BRANCH   1  12
ATOM     12  C   UNL     1     202.750 206.578 275.769  1.00  0.00     0.025 A 
ATOM     13  C   UNL     1     203.669 205.786 275.062  1.00  0.00     0.016 A 
ATOM     14  C   UNL     1     203.225 204.870 274.105  1.00  0.00     0.051 A 
ATOM     15  C   UNL     1     201.857 204.743 273.829  1.00  0.00     0.157 A 
ATOM     16  C   UNL     1     201.379 206.462 275.474  1.00  0.00     0.062 A 
ATOM     17  C   UNL     1     200.931 205.547 274.514  1.00  0.00     0.158 A 
BRANCH  15  18
ATOM     18  O   UNL     1     201.416 203.827 272.875  1.00  0.00    -0.504 OA
ATOM     19  H   UNL     1     200.612 204.019 272.289  1.00  0.00     0.293 HD
ENDBRANCH  15  18
BRANCH  17  20
ATOM     20  O   UNL     1     199.565 205.456 274.252  1.00  0.00    -0.504 OA
ATOM     21  H   UNL     1     199.141 205.897 273.445  1.00  0.00     0.293 HD
ENDBRANCH  17  20
ENDBRANCH   1  12
BRANCH   2  22
ATOM     22  O   UNL     1     204.432 208.829 275.065  1.00  0.00    -0.502 OA
ATOM     23  H   UNL     1     204.841 209.696 274.735  1.00  0.00     0.293 HD
ENDBRANCH   2  22
BRANCH   6  24
ATOM     24  O   UNL     1     205.558 211.093 279.754  1.00  0.00    -0.507 OA
ATOM     25  H   UNL     1     206.549 210.942 279.859  1.00  0.00     0.293 HD
ENDBRANCH   6  24
BRANCH   8  26
ATOM     26  O   UNL     1     202.607 208.609 282.616  1.00  0.00    -0.508 OA
ATOM     27  H   UNL     1     201.657 208.872 282.850  1.00  0.00     0.293 HD
ENDBRANCH   8  26
TORSDOF 6
ENDMDL
MODEL 4
REMARK VINA RESULT:    -7.326      1.803      6.922
REMARK INTER + INTRA:          -8.869
REMARK INTER:                  -8.559
REMARK INTRA:                  -0.310
REMARK UNBOUND:                -0.044
REMARK SMILES O=c1c(O)c(-c2ccc(O)c(O)c2)oc2cc(O)cc(O)c12
REMARK SMILES IDX 5 1 3 2 2 3 1 4 22 5 20 6 19 7 17 8 16 9 15 10 14 11 6 12
REMARK SMILES IDX 7 13 8 14 9 15 13 16 11 17 10 18 12 20 4 22 21 24 18 26
REMARK H PARENT 10 19 12 21 4 23 21 25 18 27
REMARK Flexibility Score: inf
ROOT
ATOM      1  C   UNL     1     202.710 206.565 277.629  1.00  0.00     0.180 A 
ATOM      2  C   UNL     1     203.850 205.914 277.127  1.00  0.00     0.208 A 
ATOM      3  C   UNL     1     203.839 205.446 275.804  1.00  0.00     0.238 A 
ATOM      4  O   UNL     1     204.843 204.816 275.377  1.00  0.00    -0.285 OA
ATOM      5  C   UNL     1     202.696 205.647 274.994  1.00  0.00     0.111 A 
ATOM      6  C   UNL     1     202.590 205.250 273.628  1.00  0.00     0.134 A 
ATOM      7  C   UNL     1     201.365 205.383 272.962  1.00  0.00     0.093 A 
ATOM      8  C   UNL     1     200.261 205.959 273.595  1.00  0.00     0.123 A 
ATOM      9  C   UNL     1     200.371 206.404 274.910  1.00  0.00     0.094 A 
ATOM     10  C   UNL     1     201.570 206.253 275.612  1.00  0.00     0.146 A 
ATOM     11  O   UNL     1     201.629 206.681 276.866  1.00  0.00    -0.452 OA
ENDROOT
BRANCH   1  12
ATOM     12  C   UNL     1     202.655 207.109 279.005  1.00  0.00     0.025 A 
ATOM     13  C   UNL     1     201.954 206.407 279.998  1.00  0.00     0.016 A 
ATOM     14  C   UNL     1     201.872 206.912 281.298  1.00  0.00     0.051 A 
ATOM     15  C   UNL     1     202.475 208.133 281.622  1.00  0.00     0.157 A 
ATOM     16  C   UNL     1     203.243 208.346 279.329  1.00  0.00     0.062 A 
ATOM     17  C   UNL     1     203.160 208.856 280.630  1.00  0.00     0.158 A 
BRANCH  15  18
ATOM     18  O   UNL     1     202.394 208.635 282.920  1.00  0.00    -0.504 OA
ATOM     19  H   UNL     1     203.210 208.996 283.400  1.00  0.00     0.293 HD
ENDBRANCH  15  18
BRANCH  17  20
ATOM     20  O   UNL     1     203.760 210.082 280.915  1.00  0.00    -0.504 OA
ATOM     21  H   UNL     1     203.335 210.755 281.542  1.00  0.00     0.293 HD
ENDBRANCH  17  20
ENDBRANCH   1  12
BRANCH   2  22
ATOM     22  O   UNL     1     204.960 205.707 277.950  1.00  0.00    -0.502 OA
ATOM     23  H   UNL     1     205.885 205.524 277.580  1.00  0.00     0.293 HD
ENDBRANCH   2  22
BRANCH   6  24
ATOM     24  O   UNL     1     203.657 204.749 272.875  1.00  0.00    -0.507 OA
ATOM     25  H   UNL     1     203.717 204.787 271.869  1.00  0.00     0.293 HD
ENDBRANCH   6  24
BRANCH   8  26
ATOM     26  O   UNL     1     199.049 206.102 272.922  1.00  0.00    -0.508 OA
ATOM     27  H   UNL     1     198.653 205.343 272.378  1.00  0.00     0.293 HD
ENDBRANCH   8  26
TORSDOF 6
ENDMDL
MODEL 5
REMARK VINA RESULT:    -7.237      1.503      6.899
REMARK INTER + INTRA:          -8.762
REMARK INTER:                  -8.459
REMARK INTRA:                  -0.303
REMARK UNBOUND:                -0.044
REMARK SMILES O=c1c(O)c(-c2ccc(O)c(O)c2)oc2cc(O)cc(O)c12
REMARK SMILES IDX 5 1 3 2 2 3 1 4 22 5 20 6 19 7 17 8 16 9 15 10 14 11 6 12
REMARK SMILES IDX 7 13 8 14 9 15 13 16 11 17 10 18 12 20 4 22 21 24 18 26
REMARK H PARENT 10 19 12 21 4 23 21 25 18 27
REMARK Flexibility Score: inf
ROOT
ATOM      1  C   UNL     1     203.086 207.086 277.234  1.00  0.00     0.180 A 
ATOM      2  C   UNL     1     204.014 206.185 276.683  1.00  0.00     0.208 A 
ATOM      3  C   UNL     1     203.675 205.489 275.512  1.00  0.00     0.238 A 
ATOM      4  O   UNL     1     204.488 204.643 275.054  1.00  0.00    -0.285 OA
ATOM      5  C   UNL     1     202.420 205.715 274.897  1.00  0.00     0.111 A 
ATOM      6  C   UNL     1     201.988 205.095 273.686  1.00  0.00     0.134 A 
ATOM      7  C   UNL     1     200.676 205.293 273.238  1.00  0.00     0.093 A 
ATOM      8  C   UNL     1     199.802 206.140 273.924  1.00  0.00     0.123 A 
ATOM      9  C   UNL     1     200.233 206.796 275.074  1.00  0.00     0.094 A 
ATOM     10  C   UNL     1     201.525 206.591 275.565  1.00  0.00     0.146 A 
ATOM     11  O   UNL     1     201.892 207.227 276.670  1.00  0.00    -0.452 OA
ENDROOT
BRANCH   1  12
ATOM     12  C   UNL     1     203.381 207.874 278.452  1.00  0.00     0.025 A 
ATOM     13  C   UNL     1     202.797 207.503 279.673  1.00  0.00     0.016 A 
ATOM     14  C   UNL     1     203.046 208.245 280.831  1.00  0.00     0.051 A 
ATOM     15  C   UNL     1     203.868 209.378 280.783  1.00  0.00     0.157 A 
ATOM     16  C   UNL     1     204.190 209.025 278.403  1.00  0.00     0.062 A 
ATOM     17  C   UNL     1     204.439 209.772 279.560  1.00  0.00     0.158 A 
BRANCH  15  18
ATOM     18  O   UNL     1     204.116 210.115 281.939  1.00  0.00    -0.504 OA
ATOM     19  H   UNL     1     204.582 211.015 281.904  1.00  0.00     0.293 HD
ENDBRANCH  15  18
BRANCH  17  20
ATOM     20  O   UNL     1     205.249 210.902 279.475  1.00  0.00    -0.504 OA
ATOM     21  H   UNL     1     205.046 211.664 278.839  1.00  0.00     0.293 HD
ENDBRANCH  17  20
ENDBRANCH   1  12
BRANCH   2  22
ATOM     22  O   UNL     1     205.238 205.961 277.319  1.00  0.00    -0.502 OA
ATOM     23  H   UNL     1     206.127 206.159 276.873  1.00  0.00     0.293 HD
ENDBRANCH   2  22
BRANCH   6  24
ATOM     24  O   UNL     1     202.810 204.306 272.876  1.00  0.00    -0.507 OA
ATOM     25  H   UNL     1     202.622 204.082 271.911  1.00  0.00     0.293 HD
ENDBRANCH   6  24
BRANCH   8  26
ATOM     26  O   UNL     1     198.502 206.344 273.464  1.00  0.00    -0.508 OA
ATOM     27  H   UNL     1     197.975 205.601 273.019  1.00  0.00     0.293 HD
ENDBRANCH   8  26
TORSDOF 6
ENDMDL
MODEL 6
REMARK VINA RESULT:    -6.745      2.892      7.095
REMARK INTER + INTRA:          -8.169
REMARK INTER:                  -7.938
REMARK INTRA:                  -0.232
REMARK UNBOUND:                -0.044
REMARK SMILES O=c1c(O)c(-c2ccc(O)c(O)c2)oc2cc(O)cc(O)c12
REMARK SMILES IDX 5 1 3 2 2 3 1 4 22 5 20 6 19 7 17 8 16 9 15 10 14 11 6 12
REMARK SMILES IDX 7 13 8 14 9 15 13 16 11 17 10 18 12 20 4 22 21 24 18 26
REMARK H PARENT 10 19 12 21 4 23 21 25 18 27
REMARK Flexibility Score: inf
ROOT
ATOM      1  C   UNL     1     201.548 208.273 276.105  1.00  0.00     0.180 A 
ATOM      2  C   UNL     1     201.664 206.932 275.697  1.00  0.00     0.208 A 
ATOM      3  C   UNL     1     200.679 206.389 274.858  1.00  0.00     0.238 A 
ATOM      4  O   UNL     1     200.758 205.173 274.540  1.00  0.00    -0.285 OA
ATOM      5  C   UNL     1     199.599 207.195 274.425  1.00  0.00     0.111 A 
ATOM      6  C   UNL     1     198.565 206.760 273.542  1.00  0.00     0.134 A 
ATOM      7  C   UNL     1     197.476 207.602 273.284  1.00  0.00     0.093 A 
ATOM      8  C   UNL     1     197.417 208.888 273.826  1.00  0.00     0.123 A 
ATOM      9  C   UNL     1     198.450 209.344 274.641  1.00  0.00     0.094 A 
ATOM     10  C   UNL     1     199.532 208.514 274.946  1.00  0.00     0.146 A 
ATOM     11  O   UNL     1     200.489 208.984 275.735  1.00  0.00    -0.452 OA
ENDROOT
BRANCH   1  12
ATOM     12  C   UNL     1     202.560 208.924 276.968  1.00  0.00     0.025 A 
ATOM     13  C   UNL     1     202.205 209.330 278.264  1.00  0.00     0.016 A 
ATOM     14  C   UNL     1     203.138 209.965 279.088  1.00  0.00     0.051 A 
ATOM     15  C   UNL     1     204.435 210.217 278.624  1.00  0.00     0.157 A 
ATOM     16  C   UNL     1     203.858 209.196 276.498  1.00  0.00     0.062 A 
ATOM     17  C   UNL     1     204.795 209.834 277.320  1.00  0.00     0.158 A 
BRANCH  15  18
ATOM     18  O   UNL     1     205.365 210.848 279.448  1.00  0.00    -0.504 OA
ATOM     19  H   UNL     1     206.198 211.285 279.069  1.00  0.00     0.293 HD
ENDBRANCH  15  18
BRANCH  17  20
ATOM     20  O   UNL     1     206.073 210.083 276.823  1.00  0.00    -0.504 OA
ATOM     21  H   UNL     1     206.851 210.313 277.429  1.00  0.00     0.293 HD
ENDBRANCH  17  20
ENDBRANCH   1  12
BRANCH   2  22
ATOM     22  O   UNL     1     202.726 206.148 276.154  1.00  0.00    -0.502 OA
ATOM     23  H   UNL     1     202.626 205.489 276.918  1.00  0.00     0.293 HD
ENDBRANCH   2  22
BRANCH   6  24
ATOM     24  O   UNL     1     198.574 205.531 272.875  1.00  0.00    -0.507 OA
ATOM     25  H   UNL     1     197.800 205.159 272.346  1.00  0.00     0.293 HD
ENDBRANCH   6  24
BRANCH   8  26
ATOM     26  O   UNL     1     196.338 209.726 273.553  1.00  0.00    -0.508 OA
ATOM     27  H   UNL     1     195.500 209.714 274.124  1.00  0.00     0.293 HD
ENDBRANCH   8  26
TORSDOF 6
ENDMDL
MODEL 7
REMARK VINA RESULT:    -6.731      1.430      3.264
REMARK INTER + INTRA:          -8.151
REMARK INTER:                  -8.039
REMARK INTRA:                  -0.112
REMARK UNBOUND:                -0.044
REMARK SMILES O=c1c(O)c(-c2ccc(O)c(O)c2)oc2cc(O)cc(O)c12
REMARK SMILES IDX 5 1 3 2 2 3 1 4 22 5 20 6 19 7 17 8 16 9 15 10 14 11 6 12
REMARK SMILES IDX 7 13 8 14 9 15 13 16 11 17 10 18 12 20 4 22 21 24 18 26
REMARK H PARENT 10 19 12 21 4 23 21 25 18 27
REMARK Flexibility Score: inf
ROOT
ATOM      1  C   UNL     1     202.656 207.223 277.208  1.00  0.00     0.180 A 
ATOM      2  C   UNL     1     202.544 206.830 278.554  1.00  0.00     0.208 A 
ATOM      3  C   UNL     1     203.044 207.677 279.555  1.00  0.00     0.238 A 
ATOM      4  O   UNL     1     202.990 207.295 280.753  1.00  0.00    -0.285 OA
ATOM      5  C   UNL     1     203.634 208.914 279.201  1.00  0.00     0.111 A 
ATOM      6  C   UNL     1     204.137 209.869 280.135  1.00  0.00     0.134 A 
ATOM      7  C   UNL     1     204.817 211.001 279.668  1.00  0.00     0.093 A 
ATOM      8  C   UNL     1     204.955 211.244 278.299  1.00  0.00     0.123 A 
ATOM      9  C   UNL     1     204.416 210.348 277.379  1.00  0.00     0.094 A 
ATOM     10  C   UNL     1     203.763 209.192 277.815  1.00  0.00     0.146 A 
ATOM     11  O   UNL     1     203.274 208.359 276.905  1.00  0.00    -0.452 OA
ENDROOT
BRANCH   1  12
ATOM     12  C   UNL     1     202.131 206.395 276.099  1.00  0.00     0.025 A 
ATOM     13  C   UNL     1     202.987 206.021 275.051  1.00  0.00     0.016 A 
ATOM     14  C   UNL     1     202.507 205.257 273.984  1.00  0.00     0.051 A 
ATOM     15  C   UNL     1     201.162 204.869 273.940  1.00  0.00     0.157 A 
ATOM     16  C   UNL     1     200.776 206.021 276.041  1.00  0.00     0.062 A 
ATOM     17  C   UNL     1     200.292 205.258 274.972  1.00  0.00     0.158 A 
BRANCH  15  18
ATOM     18  O   UNL     1     200.686 204.106 272.875  1.00  0.00    -0.504 OA
ATOM     19  H   UNL     1     200.200 203.229 273.028  1.00  0.00     0.293 HD
ENDBRANCH  15  18
BRANCH  17  20
ATOM     20  O   UNL     1     198.944 204.901 274.951  1.00  0.00    -0.504 OA
ATOM     21  H   UNL     1     198.644 203.936 274.889  1.00  0.00     0.293 HD
ENDBRANCH  17  20
ENDBRANCH   1  12
BRANCH   2  22
ATOM     22  O   UNL     1     201.978 205.594 278.879  1.00  0.00    -0.502 OA
ATOM     23  H   UNL     1     202.540 204.776 279.085  1.00  0.00     0.293 HD
ENDBRANCH   2  22
BRANCH   6  24
ATOM     24  O   UNL     1     203.971 209.769 281.519  1.00  0.00    -0.507 OA
ATOM     25  H   UNL     1     204.656 209.388 282.154  1.00  0.00     0.293 HD
ENDBRANCH   6  24
BRANCH   8  26
ATOM     26  O   UNL     1     205.621 212.380 277.841  1.00  0.00    -0.508 OA
ATOM     27  H   UNL     1     205.282 213.312 278.051  1.00  0.00     0.293 HD
ENDBRANCH   8  26
TORSDOF 6
ENDMDL
MODEL 8
REMARK VINA RESULT:    -6.381      3.893      6.264
REMARK INTER + INTRA:          -7.730
REMARK INTER:                  -7.426
REMARK INTRA:                  -0.304
REMARK UNBOUND:                -0.044
REMARK SMILES O=c1c(O)c(-c2ccc(O)c(O)c2)oc2cc(O)cc(O)c12
REMARK SMILES IDX 5 1 3 2 2 3 1 4 22 5 20 6 19 7 17 8 16 9 15 10 14 11 6 12
REMARK SMILES IDX 7 13 8 14 9 15 13 16 11 17 10 18 12 20 4 22 21 24 18 26
REMARK H PARENT 10 19 12 21 4 23 21 25 18 27
REMARK Flexibility Score: inf
ROOT
ATOM      1  C   UNL     1     200.508 208.176 274.417  1.00  0.00     0.180 A 
ATOM      2  C   UNL     1     200.567 206.836 273.993  1.00  0.00     0.208 A 
ATOM      3  C   UNL     1     201.751 206.110 274.196  1.00  0.00     0.238 A 
ATOM      4  O   UNL     1     201.817 204.928 273.766  1.00  0.00    -0.285 OA
ATOM      5  C   UNL     1     202.855 206.725 274.834  1.00  0.00     0.111 A 
ATOM      6  C   UNL     1     204.089 206.071 275.128  1.00  0.00     0.134 A 
ATOM      7  C   UNL     1     205.159 206.813 275.644  1.00  0.00     0.093 A 
ATOM      8  C   UNL     1     205.017 208.172 275.938  1.00  0.00     0.123 A 
ATOM      9  C   UNL     1     203.797 208.805 275.711  1.00  0.00     0.094 A 
ATOM     10  C   UNL     1     202.723 208.099 275.163  1.00  0.00     0.146 A 
ATOM     11  O   UNL     1     201.582 208.744 274.953  1.00  0.00    -0.452 OA
ENDROOT
BRANCH   1  12
ATOM     12  C   UNL     1     199.287 208.998 274.260  1.00  0.00     0.025 A 
ATOM     13  C   UNL     1     199.044 209.647 273.039  1.00  0.00     0.016 A 
ATOM     14  C   UNL     1     197.908 210.445 272.876  1.00  0.00     0.051 A 
ATOM     15  C   UNL     1     197.008 210.619 273.935  1.00  0.00     0.157 A 
ATOM     16  C   UNL     1     198.392 209.192 275.328  1.00  0.00     0.062 A 
ATOM     17  C   UNL     1     197.255 209.993 275.168  1.00  0.00     0.158 A 
BRANCH  15  18
ATOM     18  O   UNL     1     195.875 211.414 273.769  1.00  0.00    -0.504 OA
ATOM     19  H   UNL     1     195.181 211.206 273.060  1.00  0.00     0.293 HD
ENDBRANCH  15  18
BRANCH  17  20
ATOM     20  O   UNL     1     196.387 210.158 276.247  1.00  0.00    -0.504 OA
ATOM     21  H   UNL     1     195.785 210.968 276.334  1.00  0.00     0.293 HD
ENDBRANCH  17  20
ENDBRANCH   1  12
BRANCH   2  22
ATOM     22  O   UNL     1     199.474 206.256 273.346  1.00  0.00    -0.502 OA
ATOM     23  H   UNL     1     198.725 206.807 272.943  1.00  0.00     0.293 HD
ENDBRANCH   2  22
BRANCH   6  24
ATOM     24  O   UNL     1     204.306 204.700 274.959  1.00  0.00    -0.507 OA
ATOM     25  H   UNL     1     203.963 204.156 274.182  1.00  0.00     0.293 HD
ENDBRANCH   6  24
BRANCH   8  26
ATOM     26  O   UNL     1     206.081 208.900 276.466  1.00  0.00    -0.508 OA
ATOM     27  H   UNL     1     206.087 209.914 276.452  1.00  0.00     0.293 HD
ENDBRANCH   8  26
TORSDOF 6
ENDMDL
