MODEL 1
REMARK VINA RESULT:    -3.179      0.000      0.000
REMARK INTER + INTRA:          -5.209
REMARK INTER:                  -4.666
REMARK INTRA:                  -0.543
REMARK UNBOUND:                -0.543
REMARK SMILES O=C([O-])CCCCCCCC(=O)[O-]
REMARK SMILES IDX 7 1 6 2 5 3 4 4 2 5 1 6 3 7 8 8 9 9 10 10 11 11 12 12 13 13
REMARK H PARENT
REMARK Flexibility Score: inf
ROOT
ATOM      1  C   UNL     1      14.825  13.367   6.980  1.00  0.00     0.000 C 
ENDROOT
BRANCH   1   2
ATOM      2  C   UNL     1      16.302  13.309   7.396  1.00  0.00     0.000 C 
BRANCH   2   3
ATOM      3  C   UNL     1      16.964  14.689   7.267  1.00  0.00     0.006 C 
BRANCH   3   4
ATOM      4  C   UNL     1      15.948  15.833   7.391  1.00  0.00     0.053 C 
BRANCH   4   5
ATOM      5  C   UNL     1      16.014  16.494   8.734  1.00  0.00     0.041 C 
ATOM      6  O   UNL     1      16.437  15.856   9.733  1.00  0.00    -0.550 OA
ATOM      7  O   UNL     1      15.641  17.824   8.874  1.00  0.00    -0.550 OA
ENDBRANCH   4   5
ENDBRANCH   3   4
ENDBRANCH   2   3
ENDBRANCH   1   2
BRANCH   1   8
ATOM      8  C   UNL     1      13.886  12.795   8.053  1.00  0.00     0.000 C 
BRANCH   8   9
ATOM      9  C   UNL     1      14.410  13.020   9.482  1.00  0.00     0.006 C 
BRANCH   9  10
ATOM     10  C   UNL     1      13.995  11.892  10.435  1.00  0.00     0.053 C 
BRANCH  10  11
ATOM     11  C   UNL     1      14.119  12.307  11.870  1.00  0.00     0.041 C 
ATOM     12  O   UNL     1      15.237  12.264  12.449  1.00  0.00    -0.550 OA
ATOM     13  O   UNL     1      13.006  12.773  12.557  1.00  0.00    -0.550 OA
ENDBRANCH  10  11
ENDBRANCH   9  10
ENDBRANCH   8   9
ENDBRANCH   1   8
TORSDOF 8
ENDMDL
MODEL 2
REMARK VINA RESULT:    -3.154      0.776      4.911
REMARK INTER + INTRA:          -5.172
REMARK INTER:                  -4.651
REMARK INTRA:                  -0.521
REMARK UNBOUND:                -0.543
REMARK SMILES O=C([O-])CCCCCCCC(=O)[O-]
REMARK SMILES IDX 7 1 6 2 5 3 4 4 2 5 1 6 3 7 8 8 9 9 10 10 11 11 12 12 13 13
REMARK H PARENT
REMARK Flexibility Score: inf
ROOT
ATOM      1  C   UNL     1      14.903  13.488   7.118  1.00  0.00     0.000 C 
ENDROOT
BRANCH   1   2
ATOM      2  C   UNL     1      14.032  12.805   8.182  1.00  0.00     0.000 C 
BRANCH   2   3
ATOM      3  C   UNL     1      14.500  13.178   9.597  1.00  0.00     0.006 C 
BRANCH   3   4
ATOM      4  C   UNL     1      14.087  12.131  10.640  1.00  0.00     0.053 C 
BRANCH   4   5
ATOM      5  C   UNL     1      13.915  12.737  12.000  1.00  0.00     0.041 C 
ATOM      6  O   UNL     1      12.804  12.667  12.588  1.00  0.00    -0.550 OA
ATOM      7  O   UNL     1      14.992  13.345  12.632  1.00  0.00    -0.550 OA
ENDBRANCH   4   5
ENDBRANCH   3   4
ENDBRANCH   2   3
ENDBRANCH   1   2
BRANCH   1   8
ATOM      8  C   UNL     1      16.406  13.346   7.404  1.00  0.00     0.000 C 
BRANCH   8   9
ATOM      9  C   UNL     1      17.125  14.703   7.493  1.00  0.00     0.006 C 
BRANCH   9  10
ATOM     10  C   UNL     1      16.202  15.873   7.126  1.00  0.00     0.053 C 
BRANCH  10  11
ATOM     11  C   UNL     1      16.056  16.840   8.261  1.00  0.00     0.041 C 
ATOM     12  O   UNL     1      16.980  17.654   8.524  1.00  0.00    -0.550 OA
ATOM     13  O   UNL     1      14.884  16.865   9.006  1.00  0.00    -0.550 OA
ENDBRANCH  10  11
ENDBRANCH   9  10
ENDBRANCH   8   9
ENDBRANCH   1   8
TORSDOF 8
ENDMDL
MODEL 3
REMARK VINA RESULT:    -3.111      1.237      2.145
REMARK INTER + INTRA:          -5.109
REMARK INTER:                  -4.587
REMARK INTRA:                  -0.521
REMARK UNBOUND:                -0.543
REMARK SMILES O=C([O-])CCCCCCCC(=O)[O-]
REMARK SMILES IDX 7 1 6 2 5 3 4 4 2 5 1 6 3 7 8 8 9 9 10 10 11 11 12 12 13 13
REMARK H PARENT
REMARK Flexibility Score: inf
ROOT
ATOM      1  C   UNL     1      16.347  13.978   7.485  1.00  0.00     0.000 C 
ENDROOT
BRANCH   1   2
ATOM      2  C   UNL     1      16.458  15.465   7.115  1.00  0.00     0.000 C 
BRANCH   2   3
ATOM      3  C   UNL     1      16.731  16.321   8.362  1.00  0.00     0.006 C 
BRANCH   3   4
ATOM      4  C   UNL     1      15.459  16.996   8.892  1.00  0.00     0.053 C 
BRANCH   4   5
ATOM      5  C   UNL     1      15.744  17.878  10.069  1.00  0.00     0.041 C 
ATOM      6  O   UNL     1      15.609  19.126   9.971  1.00  0.00    -0.550 OA
ATOM      7  O   UNL     1      16.125  17.319  11.281  1.00  0.00    -0.550 OA
ENDBRANCH   4   5
ENDBRANCH   3   4
ENDBRANCH   2   3
ENDBRANCH   1   2
BRANCH   1   8
ATOM      8  C   UNL     1      15.014  13.357   7.040  1.00  0.00     0.000 C 
BRANCH   8   9
ATOM      9  C   UNL     1      14.124  12.949   8.227  1.00  0.00     0.006 C 
BRANCH   9  10
ATOM     10  C   UNL     1      14.781  13.259   9.577  1.00  0.00     0.053 C 
BRANCH  10  11
ATOM     11  C   UNL     1      14.262  12.367  10.663  1.00  0.00     0.041 C 
ATOM     12  O   UNL     1      13.341  12.764  11.424  1.00  0.00    -0.550 OA
ATOM     13  O   UNL     1      14.773  11.084  10.812  1.00  0.00    -0.550 OA
ENDBRANCH  10  11
ENDBRANCH   9  10
ENDBRANCH   8   9
ENDBRANCH   1   8
TORSDOF 8
ENDMDL
MODEL 4
REMARK VINA RESULT:    -3.039      3.213      4.702
REMARK INTER + INTRA:          -5.004
REMARK INTER:                  -4.675
REMARK INTRA:                  -0.328
REMARK UNBOUND:                -0.543
REMARK SMILES O=C([O-])CCCCCCCC(=O)[O-]
REMARK SMILES IDX 7 1 6 2 5 3 4 4 2 5 1 6 3 7 8 8 9 9 10 10 11 11 12 12 13 13
REMARK H PARENT
REMARK Flexibility Score: inf
ROOT
ATOM      1  C   UNL     1      15.654  17.342   8.995  1.00  0.00     0.000 C 
ENDROOT
BRANCH   1   2
ATOM      2  C   UNL     1      16.501  18.623   9.010  1.00  0.00     0.000 C 
BRANCH   2   3
ATOM      3  C   UNL     1      16.163  19.490  10.233  1.00  0.00     0.006 C 
BRANCH   3   4
ATOM      4  C   UNL     1      15.029  18.888  11.074  1.00  0.00     0.053 C 
BRANCH   4   5
ATOM      5  C   UNL     1      14.148  19.948  11.663  1.00  0.00     0.041 C 
ATOM      6  O   UNL     1      13.127  19.627  12.324  1.00  0.00    -0.550 OA
ATOM      7  O   UNL     1      14.477  21.289  11.511  1.00  0.00    -0.550 OA
ENDBRANCH   4   5
ENDBRANCH   3   4
ENDBRANCH   2   3
ENDBRANCH   1   2
BRANCH   1   8
ATOM      8  C   UNL     1      15.997  16.421   7.813  1.00  0.00     0.000 C 
BRANCH   8   9
ATOM      9  C   UNL     1      16.307  14.980   8.254  1.00  0.00     0.006 C 
BRANCH   9  10
ATOM     10  C   UNL     1      15.123  14.328   8.979  1.00  0.00     0.053 C 
BRANCH  10  11
ATOM     11  C   UNL     1      14.519  13.222   8.169  1.00  0.00     0.041 C 
ATOM     12  O   UNL     1      13.681  12.439   8.689  1.00  0.00    -0.550 OA
ATOM     13  O   UNL     1      14.857  13.077   6.829  1.00  0.00    -0.550 OA
ENDBRANCH  10  11
ENDBRANCH   9  10
ENDBRANCH   8   9
ENDBRANCH   1   8
TORSDOF 8
ENDMDL
MODEL 5
REMARK VINA RESULT:    -3.000      3.109      5.746
REMARK INTER + INTRA:          -4.946
REMARK INTER:                  -4.630
REMARK INTRA:                  -0.317
REMARK UNBOUND:                -0.543
REMARK SMILES O=C([O-])CCCCCCCC(=O)[O-]
REMARK SMILES IDX 7 1 6 2 5 3 4 4 2 5 1 6 3 7 8 8 9 9 10 10 11 11 12 12 13 13
REMARK H PARENT
REMARK Flexibility Score: inf
ROOT
ATOM      1  C   UNL     1      15.328  16.830   8.576  1.00  0.00     0.000 C 
ENDROOT
BRANCH   1   2
ATOM      2  C   UNL     1      16.300  15.971   7.754  1.00  0.00     0.000 C 
BRANCH   2   3
ATOM      3  C   UNL     1      15.942  14.481   7.862  1.00  0.00     0.006 C 
BRANCH   3   4
ATOM      4  C   UNL     1      15.415  14.110   9.255  1.00  0.00     0.053 C 
BRANCH   4   5
ATOM      5  C   UNL     1      14.294  13.119   9.182  1.00  0.00     0.041 C 
ATOM      6  O   UNL     1      13.839  12.760   8.064  1.00  0.00    -0.550 OA
ATOM      7  O   UNL     1      13.776  12.567  10.346  1.00  0.00    -0.550 OA
ENDBRANCH   4   5
ENDBRANCH   3   4
ENDBRANCH   2   3
ENDBRANCH   1   2
BRANCH   1   8
ATOM      8  C   UNL     1      16.014  18.040   9.228  1.00  0.00     0.000 C 
BRANCH   8   9
ATOM      9  C   UNL     1      15.400  18.408  10.590  1.00  0.00     0.006 C 
BRANCH   9  10
ATOM     10  C   UNL     1      15.446  19.918  10.857  1.00  0.00     0.053 C 
BRANCH  10  11
ATOM     11  C   UNL     1      14.203  20.396  11.545  1.00  0.00     0.041 C 
ATOM     12  O   UNL     1      13.961  21.629  11.633  1.00  0.00    -0.550 OA
ATOM     13  O   UNL     1      13.296  19.478  12.057  1.00  0.00    -0.550 OA
ENDBRANCH  10  11
ENDBRANCH   9  10
ENDBRANCH   8   9
ENDBRANCH   1   8
TORSDOF 8
ENDMDL
MODEL 6
REMARK VINA RESULT:    -2.903      3.495      5.844
REMARK INTER + INTRA:          -4.804
REMARK INTER:                  -4.464
REMARK INTRA:                  -0.340
REMARK UNBOUND:                -0.543
REMARK SMILES O=C([O-])CCCCCCCC(=O)[O-]
REMARK SMILES IDX 7 1 6 2 5 3 4 4 2 5 1 6 3 7 8 8 9 9 10 10 11 11 12 12 13 13
REMARK H PARENT
REMARK Flexibility Score: inf
ROOT
ATOM      1  C   UNL     1      15.656  17.244   8.792  1.00  0.00     0.000 C 
ENDROOT
BRANCH   1   2
ATOM      2  C   UNL     1      16.810  16.230   8.740  1.00  0.00     0.000 C 
BRANCH   2   3
ATOM      3  C   UNL     1      16.427  14.927   9.457  1.00  0.00     0.006 C 
BRANCH   3   4
ATOM      4  C   UNL     1      14.960  14.544   9.222  1.00  0.00     0.053 C 
BRANCH   4   5
ATOM      5  C   UNL     1      14.825  13.446   8.211  1.00  0.00     0.041 C 
ATOM      6  O   UNL     1      13.786  12.735   8.184  1.00  0.00    -0.550 OA
ATOM      7  O   UNL     1      15.830  13.234   7.276  1.00  0.00    -0.550 OA
ENDBRANCH   4   5
ENDBRANCH   3   4
ENDBRANCH   2   3
ENDBRANCH   1   2
BRANCH   1   8
ATOM      8  C   UNL     1      16.029  18.526   9.551  1.00  0.00     0.000 C 
BRANCH   8   9
ATOM      9  C   UNL     1      15.212  18.711  10.842  1.00  0.00     0.006 C 
BRANCH   9  10
ATOM     10  C   UNL     1      15.022  20.190  11.200  1.00  0.00     0.053 C 
BRANCH  10  11
ATOM     11  C   UNL     1      13.678  20.443  11.811  1.00  0.00     0.041 C 
ATOM     12  O   UNL     1      13.051  19.508  12.375  1.00  0.00    -0.550 OA
ATOM     13  O   UNL     1      13.134  21.721  11.790  1.00  0.00    -0.550 OA
ENDBRANCH  10  11
ENDBRANCH   9  10
ENDBRANCH   8   9
ENDBRANCH   1   8
TORSDOF 8
ENDMDL
MODEL 7
REMARK VINA RESULT:    -2.654      2.255      5.629
REMARK INTER + INTRA:          -4.438
REMARK INTER:                  -4.076
REMARK INTRA:                  -0.362
REMARK UNBOUND:                -0.543
REMARK SMILES O=C([O-])CCCCCCCC(=O)[O-]
REMARK SMILES IDX 7 1 6 2 5 3 4 4 2 5 1 6 3 7 8 8 9 9 10 10 11 11 12 12 13 13
REMARK H PARENT
REMARK Flexibility Score: inf
ROOT
ATOM      1  C   UNL     1      16.768  15.421   9.045  1.00  0.00     0.000 C 
ENDROOT
BRANCH   1   2
ATOM      2  C   UNL     1      15.304  15.013   8.823  1.00  0.00     0.000 C 
BRANCH   2   3
ATOM      3  C   UNL     1      15.210  13.580   8.279  1.00  0.00     0.006 C 
BRANCH   3   4
ATOM      4  C   UNL     1      14.065  12.787   8.923  1.00  0.00     0.053 C 
BRANCH   4   5
ATOM      5  C   UNL     1      14.350  12.460  10.357  1.00  0.00     0.041 C 
ATOM      6  O   UNL     1      13.452  12.598  11.228  1.00  0.00    -0.550 OA
ATOM      7  O   UNL     1      15.596  11.969  10.724  1.00  0.00    -0.550 OA
ENDBRANCH   4   5
ENDBRANCH   3   4
ENDBRANCH   2   3
ENDBRANCH   1   2
BRANCH   1   8
ATOM      8  C   UNL     1      16.903  16.734   9.832  1.00  0.00     0.000 C 
BRANCH   8   9
ATOM      9  C   UNL     1      15.867  17.790   9.409  1.00  0.00     0.006 C 
BRANCH   9  10
ATOM     10  C   UNL     1      16.325  19.216   9.740  1.00  0.00     0.053 C 
BRANCH  10  11
ATOM     11  C   UNL     1      15.526  19.807  10.861  1.00  0.00     0.041 C 
ATOM     12  O   UNL     1      15.833  20.934  11.334  1.00  0.00    -0.550 OA
ATOM     13  O   UNL     1      14.420  19.131  11.358  1.00  0.00    -0.550 OA
ENDBRANCH  10  11
ENDBRANCH   9  10
ENDBRANCH   8   9
ENDBRANCH   1   8
TORSDOF 8
ENDMDL
MODEL 8
REMARK VINA RESULT:    -2.530      2.416      3.530
REMARK INTER + INTRA:          -4.256
REMARK INTER:                  -3.739
REMARK INTRA:                  -0.517
REMARK UNBOUND:                -0.543
REMARK SMILES O=C([O-])CCCCCCCC(=O)[O-]
REMARK SMILES IDX 7 1 6 2 5 3 4 4 2 5 1 6 3 7 8 8 9 9 10 10 11 11 12 12 13 13
REMARK H PARENT
REMARK Flexibility Score: inf
ROOT
ATOM      1  C   UNL     1      15.987  16.016   9.462  1.00  0.00     0.000 C 
ENDROOT
BRANCH   1   2
ATOM      2  C   UNL     1      16.989  16.427   8.373  1.00  0.00     0.000 C 
BRANCH   2   3
ATOM      3  C   UNL     1      16.832  15.550   7.122  1.00  0.00     0.006 C 
BRANCH   3   4
ATOM      4  C   UNL     1      17.125  14.071   7.410  1.00  0.00     0.053 C 
BRANCH   4   5
ATOM      5  C   UNL     1      16.226  13.161   6.629  1.00  0.00     0.041 C 
ATOM      6  O   UNL     1      14.992  13.128   6.875  1.00  0.00    -0.550 OA
ATOM      7  O   UNL     1      16.747  12.378   5.608  1.00  0.00    -0.550 OA
ENDBRANCH   4   5
ENDBRANCH   3   4
ENDBRANCH   2   3
ENDBRANCH   1   2
BRANCH   1   8
ATOM      8  C   UNL     1      16.632  15.922  10.854  1.00  0.00     0.000 C 
BRANCH   8   9
ATOM      9  C   UNL     1      16.240  14.637  11.604  1.00  0.00     0.006 C 
BRANCH   9  10
ATOM     10  C   UNL     1      16.042  13.449  10.654  1.00  0.00     0.053 C 
BRANCH  10  11
ATOM     11  C   UNL     1      14.942  12.544  11.120  1.00  0.00     0.041 C 
ATOM     12  O   UNL     1      13.738  12.853  10.918  1.00  0.00    -0.550 OA
ATOM     13  O   UNL     1      15.249  11.343  11.747  1.00  0.00    -0.550 OA
ENDBRANCH  10  11
ENDBRANCH   9  10
ENDBRANCH   8   9
ENDBRANCH   1   8
TORSDOF 8
ENDMDL
MODEL 9
REMARK VINA RESULT:    -2.467      2.445      3.527
REMARK INTER + INTRA:          -4.164
REMARK INTER:                  -3.548
REMARK INTRA:                  -0.617
REMARK UNBOUND:                -0.543
REMARK SMILES O=C([O-])CCCCCCCC(=O)[O-]
REMARK SMILES IDX 7 1 6 2 5 3 4 4 2 5 1 6 3 7 8 8 9 9 10 10 11 11 12 12 13 13
REMARK H PARENT
REMARK Flexibility Score: inf
ROOT
ATOM      1  C   UNL     1      16.791  14.755  11.412  1.00  0.00     0.000 C 
ENDROOT
BRANCH   1   2
ATOM      2  C   UNL     1      16.444  15.837  10.379  1.00  0.00     0.000 C 
BRANCH   2   3
ATOM      3  C   UNL     1      16.564  15.288   8.949  1.00  0.00     0.006 C 
BRANCH   3   4
ATOM      4  C   UNL     1      16.385  13.764   8.895  1.00  0.00     0.053 C 
BRANCH   4   5
ATOM      5  C   UNL     1      15.895  13.307   7.555  1.00  0.00     0.041 C 
ATOM      6  O   UNL     1      16.716  12.943   6.672  1.00  0.00    -0.550 OA
ATOM      7  O   UNL     1      14.532  13.248   7.295  1.00  0.00    -0.550 OA
ENDBRANCH   4   5
ENDBRANCH   3   4
ENDBRANCH   2   3
ENDBRANCH   1   2
BRANCH   1   8
ATOM      8  C   UNL     1      15.825  14.747  12.607  1.00  0.00     0.000 C 
BRANCH   8   9
ATOM      9  C   UNL     1      15.322  13.335  12.955  1.00  0.00     0.006 C 
BRANCH   9  10
ATOM     10  C   UNL     1      14.082  12.945  12.140  1.00  0.00     0.053 C 
BRANCH  10  11
ATOM     11  C   UNL     1      14.392  11.872  11.142  1.00  0.00     0.041 C 
ATOM     12  O   UNL     1      15.349  11.078  11.340  1.00  0.00    -0.550 OA
ATOM     13  O   UNL     1      13.600  11.726  10.010  1.00  0.00    -0.550 OA
ENDBRANCH  10  11
ENDBRANCH   9  10
ENDBRANCH   8   9
ENDBRANCH   1   8
TORSDOF 8
ENDMDL
