MODEL 1
REMARK VINA RESULT:    -6.984      0.000      0.000
REMARK INTER + INTRA:          -6.984
REMARK INTER:                  -6.984
REMARK INTRA:                   0.000
REMARK UNBOUND:                 0.000
REMARK SMILES O=c1ccc2ccccc2o1
REMARK SMILES IDX 7 1 8 2 9 3 10 4 5 5 6 6 4 7 3 8 2 9 1 10 11 11
REMARK H PARENT
REMARK Flexibility Score: inf
ROOT
ATOM      1  C   UNL     1     -16.353 -36.879 -13.211  1.00  0.00     0.001 A 
ATOM      2  C   UNL     1     -17.726 -37.121 -13.104  1.00  0.00     0.004 A 
ATOM      3  C   UNL     1     -18.347 -37.108 -11.850  1.00  0.00     0.048 A 
ATOM      4  C   UNL     1     -17.596 -36.850 -10.698  1.00  0.00     0.138 A 
ATOM      5  C   UNL     1     -16.208 -36.606 -10.806  1.00  0.00     0.018 A 
ATOM      6  C   UNL     1     -15.592 -36.621 -12.067  1.00  0.00     0.012 A 
ATOM      7  C   UNL     1     -15.483 -36.352  -9.638  1.00  0.00     0.019 A 
ATOM      8  C   UNL     1     -16.144 -36.348  -8.410  1.00  0.00     0.094 A 
ATOM      9  C   UNL     1     -17.520 -36.600  -8.379  1.00  0.00     0.336 A 
ATOM     10  O   UNL     1     -18.133 -36.600  -7.281  1.00  0.00    -0.246 OA
ATOM     11  O   UNL     1     -18.187 -36.837  -9.506  1.00  0.00    -0.423 OA
ENDROOT
TORSDOF 0
ENDMDL
MODEL 2
REMARK VINA RESULT:    -6.957      1.523      3.797
REMARK INTER + INTRA:          -6.957
REMARK INTER:                  -6.957
REMARK INTRA:                   0.000
REMARK UNBOUND:                 0.000
REMARK SMILES O=c1ccc2ccccc2o1
REMARK SMILES IDX 7 1 8 2 9 3 10 4 5 5 6 6 4 7 3 8 2 9 1 10 11 11
REMARK H PARENT
REMARK Flexibility Score: inf
ROOT
ATOM      1  C   UNL     1     -15.987 -36.464  -8.383  1.00  0.00     0.001 A 
ATOM      2  C   UNL     1     -17.368 -36.450  -8.169  1.00  0.00     0.004 A 
ATOM      3  C   UNL     1     -18.249 -36.585  -9.248  1.00  0.00     0.048 A 
ATOM      4  C   UNL     1     -17.749 -36.735 -10.546  1.00  0.00     0.138 A 
ATOM      5  C   UNL     1     -16.354 -36.748 -10.763  1.00  0.00     0.018 A 
ATOM      6  C   UNL     1     -15.476 -36.613  -9.677  1.00  0.00     0.012 A 
ATOM      7  C   UNL     1     -15.883 -36.899 -12.071  1.00  0.00     0.019 A 
ATOM      8  C   UNL     1     -16.798 -37.031 -13.116  1.00  0.00     0.094 A 
ATOM      9  C   UNL     1     -18.167 -37.008 -12.826  1.00  0.00     0.336 A 
ATOM     10  O   UNL     1     -19.007 -37.125 -13.755  1.00  0.00    -0.246 OA
ATOM     11  O   UNL     1     -18.588 -36.863 -11.572  1.00  0.00    -0.423 OA
ENDROOT
TORSDOF 0
ENDMDL
MODEL 3
REMARK VINA RESULT:    -6.915      1.968      4.381
REMARK INTER + INTRA:          -6.915
REMARK INTER:                  -6.915
REMARK INTRA:                   0.000
REMARK UNBOUND:                 0.000
REMARK SMILES O=c1ccc2ccccc2o1
REMARK SMILES IDX 7 1 8 2 9 3 10 4 5 5 6 6 4 7 3 8 2 9 1 10 11 11
REMARK H PARENT
REMARK Flexibility Score: inf
ROOT
ATOM      1  C   UNL     1     -17.406 -36.514  -8.238  1.00  0.00     0.001 A 
ATOM      2  C   UNL     1     -16.026 -36.377  -8.416  1.00  0.00     0.004 A 
ATOM      3  C   UNL     1     -15.470 -36.464  -9.697  1.00  0.00     0.048 A 
ATOM      4  C   UNL     1     -16.295 -36.686 -10.806  1.00  0.00     0.138 A 
ATOM      5  C   UNL     1     -17.689 -36.825 -10.626  1.00  0.00     0.018 A 
ATOM      6  C   UNL     1     -18.240 -36.737  -9.339  1.00  0.00     0.012 A 
ATOM      7  C   UNL     1     -18.488 -37.047 -11.752  1.00  0.00     0.019 A 
ATOM      8  C   UNL     1     -17.890 -37.125 -13.010  1.00  0.00     0.094 A 
ATOM      9  C   UNL     1     -16.502 -36.979 -13.112  1.00  0.00     0.336 A 
ATOM     10  O   UNL     1     -15.945 -37.047 -14.238  1.00  0.00    -0.246 OA
ATOM     11  O   UNL     1     -15.765 -36.768 -12.024  1.00  0.00    -0.423 OA
ENDROOT
TORSDOF 0
ENDMDL
MODEL 4
REMARK VINA RESULT:    -6.821      3.189      4.495
REMARK INTER + INTRA:          -6.821
REMARK INTER:                  -6.821
REMARK INTRA:                   0.000
REMARK UNBOUND:                 0.000
REMARK SMILES O=c1ccc2ccccc2o1
REMARK SMILES IDX 7 1 8 2 9 3 10 4 5 5 6 6 4 7 3 8 2 9 1 10 11 11
REMARK H PARENT
REMARK Flexibility Score: inf
ROOT
ATOM      1  C   UNL     1     -13.408 -36.627 -15.178  1.00  0.00     0.001 A 
ATOM      2  C   UNL     1     -14.227 -36.509 -16.305  1.00  0.00     0.004 A 
ATOM      3  C   UNL     1     -15.619 -36.577 -16.175  1.00  0.00     0.048 A 
ATOM      4  C   UNL     1     -16.196 -36.761 -14.914  1.00  0.00     0.138 A 
ATOM      5  C   UNL     1     -15.370 -36.881 -13.774  1.00  0.00     0.018 A 
ATOM      6  C   UNL     1     -13.975 -36.813 -13.912  1.00  0.00     0.012 A 
ATOM      7  C   UNL     1     -15.975 -37.065 -12.528  1.00  0.00     0.019 A 
ATOM      8  C   UNL     1     -17.365 -37.125 -12.444  1.00  0.00     0.094 A 
ATOM      9  C   UNL     1     -18.121 -37.000 -13.616  1.00  0.00     0.336 A 
ATOM     10  O   UNL     1     -19.377 -37.052 -13.561  1.00  0.00    -0.246 OA
ATOM     11  O   UNL     1     -17.520 -36.825 -14.790  1.00  0.00    -0.423 OA
ENDROOT
TORSDOF 0
ENDMDL
MODEL 5
REMARK VINA RESULT:    -6.813      3.470      5.208
REMARK INTER + INTRA:          -6.813
REMARK INTER:                  -6.813
REMARK INTRA:                   0.000
REMARK UNBOUND:                 0.000
REMARK SMILES O=c1ccc2ccccc2o1
REMARK SMILES IDX 7 1 8 2 9 3 10 4 5 5 6 6 4 7 3 8 2 9 1 10 11 11
REMARK H PARENT
REMARK Flexibility Score: inf
ROOT
ATOM      1  C   UNL     1     -17.190 -36.817 -11.324  1.00  0.00     0.001 A 
ATOM      2  C   UNL     1     -18.229 -37.125 -12.209  1.00  0.00     0.004 A 
ATOM      3  C   UNL     1     -18.035 -37.009 -13.589  1.00  0.00     0.048 A 
ATOM      4  C   UNL     1     -16.799 -36.586 -14.091  1.00  0.00     0.138 A 
ATOM      5  C   UNL     1     -15.750 -36.275 -13.198  1.00  0.00     0.018 A 
ATOM      6  C   UNL     1     -15.951 -36.393 -11.814  1.00  0.00     0.012 A 
ATOM      7  C   UNL     1     -14.526 -35.854 -13.727  1.00  0.00     0.019 A 
ATOM      8  C   UNL     1     -14.377 -35.754 -15.110  1.00  0.00     0.094 A 
ATOM      9  C   UNL     1     -15.461 -36.078 -15.934  1.00  0.00     0.336 A 
ATOM     10  O   UNL     1     -15.346 -35.994 -17.184  1.00  0.00    -0.246 OA
ATOM     11  O   UNL     1     -16.615 -36.477 -15.404  1.00  0.00    -0.423 OA
ENDROOT
TORSDOF 0
ENDMDL
MODEL 6
REMARK VINA RESULT:    -6.757      1.524      2.610
REMARK INTER + INTRA:          -6.757
REMARK INTER:                  -6.757
REMARK INTRA:                   0.000
REMARK UNBOUND:                 0.000
REMARK SMILES O=c1ccc2ccccc2o1
REMARK SMILES IDX 7 1 8 2 9 3 10 4 5 5 6 6 4 7 3 8 2 9 1 10 11 11
REMARK H PARENT
REMARK Flexibility Score: inf
ROOT
ATOM      1  C   UNL     1     -17.043 -36.782 -14.785  1.00  0.00     0.001 A 
ATOM      2  C   UNL     1     -15.702 -36.444 -14.577  1.00  0.00     0.004 A 
ATOM      3  C   UNL     1     -15.205 -36.302 -13.277  1.00  0.00     0.048 A 
ATOM      4  C   UNL     1     -16.050 -36.500 -12.179  1.00  0.00     0.138 A 
ATOM      5  C   UNL     1     -17.404 -36.841 -12.388  1.00  0.00     0.018 A 
ATOM      6  C   UNL     1     -17.896 -36.982 -13.695  1.00  0.00     0.012 A 
ATOM      7  C   UNL     1     -18.224 -37.032 -11.272  1.00  0.00     0.019 A 
ATOM      8  C   UNL     1     -17.686 -36.881  -9.994  1.00  0.00     0.094 A 
ATOM      9  C   UNL     1     -16.335 -36.541  -9.863  1.00  0.00     0.336 A 
ATOM     10  O   UNL     1     -15.832 -36.400  -8.718  1.00  0.00    -0.246 OA
ATOM     11  O   UNL     1     -15.577 -36.365 -10.942  1.00  0.00    -0.423 OA
ENDROOT
TORSDOF 0
ENDMDL
MODEL 7
REMARK VINA RESULT:    -6.521      1.665      3.191
REMARK INTER + INTRA:          -6.521
REMARK INTER:                  -6.521
REMARK INTRA:                   0.000
REMARK UNBOUND:                 0.000
REMARK SMILES O=c1ccc2ccccc2o1
REMARK SMILES IDX 7 1 8 2 9 3 10 4 5 5 6 6 4 7 3 8 2 9 1 10 11 11
REMARK H PARENT
REMARK Flexibility Score: inf
ROOT
ATOM      1  C   UNL     1     -15.938 -36.347 -15.544  1.00  0.00     0.001 A 
ATOM      2  C   UNL     1     -14.796 -35.970 -14.830  1.00  0.00     0.004 A 
ATOM      3  C   UNL     1     -14.805 -35.978 -13.431  1.00  0.00     0.048 A 
ATOM      4  C   UNL     1     -15.959 -36.364 -12.740  1.00  0.00     0.138 A 
ATOM      5  C   UNL     1     -17.114 -36.744 -13.460  1.00  0.00     0.018 A 
ATOM      6  C   UNL     1     -17.098 -36.734 -14.864  1.00  0.00     0.012 A 
ATOM      7  C   UNL     1     -18.252 -37.125 -12.743  1.00  0.00     0.019 A 
ATOM      8  C   UNL     1     -18.215 -37.119 -11.349  1.00  0.00     0.094 A 
ATOM      9  C   UNL     1     -17.037 -36.729 -10.703  1.00  0.00     0.336 A 
ATOM     10  O   UNL     1     -16.985 -36.717  -9.446  1.00  0.00    -0.246 OA
ATOM     11  O   UNL     1     -15.967 -36.372 -11.409  1.00  0.00    -0.423 OA
ENDROOT
TORSDOF 0
ENDMDL
MODEL 8
REMARK VINA RESULT:    -6.332      2.516      4.194
REMARK INTER + INTRA:          -6.332
REMARK INTER:                  -6.332
REMARK INTRA:                   0.000
REMARK UNBOUND:                 0.000
REMARK SMILES O=c1ccc2ccccc2o1
REMARK SMILES IDX 7 1 8 2 9 3 10 4 5 5 6 6 4 7 3 8 2 9 1 10 11 11
REMARK H PARENT
REMARK Flexibility Score: inf
ROOT
ATOM      1  C   UNL     1     -14.822 -36.315 -16.485  1.00  0.00     0.001 A 
ATOM      2  C   UNL     1     -13.733 -35.995 -15.668  1.00  0.00     0.004 A 
ATOM      3  C   UNL     1     -13.871 -36.004 -14.276  1.00  0.00     0.048 A 
ATOM      4  C   UNL     1     -15.101 -36.335 -13.696  1.00  0.00     0.138 A 
ATOM      5  C   UNL     1     -16.201 -36.658 -14.520  1.00  0.00     0.018 A 
ATOM      6  C   UNL     1     -16.056 -36.647 -15.916  1.00  0.00     0.012 A 
ATOM      7  C   UNL     1     -17.417 -36.985 -13.912  1.00  0.00     0.019 A 
ATOM      8  C   UNL     1     -17.508 -36.982 -12.521  1.00  0.00     0.094 A 
ATOM      9  C   UNL     1     -16.377 -36.650 -11.767  1.00  0.00     0.336 A 
ATOM     10  O   UNL     1     -16.440 -36.642 -10.511  1.00  0.00    -0.246 OA
ATOM     11  O   UNL     1     -15.231 -36.344 -12.371  1.00  0.00    -0.423 OA
ENDROOT
TORSDOF 0
ENDMDL
