MODEL 1
REMARK VINA RESULT:    17.705      0.000      0.000
REMARK INTER + INTRA:          28.701
REMARK INTER:                  27.020
REMARK INTRA:                   1.681
REMARK UNBOUND:                 1.681
REMARK SMILES COc1cc(C=CC(=O)CC(=O)C=Cc2ccc(O)c(OC)c2)ccc1O
REMARK SMILES IDX 10 1 8 2 9 3 7 4 6 5 5 6 3 7 26 8 4 9 25 10 24 11 2 12 1 13
REMARK SMILES IDX 27 14 11 16 12 17 13 18 14 19 15 20 23 21 16 22 20 23 17 24
REMARK SMILES IDX 18 25 21 26 22 27 19 28
REMARK H PARENT 27 15 19 29
REMARK Flexibility Score: inf
ROOT
ATOM      1  C   UNL     1     -35.612  20.659   6.757  1.00  0.00     0.160 C 
ENDROOT
BRANCH   1   2
ATOM      2  C   UNL     1     -34.836  21.387   7.812  1.00  0.00     0.163 C 
ATOM      3  O   UNL     1     -35.272  21.407   8.995  1.00  0.00    -0.294 OA
BRANCH   2   4
ATOM      4  C   UNL     1     -33.549  22.027   7.472  1.00  0.00     0.048 C 
ATOM      5  C   UNL     1     -33.445  23.342   7.233  1.00  0.00     0.012 C 
BRANCH   5   6
ATOM      6  C   UNL     1     -32.169  24.015   6.891  1.00  0.00    -0.022 A 
ATOM      7  C   UNL     1     -29.760  24.358   7.170  1.00  0.00     0.161 A 
ATOM      8  C   UNL     1     -29.800  25.371   6.202  1.00  0.00     0.157 A 
ATOM      9  C   UNL     1     -30.949  23.686   7.516  1.00  0.00     0.058 A 
ATOM     10  C   UNL     1     -31.011  25.713   5.593  1.00  0.00     0.051 A 
ATOM     11  C   UNL     1     -32.187  25.045   5.938  1.00  0.00     0.012 A 
BRANCH   7  12
ATOM     12  O   UNL     1     -28.527  24.052   7.767  1.00  0.00    -0.493 OA
ATOM     13  C   UNL     1     -27.783  22.863   7.523  1.00  0.00     0.278 C 
ENDBRANCH   7  12
BRANCH   8  14
ATOM     14  O   UNL     1     -28.626  26.038   5.856  1.00  0.00    -0.504 OA
ATOM     15  H   UNL     1     -28.269  26.807   6.413  1.00  0.00     0.293 HD
ENDBRANCH   8  14
ENDBRANCH   5   6
ENDBRANCH   2   4
ENDBRANCH   1   2
BRANCH   1  16
ATOM     16  C   UNL     1     -37.050  20.551   7.161  1.00  0.00     0.163 C 
ATOM     17  O   UNL     1     -37.744  19.600   6.708  1.00  0.00    -0.294 OA
BRANCH  16  18
ATOM     18  C   UNL     1     -37.604  21.487   8.164  1.00  0.00     0.048 C 
ATOM     19  C   UNL     1     -38.106  22.705   7.904  1.00  0.00     0.012 C 
BRANCH  19  20
ATOM     20  C   UNL     1     -38.043  23.396   6.599  1.00  0.00    -0.022 A 
ATOM     21  C   UNL     1     -38.124  24.796   6.560  1.00  0.00     0.058 A 
ATOM     22  C   UNL     1     -37.807  22.688   5.413  1.00  0.00     0.012 A 
ATOM     23  C   UNL     1     -38.022  25.487   5.337  1.00  0.00     0.161 A 
ATOM     24  C   UNL     1     -37.706  23.364   4.197  1.00  0.00     0.051 A 
ATOM     25  C   UNL     1     -37.817  24.758   4.151  1.00  0.00     0.157 A 
BRANCH  23  26
ATOM     26  O   UNL     1     -38.116  26.887   5.263  1.00  0.00    -0.493 OA
ATOM     27  C   UNL     1     -37.560  27.678   4.217  1.00  0.00     0.278 C 
ENDBRANCH  23  26
BRANCH  25  28
ATOM     28  O   UNL     1     -37.711  25.402   2.918  1.00  0.00    -0.504 OA
ATOM     29  H   UNL     1     -38.266  25.127   2.116  1.00  0.00     0.293 HD
ENDBRANCH  25  28
ENDBRANCH  19  20
ENDBRANCH  16  18
ENDBRANCH   1  16
TORSDOF 10
ENDMDL
MODEL 2
REMARK VINA RESULT:    18.035      1.709      2.677
REMARK INTER + INTRA:          29.206
REMARK INTER:                  27.117
REMARK INTRA:                   2.088
REMARK UNBOUND:                 1.681
REMARK SMILES COc1cc(C=CC(=O)CC(=O)C=Cc2ccc(O)c(OC)c2)ccc1O
REMARK SMILES IDX 10 1 8 2 9 3 7 4 6 5 5 6 3 7 26 8 4 9 25 10 24 11 2 12 1 13
REMARK SMILES IDX 27 14 11 16 12 17 13 18 14 19 15 20 23 21 16 22 20 23 17 24
REMARK SMILES IDX 18 25 21 26 22 27 19 28
REMARK H PARENT 27 15 19 29
REMARK Flexibility Score: inf
ROOT
ATOM      1  C   UNL     1     -36.889  19.708   6.778  1.00  0.00     0.160 C 
ENDROOT
BRANCH   1   2
ATOM      2  C   UNL     1     -36.161  20.266   7.963  1.00  0.00     0.163 C 
ATOM      3  O   UNL     1     -36.594  20.026   9.122  1.00  0.00    -0.294 OA
BRANCH   2   4
ATOM      4  C   UNL     1     -34.920  21.044   7.767  1.00  0.00     0.048 C 
ATOM      5  C   UNL     1     -34.777  21.922   6.765  1.00  0.00     0.012 C 
BRANCH   5   6
ATOM      6  C   UNL     1     -33.547  22.719   6.541  1.00  0.00    -0.022 A 
ATOM      7  C   UNL     1     -31.923  24.427   7.209  1.00  0.00     0.161 A 
ATOM      8  C   UNL     1     -31.217  24.211   6.017  1.00  0.00     0.157 A 
ATOM      9  C   UNL     1     -33.091  23.682   7.465  1.00  0.00     0.058 A 
ATOM     10  C   UNL     1     -31.676  23.268   5.091  1.00  0.00     0.051 A 
ATOM     11  C   UNL     1     -32.834  22.533   5.348  1.00  0.00     0.012 A 
BRANCH   7  12
ATOM     12  O   UNL     1     -31.437  25.389   8.108  1.00  0.00    -0.493 OA
ATOM     13  C   UNL     1     -32.242  26.367   8.759  1.00  0.00     0.278 C 
ENDBRANCH   7  12
BRANCH   8  14
ATOM     14  O   UNL     1     -30.060  24.944   5.761  1.00  0.00    -0.504 OA
ATOM     15  H   UNL     1     -29.311  25.007   6.440  1.00  0.00     0.293 HD
ENDBRANCH   8  14
ENDBRANCH   5   6
ENDBRANCH   2   4
ENDBRANCH   1   2
BRANCH   1  16
ATOM     16  C   UNL     1     -37.711  20.780   6.130  1.00  0.00     0.163 C 
ATOM     17  O   UNL     1     -38.061  21.781   6.813  1.00  0.00    -0.294 OA
BRANCH  16  18
ATOM     18  C   UNL     1     -38.005  20.707   4.682  1.00  0.00     0.048 C 
ATOM     19  C   UNL     1     -38.097  21.756   3.848  1.00  0.00     0.012 C 
BRANCH  19  20
ATOM     20  C   UNL     1     -38.090  23.176   4.256  1.00  0.00    -0.022 A 
ATOM     21  C   UNL     1     -37.957  23.499   5.614  1.00  0.00     0.058 A 
ATOM     22  C   UNL     1     -38.116  24.205   3.304  1.00  0.00     0.012 A 
ATOM     23  C   UNL     1     -37.903  24.843   6.031  1.00  0.00     0.161 A 
ATOM     24  C   UNL     1     -38.064  25.540   3.708  1.00  0.00     0.051 A 
ATOM     25  C   UNL     1     -37.962  25.865   5.065  1.00  0.00     0.157 A 
BRANCH  23  26
ATOM     26  O   UNL     1     -37.787  25.199   7.385  1.00  0.00    -0.493 OA
ATOM     27  C   UNL     1     -36.590  25.087   8.149  1.00  0.00     0.278 C 
ENDBRANCH  23  26
BRANCH  25  28
ATOM     28  O   UNL     1     -37.913  27.209   5.433  1.00  0.00    -0.504 OA
ATOM     29  H   UNL     1     -37.065  27.644   5.777  1.00  0.00     0.293 HD
ENDBRANCH  25  28
ENDBRANCH  19  20
ENDBRANCH  16  18
ENDBRANCH   1  16
TORSDOF 10
ENDMDL
MODEL 3
REMARK VINA RESULT:    18.384      1.211      2.041
REMARK INTER + INTRA:          29.738
REMARK INTER:                  28.849
REMARK INTRA:                   0.889
REMARK UNBOUND:                 1.681
REMARK SMILES COc1cc(C=CC(=O)CC(=O)C=Cc2ccc(O)c(OC)c2)ccc1O
REMARK SMILES IDX 10 1 8 2 9 3 7 4 6 5 5 6 3 7 26 8 4 9 25 10 24 11 2 12 1 13
REMARK SMILES IDX 27 14 11 16 12 17 13 18 14 19 15 20 23 21 16 22 20 23 17 24
REMARK SMILES IDX 18 25 21 26 22 27 19 28
REMARK H PARENT 27 15 19 29
REMARK Flexibility Score: inf
ROOT
ATOM      1  C   UNL     1     -35.773  20.712   6.271  1.00  0.00     0.160 C 
ENDROOT
BRANCH   1   2
ATOM      2  C   UNL     1     -34.821  21.285   7.276  1.00  0.00     0.163 C 
ATOM      3  O   UNL     1     -34.631  20.675   8.363  1.00  0.00    -0.294 OA
BRANCH   2   4
ATOM      4  C   UNL     1     -34.077  22.522   6.966  1.00  0.00     0.048 C 
ATOM      5  C   UNL     1     -32.780  22.510   6.624  1.00  0.00     0.012 C 
BRANCH   5   6
ATOM      6  C   UNL     1     -32.005  23.733   6.305  1.00  0.00    -0.022 A 
ATOM      7  C   UNL     1     -31.410  25.595   4.828  1.00  0.00     0.161 A 
ATOM      8  C   UNL     1     -30.463  26.027   5.767  1.00  0.00     0.157 A 
ATOM      9  C   UNL     1     -32.175  24.443   5.098  1.00  0.00     0.058 A 
ATOM     10  C   UNL     1     -30.279  25.315   6.957  1.00  0.00     0.051 A 
ATOM     11  C   UNL     1     -31.039  24.174   7.221  1.00  0.00     0.012 A 
BRANCH   7  12
ATOM     12  O   UNL     1     -31.557  26.330   3.641  1.00  0.00    -0.493 OA
ATOM     13  C   UNL     1     -31.396  25.793   2.333  1.00  0.00     0.278 C 
ENDBRANCH   7  12
BRANCH   8  14
ATOM     14  O   UNL     1     -29.704  27.166   5.505  1.00  0.00    -0.504 OA
ATOM     15  H   UNL     1     -29.992  28.081   5.831  1.00  0.00     0.293 HD
ENDBRANCH   8  14
ENDBRANCH   5   6
ENDBRANCH   2   4
ENDBRANCH   1   2
BRANCH   1  16
ATOM     16  C   UNL     1     -37.102  20.452   6.913  1.00  0.00     0.163 C 
ATOM     17  O   UNL     1     -37.734  19.404   6.611  1.00  0.00    -0.294 OA
BRANCH  16  18
ATOM     18  C   UNL     1     -37.598  21.364   7.967  1.00  0.00     0.048 C 
ATOM     19  C   UNL     1     -38.077  22.603   7.768  1.00  0.00     0.012 C 
BRANCH  19  20
ATOM     20  C   UNL     1     -38.037  23.340   6.488  1.00  0.00    -0.022 A 
ATOM     21  C   UNL     1     -38.112  24.741   6.501  1.00  0.00     0.058 A 
ATOM     22  C   UNL     1     -37.828  22.674   5.272  1.00  0.00     0.012 A 
ATOM     23  C   UNL     1     -38.033  25.475   5.302  1.00  0.00     0.161 A 
ATOM     24  C   UNL     1     -37.750  23.393   4.080  1.00  0.00     0.051 A 
ATOM     25  C   UNL     1     -37.855  24.788   4.087  1.00  0.00     0.157 A 
BRANCH  23  26
ATOM     26  O   UNL     1     -38.122  26.877   5.280  1.00  0.00    -0.493 OA
ATOM     27  C   UNL     1     -37.581  27.703   4.253  1.00  0.00     0.278 C 
ENDBRANCH  23  26
BRANCH  25  28
ATOM     28  O   UNL     1     -37.772  25.475   2.876  1.00  0.00    -0.504 OA
ATOM     29  H   UNL     1     -36.995  26.086   2.653  1.00  0.00     0.293 HD
ENDBRANCH  25  28
ENDBRANCH  19  20
ENDBRANCH  16  18
ENDBRANCH   1  16
TORSDOF 10
ENDMDL
MODEL 4
REMARK VINA RESULT:    19.065      1.626      2.561
REMARK INTER + INTRA:          30.776
REMARK INTER:                  27.227
REMARK INTRA:                   3.549
REMARK UNBOUND:                 1.681
REMARK SMILES COc1cc(C=CC(=O)CC(=O)C=Cc2ccc(O)c(OC)c2)ccc1O
REMARK SMILES IDX 10 1 8 2 9 3 7 4 6 5 5 6 3 7 26 8 4 9 25 10 24 11 2 12 1 13
REMARK SMILES IDX 27 14 11 16 12 17 13 18 14 19 15 20 23 21 16 22 20 23 17 24
REMARK SMILES IDX 18 25 21 26 22 27 19 28
REMARK H PARENT 27 15 19 29
REMARK Flexibility Score: inf
ROOT
ATOM      1  C   UNL     1     -37.916  20.302   7.041  1.00  0.00     0.160 C 
ENDROOT
BRANCH   1   2
ATOM      2  C   UNL     1     -36.829  20.081   8.049  1.00  0.00     0.163 C 
ATOM      3  O   UNL     1     -36.914  19.106   8.843  1.00  0.00    -0.294 OA
BRANCH   2   4
ATOM      4  C   UNL     1     -35.649  20.970   8.068  1.00  0.00     0.048 C 
ATOM      5  C   UNL     1     -34.908  21.197   6.974  1.00  0.00     0.012 C 
BRANCH   5   6
ATOM      6  C   UNL     1     -33.720  22.084   6.959  1.00  0.00    -0.022 A 
ATOM      7  C   UNL     1     -32.018  23.402   5.790  1.00  0.00     0.161 A 
ATOM      8  C   UNL     1     -31.440  23.735   7.024  1.00  0.00     0.157 A 
ATOM      9  C   UNL     1     -33.155  22.571   5.762  1.00  0.00     0.058 A 
ATOM     10  C   UNL     1     -31.987  23.239   8.212  1.00  0.00     0.051 A 
ATOM     11  C   UNL     1     -33.114  22.416   8.179  1.00  0.00     0.012 A 
BRANCH   7  12
ATOM     12  O   UNL     1     -31.433  23.910   4.620  1.00  0.00    -0.493 OA
ATOM     13  C   UNL     1     -31.608  25.239   4.139  1.00  0.00     0.278 C 
ENDBRANCH   7  12
BRANCH   8  14
ATOM     14  O   UNL     1     -30.316  24.558   7.057  1.00  0.00    -0.504 OA
ATOM     15  H   UNL     1     -30.137  25.180   7.837  1.00  0.00     0.293 HD
ENDBRANCH   8  14
ENDBRANCH   5   6
ENDBRANCH   2   4
ENDBRANCH   1   2
BRANCH   1  16
ATOM     16  C   UNL     1     -37.923  21.734   6.601  1.00  0.00     0.163 C 
ATOM     17  O   UNL     1     -37.974  21.997   5.369  1.00  0.00    -0.294 OA
BRANCH  16  18
ATOM     18  C   UNL     1     -37.985  22.812   7.613  1.00  0.00     0.048 C 
ATOM     19  C   UNL     1     -38.124  24.122   7.352  1.00  0.00     0.012 C 
BRANCH  19  20
ATOM     20  C   UNL     1     -38.071  24.738   6.010  1.00  0.00    -0.022 A 
ATOM     21  C   UNL     1     -38.102  26.136   5.895  1.00  0.00     0.058 A 
ATOM     22  C   UNL     1     -37.893  23.957   4.859  1.00  0.00     0.012 A 
ATOM     23  C   UNL     1     -38.008  26.755   4.633  1.00  0.00     0.161 A 
ATOM     24  C   UNL     1     -37.801  24.562   3.605  1.00  0.00     0.051 A 
ATOM     25  C   UNL     1     -37.862  25.954   3.485  1.00  0.00     0.157 A 
BRANCH  23  26
ATOM     26  O   UNL     1     -38.052  28.151   4.483  1.00  0.00    -0.493 OA
ATOM     27  C   UNL     1     -37.089  28.915   3.764  1.00  0.00     0.278 C 
ENDBRANCH  23  26
BRANCH  25  28
ATOM     28  O   UNL     1     -37.766  26.525   2.216  1.00  0.00    -0.504 OA
ATOM     29  H   UNL     1     -38.453  26.351   1.492  1.00  0.00     0.293 HD
ENDBRANCH  25  28
ENDBRANCH  19  20
ENDBRANCH  16  18
ENDBRANCH   1  16
TORSDOF 10
ENDMDL
MODEL 5
REMARK VINA RESULT:    20.463      1.337      2.075
REMARK INTER + INTRA:          32.910
REMARK INTER:                  32.587
REMARK INTRA:                   0.324
REMARK UNBOUND:                 1.681
REMARK SMILES COc1cc(C=CC(=O)CC(=O)C=Cc2ccc(O)c(OC)c2)ccc1O
REMARK SMILES IDX 10 1 8 2 9 3 7 4 6 5 5 6 3 7 26 8 4 9 25 10 24 11 2 12 1 13
REMARK SMILES IDX 27 14 11 16 12 17 13 18 14 19 15 20 23 21 16 22 20 23 17 24
REMARK SMILES IDX 18 25 21 26 22 27 19 28
REMARK H PARENT 27 15 19 29
REMARK Flexibility Score: inf
ROOT
ATOM      1  C   UNL     1     -34.608  20.924   6.966  1.00  0.00     0.160 C 
ENDROOT
BRANCH   1   2
ATOM      2  C   UNL     1     -34.270  22.351   7.276  1.00  0.00     0.163 C 
ATOM      3  O   UNL     1     -35.170  23.115   7.719  1.00  0.00    -0.294 OA
BRANCH   2   4
ATOM      4  C   UNL     1     -32.883  22.833   7.114  1.00  0.00     0.048 C 
ATOM      5  C   UNL     1     -32.603  24.067   6.670  1.00  0.00     0.012 C 
BRANCH   5   6
ATOM      6  C   UNL     1     -31.223  24.582   6.498  1.00  0.00    -0.022 A 
ATOM      7  C   UNL     1     -28.799  24.422   6.807  1.00  0.00     0.161 A 
ATOM      8  C   UNL     1     -28.642  25.653   6.155  1.00  0.00     0.157 A 
ATOM      9  C   UNL     1     -30.092  23.892   6.981  1.00  0.00     0.058 A 
ATOM     10  C   UNL     1     -29.763  26.348   5.689  1.00  0.00     0.051 A 
ATOM     11  C   UNL     1     -31.043  25.820   5.864  1.00  0.00     0.012 A 
BRANCH   7  12
ATOM     12  O   UNL     1     -27.650  23.761   7.270  1.00  0.00    -0.493 OA
ATOM     13  C   UNL     1     -26.523  24.408   7.850  1.00  0.00     0.278 C 
ENDBRANCH   7  12
BRANCH   8  14
ATOM     14  O   UNL     1     -27.364  26.181   5.979  1.00  0.00    -0.504 OA
ATOM     15  H   UNL     1     -26.885  26.670   6.726  1.00  0.00     0.293 HD
ENDBRANCH   8  14
ENDBRANCH   5   6
ENDBRANCH   2   4
ENDBRANCH   1   2
BRANCH   1  16
ATOM     16  C   UNL     1     -35.689  20.442   7.884  1.00  0.00     0.163 C 
ATOM     17  O   UNL     1     -35.571  20.635   9.124  1.00  0.00    -0.294 OA
BRANCH  16  18
ATOM     18  C   UNL     1     -36.922  19.850   7.319  1.00  0.00     0.048 C 
ATOM     19  C   UNL     1     -37.807  20.488   6.535  1.00  0.00     0.012 C 
BRANCH  19  20
ATOM     20  C   UNL     1     -37.798  21.934   6.234  1.00  0.00    -0.022 A 
ATOM     21  C   UNL     1     -37.584  22.359   4.915  1.00  0.00     0.058 A 
ATOM     22  C   UNL     1     -38.095  22.883   7.223  1.00  0.00     0.012 A 
ATOM     23  C   UNL     1     -37.613  23.729   4.588  1.00  0.00     0.161 A 
ATOM     24  C   UNL     1     -38.124  24.242   6.908  1.00  0.00     0.051 A 
ATOM     25  C   UNL     1     -37.881  24.671   5.599  1.00  0.00     0.157 A 
BRANCH  23  26
ATOM     26  O   UNL     1     -37.386  24.188   3.280  1.00  0.00    -0.493 OA
ATOM     27  C   UNL     1     -36.225  23.889   2.511  1.00  0.00     0.278 C 
ENDBRANCH  23  26
BRANCH  25  28
ATOM     28  O   UNL     1     -37.919  26.037   5.320  1.00  0.00    -0.504 OA
ATOM     29  H   UNL     1     -37.127  26.530   4.925  1.00  0.00     0.293 HD
ENDBRANCH  25  28
ENDBRANCH  19  20
ENDBRANCH  16  18
ENDBRANCH   1  16
TORSDOF 10
ENDMDL
