MODEL 1
REMARK VINA RESULT:    -6.120      0.000      0.000
REMARK INTER + INTRA:         -11.337
REMARK INTER:                  -9.341
REMARK INTRA:                  -1.996
REMARK UNBOUND:                -1.996
REMARK SMILES CC(=O)CCC=C(C)CCC=C(C)CCC=C(C)C
REMARK SMILES IDX 10 1 11 2 12 3 13 4 14 5 15 6 16 7 18 8 17 9 19 10 9 11 7 12
REMARK SMILES IDX 6 13 8 14 5 15 4 16 2 17 3 18 1 19
REMARK H PARENT
REMARK Flexibility Score: inf
ROOT
ATOM      1  C   UNL     1     -10.160 -17.216  29.934  1.00  0.00     0.032 C 
ENDROOT
BRANCH   1   2
ATOM      2  C   UNL     1      -9.875 -16.655  31.304  1.00  0.00    -0.028 C 
ATOM      3  C   UNL     1     -10.818 -16.230  32.177  1.00  0.00    -0.077 C 
ATOM      4  C   UNL     1     -10.370 -15.757  33.536  1.00  0.00     0.039 C 
BRANCH   3   5
ATOM      5  C   UNL     1     -12.297 -16.178  31.835  1.00  0.00     0.034 C 
BRANCH   5   6
ATOM      6  C   UNL     1     -12.994 -17.519  32.104  1.00  0.00     0.032 C 
BRANCH   6   7
ATOM      7  C   UNL     1     -13.271 -18.275  30.825  1.00  0.00    -0.028 C 
ATOM      8  C   UNL     1     -12.209 -20.389  31.646  1.00  0.00     0.039 C 
ATOM      9  C   UNL     1     -12.953 -19.571  30.617  1.00  0.00    -0.080 C 
ATOM     10  C   UNL     1     -13.341 -20.202  29.305  1.00  0.00     0.039 C 
ENDBRANCH   6   7
ENDBRANCH   5   6
ENDBRANCH   3   5
ENDBRANCH   1   2
BRANCH   1  11
ATOM     11  C   UNL     1     -10.401 -16.087  28.926  1.00  0.00     0.034 C 
BRANCH  11  12
ATOM     12  C   UNL     1     -11.472 -16.478  27.927  1.00  0.00    -0.077 C 
ATOM     13  C   UNL     1     -12.739 -16.005  27.977  1.00  0.00    -0.028 C 
ATOM     14  C   UNL     1     -11.121 -17.465  26.844  1.00  0.00     0.039 C 
BRANCH  13  15
ATOM     15  C   UNL     1     -13.255 -14.977  28.957  1.00  0.00     0.035 C 
BRANCH  15  16
ATOM     16  C   UNL     1     -14.331 -14.093  28.315  1.00  0.00     0.079 C 
BRANCH  16  17
ATOM     17  C   UNL     1     -15.267 -13.522  29.348  1.00  0.00     0.130 C 
ATOM     18  O   UNL     1     -16.129 -12.728  29.004  1.00  0.00    -0.300 OA
ATOM     19  C   UNL     1     -15.165 -13.912  30.793  1.00  0.00     0.087 C 
ENDBRANCH  16  17
ENDBRANCH  15  16
ENDBRANCH  13  15
ENDBRANCH  11  12
ENDBRANCH   1  11
TORSDOF 9
ENDMDL
MODEL 2
REMARK VINA RESULT:    -5.891      3.133      5.842
REMARK INTER + INTRA:         -10.986
REMARK INTER:                 -10.017
REMARK INTRA:                  -0.969
REMARK UNBOUND:                -1.996
REMARK SMILES CC(=O)CCC=C(C)CCC=C(C)CCC=C(C)C
REMARK SMILES IDX 10 1 11 2 12 3 13 4 14 5 15 6 16 7 18 8 17 9 19 10 9 11 7 12
REMARK SMILES IDX 6 13 8 14 5 15 4 16 2 17 3 18 1 19
REMARK H PARENT
REMARK Flexibility Score: inf
ROOT
ATOM      1  C   UNL     1     -13.135 -16.739  31.533  1.00  0.00     0.032 C 
ENDROOT
BRANCH   1   2
ATOM      2  C   UNL     1     -13.048 -18.201  31.889  1.00  0.00    -0.028 C 
ATOM      3  C   UNL     1     -12.354 -19.128  31.188  1.00  0.00    -0.077 C 
ATOM      4  C   UNL     1     -12.314 -20.539  31.716  1.00  0.00     0.039 C 
BRANCH   3   5
ATOM      5  C   UNL     1     -11.646 -18.816  29.881  1.00  0.00     0.034 C 
BRANCH   5   6
ATOM      6  C   UNL     1     -12.506 -19.181  28.662  1.00  0.00     0.032 C 
BRANCH   6   7
ATOM      7  C   UNL     1     -13.259 -17.985  28.127  1.00  0.00    -0.028 C 
ATOM      8  C   UNL     1     -11.388 -17.267  26.625  1.00  0.00     0.039 C 
ATOM      9  C   UNL     1     -12.782 -17.136  27.190  1.00  0.00    -0.080 C 
ATOM     10  C   UNL     1     -13.673 -16.017  26.718  1.00  0.00     0.039 C 
ENDBRANCH   6   7
ENDBRANCH   5   6
ENDBRANCH   3   5
ENDBRANCH   1   2
BRANCH   1  11
ATOM     11  C   UNL     1     -12.632 -15.869  32.691  1.00  0.00     0.034 C 
BRANCH  11  12
ATOM     12  C   UNL     1     -13.705 -14.895  33.137  1.00  0.00    -0.077 C 
ATOM     13  C   UNL     1     -13.632 -14.191  34.289  1.00  0.00    -0.028 C 
ATOM     14  C   UNL     1     -14.927 -14.723  32.271  1.00  0.00     0.039 C 
BRANCH  13  15
ATOM     15  C   UNL     1     -12.467 -14.198  35.251  1.00  0.00     0.035 C 
BRANCH  15  16
ATOM     16  C   UNL     1     -12.468 -12.942  36.131  1.00  0.00     0.079 C 
BRANCH  16  17
ATOM     17  C   UNL     1     -11.070 -12.449  36.395  1.00  0.00     0.130 C 
ATOM     18  O   UNL     1     -10.871 -11.253  36.539  1.00  0.00    -0.300 OA
ATOM     19  C   UNL     1      -9.913 -13.399  36.489  1.00  0.00     0.087 C 
ENDBRANCH  16  17
ENDBRANCH  15  16
ENDBRANCH  13  15
ENDBRANCH  11  12
ENDBRANCH   1  11
TORSDOF 9
ENDMDL
MODEL 3
REMARK VINA RESULT:    -5.861      2.277      5.624
REMARK INTER + INTRA:         -10.941
REMARK INTER:                  -9.416
REMARK INTRA:                  -1.526
REMARK UNBOUND:                -1.996
REMARK SMILES CC(=O)CCC=C(C)CCC=C(C)CCC=C(C)C
REMARK SMILES IDX 10 1 11 2 12 3 13 4 14 5 15 6 16 7 18 8 17 9 19 10 9 11 7 12
REMARK SMILES IDX 6 13 8 14 5 15 4 16 2 17 3 18 1 19
REMARK H PARENT
REMARK Flexibility Score: inf
ROOT
ATOM      1  C   UNL     1     -10.229 -15.960  29.705  1.00  0.00     0.032 C 
ENDROOT
BRANCH   1   2
ATOM      2  C   UNL     1     -10.281 -16.584  28.333  1.00  0.00    -0.028 C 
ATOM      3  C   UNL     1     -11.403 -16.722  27.588  1.00  0.00    -0.077 C 
ATOM      4  C   UNL     1     -11.273 -17.309  26.206  1.00  0.00     0.039 C 
BRANCH   3   5
ATOM      5  C   UNL     1     -12.784 -16.343  28.096  1.00  0.00     0.034 C 
BRANCH   5   6
ATOM      6  C   UNL     1     -12.786 -14.966  28.774  1.00  0.00     0.032 C 
BRANCH   6   7
ATOM      7  C   UNL     1     -14.079 -14.223  28.533  1.00  0.00    -0.028 C 
ATOM      8  C   UNL     1     -14.728 -14.225  30.952  1.00  0.00     0.039 C 
ATOM      9  C   UNL     1     -14.945 -13.857  29.504  1.00  0.00    -0.080 C 
ATOM     10  C   UNL     1     -16.170 -13.073  29.112  1.00  0.00     0.039 C 
ENDBRANCH   6   7
ENDBRANCH   5   6
ENDBRANCH   3   5
ENDBRANCH   1   2
BRANCH   1  11
ATOM     11  C   UNL     1     -10.202 -17.042  30.790  1.00  0.00     0.034 C 
BRANCH  11  12
ATOM     12  C   UNL     1     -10.859 -16.544  32.062  1.00  0.00    -0.077 C 
ATOM     13  C   UNL     1     -12.174 -16.713  32.332  1.00  0.00    -0.028 C 
ATOM     14  C   UNL     1     -10.016 -15.795  33.063  1.00  0.00     0.039 C 
BRANCH  13  15
ATOM     15  C   UNL     1     -13.155 -17.478  31.473  1.00  0.00     0.035 C 
BRANCH  15  16
ATOM     16  C   UNL     1     -13.335 -18.912  31.983  1.00  0.00     0.079 C 
BRANCH  16  17
ATOM     17  C   UNL     1     -12.659 -19.910  31.080  1.00  0.00     0.130 C 
ATOM     18  O   UNL     1     -12.213 -20.943  31.553  1.00  0.00    -0.300 OA
ATOM     19  C   UNL     1     -12.527 -19.662  29.606  1.00  0.00     0.087 C 
ENDBRANCH  16  17
ENDBRANCH  15  16
ENDBRANCH  13  15
ENDBRANCH  11  12
ENDBRANCH   1  11
TORSDOF 9
ENDMDL
MODEL 4
REMARK VINA RESULT:    -5.828      1.693      3.943
REMARK INTER + INTRA:         -10.891
REMARK INTER:                  -9.301
REMARK INTRA:                  -1.590
REMARK UNBOUND:                -1.996
REMARK SMILES CC(=O)CCC=C(C)CCC=C(C)CCC=C(C)C
REMARK SMILES IDX 10 1 11 2 12 3 13 4 14 5 15 6 16 7 18 8 17 9 19 10 9 11 7 12
REMARK SMILES IDX 6 13 8 14 5 15 4 16 2 17 3 18 1 19
REMARK H PARENT
REMARK Flexibility Score: inf
ROOT
ATOM      1  C   UNL     1     -10.455 -16.158  29.533  1.00  0.00     0.032 C 
ENDROOT
BRANCH   1   2
ATOM      2  C   UNL     1     -11.669 -15.329  29.198  1.00  0.00    -0.028 C 
ATOM      3  C   UNL     1     -12.578 -15.640  28.245  1.00  0.00    -0.077 C 
ATOM      4  C   UNL     1     -13.774 -14.738  28.079  1.00  0.00     0.039 C 
BRANCH   3   5
ATOM      5  C   UNL     1     -12.428 -16.834  27.317  1.00  0.00     0.034 C 
BRANCH   5   6
ATOM      6  C   UNL     1     -13.384 -17.975  27.693  1.00  0.00     0.032 C 
BRANCH   6   7
ATOM      7  C   UNL     1     -13.073 -18.541  29.059  1.00  0.00    -0.028 C 
ATOM      8  C   UNL     1     -13.970 -20.814  28.507  1.00  0.00     0.039 C 
ATOM      9  C   UNL     1     -13.302 -19.821  29.428  1.00  0.00    -0.080 C 
ATOM     10  C   UNL     1     -12.890 -20.252  30.812  1.00  0.00     0.039 C 
ENDBRANCH   6   7
ENDBRANCH   5   6
ENDBRANCH   3   5
ENDBRANCH   1   2
BRANCH   1  11
ATOM     11  C   UNL     1     -10.738 -17.073  30.729  1.00  0.00     0.034 C 
BRANCH  11  12
ATOM     12  C   UNL     1     -10.995 -16.259  31.981  1.00  0.00    -0.077 C 
ATOM     13  C   UNL     1     -12.190 -16.230  32.613  1.00  0.00    -0.028 C 
ATOM     14  C   UNL     1      -9.875 -15.415  32.534  1.00  0.00     0.039 C 
BRANCH  13  15
ATOM     15  C   UNL     1     -13.405 -17.045  32.234  1.00  0.00     0.035 C 
BRANCH  15  16
ATOM     16  C   UNL     1     -14.690 -16.406  32.771  1.00  0.00     0.079 C 
BRANCH  16  17
ATOM     17  C   UNL     1     -14.646 -14.904  32.668  1.00  0.00     0.130 C 
ATOM     18  O   UNL     1     -14.394 -14.240  33.662  1.00  0.00    -0.300 OA
ATOM     19  C   UNL     1     -14.901 -14.203  31.366  1.00  0.00     0.087 C 
ENDBRANCH  16  17
ENDBRANCH  15  16
ENDBRANCH  13  15
ENDBRANCH  11  12
ENDBRANCH   1  11
TORSDOF 9
ENDMDL
MODEL 5
REMARK VINA RESULT:    -5.801      2.995      5.482
REMARK INTER + INTRA:         -10.849
REMARK INTER:                  -8.939
REMARK INTRA:                  -1.910
REMARK UNBOUND:                -1.996
REMARK SMILES CC(=O)CCC=C(C)CCC=C(C)CCC=C(C)C
REMARK SMILES IDX 10 1 11 2 12 3 13 4 14 5 15 6 16 7 18 8 17 9 19 10 9 11 7 12
REMARK SMILES IDX 6 13 8 14 5 15 4 16 2 17 3 18 1 19
REMARK H PARENT
REMARK Flexibility Score: inf
ROOT
ATOM      1  C   UNL     1     -12.773 -16.449  32.217  1.00  0.00     0.032 C 
ENDROOT
BRANCH   1   2
ATOM      2  C   UNL     1     -13.267 -15.831  30.933  1.00  0.00    -0.028 C 
ATOM      3  C   UNL     1     -12.551 -15.754  29.787  1.00  0.00    -0.077 C 
ATOM      4  C   UNL     1     -13.215 -15.164  28.570  1.00  0.00     0.039 C 
BRANCH   3   5
ATOM      5  C   UNL     1     -11.103 -16.201  29.686  1.00  0.00     0.034 C 
BRANCH   5   6
ATOM      6  C   UNL     1     -10.978 -17.600  29.064  1.00  0.00     0.032 C 
BRANCH   6   7
ATOM      7  C   UNL     1     -11.227 -18.691  30.078  1.00  0.00    -0.028 C 
ATOM      8  C   UNL     1     -13.400 -19.388  29.046  1.00  0.00     0.039 C 
ATOM      9  C   UNL     1     -12.294 -19.521  30.065  1.00  0.00    -0.080 C 
ATOM     10  C   UNL     1     -12.377 -20.596  31.116  1.00  0.00     0.039 C 
ENDBRANCH   6   7
ENDBRANCH   5   6
ENDBRANCH   3   5
ENDBRANCH   1   2
BRANCH   1  11
ATOM     11  C   UNL     1     -12.111 -15.391  33.107  1.00  0.00     0.034 C 
BRANCH  11  12
ATOM     12  C   UNL     1     -10.706 -15.812  33.489  1.00  0.00    -0.077 C 
ATOM     13  C   UNL     1      -9.875 -15.037  34.223  1.00  0.00    -0.028 C 
ATOM     14  C   UNL     1     -10.196 -17.144  33.002  1.00  0.00     0.039 C 
BRANCH  13  15
ATOM     15  C   UNL     1     -10.230 -13.702  34.835  1.00  0.00     0.035 C 
BRANCH  15  16
ATOM     16  C   UNL     1     -10.339 -13.804  36.360  1.00  0.00     0.079 C 
BRANCH  16  17
ATOM     17  C   UNL     1     -11.753 -13.587  36.831  1.00  0.00     0.130 C 
ATOM     18  O   UNL     1     -12.059 -13.887  37.975  1.00  0.00    -0.300 OA
ATOM     19  C   UNL     1     -12.795 -13.003  35.924  1.00  0.00     0.087 C 
ENDBRANCH  16  17
ENDBRANCH  15  16
ENDBRANCH  13  15
ENDBRANCH  11  12
ENDBRANCH   1  11
TORSDOF 9
ENDMDL
MODEL 6
REMARK VINA RESULT:    -5.797      1.735      3.813
REMARK INTER + INTRA:         -10.844
REMARK INTER:                  -8.479
REMARK INTRA:                  -2.365
REMARK UNBOUND:                -1.996
REMARK SMILES CC(=O)CCC=C(C)CCC=C(C)CCC=C(C)C
REMARK SMILES IDX 10 1 11 2 12 3 13 4 14 5 15 6 16 7 18 8 17 9 19 10 9 11 7 12
REMARK SMILES IDX 6 13 8 14 5 15 4 16 2 17 3 18 1 19
REMARK H PARENT
REMARK Flexibility Score: inf
ROOT
ATOM      1  C   UNL     1     -10.540 -19.573  31.492  1.00  0.00     0.032 C 
ENDROOT
BRANCH   1   2
ATOM      2  C   UNL     1     -10.274 -18.164  31.959  1.00  0.00    -0.028 C 
ATOM      3  C   UNL     1     -10.061 -17.106  31.143  1.00  0.00    -0.077 C 
ATOM      4  C   UNL     1      -9.875 -15.748  31.769  1.00  0.00     0.039 C 
BRANCH   3   5
ATOM      5  C   UNL     1      -9.969 -17.233  29.632  1.00  0.00     0.034 C 
BRANCH   5   6
ATOM      6  C   UNL     1     -10.409 -15.945  28.921  1.00  0.00     0.032 C 
BRANCH   6   7
ATOM      7  C   UNL     1     -11.824 -16.044  28.402  1.00  0.00    -0.028 C 
ATOM      8  C   UNL     1     -11.157 -17.277  26.327  1.00  0.00     0.039 C 
ATOM      9  C   UNL     1     -12.178 -16.666  27.256  1.00  0.00    -0.080 C 
ATOM     10  C   UNL     1     -13.640 -16.727  26.897  1.00  0.00     0.039 C 
ENDBRANCH   6   7
ENDBRANCH   5   6
ENDBRANCH   3   5
ENDBRANCH   1   2
BRANCH   1  11
ATOM     11  C   UNL     1     -12.029 -19.914  31.622  1.00  0.00     0.034 C 
BRANCH  11  12
ATOM     12  C   UNL     1     -12.834 -19.231  30.534  1.00  0.00    -0.077 C 
ATOM     13  C   UNL     1     -13.530 -18.089  30.735  1.00  0.00    -0.028 C 
ATOM     14  C   UNL     1     -12.889 -19.870  29.170  1.00  0.00     0.039 C 
BRANCH  13  15
ATOM     15  C   UNL     1     -13.550 -17.285  32.015  1.00  0.00     0.035 C 
BRANCH  15  16
ATOM     16  C   UNL     1     -13.465 -15.783  31.727  1.00  0.00     0.079 C 
BRANCH  16  17
ATOM     17  C   UNL     1     -14.391 -14.994  32.616  1.00  0.00     0.130 C 
ATOM     18  O   UNL     1     -15.568 -14.882  32.310  1.00  0.00    -0.300 OA
ATOM     19  C   UNL     1     -13.896 -14.346  33.875  1.00  0.00     0.087 C 
ENDBRANCH  16  17
ENDBRANCH  15  16
ENDBRANCH  13  15
ENDBRANCH  11  12
ENDBRANCH   1  11
TORSDOF 9
ENDMDL
MODEL 7
REMARK VINA RESULT:    -5.792      3.173      5.688
REMARK INTER + INTRA:         -10.836
REMARK INTER:                  -9.782
REMARK INTRA:                  -1.055
REMARK UNBOUND:                -1.996
REMARK SMILES CC(=O)CCC=C(C)CCC=C(C)CCC=C(C)C
REMARK SMILES IDX 10 1 11 2 12 3 13 4 14 5 15 6 16 7 18 8 17 9 19 10 9 11 7 12
REMARK SMILES IDX 6 13 8 14 5 15 4 16 2 17 3 18 1 19
REMARK H PARENT
REMARK Flexibility Score: inf
ROOT
ATOM      1  C   UNL     1     -13.347 -16.989  31.811  1.00  0.00     0.032 C 
ENDROOT
BRANCH   1   2
ATOM      2  C   UNL     1     -12.263 -17.925  31.340  1.00  0.00    -0.028 C 
ATOM      3  C   UNL     1     -11.062 -17.536  30.854  1.00  0.00    -0.077 C 
ATOM      4  C   UNL     1     -10.062 -18.601  30.488  1.00  0.00     0.039 C 
BRANCH   3   5
ATOM      5  C   UNL     1     -10.694 -16.079  30.632  1.00  0.00     0.034 C 
BRANCH   5   6
ATOM      6  C   UNL     1     -10.610 -15.731  29.138  1.00  0.00     0.032 C 
BRANCH   6   7
ATOM      7  C   UNL     1     -11.957 -15.827  28.463  1.00  0.00    -0.028 C 
ATOM      8  C   UNL     1     -11.165 -17.463  26.740  1.00  0.00     0.039 C 
ATOM      9  C   UNL     1     -12.229 -16.623  27.405  1.00  0.00    -0.080 C 
ATOM     10  C   UNL     1     -13.638 -16.650  26.872  1.00  0.00     0.039 C 
ENDBRANCH   6   7
ENDBRANCH   5   6
ENDBRANCH   3   5
ENDBRANCH   1   2
BRANCH   1  11
ATOM     11  C   UNL     1     -12.800 -16.010  32.856  1.00  0.00     0.034 C 
BRANCH  11  12
ATOM     12  C   UNL     1     -13.789 -14.890  33.113  1.00  0.00    -0.077 C 
ATOM     13  C   UNL     1     -13.725 -14.079  34.194  1.00  0.00    -0.028 C 
ATOM     14  C   UNL     1     -14.919 -14.688  32.137  1.00  0.00     0.039 C 
BRANCH  13  15
ATOM     15  C   UNL     1     -12.639 -14.102  35.246  1.00  0.00     0.035 C 
BRANCH  15  16
ATOM     16  C   UNL     1     -12.625 -12.799  36.053  1.00  0.00     0.079 C 
BRANCH  16  17
ATOM     17  C   UNL     1     -11.219 -12.332  36.327  1.00  0.00     0.130 C 
ATOM     18  O   UNL     1     -11.021 -11.496  37.194  1.00  0.00    -0.300 OA
ATOM     19  C   UNL     1     -10.053 -12.879  35.557  1.00  0.00     0.087 C 
ENDBRANCH  16  17
ENDBRANCH  15  16
ENDBRANCH  13  15
ENDBRANCH  11  12
ENDBRANCH   1  11
TORSDOF 9
ENDMDL
MODEL 8
REMARK VINA RESULT:    -5.672      1.697      4.701
REMARK INTER + INTRA:         -10.653
REMARK INTER:                  -9.363
REMARK INTRA:                  -1.290
REMARK UNBOUND:                -1.996
REMARK SMILES CC(=O)CCC=C(C)CCC=C(C)CCC=C(C)C
REMARK SMILES IDX 10 1 11 2 12 3 13 4 14 5 15 6 16 7 18 8 17 9 19 10 9 11 7 12
REMARK SMILES IDX 6 13 8 14 5 15 4 16 2 17 3 18 1 19
REMARK H PARENT
REMARK Flexibility Score: inf
ROOT
ATOM      1  C   UNL     1     -13.144 -18.909  31.650  1.00  0.00     0.032 C 
ENDROOT
BRANCH   1   2
ATOM      2  C   UNL     1     -12.107 -17.967  32.207  1.00  0.00    -0.028 C 
ATOM      3  C   UNL     1     -12.320 -16.659  32.484  1.00  0.00    -0.077 C 
ATOM      4  C   UNL     1     -11.195 -15.869  33.101  1.00  0.00     0.039 C 
BRANCH   3   5
ATOM      5  C   UNL     1     -13.626 -15.950  32.169  1.00  0.00     0.034 C 
BRANCH   5   6
ATOM      6  C   UNL     1     -13.605 -15.302  30.777  1.00  0.00     0.032 C 
BRANCH   6   7
ATOM      7  C   UNL     1     -14.746 -14.329  30.592  1.00  0.00    -0.028 C 
ATOM      8  C   UNL     1     -14.273 -13.977  28.158  1.00  0.00     0.039 C 
ATOM      9  C   UNL     1     -15.077 -13.751  29.416  1.00  0.00    -0.080 C 
ATOM     10  C   UNL     1     -16.276 -12.840  29.379  1.00  0.00     0.039 C 
ENDBRANCH   6   7
ENDBRANCH   5   6
ENDBRANCH   3   5
ENDBRANCH   1   2
BRANCH   1  11
ATOM     11  C   UNL     1     -12.496 -19.930  30.708  1.00  0.00     0.034 C 
BRANCH  11  12
ATOM     12  C   UNL     1     -12.972 -19.726  29.284  1.00  0.00    -0.077 C 
ATOM     13  C   UNL     1     -12.515 -18.735  28.485  1.00  0.00    -0.028 C 
ATOM     14  C   UNL     1     -14.029 -20.652  28.737  1.00  0.00     0.039 C 
BRANCH  13  15
ATOM     15  C   UNL     1     -11.426 -17.749  28.844  1.00  0.00     0.035 C 
BRANCH  15  16
ATOM     16  C   UNL     1     -11.537 -16.472  28.003  1.00  0.00     0.079 C 
BRANCH  16  17
ATOM     17  C   UNL     1     -11.987 -16.772  26.597  1.00  0.00     0.130 C 
ATOM     18  O   UNL     1     -13.142 -16.544  26.273  1.00  0.00    -0.300 OA
ATOM     19  C   UNL     1     -11.041 -17.342  25.582  1.00  0.00     0.087 C 
ENDBRANCH  16  17
ENDBRANCH  15  16
ENDBRANCH  13  15
ENDBRANCH  11  12
ENDBRANCH   1  11
TORSDOF 9
ENDMDL
MODEL 9
REMARK VINA RESULT:    -3.182      2.317      5.178
REMARK INTER + INTRA:          -6.853
REMARK INTER:                  -4.211
REMARK INTRA:                  -2.641
REMARK UNBOUND:                -1.996
REMARK SMILES CC(=O)CCC=C(C)CCC=C(C)CCC=C(C)C
REMARK SMILES IDX 10 1 11 2 12 3 13 4 14 5 15 6 16 7 18 8 17 9 19 10 9 11 7 12
REMARK SMILES IDX 6 13 8 14 5 15 4 16 2 17 3 18 1 19
REMARK H PARENT
REMARK Flexibility Score: inf
ROOT
ATOM      1  C   UNL     1     -10.354 -15.880  29.686  1.00  0.00     0.032 C 
ENDROOT
BRANCH   1   2
ATOM      2  C   UNL     1     -11.085 -16.369  28.461  1.00  0.00    -0.028 C 
ATOM      3  C   UNL     1     -12.359 -16.045  28.141  1.00  0.00    -0.077 C 
ATOM      4  C   UNL     1     -12.923 -16.566  26.844  1.00  0.00     0.039 C 
BRANCH   3   5
ATOM      5  C   UNL     1     -13.252 -15.212  29.044  1.00  0.00     0.034 C 
BRANCH   5   6
ATOM      6  C   UNL     1     -13.628 -15.964  30.330  1.00  0.00     0.032 C 
BRANCH   6   7
ATOM      7  C   UNL     1     -13.665 -15.045  31.528  1.00  0.00    -0.028 C 
ATOM      8  C   UNL     1     -14.739 -16.751  33.015  1.00  0.00     0.039 C 
ATOM      9  C   UNL     1     -14.132 -15.394  32.747  1.00  0.00    -0.080 C 
ATOM     10  C   UNL     1     -14.055 -14.382  33.860  1.00  0.00     0.039 C 
ENDBRANCH   6   7
ENDBRANCH   5   6
ENDBRANCH   3   5
ENDBRANCH   1   2
BRANCH   1  11
ATOM     11  C   UNL     1      -9.875 -17.061  30.538  1.00  0.00     0.034 C 
BRANCH  11  12
ATOM     12  C   UNL     1     -10.542 -17.048  31.899  1.00  0.00    -0.077 C 
ATOM     13  C   UNL     1     -11.306 -18.065  32.358  1.00  0.00    -0.028 C 
ATOM     14  C   UNL     1     -10.374 -15.831  32.772  1.00  0.00     0.039 C 
BRANCH  13  15
ATOM     15  C   UNL     1     -11.544 -19.377  31.647  1.00  0.00     0.035 C 
BRANCH  15  16
ATOM     16  C   UNL     1     -12.924 -19.402  30.980  1.00  0.00     0.079 C 
BRANCH  16  17
ATOM     17  C   UNL     1     -12.815 -19.579  29.488  1.00  0.00     0.130 C 
ATOM     18  O   UNL     1     -11.727 -19.463  28.946  1.00  0.00    -0.300 OA
ATOM     19  C   UNL     1     -14.019 -19.898  28.652  1.00  0.00     0.087 C 
ENDBRANCH  16  17
ENDBRANCH  15  16
ENDBRANCH  13  15
ENDBRANCH  11  12
ENDBRANCH   1  11
TORSDOF 9
ENDMDL
