MODEL 1
REMARK VINA RESULT:    -6.465      0.000      0.000
REMARK INTER + INTRA:          -7.704
REMARK INTER:                  -7.788
REMARK INTRA:                   0.084
REMARK UNBOUND:                 0.084
REMARK SMILES O=c1c(O)c(-c2ccc(O)c(O)c2)oc2cc(O)cc(O)c12
REMARK SMILES IDX 5 1 3 2 2 3 1 4 22 5 20 6 19 7 17 8 16 9 15 10 14 11 6 12
REMARK SMILES IDX 7 13 8 14 9 15 13 16 11 17 10 18 12 20 4 22 21 24 18 26
REMARK H PARENT 10 19 12 21 4 23 21 25 18 27
REMARK Flexibility Score: inf
ROOT
ATOM      1  C   UNL     1     -19.445  17.615  -2.051  1.00  0.00     0.180 A 
ATOM      2  C   UNL     1     -18.884  18.874  -1.779  1.00  0.00     0.208 A 
ATOM      3  C   UNL     1     -19.712  19.898  -1.293  1.00  0.00     0.238 A 
ATOM      4  O   UNL     1     -19.194  21.008  -1.000  1.00  0.00    -0.285 OA
ATOM      5  C   UNL     1     -21.094  19.656  -1.101  1.00  0.00     0.111 A 
ATOM      6  C   UNL     1     -22.033  20.631  -0.652  1.00  0.00     0.134 A 
ATOM      7  C   UNL     1     -23.350  20.245  -0.372  1.00  0.00     0.093 A 
ATOM      8  C   UNL     1     -23.777  18.932  -0.589  1.00  0.00     0.123 A 
ATOM      9  C   UNL     1     -22.882  17.986  -1.085  1.00  0.00     0.094 A 
ATOM     10  C   UNL     1     -21.554  18.334  -1.338  1.00  0.00     0.146 A 
ATOM     11  O   UNL     1     -20.731  17.399  -1.800  1.00  0.00    -0.452 OA
ENDROOT
BRANCH   1  12
ATOM     12  C   UNL     1     -18.641  16.494  -2.589  1.00  0.00     0.025 A 
ATOM     13  C   UNL     1     -17.687  16.696  -3.602  1.00  0.00     0.016 A 
ATOM     14  C   UNL     1     -16.957  15.619  -4.112  1.00  0.00     0.051 A 
ATOM     15  C   UNL     1     -17.179  14.323  -3.627  1.00  0.00     0.157 A 
ATOM     16  C   UNL     1     -18.873  15.189  -2.122  1.00  0.00     0.062 A 
ATOM     17  C   UNL     1     -18.140  14.108  -2.632  1.00  0.00     0.158 A 
BRANCH  15  18
ATOM     18  O   UNL     1     -16.451  13.247  -4.131  1.00  0.00    -0.504 OA
ATOM     19  H   UNL     1     -15.572  13.382  -4.616  1.00  0.00     0.293 HD
ENDBRANCH  15  18
BRANCH  17  20
ATOM     20  O   UNL     1     -18.363  12.817  -2.155  1.00  0.00    -0.504 OA
ATOM     21  H   UNL     1     -19.274  12.525  -1.822  1.00  0.00     0.293 HD
ENDBRANCH  17  20
ENDBRANCH   1  12
BRANCH   2  22
ATOM     22  O   UNL     1     -17.514  19.086  -1.955  1.00  0.00    -0.502 OA
ATOM     23  H   UNL     1     -17.136  19.973  -2.265  1.00  0.00     0.293 HD
ENDBRANCH   2  22
BRANCH   6  24
ATOM     24  O   UNL     1     -21.734  21.988  -0.492  1.00  0.00    -0.507 OA
ATOM     25  H   UNL     1     -20.972  22.465  -0.948  1.00  0.00     0.293 HD
ENDBRANCH   6  24
BRANCH   8  26
ATOM     26  O   UNL     1     -25.093  18.560  -0.325  1.00  0.00    -0.508 OA
ATOM     27  H   UNL     1     -25.720  18.265  -1.065  1.00  0.00     0.293 HD
ENDBRANCH   8  26
TORSDOF 6
ENDMDL
MODEL 2
REMARK VINA RESULT:    -6.431      2.125      6.726
REMARK INTER + INTRA:          -7.663
REMARK INTER:                  -7.678
REMARK INTRA:                   0.015
REMARK UNBOUND:                 0.084
REMARK SMILES O=c1c(O)c(-c2ccc(O)c(O)c2)oc2cc(O)cc(O)c12
REMARK SMILES IDX 5 1 3 2 2 3 1 4 22 5 20 6 19 7 17 8 16 9 15 10 14 11 6 12
REMARK SMILES IDX 7 13 8 14 9 15 13 16 11 17 10 18 12 20 4 22 21 24 18 26
REMARK H PARENT 10 19 12 21 4 23 21 25 18 27
REMARK Flexibility Score: inf
ROOT
ATOM      1  C   UNL     1     -20.405  16.928  -2.126  1.00  0.00     0.180 A 
ATOM      2  C   UNL     1     -19.028  16.695  -2.279  1.00  0.00     0.208 A 
ATOM      3  C   UNL     1     -18.599  15.470  -2.814  1.00  0.00     0.238 A 
ATOM      4  O   UNL     1     -17.367  15.289  -3.000  1.00  0.00    -0.285 OA
ATOM      5  C   UNL     1     -19.551  14.486  -3.173  1.00  0.00     0.111 A 
ATOM      6  C   UNL     1     -19.229  13.194  -3.686  1.00  0.00     0.134 A 
ATOM      7  C   UNL     1     -20.254  12.351  -4.130  1.00  0.00     0.093 A 
ATOM      8  C   UNL     1     -21.596  12.727  -4.018  1.00  0.00     0.123 A 
ATOM      9  C   UNL     1     -21.924  13.962  -3.463  1.00  0.00     0.094 A 
ATOM     10  C   UNL     1     -20.920  14.839  -3.045  1.00  0.00     0.146 A 
ATOM     11  O   UNL     1     -21.276  16.011  -2.532  1.00  0.00    -0.452 OA
ENDROOT
BRANCH   1  12
ATOM     12  C   UNL     1     -20.932  18.184  -1.546  1.00  0.00     0.025 A 
ATOM     13  C   UNL     1     -21.874  18.170  -0.502  1.00  0.00     0.016 A 
ATOM     14  C   UNL     1     -22.377  19.368   0.013  1.00  0.00     0.051 A 
ATOM     15  C   UNL     1     -21.956  20.596  -0.515  1.00  0.00     0.157 A 
ATOM     16  C   UNL     1     -20.530  19.417  -2.085  1.00  0.00     0.062 A 
ATOM     17  C   UNL     1     -21.032  20.620  -1.568  1.00  0.00     0.158 A 
BRANCH  15  18
ATOM     18  O   UNL     1     -22.452  21.792  -0.003  1.00  0.00    -0.504 OA
ATOM     19  H   UNL     1     -22.906  22.476  -0.597  1.00  0.00     0.293 HD
ENDBRANCH  15  18
BRANCH  17  20
ATOM     20  O   UNL     1     -20.620  21.842  -2.096  1.00  0.00    -0.504 OA
ATOM     21  H   UNL     1     -19.644  22.033  -2.291  1.00  0.00     0.293 HD
ENDBRANCH  17  20
ENDBRANCH   1  12
BRANCH   2  22
ATOM     22  O   UNL     1     -18.105  17.688  -1.939  1.00  0.00    -0.502 OA
ATOM     23  H   UNL     1     -17.163  17.475  -1.635  1.00  0.00     0.293 HD
ENDBRANCH   2  22
BRANCH   6  24
ATOM     24  O   UNL     1     -17.928  12.684  -3.754  1.00  0.00    -0.507 OA
ATOM     25  H   UNL     1     -17.683  11.786  -4.142  1.00  0.00     0.293 HD
ENDBRANCH   6  24
BRANCH   8  26
ATOM     26  O   UNL     1     -22.611  11.875  -4.447  1.00  0.00    -0.508 OA
ATOM     27  H   UNL     1     -22.846  11.032  -3.936  1.00  0.00     0.293 HD
ENDBRANCH   8  26
TORSDOF 6
ENDMDL
MODEL 3
REMARK VINA RESULT:    -6.297      2.004      7.305
REMARK INTER + INTRA:          -7.501
REMARK INTER:                  -7.170
REMARK INTRA:                  -0.331
REMARK UNBOUND:                 0.084
REMARK SMILES O=c1c(O)c(-c2ccc(O)c(O)c2)oc2cc(O)cc(O)c12
REMARK SMILES IDX 5 1 3 2 2 3 1 4 22 5 20 6 19 7 17 8 16 9 15 10 14 11 6 12
REMARK SMILES IDX 7 13 8 14 9 15 13 16 11 17 10 18 12 20 4 22 21 24 18 26
REMARK H PARENT 10 19 12 21 4 23 21 25 18 27
REMARK Flexibility Score: inf
ROOT
ATOM      1  C   UNL     1     -18.760  16.647  -1.589  1.00  0.00     0.180 A 
ATOM      2  C   UNL     1     -18.737  15.843  -0.437  1.00  0.00     0.208 A 
ATOM      3  C   UNL     1     -18.094  14.596  -0.489  1.00  0.00     0.238 A 
ATOM      4  O   UNL     1     -18.029  13.904   0.560  1.00  0.00    -0.285 OA
ATOM      5  C   UNL     1     -17.498  14.162  -1.698  1.00  0.00     0.111 A 
ATOM      6  C   UNL     1     -16.855  12.900  -1.877  1.00  0.00     0.134 A 
ATOM      7  C   UNL     1     -16.185  12.630  -3.076  1.00  0.00     0.093 A 
ATOM      8  C   UNL     1     -16.191  13.550  -4.128  1.00  0.00     0.123 A 
ATOM      9  C   UNL     1     -16.867  14.760  -3.985  1.00  0.00     0.094 A 
ATOM     10  C   UNL     1     -17.513  15.072  -2.787  1.00  0.00     0.146 A 
ATOM     11  O   UNL     1     -18.136  16.241  -2.688  1.00  0.00    -0.452 OA
ENDROOT
BRANCH   1  12
ATOM     12  C   UNL     1     -19.440  17.962  -1.618  1.00  0.00     0.025 A 
ATOM     13  C   UNL     1     -20.791  18.080  -1.988  1.00  0.00     0.016 A 
ATOM     14  C   UNL     1     -21.406  19.335  -2.032  1.00  0.00     0.051 A 
ATOM     15  C   UNL     1     -20.676  20.490  -1.719  1.00  0.00     0.157 A 
ATOM     16  C   UNL     1     -18.709  19.126  -1.326  1.00  0.00     0.062 A 
ATOM     17  C   UNL     1     -19.324  20.385  -1.369  1.00  0.00     0.158 A 
BRANCH  15  18
ATOM     18  O   UNL     1     -21.285  21.742  -1.760  1.00  0.00    -0.504 OA
ATOM     19  H   UNL     1     -21.944  22.035  -1.047  1.00  0.00     0.293 HD
ENDBRANCH  15  18
BRANCH  17  20
ATOM     20  O   UNL     1     -18.599  21.536  -1.065  1.00  0.00    -0.504 OA
ATOM     21  H   UNL     1     -17.604  21.598  -1.242  1.00  0.00     0.293 HD
ENDBRANCH  17  20
ENDBRANCH   1  12
BRANCH   2  22
ATOM     22  O   UNL     1     -19.313  16.300   0.751  1.00  0.00    -0.502 OA
ATOM     23  H   UNL     1     -19.673  15.671   1.459  1.00  0.00     0.293 HD
ENDBRANCH   2  22
BRANCH   6  24
ATOM     24  O   UNL     1     -16.869  11.875  -0.926  1.00  0.00    -0.507 OA
ATOM     25  H   UNL     1     -17.656  11.272  -0.743  1.00  0.00     0.293 HD
ENDBRANCH   6  24
BRANCH   8  26
ATOM     26  O   UNL     1     -15.537  13.266  -5.324  1.00  0.00    -0.508 OA
ATOM     27  H   UNL     1     -15.521  13.930  -6.090  1.00  0.00     0.293 HD
ENDBRANCH   8  26
TORSDOF 6
ENDMDL
MODEL 4
REMARK VINA RESULT:    -6.251      1.669      7.320
REMARK INTER + INTRA:          -7.446
REMARK INTER:                  -7.917
REMARK INTRA:                   0.471
REMARK UNBOUND:                 0.084
REMARK SMILES O=c1c(O)c(-c2ccc(O)c(O)c2)oc2cc(O)cc(O)c12
REMARK SMILES IDX 5 1 3 2 2 3 1 4 22 5 20 6 19 7 17 8 16 9 15 10 14 11 6 12
REMARK SMILES IDX 7 13 8 14 9 15 13 16 11 17 10 18 12 20 4 22 21 24 18 26
REMARK H PARENT 10 19 12 21 4 23 21 25 18 27
REMARK Flexibility Score: inf
ROOT
ATOM      1  C   UNL     1     -21.415  17.344  -1.663  1.00  0.00     0.180 A 
ATOM      2  C   UNL     1     -21.747  16.027  -2.022  1.00  0.00     0.208 A 
ATOM      3  C   UNL     1     -20.783  15.230  -2.661  1.00  0.00     0.238 A 
ATOM      4  O   UNL     1     -21.069  14.034  -2.931  1.00  0.00    -0.285 OA
ATOM      5  C   UNL     1     -19.505  15.767  -2.948  1.00  0.00     0.111 A 
ATOM      6  C   UNL     1     -18.465  15.064  -3.627  1.00  0.00     0.134 A 
ATOM      7  C   UNL     1     -17.197  15.647  -3.741  1.00  0.00     0.093 A 
ATOM      8  C   UNL     1     -16.950  16.935  -3.257  1.00  0.00     0.123 A 
ATOM      9  C   UNL     1     -17.975  17.652  -2.646  1.00  0.00     0.094 A 
ATOM     10  C   UNL     1     -19.240  17.083  -2.486  1.00  0.00     0.146 A 
ATOM     11  O   UNL     1     -20.186  17.797  -1.888  1.00  0.00    -0.452 OA
ENDROOT
BRANCH   1  12
ATOM     12  C   UNL     1     -22.385  18.252  -1.010  1.00  0.00     0.025 A 
ATOM     13  C   UNL     1     -23.669  17.811  -0.645  1.00  0.00     0.016 A 
ATOM     14  C   UNL     1     -24.577  18.692  -0.051  1.00  0.00     0.051 A 
ATOM     15  C   UNL     1     -24.220  20.029   0.173  1.00  0.00     0.157 A 
ATOM     16  C   UNL     1     -22.041  19.598  -0.802  1.00  0.00     0.062 A 
ATOM     17  C   UNL     1     -22.951  20.482  -0.205  1.00  0.00     0.158 A 
BRANCH  15  18
ATOM     18  O   UNL     1     -25.122  20.909   0.766  1.00  0.00    -0.504 OA
ATOM     19  H   UNL     1     -24.966  21.911   0.762  1.00  0.00     0.293 HD
ENDBRANCH  15  18
BRANCH  17  20
ATOM     20  O   UNL     1     -22.601  21.814   0.013  1.00  0.00    -0.504 OA
ATOM     21  H   UNL     1     -21.730  22.197  -0.334  1.00  0.00     0.293 HD
ENDBRANCH  17  20
ENDBRANCH   1  12
BRANCH   2  22
ATOM     22  O   UNL     1     -23.008  15.510  -1.710  1.00  0.00    -0.502 OA
ATOM     23  H   UNL     1     -23.678  16.016  -1.143  1.00  0.00     0.293 HD
ENDBRANCH   2  22
BRANCH   6  24
ATOM     24  O   UNL     1     -18.632  13.812  -4.229  1.00  0.00    -0.507 OA
ATOM     25  H   UNL     1     -17.946  13.074  -4.217  1.00  0.00     0.293 HD
ENDBRANCH   6  24
BRANCH   8  26
ATOM     26  O   UNL     1     -15.690  17.514  -3.389  1.00  0.00    -0.508 OA
ATOM     27  H   UNL     1     -15.566  18.421  -3.824  1.00  0.00     0.293 HD
ENDBRANCH   8  26
TORSDOF 6
ENDMDL
MODEL 5
REMARK VINA RESULT:    -6.245      2.290      7.342
REMARK INTER + INTRA:          -7.439
REMARK INTER:                  -7.617
REMARK INTRA:                   0.178
REMARK UNBOUND:                 0.084
REMARK SMILES O=c1c(O)c(-c2ccc(O)c(O)c2)oc2cc(O)cc(O)c12
REMARK SMILES IDX 5 1 3 2 2 3 1 4 22 5 20 6 19 7 17 8 16 9 15 10 14 11 6 12
REMARK SMILES IDX 7 13 8 14 9 15 13 16 11 17 10 18 12 20 4 22 21 24 18 26
REMARK H PARENT 10 19 12 21 4 23 21 25 18 27
REMARK Flexibility Score: inf
ROOT
ATOM      1  C   UNL     1     -21.667  16.705  -2.210  1.00  0.00     0.180 A 
ATOM      2  C   UNL     1     -22.782  15.880  -2.435  1.00  0.00     0.208 A 
ATOM      3  C   UNL     1     -22.586  14.598  -2.971  1.00  0.00     0.238 A 
ATOM      4  O   UNL     1     -23.583  13.844  -3.118  1.00  0.00    -0.285 OA
ATOM      5  C   UNL     1     -21.278  14.163  -3.292  1.00  0.00     0.111 A 
ATOM      6  C   UNL     1     -20.965  12.899  -3.878  1.00  0.00     0.134 A 
ATOM      7  C   UNL     1     -19.626  12.521  -4.032  1.00  0.00     0.093 A 
ATOM      8  C   UNL     1     -18.587  13.389  -3.682  1.00  0.00     0.123 A 
ATOM      9  C   UNL     1     -18.883  14.648  -3.165  1.00  0.00     0.094 A 
ATOM     10  C   UNL     1     -20.209  15.038  -2.966  1.00  0.00     0.146 A 
ATOM     11  O   UNL     1     -20.447  16.243  -2.462  1.00  0.00    -0.452 OA
ENDROOT
BRANCH   1  12
ATOM     12  C   UNL     1     -21.796  18.078  -1.672  1.00  0.00     0.025 A 
ATOM     13  C   UNL     1     -22.738  18.387  -0.675  1.00  0.00     0.016 A 
ATOM     14  C   UNL     1     -22.860  19.696  -0.198  1.00  0.00     0.051 A 
ATOM     15  C   UNL     1     -22.051  20.715  -0.719  1.00  0.00     0.157 A 
ATOM     16  C   UNL     1     -21.003  19.108  -2.204  1.00  0.00     0.062 A 
ATOM     17  C   UNL     1     -21.123  20.420  -1.726  1.00  0.00     0.158 A 
BRANCH  15  18
ATOM     18  O   UNL     1     -22.168  22.020  -0.245  1.00  0.00    -0.504 OA
ATOM     19  H   UNL     1     -21.677  22.790  -0.685  1.00  0.00     0.293 HD
ENDBRANCH  15  18
BRANCH  17  20
ATOM     20  O   UNL     1     -20.325  21.437  -2.247  1.00  0.00    -0.504 OA
ATOM     21  H   UNL     1     -19.856  22.104  -1.645  1.00  0.00     0.293 HD
ENDBRANCH  17  20
ENDBRANCH   1  12
BRANCH   2  22
ATOM     22  O   UNL     1     -24.063  16.322  -2.090  1.00  0.00    -0.502 OA
ATOM     23  H   UNL     1     -24.295  17.305  -2.004  1.00  0.00     0.293 HD
ENDBRANCH   2  22
BRANCH   6  24
ATOM     24  O   UNL     1     -21.926  11.997  -4.347  1.00  0.00    -0.507 OA
ATOM     25  H   UNL     1     -22.704  11.653  -3.805  1.00  0.00     0.293 HD
ENDBRANCH   6  24
BRANCH   8  26
ATOM     26  O   UNL     1     -17.258  13.012  -3.854  1.00  0.00    -0.508 OA
ATOM     27  H   UNL     1     -16.994  12.042  -3.984  1.00  0.00     0.293 HD
ENDBRANCH   8  26
TORSDOF 6
ENDMDL
MODEL 6
REMARK VINA RESULT:    -6.222      1.471      3.078
REMARK INTER + INTRA:          -7.411
REMARK INTER:                  -7.134
REMARK INTRA:                  -0.277
REMARK UNBOUND:                 0.084
REMARK SMILES O=c1c(O)c(-c2ccc(O)c(O)c2)oc2cc(O)cc(O)c12
REMARK SMILES IDX 5 1 3 2 2 3 1 4 22 5 20 6 19 7 17 8 16 9 15 10 14 11 6 12
REMARK SMILES IDX 7 13 8 14 9 15 13 16 11 17 10 18 12 20 4 22 21 24 18 26
REMARK H PARENT 10 19 12 21 4 23 21 25 18 27
REMARK Flexibility Score: inf
ROOT
ATOM      1  C   UNL     1     -19.671  16.209  -2.541  1.00  0.00     0.180 A 
ATOM      2  C   UNL     1     -21.015  15.803  -2.597  1.00  0.00     0.208 A 
ATOM      3  C   UNL     1     -22.015  16.698  -2.185  1.00  0.00     0.238 A 
ATOM      4  O   UNL     1     -23.220  16.349  -2.289  1.00  0.00    -0.285 OA
ATOM      5  C   UNL     1     -21.657  17.982  -1.707  1.00  0.00     0.111 A 
ATOM      6  C   UNL     1     -22.584  18.955  -1.226  1.00  0.00     0.134 A 
ATOM      7  C   UNL     1     -22.131  20.239  -0.900  1.00  0.00     0.093 A 
ATOM      8  C   UNL     1     -20.774  20.565  -0.975  1.00  0.00     0.123 A 
ATOM      9  C   UNL     1     -19.853  19.604  -1.386  1.00  0.00     0.094 A 
ATOM     10  C   UNL     1     -20.281  18.325  -1.752  1.00  0.00     0.146 A 
ATOM     11  O   UNL     1     -19.372  17.442  -2.149  1.00  0.00    -0.452 OA
ENDROOT
BRANCH   1  12
ATOM     12  C   UNL     1     -18.560  15.313  -2.934  1.00  0.00     0.025 A 
ATOM     13  C   UNL     1     -17.923  15.439  -4.182  1.00  0.00     0.016 A 
ATOM     14  C   UNL     1     -16.893  14.566  -4.542  1.00  0.00     0.051 A 
ATOM     15  C   UNL     1     -16.492  13.548  -3.666  1.00  0.00     0.157 A 
ATOM     16  C   UNL     1     -18.167  14.277  -2.070  1.00  0.00     0.062 A 
ATOM     17  C   UNL     1     -17.132  13.402  -2.429  1.00  0.00     0.158 A 
BRANCH  15  18
ATOM     18  O   UNL     1     -15.464  12.677  -4.020  1.00  0.00    -0.504 OA
ATOM     19  H   UNL     1     -15.544  12.058  -4.818  1.00  0.00     0.293 HD
ENDBRANCH  15  18
BRANCH  17  20
ATOM     20  O   UNL     1     -16.736  12.384  -1.563  1.00  0.00    -0.504 OA
ATOM     21  H   UNL     1     -17.216  12.217  -0.687  1.00  0.00     0.293 HD
ENDBRANCH  17  20
ENDBRANCH   1  12
BRANCH   2  22
ATOM     22  O   UNL     1     -21.347  14.540  -3.093  1.00  0.00    -0.502 OA
ATOM     23  H   UNL     1     -22.096  13.980  -2.701  1.00  0.00     0.293 HD
ENDBRANCH   2  22
BRANCH   6  24
ATOM     24  O   UNL     1     -23.945  18.704  -1.025  1.00  0.00    -0.507 OA
ATOM     25  H   UNL     1     -24.366  18.505  -0.130  1.00  0.00     0.293 HD
ENDBRANCH   6  24
BRANCH   8  26
ATOM     26  O   UNL     1     -20.329  21.839  -0.633  1.00  0.00    -0.508 OA
ATOM     27  H   UNL     1     -20.752  22.363   0.125  1.00  0.00     0.293 HD
ENDBRANCH   8  26
TORSDOF 6
ENDMDL
MODEL 7
REMARK VINA RESULT:    -5.905      3.005      6.714
REMARK INTER + INTRA:          -7.029
REMARK INTER:                  -6.709
REMARK INTRA:                  -0.320
REMARK UNBOUND:                 0.084
REMARK SMILES O=c1c(O)c(-c2ccc(O)c(O)c2)oc2cc(O)cc(O)c12
REMARK SMILES IDX 5 1 3 2 2 3 1 4 22 5 20 6 19 7 17 8 16 9 15 10 14 11 6 12
REMARK SMILES IDX 7 13 8 14 9 15 13 16 11 17 10 18 12 20 4 22 21 24 18 26
REMARK H PARENT 10 19 12 21 4 23 21 25 18 27
REMARK Flexibility Score: inf
ROOT
ATOM      1  C   UNL     1     -21.893  16.889  -1.543  1.00  0.00     0.180 A 
ATOM      2  C   UNL     1     -23.168  16.590  -1.033  1.00  0.00     0.208 A 
ATOM      3  C   UNL     1     -23.826  15.434  -1.479  1.00  0.00     0.238 A 
ATOM      4  O   UNL     1     -24.944  15.142  -0.979  1.00  0.00    -0.285 OA
ATOM      5  C   UNL     1     -23.209  14.599  -2.441  1.00  0.00     0.111 A 
ATOM      6  C   UNL     1     -23.800  13.423  -2.994  1.00  0.00     0.134 A 
ATOM      7  C   UNL     1     -23.046  12.602  -3.841  1.00  0.00     0.093 A 
ATOM      8  C   UNL     1     -21.742  12.949  -4.207  1.00  0.00     0.123 A 
ATOM      9  C   UNL     1     -21.177  14.125  -3.719  1.00  0.00     0.094 A 
ATOM     10  C   UNL     1     -21.893  14.945  -2.844  1.00  0.00     0.146 A 
ATOM     11  O   UNL     1     -21.313  16.052  -2.395  1.00  0.00    -0.452 OA
ENDROOT
BRANCH   1  12
ATOM     12  C   UNL     1     -21.148  18.103  -1.140  1.00  0.00     0.025 A 
ATOM     13  C   UNL     1     -20.332  18.116   0.005  1.00  0.00     0.016 A 
ATOM     14  C   UNL     1     -19.656  19.281   0.380  1.00  0.00     0.051 A 
ATOM     15  C   UNL     1     -19.797  20.452  -0.376  1.00  0.00     0.157 A 
ATOM     16  C   UNL     1     -21.300  19.287  -1.882  1.00  0.00     0.062 A 
ATOM     17  C   UNL     1     -20.622  20.456  -1.507  1.00  0.00     0.158 A 
BRANCH  15  18
ATOM     18  O   UNL     1     -19.124  21.615  -0.007  1.00  0.00    -0.504 OA
ATOM     19  H   UNL     1     -19.176  21.982   0.936  1.00  0.00     0.293 HD
ENDBRANCH  15  18
BRANCH  17  20
ATOM     20  O   UNL     1     -20.765  21.624  -2.254  1.00  0.00    -0.504 OA
ATOM     21  H   UNL     1     -19.962  22.176  -2.534  1.00  0.00     0.293 HD
ENDBRANCH  17  20
ENDBRANCH   1  12
BRANCH   2  22
ATOM     22  O   UNL     1     -23.750  17.417  -0.068  1.00  0.00    -0.502 OA
ATOM     23  H   UNL     1     -24.754  17.508   0.037  1.00  0.00     0.293 HD
ENDBRANCH   2  22
BRANCH   6  24
ATOM     24  O   UNL     1     -25.125  13.036  -2.767  1.00  0.00    -0.507 OA
ATOM     25  H   UNL     1     -25.922  13.650  -2.834  1.00  0.00     0.293 HD
ENDBRANCH   6  24
BRANCH   8  26
ATOM     26  O   UNL     1     -21.004  12.135  -5.062  1.00  0.00    -0.508 OA
ATOM     27  H   UNL     1     -21.225  12.065  -6.049  1.00  0.00     0.293 HD
ENDBRANCH   8  26
TORSDOF 6
ENDMDL
MODEL 8
REMARK VINA RESULT:    -5.700      2.287      2.613
REMARK INTER + INTRA:          -6.782
REMARK INTER:                  -7.243
REMARK INTRA:                   0.461
REMARK UNBOUND:                 0.084
REMARK SMILES O=c1c(O)c(-c2ccc(O)c(O)c2)oc2cc(O)cc(O)c12
REMARK SMILES IDX 5 1 3 2 2 3 1 4 22 5 20 6 19 7 17 8 16 9 15 10 14 11 6 12
REMARK SMILES IDX 7 13 8 14 9 15 13 16 11 17 10 18 12 20 4 22 21 24 18 26
REMARK H PARENT 10 19 12 21 4 23 21 25 18 27
REMARK Flexibility Score: inf
ROOT
ATOM      1  C   UNL     1     -20.806  16.950  -2.338  1.00  0.00     0.180 A 
ATOM      2  C   UNL     1     -19.604  17.643  -2.119  1.00  0.00     0.208 A 
ATOM      3  C   UNL     1     -19.647  18.911  -1.518  1.00  0.00     0.238 A 
ATOM      4  O   UNL     1     -18.563  19.503  -1.275  1.00  0.00    -0.285 OA
ATOM      5  C   UNL     1     -20.894  19.478  -1.159  1.00  0.00     0.111 A 
ATOM      6  C   UNL     1     -21.059  20.772  -0.581  1.00  0.00     0.134 A 
ATOM      7  C   UNL     1     -22.327  21.177  -0.145  1.00  0.00     0.093 A 
ATOM      8  C   UNL     1     -23.446  20.360  -0.327  1.00  0.00     0.123 A 
ATOM      9  C   UNL     1     -23.304  19.120  -0.944  1.00  0.00     0.094 A 
ATOM     10  C   UNL     1     -22.047  18.673  -1.356  1.00  0.00     0.146 A 
ATOM     11  O   UNL     1     -21.954  17.480  -1.930  1.00  0.00    -0.452 OA
ENDROOT
BRANCH   1  12
ATOM     12  C   UNL     1     -20.843  15.621  -2.988  1.00  0.00     0.025 A 
ATOM     13  C   UNL     1     -19.683  15.036  -3.526  1.00  0.00     0.016 A 
ATOM     14  C   UNL     1     -19.746  13.790  -4.157  1.00  0.00     0.051 A 
ATOM     15  C   UNL     1     -20.970  13.118  -4.272  1.00  0.00     0.157 A 
ATOM     16  C   UNL     1     -22.071  14.951  -3.124  1.00  0.00     0.062 A 
ATOM     17  C   UNL     1     -22.135  13.701  -3.757  1.00  0.00     0.158 A 
BRANCH  15  18
ATOM     18  O   UNL     1     -21.037  11.876  -4.898  1.00  0.00    -0.504 OA
ATOM     19  H   UNL     1     -20.453  11.101  -4.604  1.00  0.00     0.293 HD
ENDBRANCH  15  18
BRANCH  17  20
ATOM     20  O   UNL     1     -23.352  13.033  -3.878  1.00  0.00    -0.504 OA
ATOM     21  H   UNL     1     -23.789  12.886  -4.780  1.00  0.00     0.293 HD
ENDBRANCH  17  20
ENDBRANCH   1  12
BRANCH   2  22
ATOM     22  O   UNL     1     -18.382  17.056  -2.461  1.00  0.00    -0.502 OA
ATOM     23  H   UNL     1     -18.134  16.114  -2.181  1.00  0.00     0.293 HD
ENDBRANCH   2  22
BRANCH   6  24
ATOM     24  O   UNL     1     -20.024  21.702  -0.440  1.00  0.00    -0.507 OA
ATOM     25  H   UNL     1     -20.070  22.663  -0.742  1.00  0.00     0.293 HD
ENDBRANCH   6  24
BRANCH   8  26
ATOM     26  O   UNL     1     -24.706  20.778   0.095  1.00  0.00    -0.508 OA
ATOM     27  H   UNL     1     -25.033  20.608   1.039  1.00  0.00     0.293 HD
ENDBRANCH   8  26
TORSDOF 6
ENDMDL
MODEL 9
REMARK VINA RESULT:    -5.366      2.818      4.127
REMARK INTER + INTRA:          -6.380
REMARK INTER:                  -6.582
REMARK INTRA:                   0.202
REMARK UNBOUND:                 0.084
REMARK SMILES O=c1c(O)c(-c2ccc(O)c(O)c2)oc2cc(O)cc(O)c12
REMARK SMILES IDX 5 1 3 2 2 3 1 4 22 5 20 6 19 7 17 8 16 9 15 10 14 11 6 12
REMARK SMILES IDX 7 13 8 14 9 15 13 16 11 17 10 18 12 20 4 22 21 24 18 26
REMARK H PARENT 10 19 12 21 4 23 21 25 18 27
REMARK Flexibility Score: inf
ROOT
ATOM      1  C   UNL     1     -21.037  16.507  -2.292  1.00  0.00     0.180 A 
ATOM      2  C   UNL     1     -19.634  16.568  -2.358  1.00  0.00     0.208 A 
ATOM      3  C   UNL     1     -18.988  17.768  -2.022  1.00  0.00     0.238 A 
ATOM      4  O   UNL     1     -17.729  17.801  -2.030  1.00  0.00    -0.285 OA
ATOM      5  C   UNL     1     -19.752  18.897  -1.640  1.00  0.00     0.111 A 
ATOM      6  C   UNL     1     -19.206  20.175  -1.317  1.00  0.00     0.134 A 
ATOM      7  C   UNL     1     -20.046  21.182  -0.826  1.00  0.00     0.093 A 
ATOM      8  C   UNL     1     -21.423  20.978  -0.709  1.00  0.00     0.123 A 
ATOM      9  C   UNL     1     -21.975  19.753  -1.078  1.00  0.00     0.094 A 
ATOM     10  C   UNL     1     -21.157  18.718  -1.537  1.00  0.00     0.146 A 
ATOM     11  O   UNL     1     -21.722  17.563  -1.868  1.00  0.00    -0.452 OA
ENDROOT
BRANCH   1  12
ATOM     12  C   UNL     1     -21.790  15.285  -2.656  1.00  0.00     0.025 A 
ATOM     13  C   UNL     1     -21.338  14.419  -3.666  1.00  0.00     0.016 A 
ATOM     14  C   UNL     1     -22.078  13.284  -4.010  1.00  0.00     0.051 A 
ATOM     15  C   UNL     1     -23.287  13.006  -3.357  1.00  0.00     0.157 A 
ATOM     16  C   UNL     1     -23.013  15.012  -2.020  1.00  0.00     0.062 A 
ATOM     17  C   UNL     1     -23.756  13.873  -2.362  1.00  0.00     0.158 A 
BRANCH  15  18
ATOM     18  O   UNL     1     -24.026  11.875  -3.694  1.00  0.00    -0.504 OA
ATOM     19  H   UNL     1     -24.069  11.534  -4.648  1.00  0.00     0.293 HD
ENDBRANCH  15  18
BRANCH  17  20
ATOM     20  O   UNL     1     -24.961  13.597  -1.719  1.00  0.00    -0.504 OA
ATOM     21  H   UNL     1     -25.392  12.681  -1.769  1.00  0.00     0.293 HD
ENDBRANCH  17  20
ENDBRANCH   1  12
BRANCH   2  22
ATOM     22  O   UNL     1     -18.898  15.436  -2.716  1.00  0.00    -0.502 OA
ATOM     23  H   UNL     1     -19.335  14.548  -2.934  1.00  0.00     0.293 HD
ENDBRANCH   2  22
BRANCH   6  24
ATOM     24  O   UNL     1     -17.859  20.513  -1.486  1.00  0.00    -0.507 OA
ATOM     25  H   UNL     1     -17.454  20.844  -2.348  1.00  0.00     0.293 HD
ENDBRANCH   6  24
BRANCH   8  26
ATOM     26  O   UNL     1     -22.254  21.990  -0.236  1.00  0.00    -0.508 OA
ATOM     27  H   UNL     1     -22.298  22.222   0.750  1.00  0.00     0.293 HD
ENDBRANCH   8  26
TORSDOF 6
ENDMDL
