MODEL 1
REMARK VINA RESULT:    -4.145      0.000      0.000
REMARK INTER + INTRA:          -5.775
REMARK INTER:                  -5.478
REMARK INTRA:                  -0.298
REMARK UNBOUND:                -0.298
REMARK SMILES C=C[C@@H](O)CCCCC
REMARK SMILES IDX 6 1 7 2 8 3 9 4 5 5 3 6 2 7 1 8 4 9
REMARK H PARENT 4 10
REMARK Flexibility Score: inf
ROOT
ATOM      1  C   UNL     1      -4.175  18.238  48.248  1.00  0.00     0.003 C 
ENDROOT
BRANCH   1   2
ATOM      2  C   UNL     1      -4.015  19.728  48.581  1.00  0.00    -0.000 C 
BRANCH   2   3
ATOM      3  C   UNL     1      -4.312  20.637  47.379  1.00  0.00    -0.003 C 
ATOM      4  C   UNL     1      -5.233  21.804  47.732  1.00  0.00     0.004 C 
ENDBRANCH   2   3
ENDBRANCH   1   2
BRANCH   1   5
ATOM      5  C   UNL     1      -2.868  17.472  48.512  1.00  0.00     0.036 C 
BRANCH   5   6
ATOM      6  C   UNL     1      -2.472  16.568  47.329  1.00  0.00     0.136 C 
BRANCH   6   7
ATOM      7  C   UNL     1      -2.534  17.334  46.032  1.00  0.00    -0.004 C 
ATOM      8  C   UNL     1      -3.115  16.831  44.937  1.00  0.00     0.007 C 
ENDBRANCH   6   7
BRANCH   6   9
ATOM      9  O   UNL     1      -1.157  16.113  47.506  1.00  0.00    -0.389 OA
ATOM     10  H   UNL     1      -0.807  16.550  48.327  1.00  0.00     0.211 HD
ENDBRANCH   6   9
ENDBRANCH   5   6
ENDBRANCH   1   5
TORSDOF 6
ENDMDL
MODEL 2
REMARK VINA RESULT:    -4.109      1.713      1.957
REMARK INTER + INTRA:          -5.728
REMARK INTER:                  -5.485
REMARK INTRA:                  -0.243
REMARK UNBOUND:                -0.298
REMARK SMILES C=C[C@@H](O)CCCCC
REMARK SMILES IDX 6 1 7 2 8 3 9 4 5 5 3 6 2 7 1 8 4 9
REMARK H PARENT 4 10
REMARK Flexibility Score: inf
ROOT
ATOM      1  C   UNL     1      -4.059  18.315  47.878  1.00  0.00     0.003 C 
ENDROOT
BRANCH   1   2
ATOM      2  C   UNL     1      -3.264  19.187  48.861  1.00  0.00    -0.000 C 
BRANCH   2   3
ATOM      3  C   UNL     1      -3.517  20.688  48.657  1.00  0.00    -0.003 C 
ATOM      4  C   UNL     1      -4.751  20.970  47.800  1.00  0.00     0.004 C 
ENDBRANCH   2   3
ENDBRANCH   1   2
BRANCH   1   5
ATOM      5  C   UNL     1      -3.129  17.356  47.118  1.00  0.00     0.036 C 
BRANCH   5   6
ATOM      6  C   UNL     1      -2.680  17.931  45.762  1.00  0.00     0.136 C 
BRANCH   6   7
ATOM      7  C   UNL     1      -2.619  16.845  44.718  1.00  0.00    -0.004 C 
ATOM      8  C   UNL     1      -1.471  16.250  44.378  1.00  0.00     0.007 C 
ENDBRANCH   6   7
BRANCH   6   9
ATOM      9  O   UNL     1      -3.601  18.899  45.333  1.00  0.00    -0.389 OA
ATOM     10  H   UNL     1      -3.079  19.624  44.902  1.00  0.00     0.211 HD
ENDBRANCH   6   9
ENDBRANCH   5   6
ENDBRANCH   1   5
TORSDOF 6
ENDMDL
MODEL 3
REMARK VINA RESULT:    -4.108      1.660      2.482
REMARK INTER + INTRA:          -5.726
REMARK INTER:                  -5.512
REMARK INTRA:                  -0.214
REMARK UNBOUND:                -0.298
REMARK SMILES C=C[C@@H](O)CCCCC
REMARK SMILES IDX 6 1 7 2 8 3 9 4 5 5 3 6 2 7 1 8 4 9
REMARK H PARENT 4 10
REMARK Flexibility Score: inf
ROOT
ATOM      1  C   UNL     1      -4.050  20.155  48.440  1.00  0.00     0.003 C 
ENDROOT
BRANCH   1   2
ATOM      2  C   UNL     1      -4.876  21.038  47.493  1.00  0.00    -0.000 C 
BRANCH   2   3
ATOM      3  C   UNL     1      -5.191  22.416  48.095  1.00  0.00    -0.003 C 
ATOM      4  C   UNL     1      -4.268  22.779  49.258  1.00  0.00     0.004 C 
ENDBRANCH   2   3
ENDBRANCH   1   2
BRANCH   1   5
ATOM      5  C   UNL     1      -4.321  18.665  48.178  1.00  0.00     0.036 C 
BRANCH   5   6
ATOM      6  C   UNL     1      -3.354  18.069  47.139  1.00  0.00     0.136 C 
BRANCH   6   7
ATOM      7  C   UNL     1      -2.647  16.862  47.702  1.00  0.00    -0.004 C 
ATOM      8  C   UNL     1      -2.799  16.480  48.974  1.00  0.00     0.007 C 
ENDBRANCH   6   7
BRANCH   6   9
ATOM      9  O   UNL     1      -4.074  17.665  46.004  1.00  0.00    -0.389 OA
ATOM     10  H   UNL     1      -4.994  17.449  46.307  1.00  0.00     0.211 HD
ENDBRANCH   6   9
ENDBRANCH   5   6
ENDBRANCH   1   5
TORSDOF 6
ENDMDL
MODEL 4
REMARK VINA RESULT:    -4.031      1.686      4.322
REMARK INTER + INTRA:          -5.625
REMARK INTER:                  -5.383
REMARK INTRA:                  -0.242
REMARK UNBOUND:                -0.298
REMARK SMILES C=C[C@@H](O)CCCCC
REMARK SMILES IDX 6 1 7 2 8 3 9 4 5 5 3 6 2 7 1 8 4 9
REMARK H PARENT 4 10
REMARK Flexibility Score: inf
ROOT
ATOM      1  C   UNL     1      -3.392  17.398  47.806  1.00  0.00     0.003 C 
ENDROOT
BRANCH   1   2
ATOM      2  C   UNL     1      -2.489  17.721  46.607  1.00  0.00    -0.000 C 
BRANCH   2   3
ATOM      3  C   UNL     1      -3.161  17.411  45.261  1.00  0.00    -0.003 C 
ATOM      4  C   UNL     1      -2.290  16.549  44.348  1.00  0.00     0.004 C 
ENDBRANCH   2   3
ENDBRANCH   1   2
BRANCH   1   5
ATOM      5  C   UNL     1      -4.273  18.604  48.172  1.00  0.00     0.036 C 
BRANCH   5   6
ATOM      6  C   UNL     1      -3.448  19.888  48.375  1.00  0.00     0.136 C 
BRANCH   6   7
ATOM      7  C   UNL     1      -4.354  21.086  48.508  1.00  0.00    -0.004 C 
ATOM      8  C   UNL     1      -5.142  21.494  47.508  1.00  0.00     0.007 C 
ENDBRANCH   6   7
BRANCH   6   9
ATOM      9  O   UNL     1      -2.691  19.779  49.552  1.00  0.00    -0.389 OA
ATOM     10  H   UNL     1      -2.307  18.863  49.565  1.00  0.00     0.211 HD
ENDBRANCH   6   9
ENDBRANCH   5   6
ENDBRANCH   1   5
TORSDOF 6
ENDMDL
MODEL 5
REMARK VINA RESULT:    -4.002      2.218      4.348
REMARK INTER + INTRA:          -5.586
REMARK INTER:                  -5.212
REMARK INTRA:                  -0.374
REMARK UNBOUND:                -0.298
REMARK SMILES C=C[C@@H](O)CCCCC
REMARK SMILES IDX 6 1 7 2 8 3 9 4 5 5 3 6 2 7 1 8 4 9
REMARK H PARENT 4 10
REMARK Flexibility Score: inf
ROOT
ATOM      1  C   UNL     1      -3.922  18.192  48.157  1.00  0.00     0.003 C 
ENDROOT
BRANCH   1   2
ATOM      2  C   UNL     1      -2.977  17.017  47.868  1.00  0.00    -0.000 C 
BRANCH   2   3
ATOM      3  C   UNL     1      -2.226  17.176  46.538  1.00  0.00    -0.003 C 
ATOM      4  C   UNL     1      -3.006  17.997  45.512  1.00  0.00     0.004 C 
ENDBRANCH   2   3
ENDBRANCH   1   2
BRANCH   1   5
ATOM      5  C   UNL     1      -3.246  19.231  49.067  1.00  0.00     0.036 C 
BRANCH   5   6
ATOM      6  C   UNL     1      -3.385  20.664  48.521  1.00  0.00     0.136 C 
BRANCH   6   7
ATOM      7  C   UNL     1      -4.646  20.801  47.705  1.00  0.00    -0.004 C 
ATOM      8  C   UNL     1      -5.343  21.941  47.662  1.00  0.00     0.007 C 
ENDBRANCH   6   7
BRANCH   6   9
ATOM      9  O   UNL     1      -3.455  21.569  49.590  1.00  0.00    -0.389 OA
ATOM     10  H   UNL     1      -4.399  21.579  49.900  1.00  0.00     0.211 HD
ENDBRANCH   6   9
ENDBRANCH   5   6
ENDBRANCH   1   5
TORSDOF 6
ENDMDL
MODEL 6
REMARK VINA RESULT:    -3.992      1.774      4.414
REMARK INTER + INTRA:          -5.573
REMARK INTER:                  -5.283
REMARK INTRA:                  -0.290
REMARK UNBOUND:                -0.298
REMARK SMILES C=C[C@@H](O)CCCCC
REMARK SMILES IDX 6 1 7 2 8 3 9 4 5 5 3 6 2 7 1 8 4 9
REMARK H PARENT 4 10
REMARK Flexibility Score: inf
ROOT
ATOM      1  C   UNL     1      -3.229  17.407  46.713  1.00  0.00     0.003 C 
ENDROOT
BRANCH   1   2
ATOM      2  C   UNL     1      -2.883  17.805  45.271  1.00  0.00    -0.000 C 
BRANCH   2   3
ATOM      3  C   UNL     1      -2.436  16.607  44.419  1.00  0.00    -0.003 C 
ATOM      4  C   UNL     1      -0.977  16.219  44.661  1.00  0.00     0.004 C 
ENDBRANCH   2   3
ENDBRANCH   1   2
BRANCH   1   5
ATOM      5  C   UNL     1      -2.381  18.200  47.720  1.00  0.00     0.036 C 
BRANCH   5   6
ATOM      6  C   UNL     1      -3.223  18.747  48.889  1.00  0.00     0.136 C 
BRANCH   6   7
ATOM      7  C   UNL     1      -3.511  20.214  48.695  1.00  0.00    -0.004 C 
ATOM      8  C   UNL     1      -4.571  20.645  48.003  1.00  0.00     0.007 C 
ENDBRANCH   6   7
BRANCH   6   9
ATOM      9  O   UNL     1      -4.448  18.065  48.945  1.00  0.00    -0.389 OA
ATOM     10  H   UNL     1      -4.387  17.422  49.699  1.00  0.00     0.211 HD
ENDBRANCH   6   9
ENDBRANCH   5   6
ENDBRANCH   1   5
TORSDOF 6
ENDMDL
MODEL 7
REMARK VINA RESULT:    -3.953      4.795      7.497
REMARK INTER + INTRA:          -5.522
REMARK INTER:                  -5.338
REMARK INTRA:                  -0.183
REMARK UNBOUND:                -0.298
REMARK SMILES C=C[C@@H](O)CCCCC
REMARK SMILES IDX 6 1 7 2 8 3 9 4 5 5 3 6 2 7 1 8 4 9
REMARK H PARENT 4 10
REMARK Flexibility Score: inf
ROOT
ATOM      1  C   UNL     1      -4.792  22.852  48.814  1.00  0.00     0.003 C 
ENDROOT
BRANCH   1   2
ATOM      2  C   UNL     1      -5.212  21.998  47.608  1.00  0.00    -0.000 C 
BRANCH   2   3
ATOM      3  C   UNL     1      -4.678  20.560  47.689  1.00  0.00    -0.003 C 
ATOM      4  C   UNL     1      -3.599  20.387  48.757  1.00  0.00     0.004 C 
ENDBRANCH   2   3
ENDBRANCH   1   2
BRANCH   1   5
ATOM      5  C   UNL     1      -5.601  24.158  48.872  1.00  0.00     0.036 C 
BRANCH   5   6
ATOM      6  C   UNL     1      -5.719  24.708  50.305  1.00  0.00     0.136 C 
BRANCH   6   7
ATOM      7  C   UNL     1      -4.404  25.288  50.761  1.00  0.00    -0.004 C 
ATOM      8  C   UNL     1      -3.769  24.839  51.849  1.00  0.00     0.007 C 
ENDBRANCH   6   7
BRANCH   6   9
ATOM      9  O   UNL     1      -6.682  25.728  50.339  1.00  0.00    -0.389 OA
ATOM     10  H   UNL     1      -7.207  25.603  51.172  1.00  0.00     0.211 HD
ENDBRANCH   6   9
ENDBRANCH   5   6
ENDBRANCH   1   5
TORSDOF 6
ENDMDL
MODEL 8
REMARK VINA RESULT:    -3.937      2.758      4.256
REMARK INTER + INTRA:          -5.500
REMARK INTER:                  -5.184
REMARK INTRA:                  -0.316
REMARK UNBOUND:                -0.298
REMARK SMILES C=C[C@@H](O)CCCCC
REMARK SMILES IDX 6 1 7 2 8 3 9 4 5 5 3 6 2 7 1 8 4 9
REMARK H PARENT 4 10
REMARK Flexibility Score: inf
ROOT
ATOM      1  C   UNL     1      -5.095  22.687  48.236  1.00  0.00     0.003 C 
ENDROOT
BRANCH   1   2
ATOM      2  C   UNL     1      -4.036  22.614  49.345  1.00  0.00    -0.000 C 
BRANCH   2   3
ATOM      3  C   UNL     1      -4.182  23.743  50.377  1.00  0.00    -0.003 C 
ATOM      4  C   UNL     1      -5.530  24.457  50.286  1.00  0.00     0.004 C 
ENDBRANCH   2   3
ENDBRANCH   1   2
BRANCH   1   5
ATOM      5  C   UNL     1      -5.208  21.346  47.494  1.00  0.00     0.036 C 
BRANCH   5   6
ATOM      6  C   UNL     1      -3.838  20.821  47.026  1.00  0.00     0.136 C 
BRANCH   6   7
ATOM      7  C   UNL     1      -3.646  19.387  47.449  1.00  0.00    -0.004 C 
ATOM      8  C   UNL     1      -4.026  18.945  48.652  1.00  0.00     0.007 C 
ENDBRANCH   6   7
BRANCH   6   9
ATOM      9  O   UNL     1      -3.767  20.878  45.626  1.00  0.00    -0.389 OA
ATOM     10  H   UNL     1      -3.161  21.630  45.396  1.00  0.00     0.211 HD
ENDBRANCH   6   9
ENDBRANCH   5   6
ENDBRANCH   1   5
TORSDOF 6
ENDMDL
MODEL 9
REMARK VINA RESULT:    -3.921      3.182      5.733
REMARK INTER + INTRA:          -5.480
REMARK INTER:                  -5.297
REMARK INTRA:                  -0.183
REMARK UNBOUND:                -0.298
REMARK SMILES C=C[C@@H](O)CCCCC
REMARK SMILES IDX 6 1 7 2 8 3 9 4 5 5 3 6 2 7 1 8 4 9
REMARK H PARENT 4 10
REMARK Flexibility Score: inf
ROOT
ATOM      1  C   UNL     1      -4.001  20.317  48.593  1.00  0.00     0.003 C 
ENDROOT
BRANCH   1   2
ATOM      2  C   UNL     1      -4.092  18.784  48.570  1.00  0.00    -0.000 C 
BRANCH   2   3
ATOM      3  C   UNL     1      -2.784  18.109  49.006  1.00  0.00    -0.003 C 
ATOM      4  C   UNL     1      -2.718  16.634  48.610  1.00  0.00     0.004 C 
ENDBRANCH   2   3
ENDBRANCH   1   2
BRANCH   1   5
ATOM      5  C   UNL     1      -4.718  20.928  47.378  1.00  0.00     0.036 C 
BRANCH   5   6
ATOM      6  C   UNL     1      -5.357  22.292  47.703  1.00  0.00     0.136 C 
BRANCH   6   7
ATOM      7  C   UNL     1      -4.711  22.905  48.918  1.00  0.00    -0.004 C 
ATOM      8  C   UNL     1      -5.178  24.023  49.483  1.00  0.00     0.007 C 
ENDBRANCH   6   7
BRANCH   6   9
ATOM      9  O   UNL     1      -5.174  23.166  46.621  1.00  0.00    -0.389 OA
ATOM     10  H   UNL     1      -4.403  23.749  46.847  1.00  0.00     0.211 HD
ENDBRANCH   6   9
ENDBRANCH   5   6
ENDBRANCH   1   5
TORSDOF 6
ENDMDL
