MODEL 1
REMARK VINA RESULT:    -4.313      0.000      0.000
REMARK INTER + INTRA:         -16.422
REMARK INTER:                 -11.373
REMARK INTRA:                  -5.049
REMARK UNBOUND:                -5.049
REMARK SMILES CCCCCCCCCCCCCCCCCCCCCCCCCCCCCC(=O)[O-]
REMARK SMILES IDX 16 1 17 2 18 3 19 4 20 5 21 6 22 7 23 8 24 9 25 10 26 11
REMARK SMILES IDX 27 12 28 13 29 14 30 15 31 16 32 17 15 18 14 19 13 20 12 21
REMARK SMILES IDX 11 22 10 23 9 24 8 25 7 26 6 27 5 28 4 29 3 30 2 31 1 32
REMARK H PARENT
REMARK Flexibility Score: inf
ROOT
ATOM      1  C   UNL     1       4.641  32.962 -12.354  1.00  0.00     0.000 C 
ENDROOT
BRANCH   1   2
ATOM      2  C   UNL     1       4.354  33.736 -13.654  1.00  0.00     0.000 C 
BRANCH   2   3
ATOM      3  C   UNL     1       4.449  32.874 -14.931  1.00  0.00     0.000 C 
BRANCH   3   4
ATOM      4  C   UNL     1       5.054  31.484 -14.662  1.00  0.00     0.000 C 
BRANCH   4   5
ATOM      5  C   UNL     1       6.394  31.270 -15.387  1.00  0.00     0.000 C 
BRANCH   5   6
ATOM      6  C   UNL     1       7.198  32.571 -15.547  1.00  0.00     0.000 C 
BRANCH   6   7
ATOM      7  C   UNL     1       8.476  32.588 -14.676  1.00  0.00     0.000 C 
BRANCH   7   8
ATOM      8  C   UNL     1       8.201  32.841 -13.183  1.00  0.00     0.000 C 
BRANCH   8   9
ATOM      9  C   UNL     1       8.308  31.589 -12.293  1.00  0.00     0.000 C 
BRANCH   9  10
ATOM     10  C   UNL     1       9.514  30.686 -12.636  1.00  0.00     0.000 C 
BRANCH  10  11
ATOM     11  C   UNL     1       9.144  29.197 -12.695  1.00  0.00     0.000 C 
BRANCH  11  12
ATOM     12  C   UNL     1       7.622  29.009 -12.740  1.00  0.00     0.000 C 
BRANCH  12  13
ATOM     13  C   UNL     1       7.259  27.546 -13.038  1.00  0.00     0.006 C 
BRANCH  13  14
ATOM     14  C   UNL     1       8.337  26.567 -12.553  1.00  0.00     0.053 C 
BRANCH  14  15
ATOM     15  C   UNL     1       7.933  25.136 -12.742  1.00  0.00     0.041 C 
ATOM     16  O   UNL     1       8.810  24.251 -12.930  1.00  0.00    -0.550 OA
ATOM     17  O   UNL     1       6.595  24.769 -12.666  1.00  0.00    -0.550 OA
ENDBRANCH  14  15
ENDBRANCH  13  14
ENDBRANCH  12  13
ENDBRANCH  11  12
ENDBRANCH  10  11
ENDBRANCH   9  10
ENDBRANCH   8   9
ENDBRANCH   7   8
ENDBRANCH   6   7
ENDBRANCH   5   6
ENDBRANCH   4   5
ENDBRANCH   3   4
ENDBRANCH   2   3
ENDBRANCH   1   2
BRANCH   1  18
ATOM     18  C   UNL     1       4.121  33.627 -11.065  1.00  0.00     0.000 C 
BRANCH  18  19
ATOM     19  C   UNL     1       2.797  34.401 -11.213  1.00  0.00     0.000 C 
BRANCH  19  20
ATOM     20  C   UNL     1       2.592  35.452 -10.108  1.00  0.00     0.000 C 
BRANCH  20  21
ATOM     21  C   UNL     1       3.809  36.381  -9.943  1.00  0.00     0.000 C 
BRANCH  21  22
ATOM     22  C   UNL     1       3.927  37.043  -8.557  1.00  0.00     0.000 C 
BRANCH  22  23
ATOM     23  C   UNL     1       3.177  36.269  -7.461  1.00  0.00     0.000 C 
BRANCH  23  24
ATOM     24  C   UNL     1       4.055  36.097  -6.213  1.00  0.00    -0.000 C 
BRANCH  24  25
ATOM     25  C   UNL     1       4.547  34.650  -6.019  1.00  0.00    -0.000 C 
BRANCH  25  26
ATOM     26  C   UNL     1       4.275  33.705  -7.205  1.00  0.00    -0.000 C 
BRANCH  26  27
ATOM     27  C   UNL     1       5.530  33.191  -7.935  1.00  0.00    -0.000 C 
BRANCH  27  28
ATOM     28  C   UNL     1       6.559  34.294  -8.264  1.00  0.00    -0.000 C 
BRANCH  28  29
ATOM     29  C   UNL     1       7.338  34.010  -9.560  1.00  0.00    -0.000 C 
BRANCH  29  30
ATOM     30  C   UNL     1       8.533  34.957  -9.751  1.00  0.00    -0.000 C 
BRANCH  30  31
ATOM     31  C   UNL     1       8.192  36.171 -10.627  1.00  0.00    -0.003 C 
ATOM     32  C   UNL     1       7.044  35.855 -11.582  1.00  0.00     0.004 C 
ENDBRANCH  30  31
ENDBRANCH  29  30
ENDBRANCH  28  29
ENDBRANCH  27  28
ENDBRANCH  26  27
ENDBRANCH  25  26
ENDBRANCH  24  25
ENDBRANCH  23  24
ENDBRANCH  22  23
ENDBRANCH  21  22
ENDBRANCH  20  21
ENDBRANCH  19  20
ENDBRANCH  18  19
ENDBRANCH   1  18
TORSDOF 28
ENDMDL
MODEL 2
REMARK VINA RESULT:    -4.158      1.355      3.322
REMARK INTER + INTRA:         -16.013
REMARK INTER:                 -11.080
REMARK INTRA:                  -4.933
REMARK UNBOUND:                -5.049
REMARK SMILES CCCCCCCCCCCCCCCCCCCCCCCCCCCCCC(=O)[O-]
REMARK SMILES IDX 16 1 17 2 18 3 19 4 20 5 21 6 22 7 23 8 24 9 25 10 26 11
REMARK SMILES IDX 27 12 28 13 29 14 30 15 31 16 32 17 15 18 14 19 13 20 12 21
REMARK SMILES IDX 11 22 10 23 9 24 8 25 7 26 6 27 5 28 4 29 3 30 2 31 1 32
REMARK H PARENT
REMARK Flexibility Score: inf
ROOT
ATOM      1  C   UNL     1       6.019  31.658 -14.884  1.00  0.00     0.000 C 
ENDROOT
BRANCH   1   2
ATOM      2  C   UNL     1       5.510  32.084 -16.274  1.00  0.00     0.000 C 
BRANCH   2   3
ATOM      3  C   UNL     1       6.519  32.933 -17.077  1.00  0.00     0.000 C 
BRANCH   3   4
ATOM      4  C   UNL     1       6.508  34.415 -16.663  1.00  0.00     0.000 C 
BRANCH   4   5
ATOM      5  C   UNL     1       7.868  34.891 -16.121  1.00  0.00     0.000 C 
BRANCH   5   6
ATOM      6  C   UNL     1       8.878  33.742 -15.959  1.00  0.00     0.000 C 
BRANCH   6   7
ATOM      7  C   UNL     1       9.224  33.463 -14.478  1.00  0.00     0.000 C 
BRANCH   7   8
ATOM      8  C   UNL     1       9.578  31.992 -14.195  1.00  0.00     0.000 C 
BRANCH   8   9
ATOM      9  C   UNL     1       9.044  31.452 -12.857  1.00  0.00     0.000 C 
BRANCH   9  10
ATOM     10  C   UNL     1       9.107  29.912 -12.739  1.00  0.00     0.000 C 
BRANCH  10  11
ATOM     11  C   UNL     1       7.718  29.258 -12.750  1.00  0.00     0.000 C 
BRANCH  11  12
ATOM     12  C   UNL     1       7.829  27.729 -12.781  1.00  0.00     0.000 C 
BRANCH  12  13
ATOM     13  C   UNL     1       9.299  27.285 -12.820  1.00  0.00     0.006 C 
BRANCH  13  14
ATOM     14  C   UNL     1       9.517  25.927 -12.139  1.00  0.00     0.053 C 
BRANCH  14  15
ATOM     15  C   UNL     1       8.715  24.833 -12.780  1.00  0.00     0.041 C 
ATOM     16  O   UNL     1       9.067  24.364 -13.896  1.00  0.00    -0.550 OA
ATOM     17  O   UNL     1       7.609  24.300 -12.130  1.00  0.00    -0.550 OA
ENDBRANCH  14  15
ENDBRANCH  13  14
ENDBRANCH  12  13
ENDBRANCH  11  12
ENDBRANCH  10  11
ENDBRANCH   9  10
ENDBRANCH   8   9
ENDBRANCH   7   8
ENDBRANCH   6   7
ENDBRANCH   5   6
ENDBRANCH   4   5
ENDBRANCH   3   4
ENDBRANCH   2   3
ENDBRANCH   1   2
BRANCH   1  18
ATOM     18  C   UNL     1       5.143  32.105 -13.698  1.00  0.00     0.000 C 
BRANCH  18  19
ATOM     19  C   UNL     1       4.854  33.617 -13.628  1.00  0.00     0.000 C 
BRANCH  19  20
ATOM     20  C   UNL     1       6.001  34.415 -12.985  1.00  0.00     0.000 C 
BRANCH  20  21
ATOM     21  C   UNL     1       5.744  34.730 -11.500  1.00  0.00     0.000 C 
BRANCH  21  22
ATOM     22  C   UNL     1       6.267  33.666 -10.518  1.00  0.00     0.000 C 
BRANCH  22  23
ATOM     23  C   UNL     1       5.157  32.738  -9.998  1.00  0.00     0.000 C 
BRANCH  23  24
ATOM     24  C   UNL     1       5.042  32.826  -8.469  1.00  0.00    -0.000 C 
BRANCH  24  25
ATOM     25  C   UNL     1       6.155  33.680  -7.831  1.00  0.00    -0.000 C 
BRANCH  25  26
ATOM     26  C   UNL     1       5.676  34.986  -7.169  1.00  0.00    -0.000 C 
BRANCH  26  27
ATOM     27  C   UNL     1       4.251  35.430  -7.550  1.00  0.00    -0.000 C 
BRANCH  27  28
ATOM     28  C   UNL     1       4.208  36.595  -8.562  1.00  0.00    -0.000 C 
BRANCH  28  29
ATOM     29  C   UNL     1       3.064  36.452  -9.581  1.00  0.00    -0.000 C 
BRANCH  29  30
ATOM     30  C   UNL     1       2.337  35.104  -9.468  1.00  0.00    -0.000 C 
BRANCH  30  31
ATOM     31  C   UNL     1       1.850  34.578 -10.826  1.00  0.00    -0.003 C 
ATOM     32  C   UNL     1       2.199  35.551 -11.949  1.00  0.00     0.004 C 
ENDBRANCH  30  31
ENDBRANCH  29  30
ENDBRANCH  28  29
ENDBRANCH  27  28
ENDBRANCH  26  27
ENDBRANCH  25  26
ENDBRANCH  24  25
ENDBRANCH  23  24
ENDBRANCH  22  23
ENDBRANCH  21  22
ENDBRANCH  20  21
ENDBRANCH  19  20
ENDBRANCH  18  19
ENDBRANCH   1  18
TORSDOF 28
ENDMDL
MODEL 3
REMARK VINA RESULT:    -4.140      4.922      8.724
REMARK INTER + INTRA:         -15.966
REMARK INTER:                 -13.070
REMARK INTRA:                  -2.896
REMARK UNBOUND:                -5.049
REMARK SMILES CCCCCCCCCCCCCCCCCCCCCCCCCCCCCC(=O)[O-]
REMARK SMILES IDX 16 1 17 2 18 3 19 4 20 5 21 6 22 7 23 8 24 9 25 10 26 11
REMARK SMILES IDX 27 12 28 13 29 14 30 15 31 16 32 17 15 18 14 19 13 20 12 21
REMARK SMILES IDX 11 22 10 23 9 24 8 25 7 26 6 27 5 28 4 29 3 30 2 31 1 32
REMARK H PARENT
REMARK Flexibility Score: inf
ROOT
ATOM      1  C   UNL     1       6.375  31.930 -16.267  1.00  0.00     0.000 C 
ENDROOT
BRANCH   1   2
ATOM      2  C   UNL     1       5.587  31.119 -15.223  1.00  0.00     0.000 C 
BRANCH   2   3
ATOM      3  C   UNL     1       4.728  31.984 -14.275  1.00  0.00     0.000 C 
BRANCH   3   4
ATOM      4  C   UNL     1       5.486  32.400 -13.003  1.00  0.00     0.000 C 
BRANCH   4   5
ATOM      5  C   UNL     1       6.133  33.791 -13.125  1.00  0.00     0.000 C 
BRANCH   5   6
ATOM      6  C   UNL     1       7.617  33.794 -12.720  1.00  0.00     0.000 C 
BRANCH   6   7
ATOM      7  C   UNL     1       8.143  32.378 -12.388  1.00  0.00     0.000 C 
BRANCH   7   8
ATOM      8  C   UNL     1       9.062  31.792 -13.475  1.00  0.00     0.000 C 
BRANCH   8   9
ATOM      9  C   UNL     1       8.857  30.290 -13.742  1.00  0.00     0.000 C 
BRANCH   9  10
ATOM     10  C   UNL     1       7.990  29.583 -12.676  1.00  0.00     0.000 C 
BRANCH  10  11
ATOM     11  C   UNL     1       7.734  28.105 -13.003  1.00  0.00     0.000 C 
BRANCH  11  12
ATOM     12  C   UNL     1       9.033  27.395 -13.404  1.00  0.00     0.000 C 
BRANCH  12  13
ATOM     13  C   UNL     1       9.489  26.422 -12.306  1.00  0.00     0.006 C 
BRANCH  13  14
ATOM     14  C   UNL     1       8.393  25.417 -11.927  1.00  0.00     0.053 C 
BRANCH  14  15
ATOM     15  C   UNL     1       8.747  24.014 -12.321  1.00  0.00     0.041 C 
ATOM     16  O   UNL     1       9.231  23.781 -13.461  1.00  0.00    -0.550 OA
ATOM     17  O   UNL     1       8.587  22.970 -11.418  1.00  0.00    -0.550 OA
ENDBRANCH  14  15
ENDBRANCH  13  14
ENDBRANCH  12  13
ENDBRANCH  11  12
ENDBRANCH  10  11
ENDBRANCH   9  10
ENDBRANCH   8   9
ENDBRANCH   7   8
ENDBRANCH   6   7
ENDBRANCH   5   6
ENDBRANCH   4   5
ENDBRANCH   3   4
ENDBRANCH   2   3
ENDBRANCH   1   2
BRANCH   1  18
ATOM     18  C   UNL     1       5.515  32.753 -17.245  1.00  0.00     0.000 C 
BRANCH  18  19
ATOM     19  C   UNL     1       5.380  34.250 -16.902  1.00  0.00     0.000 C 
BRANCH  19  20
ATOM     20  C   UNL     1       3.926  34.747 -16.958  1.00  0.00     0.000 C 
BRANCH  20  21
ATOM     21  C   UNL     1       3.592  35.452 -18.286  1.00  0.00     0.000 C 
BRANCH  21  22
ATOM     22  C   UNL     1       2.879  34.563 -19.322  1.00  0.00     0.000 C 
BRANCH  22  23
ATOM     23  C   UNL     1       2.167  35.376 -20.416  1.00  0.00     0.000 C 
BRANCH  23  24
ATOM     24  C   UNL     1       0.648  35.385 -20.191  1.00  0.00    -0.000 C 
BRANCH  24  25
ATOM     25  C   UNL     1       0.140  34.119 -19.474  1.00  0.00    -0.000 C 
BRANCH  25  26
ATOM     26  C   UNL     1      -0.631  34.377 -18.165  1.00  0.00    -0.000 C 
BRANCH  26  27
ATOM     27  C   UNL     1      -2.164  34.289 -18.280  1.00  0.00    -0.000 C 
BRANCH  27  28
ATOM     28  C   UNL     1      -2.724  32.860 -18.111  1.00  0.00    -0.000 C 
BRANCH  28  29
ATOM     29  C   UNL     1      -3.872  32.554 -19.090  1.00  0.00    -0.000 C 
BRANCH  29  30
ATOM     30  C   UNL     1      -4.897  31.568 -18.507  1.00  0.00    -0.000 C 
BRANCH  30  31
ATOM     31  C   UNL     1      -4.927  31.584 -16.972  1.00  0.00    -0.003 C 
ATOM     32  C   UNL     1      -6.312  31.960 -16.453  1.00  0.00     0.004 C 
ENDBRANCH  30  31
ENDBRANCH  29  30
ENDBRANCH  28  29
ENDBRANCH  27  28
ENDBRANCH  26  27
ENDBRANCH  25  26
ENDBRANCH  24  25
ENDBRANCH  23  24
ENDBRANCH  22  23
ENDBRANCH  21  22
ENDBRANCH  20  21
ENDBRANCH  19  20
ENDBRANCH  18  19
ENDBRANCH   1  18
TORSDOF 28
ENDMDL
MODEL 4
REMARK VINA RESULT:    -4.139      1.423      3.146
REMARK INTER + INTRA:         -15.963
REMARK INTER:                 -10.677
REMARK INTRA:                  -5.285
REMARK UNBOUND:                -5.049
REMARK SMILES CCCCCCCCCCCCCCCCCCCCCCCCCCCCCC(=O)[O-]
REMARK SMILES IDX 16 1 17 2 18 3 19 4 20 5 21 6 22 7 23 8 24 9 25 10 26 11
REMARK SMILES IDX 27 12 28 13 29 14 30 15 31 16 32 17 15 18 14 19 13 20 12 21
REMARK SMILES IDX 11 22 10 23 9 24 8 25 7 26 6 27 5 28 4 29 3 30 2 31 1 32
REMARK H PARENT
REMARK Flexibility Score: inf
ROOT
ATOM      1  C   UNL     1       5.549  32.270 -13.340  1.00  0.00     0.000 C 
ENDROOT
BRANCH   1   2
ATOM      2  C   UNL     1       5.924  31.195 -14.378  1.00  0.00     0.000 C 
BRANCH   2   3
ATOM      3  C   UNL     1       6.443  31.769 -15.714  1.00  0.00     0.000 C 
BRANCH   3   4
ATOM      4  C   UNL     1       5.974  33.214 -15.960  1.00  0.00     0.000 C 
BRANCH   4   5
ATOM      5  C   UNL     1       7.143  34.207 -16.079  1.00  0.00     0.000 C 
BRANCH   5   6
ATOM      6  C   UNL     1       8.508  33.553 -15.806  1.00  0.00     0.000 C 
BRANCH   6   7
ATOM      7  C   UNL     1       9.341  34.334 -14.763  1.00  0.00     0.000 C 
BRANCH   7   8
ATOM      8  C   UNL     1       9.895  33.452 -13.631  1.00  0.00     0.000 C 
BRANCH   8   9
ATOM      9  C   UNL     1       9.665  31.942 -13.826  1.00  0.00     0.000 C 
BRANCH   9  10
ATOM     10  C   UNL     1       9.562  31.154 -12.500  1.00  0.00     0.000 C 
BRANCH  10  11
ATOM     11  C   UNL     1       9.652  29.635 -12.703  1.00  0.00     0.000 C 
BRANCH  11  12
ATOM     12  C   UNL     1       8.265  28.985 -12.622  1.00  0.00     0.000 C 
BRANCH  12  13
ATOM     13  C   UNL     1       8.331  27.500 -13.007  1.00  0.00     0.006 C 
BRANCH  13  14
ATOM     14  C   UNL     1       6.953  26.826 -12.969  1.00  0.00     0.053 C 
BRANCH  14  15
ATOM     15  C   UNL     1       7.022  25.416 -12.463  1.00  0.00     0.041 C 
ATOM     16  O   UNL     1       6.036  24.644 -12.606  1.00  0.00    -0.550 OA
ATOM     17  O   UNL     1       8.188  24.938 -11.876  1.00  0.00    -0.550 OA
ENDBRANCH  14  15
ENDBRANCH  13  14
ENDBRANCH  12  13
ENDBRANCH  11  12
ENDBRANCH  10  11
ENDBRANCH   9  10
ENDBRANCH   8   9
ENDBRANCH   7   8
ENDBRANCH   6   7
ENDBRANCH   5   6
ENDBRANCH   4   5
ENDBRANCH   3   4
ENDBRANCH   2   3
ENDBRANCH   1   2
BRANCH   1  18
ATOM     18  C   UNL     1       6.255  32.141 -11.977  1.00  0.00     0.000 C 
BRANCH  18  19
ATOM     19  C   UNL     1       6.771  33.464 -11.378  1.00  0.00     0.000 C 
BRANCH  19  20
ATOM     20  C   UNL     1       6.567  34.665 -12.317  1.00  0.00     0.000 C 
BRANCH  20  21
ATOM     21  C   UNL     1       5.385  35.556 -11.891  1.00  0.00     0.000 C 
BRANCH  21  22
ATOM     22  C   UNL     1       4.399  35.899 -13.022  1.00  0.00     0.000 C 
BRANCH  22  23
ATOM     23  C   UNL     1       3.113  35.059 -12.967  1.00  0.00     0.000 C 
BRANCH  23  24
ATOM     24  C   UNL     1       2.982  34.346 -11.614  1.00  0.00    -0.000 C 
BRANCH  24  25
ATOM     25  C   UNL     1       1.705  34.743 -10.847  1.00  0.00    -0.000 C 
BRANCH  25  26
ATOM     26  C   UNL     1       1.938  35.624  -9.605  1.00  0.00    -0.000 C 
BRANCH  26  27
ATOM     27  C   UNL     1       3.352  35.542  -8.999  1.00  0.00    -0.000 C 
BRANCH  27  28
ATOM     28  C   UNL     1       3.536  34.386  -7.993  1.00  0.00    -0.000 C 
BRANCH  28  29
ATOM     29  C   UNL     1       4.789  33.541  -8.284  1.00  0.00    -0.000 C 
BRANCH  29  30
ATOM     30  C   UNL     1       5.962  33.882  -7.352  1.00  0.00    -0.000 C 
BRANCH  30  31
ATOM     31  C   UNL     1       6.899  34.944  -7.945  1.00  0.00    -0.003 C 
ATOM     32  C   UNL     1       8.266  34.350  -8.274  1.00  0.00     0.004 C 
ENDBRANCH  30  31
ENDBRANCH  29  30
ENDBRANCH  28  29
ENDBRANCH  27  28
ENDBRANCH  26  27
ENDBRANCH  25  26
ENDBRANCH  24  25
ENDBRANCH  23  24
ENDBRANCH  22  23
ENDBRANCH  21  22
ENDBRANCH  20  21
ENDBRANCH  19  20
ENDBRANCH  18  19
ENDBRANCH   1  18
TORSDOF 28
ENDMDL
MODEL 5
REMARK VINA RESULT:    -4.116      3.290      7.036
REMARK INTER + INTRA:         -15.904
REMARK INTER:                 -11.336
REMARK INTRA:                  -4.568
REMARK UNBOUND:                -5.049
REMARK SMILES CCCCCCCCCCCCCCCCCCCCCCCCCCCCCC(=O)[O-]
REMARK SMILES IDX 16 1 17 2 18 3 19 4 20 5 21 6 22 7 23 8 24 9 25 10 26 11
REMARK SMILES IDX 27 12 28 13 29 14 30 15 31 16 32 17 15 18 14 19 13 20 12 21
REMARK SMILES IDX 11 22 10 23 9 24 8 25 7 26 6 27 5 28 4 29 3 30 2 31 1 32
REMARK H PARENT
REMARK Flexibility Score: inf
ROOT
ATOM      1  C   UNL     1       5.302  31.165 -14.668  1.00  0.00     0.000 C 
ENDROOT
BRANCH   1   2
ATOM      2  C   UNL     1       4.363  32.381 -14.555  1.00  0.00     0.000 C 
BRANCH   2   3
ATOM      3  C   UNL     1       4.713  33.337 -13.395  1.00  0.00     0.000 C 
BRANCH   3   4
ATOM      4  C   UNL     1       5.021  32.591 -12.085  1.00  0.00     0.000 C 
BRANCH   4   5
ATOM      5  C   UNL     1       6.450  32.850 -11.576  1.00  0.00     0.000 C 
BRANCH   5   6
ATOM      6  C   UNL     1       7.146  34.002 -12.318  1.00  0.00     0.000 C 
BRANCH   6   7
ATOM      7  C   UNL     1       8.522  33.591 -12.892  1.00  0.00     0.000 C 
BRANCH   7   8
ATOM      8  C   UNL     1       8.588  32.122 -13.344  1.00  0.00     0.000 C 
BRANCH   8   9
ATOM      9  C   UNL     1       9.381  31.198 -12.403  1.00  0.00     0.000 C 
BRANCH   9  10
ATOM     10  C   UNL     1       9.192  29.694 -12.705  1.00  0.00     0.000 C 
BRANCH  10  11
ATOM     11  C   UNL     1       7.720  29.261 -12.670  1.00  0.00     0.000 C 
BRANCH  11  12
ATOM     12  C   UNL     1       7.464  28.096 -13.634  1.00  0.00     0.000 C 
BRANCH  12  13
ATOM     13  C   UNL     1       7.210  26.791 -12.864  1.00  0.00     0.006 C 
BRANCH  13  14
ATOM     14  C   UNL     1       8.511  26.140 -12.376  1.00  0.00     0.053 C 
BRANCH  14  15
ATOM     15  C   UNL     1       8.535  24.661 -12.622  1.00  0.00     0.041 C 
ATOM     16  O   UNL     1       9.027  24.206 -13.689  1.00  0.00    -0.550 OA
ATOM     17  O   UNL     1       8.058  23.782 -11.657  1.00  0.00    -0.550 OA
ENDBRANCH  14  15
ENDBRANCH  13  14
ENDBRANCH  12  13
ENDBRANCH  11  12
ENDBRANCH  10  11
ENDBRANCH   9  10
ENDBRANCH   8   9
ENDBRANCH   7   8
ENDBRANCH   6   7
ENDBRANCH   5   6
ENDBRANCH   4   5
ENDBRANCH   3   4
ENDBRANCH   2   3
ENDBRANCH   1   2
BRANCH   1  18
ATOM     18  C   UNL     1       6.240  31.171 -15.890  1.00  0.00     0.000 C 
BRANCH  18  19
ATOM     19  C   UNL     1       5.988  32.302 -16.906  1.00  0.00     0.000 C 
BRANCH  19  20
ATOM     20  C   UNL     1       7.040  33.421 -16.829  1.00  0.00     0.000 C 
BRANCH  20  21
ATOM     21  C   UNL     1       6.441  34.767 -16.383  1.00  0.00     0.000 C 
BRANCH  21  22
ATOM     22  C   UNL     1       5.146  35.168 -17.114  1.00  0.00     0.000 C 
BRANCH  22  23
ATOM     23  C   UNL     1       4.071  35.719 -16.163  1.00  0.00     0.000 C 
BRANCH  23  24
ATOM     24  C   UNL     1       2.705  35.079 -16.451  1.00  0.00    -0.000 C 
BRANCH  24  25
ATOM     25  C   UNL     1       1.527  35.900 -15.889  1.00  0.00    -0.000 C 
BRANCH  25  26
ATOM     26  C   UNL     1       0.222  35.808 -16.703  1.00  0.00    -0.000 C 
BRANCH  26  27
ATOM     27  C   UNL     1       0.246  34.800 -17.869  1.00  0.00    -0.000 C 
BRANCH  27  28
ATOM     28  C   UNL     1      -0.428  35.318 -19.157  1.00  0.00    -0.000 C 
BRANCH  28  29
ATOM     29  C   UNL     1       0.540  35.370 -20.353  1.00  0.00    -0.000 C 
BRANCH  29  30
ATOM     30  C   UNL     1       1.918  35.935 -19.973  1.00  0.00    -0.000 C 
BRANCH  30  31
ATOM     31  C   UNL     1       3.067  35.244 -20.722  1.00  0.00    -0.003 C 
ATOM     32  C   UNL     1       3.299  33.832 -20.193  1.00  0.00     0.004 C 
ENDBRANCH  30  31
ENDBRANCH  29  30
ENDBRANCH  28  29
ENDBRANCH  27  28
ENDBRANCH  26  27
ENDBRANCH  25  26
ENDBRANCH  24  25
ENDBRANCH  23  24
ENDBRANCH  22  23
ENDBRANCH  21  22
ENDBRANCH  20  21
ENDBRANCH  19  20
ENDBRANCH  18  19
ENDBRANCH   1  18
TORSDOF 28
ENDMDL
MODEL 6
REMARK VINA RESULT:    -4.093      1.537      3.704
REMARK INTER + INTRA:         -15.843
REMARK INTER:                 -10.558
REMARK INTRA:                  -5.285
REMARK UNBOUND:                -5.049
REMARK SMILES CCCCCCCCCCCCCCCCCCCCCCCCCCCCCC(=O)[O-]
REMARK SMILES IDX 16 1 17 2 18 3 19 4 20 5 21 6 22 7 23 8 24 9 25 10 26 11
REMARK SMILES IDX 27 12 28 13 29 14 30 15 31 16 32 17 15 18 14 19 13 20 12 21
REMARK SMILES IDX 11 22 10 23 9 24 8 25 7 26 6 27 5 28 4 29 3 30 2 31 1 32
REMARK H PARENT
REMARK Flexibility Score: inf
ROOT
ATOM      1  C   UNL     1       6.203  31.248 -15.618  1.00  0.00     0.000 C 
ENDROOT
BRANCH   1   2
ATOM      2  C   UNL     1       5.983  31.965 -16.964  1.00  0.00     0.000 C 
BRANCH   2   3
ATOM      3  C   UNL     1       6.028  33.505 -16.867  1.00  0.00     0.000 C 
BRANCH   3   4
ATOM      4  C   UNL     1       7.465  34.055 -16.836  1.00  0.00     0.000 C 
BRANCH   4   5
ATOM      5  C   UNL     1       7.604  35.304 -15.949  1.00  0.00     0.000 C 
BRANCH   5   6
ATOM      6  C   UNL     1       6.773  35.213 -14.658  1.00  0.00     0.000 C 
BRANCH   6   7
ATOM      7  C   UNL     1       7.652  35.218 -13.386  1.00  0.00     0.000 C 
BRANCH   7   8
ATOM      8  C   UNL     1       8.796  34.188 -13.423  1.00  0.00     0.000 C 
BRANCH   8   9
ATOM      9  C   UNL     1       9.206  33.639 -12.045  1.00  0.00     0.000 C 
BRANCH   9  10
ATOM     10  C   UNL     1       9.144  32.097 -11.948  1.00  0.00     0.000 C 
BRANCH  10  11
ATOM     11  C   UNL     1       9.377  31.407 -13.300  1.00  0.00     0.000 C 
BRANCH  11  12
ATOM     12  C   UNL     1       9.479  29.886 -13.132  1.00  0.00     0.000 C 
BRANCH  12  13
ATOM     13  C   UNL     1       8.196  29.315 -12.509  1.00  0.00     0.006 C 
BRANCH  13  14
ATOM     14  C   UNL     1       7.500  28.304 -13.431  1.00  0.00     0.053 C 
BRANCH  14  15
ATOM     15  C   UNL     1       7.627  26.896 -12.932  1.00  0.00     0.041 C 
ATOM     16  O   UNL     1       6.705  26.065 -13.145  1.00  0.00    -0.550 OA
ATOM     17  O   UNL     1       8.780  26.487 -12.273  1.00  0.00    -0.550 OA
ENDBRANCH  14  15
ENDBRANCH  13  14
ENDBRANCH  12  13
ENDBRANCH  11  12
ENDBRANCH  10  11
ENDBRANCH   9  10
ENDBRANCH   8   9
ENDBRANCH   7   8
ENDBRANCH   6   7
ENDBRANCH   5   6
ENDBRANCH   4   5
ENDBRANCH   3   4
ENDBRANCH   2   3
ENDBRANCH   1   2
BRANCH   1  18
ATOM     18  C   UNL     1       5.173  31.579 -14.522  1.00  0.00     0.000 C 
BRANCH  18  19
ATOM     19  C   UNL     1       5.771  31.986 -13.161  1.00  0.00     0.000 C 
BRANCH  19  20
ATOM     20  C   UNL     1       4.766  32.731 -12.265  1.00  0.00     0.000 C 
BRANCH  20  21
ATOM     21  C   UNL     1       5.261  32.877 -10.815  1.00  0.00     0.000 C 
BRANCH  21  22
ATOM     22  C   UNL     1       5.884  34.246 -10.484  1.00  0.00     0.000 C 
BRANCH  22  23
ATOM     23  C   UNL     1       6.703  34.230  -9.183  1.00  0.00     0.000 C 
BRANCH  23  24
ATOM     24  C   UNL     1       5.982  33.424  -8.092  1.00  0.00    -0.000 C 
BRANCH  24  25
ATOM     25  C   UNL     1       5.066  34.295  -7.209  1.00  0.00    -0.000 C 
BRANCH  25  26
ATOM     26  C   UNL     1       3.564  34.204  -7.539  1.00  0.00    -0.000 C 
BRANCH  26  27
ATOM     27  C   UNL     1       3.000  35.382  -8.356  1.00  0.00    -0.000 C 
BRANCH  27  28
ATOM     28  C   UNL     1       2.341  34.963  -9.687  1.00  0.00    -0.000 C 
BRANCH  28  29
ATOM     29  C   UNL     1       1.305  35.987 -10.184  1.00  0.00    -0.000 C 
BRANCH  29  30
ATOM     30  C   UNL     1       1.476  36.325 -11.673  1.00  0.00    -0.000 C 
BRANCH  30  31
ATOM     31  C   UNL     1       2.883  36.000 -12.195  1.00  0.00    -0.003 C 
ATOM     32  C   UNL     1       2.819  35.295 -13.547  1.00  0.00     0.004 C 
ENDBRANCH  30  31
ENDBRANCH  29  30
ENDBRANCH  28  29
ENDBRANCH  27  28
ENDBRANCH  26  27
ENDBRANCH  25  26
ENDBRANCH  24  25
ENDBRANCH  23  24
ENDBRANCH  22  23
ENDBRANCH  21  22
ENDBRANCH  20  21
ENDBRANCH  19  20
ENDBRANCH  18  19
ENDBRANCH   1  18
TORSDOF 28
ENDMDL
MODEL 7
REMARK VINA RESULT:    -4.079      1.300      3.429
REMARK INTER + INTRA:         -15.806
REMARK INTER:                 -10.569
REMARK INTRA:                  -5.237
REMARK UNBOUND:                -5.049
REMARK SMILES CCCCCCCCCCCCCCCCCCCCCCCCCCCCCC(=O)[O-]
REMARK SMILES IDX 16 1 17 2 18 3 19 4 20 5 21 6 22 7 23 8 24 9 25 10 26 11
REMARK SMILES IDX 27 12 28 13 29 14 30 15 31 16 32 17 15 18 14 19 13 20 12 21
REMARK SMILES IDX 11 22 10 23 9 24 8 25 7 26 6 27 5 28 4 29 3 30 2 31 1 32
REMARK H PARENT
REMARK Flexibility Score: inf
ROOT
ATOM      1  C   UNL     1       6.134  31.381 -15.778  1.00  0.00     0.000 C 
ENDROOT
BRANCH   1   2
ATOM      2  C   UNL     1       6.005  32.255 -17.039  1.00  0.00     0.000 C 
BRANCH   2   3
ATOM      3  C   UNL     1       6.429  33.725 -16.829  1.00  0.00     0.000 C 
BRANCH   3   4
ATOM      4  C   UNL     1       7.776  33.853 -16.096  1.00  0.00     0.000 C 
BRANCH   4   5
ATOM      5  C   UNL     1       7.727  34.863 -14.936  1.00  0.00     0.000 C 
BRANCH   5   6
ATOM      6  C   UNL     1       8.521  34.394 -13.706  1.00  0.00     0.000 C 
BRANCH   6   7
ATOM      7  C   UNL     1       8.859  32.886 -13.759  1.00  0.00     0.000 C 
BRANCH   7   8
ATOM      8  C   UNL     1       9.208  32.283 -12.386  1.00  0.00     0.000 C 
BRANCH   8   9
ATOM      9  C   UNL     1       9.489  30.770 -12.405  1.00  0.00     0.000 C 
BRANCH   9  10
ATOM     10  C   UNL     1       8.218  29.905 -12.565  1.00  0.00     0.000 C 
BRANCH  10  11
ATOM     11  C   UNL     1       8.256  29.018 -13.817  1.00  0.00     0.000 C 
BRANCH  11  12
ATOM     12  C   UNL     1       7.016  28.119 -13.895  1.00  0.00     0.000 C 
BRANCH  12  13
ATOM     13  C   UNL     1       7.074  27.012 -12.831  1.00  0.00     0.006 C 
BRANCH  13  14
ATOM     14  C   UNL     1       8.364  26.185 -12.920  1.00  0.00     0.053 C 
BRANCH  14  15
ATOM     15  C   UNL     1       8.174  24.778 -12.437  1.00  0.00     0.041 C 
ATOM     16  O   UNL     1       9.146  23.977 -12.428  1.00  0.00    -0.550 OA
ATOM     17  O   UNL     1       6.938  24.364 -11.955  1.00  0.00    -0.550 OA
ENDBRANCH  14  15
ENDBRANCH  13  14
ENDBRANCH  12  13
ENDBRANCH  11  12
ENDBRANCH  10  11
ENDBRANCH   9  10
ENDBRANCH   8   9
ENDBRANCH   7   8
ENDBRANCH   6   7
ENDBRANCH   5   6
ENDBRANCH   4   5
ENDBRANCH   3   4
ENDBRANCH   2   3
ENDBRANCH   1   2
BRANCH   1  18
ATOM     18  C   UNL     1       4.967  31.492 -14.779  1.00  0.00     0.000 C 
BRANCH  18  19
ATOM     19  C   UNL     1       5.344  32.037 -13.388  1.00  0.00     0.000 C 
BRANCH  19  20
ATOM     20  C   UNL     1       4.780  33.444 -13.124  1.00  0.00     0.000 C 
BRANCH  20  21
ATOM     21  C   UNL     1       5.393  34.104 -11.876  1.00  0.00     0.000 C 
BRANCH  21  22
ATOM     22  C   UNL     1       6.051  33.122 -10.888  1.00  0.00     0.000 C 
BRANCH  22  23
ATOM     23  C   UNL     1       6.725  33.832  -9.702  1.00  0.00     0.000 C 
BRANCH  23  24
ATOM     24  C   UNL     1       6.526  35.352  -9.789  1.00  0.00    -0.000 C 
BRANCH  24  25
ATOM     25  C   UNL     1       6.872  36.078  -8.474  1.00  0.00    -0.000 C 
BRANCH  25  26
ATOM     26  C   UNL     1       7.548  35.201  -7.403  1.00  0.00    -0.000 C 
BRANCH  26  27
ATOM     27  C   UNL     1       6.860  35.203  -6.024  1.00  0.00    -0.000 C 
BRANCH  27  28
ATOM     28  C   UNL     1       5.378  35.633  -6.064  1.00  0.00    -0.000 C 
BRANCH  28  29
ATOM     29  C   UNL     1       4.413  34.434  -6.048  1.00  0.00    -0.000 C 
BRANCH  29  30
ATOM     30  C   UNL     1       3.906  34.065  -7.450  1.00  0.00    -0.000 C 
BRANCH  30  31
ATOM     31  C   UNL     1       3.162  35.221  -8.134  1.00  0.00    -0.003 C 
ATOM     32  C   UNL     1       2.694  34.825  -9.531  1.00  0.00     0.004 C 
ENDBRANCH  30  31
ENDBRANCH  29  30
ENDBRANCH  28  29
ENDBRANCH  27  28
ENDBRANCH  26  27
ENDBRANCH  25  26
ENDBRANCH  24  25
ENDBRANCH  23  24
ENDBRANCH  22  23
ENDBRANCH  21  22
ENDBRANCH  20  21
ENDBRANCH  19  20
ENDBRANCH  18  19
ENDBRANCH   1  18
TORSDOF 28
ENDMDL
MODEL 8
REMARK VINA RESULT:    -4.075      2.960      7.968
REMARK INTER + INTRA:         -15.793
REMARK INTER:                 -10.910
REMARK INTRA:                  -4.883
REMARK UNBOUND:                -5.049
REMARK SMILES CCCCCCCCCCCCCCCCCCCCCCCCCCCCCC(=O)[O-]
REMARK SMILES IDX 16 1 17 2 18 3 19 4 20 5 21 6 22 7 23 8 24 9 25 10 26 11
REMARK SMILES IDX 27 12 28 13 29 14 30 15 31 16 32 17 15 18 14 19 13 20 12 21
REMARK SMILES IDX 11 22 10 23 9 24 8 25 7 26 6 27 5 28 4 29 3 30 2 31 1 32
REMARK H PARENT
REMARK Flexibility Score: inf
ROOT
ATOM      1  C   UNL     1       5.919  31.349 -15.373  1.00  0.00     0.000 C 
ENDROOT
BRANCH   1   2
ATOM      2  C   UNL     1       6.409  32.344 -16.441  1.00  0.00     0.000 C 
BRANCH   2   3
ATOM      3  C   UNL     1       7.602  33.212 -15.989  1.00  0.00     0.000 C 
BRANCH   3   4
ATOM      4  C   UNL     1       7.352  34.717 -16.195  1.00  0.00     0.000 C 
BRANCH   4   5
ATOM      5  C   UNL     1       5.877  35.039 -16.489  1.00  0.00     0.000 C 
BRANCH   5   6
ATOM      6  C   UNL     1       5.465  36.439 -16.005  1.00  0.00     0.000 C 
BRANCH   6   7
ATOM      7  C   UNL     1       4.489  36.389 -14.807  1.00  0.00     0.000 C 
BRANCH   7   8
ATOM      8  C   UNL     1       3.336  35.387 -14.993  1.00  0.00     0.000 C 
BRANCH   8   9
ATOM      9  C   UNL     1       2.222  35.492 -13.936  1.00  0.00     0.000 C 
BRANCH   9  10
ATOM     10  C   UNL     1       2.698  36.083 -12.589  1.00  0.00     0.000 C 
BRANCH  10  11
ATOM     11  C   UNL     1       2.524  35.106 -11.418  1.00  0.00     0.000 C 
BRANCH  11  12
ATOM     12  C   UNL     1       3.099  35.692 -10.122  1.00  0.00     0.000 C 
BRANCH  12  13
ATOM     13  C   UNL     1       4.632  35.769 -10.186  1.00  0.00     0.006 C 
BRANCH  13  14
ATOM     14  C   UNL     1       5.297  35.194  -8.928  1.00  0.00     0.053 C 
BRANCH  14  15
ATOM     15  C   UNL     1       4.831  33.802  -8.623  1.00  0.00     0.041 C 
ATOM     16  O   UNL     1       4.134  33.579  -7.598  1.00  0.00    -0.550 OA
ATOM     17  O   UNL     1       5.126  32.758  -9.492  1.00  0.00    -0.550 OA
ENDBRANCH  14  15
ENDBRANCH  13  14
ENDBRANCH  12  13
ENDBRANCH  11  12
ENDBRANCH  10  11
ENDBRANCH   9  10
ENDBRANCH   8   9
ENDBRANCH   7   8
ENDBRANCH   6   7
ENDBRANCH   5   6
ENDBRANCH   4   5
ENDBRANCH   3   4
ENDBRANCH   2   3
ENDBRANCH   1   2
BRANCH   1  18
ATOM     18  C   UNL     1       4.774  31.858 -14.477  1.00  0.00     0.000 C 
BRANCH  18  19
ATOM     19  C   UNL     1       5.177  32.204 -13.030  1.00  0.00     0.000 C 
BRANCH  19  20
ATOM     20  C   UNL     1       5.610  33.671 -12.865  1.00  0.00     0.000 C 
BRANCH  20  21
ATOM     21  C   UNL     1       7.048  33.808 -12.332  1.00  0.00     0.000 C 
BRANCH  21  22
ATOM     22  C   UNL     1       7.735  32.473 -11.989  1.00  0.00     0.000 C 
BRANCH  22  23
ATOM     23  C   UNL     1       9.119  32.330 -12.643  1.00  0.00     0.000 C 
BRANCH  23  24
ATOM     24  C   UNL     1       9.472  30.851 -12.859  1.00  0.00    -0.000 C 
BRANCH  24  25
ATOM     25  C   UNL     1       8.283  29.906 -12.602  1.00  0.00    -0.000 C 
BRANCH  25  26
ATOM     26  C   UNL     1       8.424  28.500 -13.214  1.00  0.00    -0.000 C 
BRANCH  26  27
ATOM     27  C   UNL     1       7.194  27.587 -13.050  1.00  0.00    -0.000 C 
BRANCH  27  28
ATOM     28  C   UNL     1       7.537  26.145 -12.619  1.00  0.00    -0.000 C 
BRANCH  28  29
ATOM     29  C   UNL     1       9.053  25.910 -12.492  1.00  0.00    -0.000 C 
BRANCH  29  30
ATOM     30  C   UNL     1       9.403  24.895 -11.392  1.00  0.00    -0.000 C 
BRANCH  30  31
ATOM     31  C   UNL     1       8.442  23.698 -11.364  1.00  0.00    -0.003 C 
ATOM     32  C   UNL     1       7.928  23.438  -9.951  1.00  0.00     0.004 C 
ENDBRANCH  30  31
ENDBRANCH  29  30
ENDBRANCH  28  29
ENDBRANCH  27  28
ENDBRANCH  26  27
ENDBRANCH  25  26
ENDBRANCH  24  25
ENDBRANCH  23  24
ENDBRANCH  22  23
ENDBRANCH  21  22
ENDBRANCH  20  21
ENDBRANCH  19  20
ENDBRANCH  18  19
ENDBRANCH   1  18
TORSDOF 28
ENDMDL
MODEL 9
REMARK VINA RESULT:    -4.045      1.367      2.740
REMARK INTER + INTRA:         -15.715
REMARK INTER:                 -10.198
REMARK INTRA:                  -5.517
REMARK UNBOUND:                -5.049
REMARK SMILES CCCCCCCCCCCCCCCCCCCCCCCCCCCCCC(=O)[O-]
REMARK SMILES IDX 16 1 17 2 18 3 19 4 20 5 21 6 22 7 23 8 24 9 25 10 26 11
REMARK SMILES IDX 27 12 28 13 29 14 30 15 31 16 32 17 15 18 14 19 13 20 12 21
REMARK SMILES IDX 11 22 10 23 9 24 8 25 7 26 6 27 5 28 4 29 3 30 2 31 1 32
REMARK H PARENT
REMARK Flexibility Score: inf
ROOT
ATOM      1  C   UNL     1       6.046  31.523 -15.237  1.00  0.00     0.000 C 
ENDROOT
BRANCH   1   2
ATOM      2  C   UNL     1       5.875  31.884 -16.724  1.00  0.00     0.000 C 
BRANCH   2   3
ATOM      3  C   UNL     1       6.757  33.063 -17.188  1.00  0.00     0.000 C 
BRANCH   3   4
ATOM      4  C   UNL     1       6.412  34.379 -16.469  1.00  0.00     0.000 C 
BRANCH   4   5
ATOM      5  C   UNL     1       7.605  34.960 -15.689  1.00  0.00     0.000 C 
BRANCH   5   6
ATOM      6  C   UNL     1       8.808  34.003 -15.643  1.00  0.00     0.000 C 
BRANCH   6   7
ATOM      7  C   UNL     1       9.168  33.573 -14.202  1.00  0.00     0.000 C 
BRANCH   7   8
ATOM      8  C   UNL     1       9.454  32.067 -14.062  1.00  0.00     0.000 C 
BRANCH   8   9
ATOM      9  C   UNL     1       8.955  31.441 -12.747  1.00  0.00     0.000 C 
BRANCH   9  10
ATOM     10  C   UNL     1       9.033  29.898 -12.727  1.00  0.00     0.000 C 
BRANCH  10  11
ATOM     11  C   UNL     1       7.650  29.233 -12.694  1.00  0.00     0.000 C 
BRANCH  11  12
ATOM     12  C   UNL     1       7.764  27.712 -12.860  1.00  0.00     0.000 C 
BRANCH  12  13
ATOM     13  C   UNL     1       9.232  27.263 -12.813  1.00  0.00     0.006 C 
BRANCH  13  14
ATOM     14  C   UNL     1       9.404  25.904 -12.120  1.00  0.00     0.053 C 
BRANCH  14  15
ATOM     15  C   UNL     1       8.614  24.820 -12.792  1.00  0.00     0.041 C 
ATOM     16  O   UNL     1       9.091  24.217 -13.790  1.00  0.00    -0.550 OA
ATOM     17  O   UNL     1       7.375  24.442 -12.290  1.00  0.00    -0.550 OA
ENDBRANCH  14  15
ENDBRANCH  13  14
ENDBRANCH  12  13
ENDBRANCH  11  12
ENDBRANCH  10  11
ENDBRANCH   9  10
ENDBRANCH   8   9
ENDBRANCH   7   8
ENDBRANCH   6   7
ENDBRANCH   5   6
ENDBRANCH   4   5
ENDBRANCH   3   4
ENDBRANCH   2   3
ENDBRANCH   1   2
BRANCH   1  18
ATOM     18  C   UNL     1       4.782  31.686 -14.372  1.00  0.00     0.000 C 
BRANCH  18  19
ATOM     19  C   UNL     1       4.560  33.097 -13.792  1.00  0.00     0.000 C 
BRANCH  19  20
ATOM     20  C   UNL     1       5.691  33.539 -12.848  1.00  0.00     0.000 C 
BRANCH  20  21
ATOM     21  C   UNL     1       5.901  32.562 -11.676  1.00  0.00     0.000 C 
BRANCH  21  22
ATOM     22  C   UNL     1       5.004  32.826 -10.452  1.00  0.00     0.000 C 
BRANCH  22  23
ATOM     23  C   UNL     1       4.417  34.246 -10.439  1.00  0.00     0.000 C 
BRANCH  23  24
ATOM     24  C   UNL     1       4.643  34.920  -9.077  1.00  0.00    -0.000 C 
BRANCH  24  25
ATOM     25  C   UNL     1       5.005  33.917  -7.964  1.00  0.00    -0.000 C 
BRANCH  25  26
ATOM     26  C   UNL     1       6.422  34.076  -7.380  1.00  0.00    -0.000 C 
BRANCH  26  27
ATOM     27  C   UNL     1       7.396  34.904  -8.239  1.00  0.00    -0.000 C 
BRANCH  27  28
ATOM     28  C   UNL     1       8.292  34.054  -9.166  1.00  0.00    -0.000 C 
BRANCH  28  29
ATOM     29  C   UNL     1       8.662  34.788 -10.468  1.00  0.00    -0.000 C 
BRANCH  29  30
ATOM     30  C   UNL     1       7.783  36.023 -10.720  1.00  0.00    -0.000 C 
BRANCH  30  31
ATOM     31  C   UNL     1       7.626  36.342 -12.213  1.00  0.00    -0.003 C 
ATOM     32  C   UNL     1       8.897  36.967 -12.780  1.00  0.00     0.004 C 
ENDBRANCH  30  31
ENDBRANCH  29  30
ENDBRANCH  28  29
ENDBRANCH  27  28
ENDBRANCH  26  27
ENDBRANCH  25  26
ENDBRANCH  24  25
ENDBRANCH  23  24
ENDBRANCH  22  23
ENDBRANCH  21  22
ENDBRANCH  20  21
ENDBRANCH  19  20
ENDBRANCH  18  19
ENDBRANCH   1  18
TORSDOF 28
ENDMDL
