MODEL 1
REMARK VINA RESULT:    -6.041      0.000      0.000
REMARK INTER + INTRA:         -10.109
REMARK INTER:                  -9.220
REMARK INTRA:                  -0.889
REMARK UNBOUND:                -0.889
REMARK SMILES CC(=O)CCC=C(C)CCC=C(C)CCC=C(C)C
REMARK SMILES IDX 10 1 11 2 12 3 13 4 14 5 15 6 16 7 18 8 17 9 19 10 9 11 7 12
REMARK SMILES IDX 6 13 8 14 5 15 4 16 2 17 3 18 1 19
REMARK H PARENT
REMARK Flexibility Score: inf
ROOT
ATOM      1  C   UNL     1     -61.751 -77.485 220.256  1.00  0.00     0.032 C 
ENDROOT
BRANCH   1   2
ATOM      2  C   UNL     1     -61.351 -76.497 219.189  1.00  0.00    -0.028 C 
ATOM      3  C   UNL     1     -60.250 -76.613 218.413  1.00  0.00    -0.077 C 
ATOM      4  C   UNL     1     -59.266 -77.748 218.587  1.00  0.00     0.039 C 
BRANCH   3   5
ATOM      5  C   UNL     1     -59.981 -75.565 217.352  1.00  0.00     0.034 C 
BRANCH   5   6
ATOM      6  C   UNL     1     -58.489 -75.218 217.254  1.00  0.00     0.032 C 
BRANCH   6   7
ATOM      7  C   UNL     1     -58.248 -74.022 216.363  1.00  0.00    -0.028 C 
ATOM      8  C   UNL     1     -57.411 -75.401 214.447  1.00  0.00     0.039 C 
ATOM      9  C   UNL     1     -57.737 -74.086 215.114  1.00  0.00    -0.080 C 
ATOM     10  C   UNL     1     -57.507 -72.797 214.367  1.00  0.00     0.039 C 
ENDBRANCH   6   7
ENDBRANCH   5   6
ENDBRANCH   3   5
ENDBRANCH   1   2
BRANCH   1  11
ATOM     11  C   UNL     1     -61.519 -76.899 221.653  1.00  0.00     0.034 C 
BRANCH  11  12
ATOM     12  C   UNL     1     -62.841 -76.581 222.324  1.00  0.00    -0.077 C 
ATOM     13  C   UNL     1     -63.493 -77.466 223.111  1.00  0.00    -0.028 C 
ATOM     14  C   UNL     1     -63.486 -75.247 222.054  1.00  0.00     0.039 C 
BRANCH  13  15
ATOM     15  C   UNL     1     -62.962 -78.840 223.449  1.00  0.00     0.035 C 
BRANCH  15  16
ATOM     16  C   UNL     1     -63.467 -79.340 224.809  1.00  0.00     0.079 C 
BRANCH  16  17
ATOM     17  C   UNL     1     -62.416 -79.223 225.882  1.00  0.00     0.130 C 
ATOM     18  O   UNL     1     -62.745 -79.224 227.058  1.00  0.00    -0.300 OA
ATOM     19  C   UNL     1     -60.969 -79.068 225.516  1.00  0.00     0.087 C 
ENDBRANCH  16  17
ENDBRANCH  15  16
ENDBRANCH  13  15
ENDBRANCH  11  12
ENDBRANCH   1  11
TORSDOF 9
ENDMDL
MODEL 2
REMARK VINA RESULT:    -5.837      1.135      1.685
REMARK INTER + INTRA:          -9.797
REMARK INTER:                  -8.790
REMARK INTRA:                  -1.006
REMARK UNBOUND:                -0.889
REMARK SMILES CC(=O)CCC=C(C)CCC=C(C)CCC=C(C)C
REMARK SMILES IDX 10 1 11 2 12 3 13 4 14 5 15 6 16 7 18 8 17 9 19 10 9 11 7 12
REMARK SMILES IDX 6 13 8 14 5 15 4 16 2 17 3 18 1 19
REMARK H PARENT
REMARK Flexibility Score: inf
ROOT
ATOM      1  C   UNL     1     -61.726 -77.225 220.089  1.00  0.00     0.032 C 
ENDROOT
BRANCH   1   2
ATOM      2  C   UNL     1     -60.458 -77.139 219.278  1.00  0.00    -0.028 C 
ATOM      3  C   UNL     1     -59.508 -78.101 219.239  1.00  0.00    -0.077 C 
ATOM      4  C   UNL     1     -59.612 -79.360 220.069  1.00  0.00     0.039 C 
BRANCH   3   5
ATOM      5  C   UNL     1     -58.294 -77.902 218.354  1.00  0.00     0.034 C 
BRANCH   5   6
ATOM      6  C   UNL     1     -58.655 -77.212 217.031  1.00  0.00     0.032 C 
BRANCH   6   7
ATOM      7  C   UNL     1     -58.198 -75.772 217.008  1.00  0.00    -0.028 C 
ATOM      8  C   UNL     1     -60.499 -74.867 216.612  1.00  0.00     0.039 C 
ATOM      9  C   UNL     1     -59.007 -74.712 216.790  1.00  0.00    -0.080 C 
ATOM     10  C   UNL     1     -58.392 -73.337 216.744  1.00  0.00     0.039 C 
ENDBRANCH   6   7
ENDBRANCH   5   6
ENDBRANCH   3   5
ENDBRANCH   1   2
BRANCH   1  11
ATOM     11  C   UNL     1     -61.516 -76.639 221.490  1.00  0.00     0.034 C 
BRANCH  11  12
ATOM     12  C   UNL     1     -62.844 -76.268 222.118  1.00  0.00    -0.077 C 
ATOM     13  C   UNL     1     -63.462 -77.044 223.036  1.00  0.00    -0.028 C 
ATOM     14  C   UNL     1     -63.536 -75.012 221.656  1.00  0.00     0.039 C 
BRANCH  13  15
ATOM     15  C   UNL     1     -62.883 -78.334 223.571  1.00  0.00     0.035 C 
BRANCH  15  16
ATOM     16  C   UNL     1     -63.532 -78.755 224.897  1.00  0.00     0.079 C 
BRANCH  16  17
ATOM     17  C   UNL     1     -62.508 -79.135 225.934  1.00  0.00     0.130 C 
ATOM     18  O   UNL     1     -62.870 -79.501 227.041  1.00  0.00    -0.300 OA
ATOM     19  C   UNL     1     -61.042 -79.031 225.630  1.00  0.00     0.087 C 
ENDBRANCH  16  17
ENDBRANCH  15  16
ENDBRANCH  13  15
ENDBRANCH  11  12
ENDBRANCH   1  11
TORSDOF 9
ENDMDL
MODEL 3
REMARK VINA RESULT:    -5.798      3.318      9.292
REMARK INTER + INTRA:          -9.737
REMARK INTER:                  -8.609
REMARK INTRA:                  -1.128
REMARK UNBOUND:                -0.889
REMARK SMILES CC(=O)CCC=C(C)CCC=C(C)CCC=C(C)C
REMARK SMILES IDX 10 1 11 2 12 3 13 4 14 5 15 6 16 7 18 8 17 9 19 10 9 11 7 12
REMARK SMILES IDX 6 13 8 14 5 15 4 16 2 17 3 18 1 19
REMARK H PARENT
REMARK Flexibility Score: inf
ROOT
ATOM      1  C   UNL     1     -61.377 -76.722 220.891  1.00  0.00     0.032 C 
ENDROOT
BRANCH   1   2
ATOM      2  C   UNL     1     -62.717 -77.231 221.361  1.00  0.00    -0.028 C 
ATOM      3  C   UNL     1     -63.687 -76.452 221.891  1.00  0.00    -0.077 C 
ATOM      4  C   UNL     1     -63.490 -74.970 222.114  1.00  0.00     0.039 C 
BRANCH   3   5
ATOM      5  C   UNL     1     -65.003 -77.086 222.294  1.00  0.00     0.034 C 
BRANCH   5   6
ATOM      6  C   UNL     1     -64.812 -78.513 222.827  1.00  0.00     0.032 C 
BRANCH   6   7
ATOM      7  C   UNL     1     -64.881 -78.562 224.336  1.00  0.00    -0.028 C 
ATOM      8  C   UNL     1     -62.409 -78.847 224.612  1.00  0.00     0.039 C 
ATOM      9  C   UNL     1     -63.817 -78.742 225.148  1.00  0.00    -0.080 C 
ATOM     10  C   UNL     1     -64.054 -78.820 226.634  1.00  0.00     0.039 C 
ENDBRANCH   6   7
ENDBRANCH   5   6
ENDBRANCH   3   5
ENDBRANCH   1   2
BRANCH   1  11
ATOM     11  C   UNL     1     -61.340 -76.621 219.362  1.00  0.00     0.034 C 
BRANCH  11  12
ATOM     12  C   UNL     1     -60.084 -77.268 218.815  1.00  0.00    -0.077 C 
ATOM     13  C   UNL     1     -59.336 -76.704 217.840  1.00  0.00    -0.028 C 
ATOM     14  C   UNL     1     -59.685 -78.625 219.333  1.00  0.00     0.039 C 
BRANCH  13  15
ATOM     15  C   UNL     1     -59.635 -75.356 217.225  1.00  0.00     0.035 C 
BRANCH  15  16
ATOM     16  C   UNL     1     -58.358 -74.603 216.827  1.00  0.00     0.079 C 
BRANCH  16  17
ATOM     17  C   UNL     1     -58.228 -74.460 215.333  1.00  0.00     0.130 C 
ATOM     18  O   UNL     1     -58.643 -75.344 214.599  1.00  0.00    -0.300 OA
ATOM     19  C   UNL     1     -57.558 -73.256 214.740  1.00  0.00     0.087 C 
ENDBRANCH  16  17
ENDBRANCH  15  16
ENDBRANCH  13  15
ENDBRANCH  11  12
ENDBRANCH   1  11
TORSDOF 9
ENDMDL
MODEL 4
REMARK VINA RESULT:    -5.735      1.797      3.126
REMARK INTER + INTRA:          -9.641
REMARK INTER:                  -8.431
REMARK INTRA:                  -1.210
REMARK UNBOUND:                -0.889
REMARK SMILES CC(=O)CCC=C(C)CCC=C(C)CCC=C(C)C
REMARK SMILES IDX 10 1 11 2 12 3 13 4 14 5 15 6 16 7 18 8 17 9 19 10 9 11 7 12
REMARK SMILES IDX 6 13 8 14 5 15 4 16 2 17 3 18 1 19
REMARK H PARENT
REMARK Flexibility Score: inf
ROOT
ATOM      1  C   UNL     1     -63.431 -76.047 222.482  1.00  0.00     0.032 C 
ENDROOT
BRANCH   1   2
ATOM      2  C   UNL     1     -63.026 -75.998 221.030  1.00  0.00    -0.028 C 
ATOM      3  C   UNL     1     -61.993 -76.692 220.500  1.00  0.00    -0.077 C 
ATOM      4  C   UNL     1     -61.095 -77.562 221.351  1.00  0.00     0.039 C 
BRANCH   3   5
ATOM      5  C   UNL     1     -61.713 -76.578 219.015  1.00  0.00     0.034 C 
BRANCH   5   6
ATOM      6  C   UNL     1     -60.232 -76.825 218.691  1.00  0.00     0.032 C 
BRANCH   6   7
ATOM      7  C   UNL     1     -59.713 -75.848 217.662  1.00  0.00    -0.028 C 
ATOM      8  C   UNL     1     -57.427 -76.868 217.594  1.00  0.00     0.039 C 
ATOM      9  C   UNL     1     -58.450 -75.835 217.184  1.00  0.00    -0.080 C 
ATOM     10  C   UNL     1     -58.068 -74.762 216.197  1.00  0.00     0.039 C 
ENDBRANCH   6   7
ENDBRANCH   5   6
ENDBRANCH   3   5
ENDBRANCH   1   2
BRANCH   1  11
ATOM     11  C   UNL     1     -64.777 -76.761 222.646  1.00  0.00     0.034 C 
BRANCH  11  12
ATOM     12  C   UNL     1     -64.584 -78.264 222.669  1.00  0.00    -0.077 C 
ATOM     13  C   UNL     1     -64.000 -78.912 223.701  1.00  0.00    -0.028 C 
ATOM     14  C   UNL     1     -65.005 -79.065 221.464  1.00  0.00     0.039 C 
BRANCH  13  15
ATOM     15  C   UNL     1     -63.520 -78.225 224.960  1.00  0.00     0.035 C 
BRANCH  15  16
ATOM     16  C   UNL     1     -64.149 -78.825 226.225  1.00  0.00     0.079 C 
BRANCH  16  17
ATOM     17  C   UNL     1     -65.642 -78.625 226.265  1.00  0.00     0.130 C 
ATOM     18  O   UNL     1     -66.106 -77.498 226.188  1.00  0.00    -0.300 OA
ATOM     19  C   UNL     1     -66.562 -79.797 226.438  1.00  0.00     0.087 C 
ENDBRANCH  16  17
ENDBRANCH  15  16
ENDBRANCH  13  15
ENDBRANCH  11  12
ENDBRANCH   1  11
TORSDOF 9
ENDMDL
MODEL 5
REMARK VINA RESULT:    -5.703      2.392      3.171
REMARK INTER + INTRA:          -9.593
REMARK INTER:                  -8.546
REMARK INTRA:                  -1.047
REMARK UNBOUND:                -0.889
REMARK SMILES CC(=O)CCC=C(C)CCC=C(C)CCC=C(C)C
REMARK SMILES IDX 10 1 11 2 12 3 13 4 14 5 15 6 16 7 18 8 17 9 19 10 9 11 7 12
REMARK SMILES IDX 6 13 8 14 5 15 4 16 2 17 3 18 1 19
REMARK H PARENT
REMARK Flexibility Score: inf
ROOT
ATOM      1  C   UNL     1     -61.717 -76.971 222.023  1.00  0.00     0.032 C 
ENDROOT
BRANCH   1   2
ATOM      2  C   UNL     1     -60.888 -77.596 220.930  1.00  0.00    -0.028 C 
ATOM      3  C   UNL     1     -61.024 -77.318 219.613  1.00  0.00    -0.077 C 
ATOM      4  C   UNL     1     -62.084 -76.369 219.102  1.00  0.00     0.039 C 
BRANCH   3   5
ATOM      5  C   UNL     1     -60.101 -77.994 218.618  1.00  0.00     0.034 C 
BRANCH   5   6
ATOM      6  C   UNL     1     -58.827 -77.175 218.371  1.00  0.00     0.032 C 
BRANCH   6   7
ATOM      7  C   UNL     1     -58.487 -77.096 216.900  1.00  0.00    -0.028 C 
ATOM      8  C   UNL     1     -59.539 -74.842 216.602  1.00  0.00     0.039 C 
ATOM      9  C   UNL     1     -58.827 -76.071 216.088  1.00  0.00    -0.080 C 
ATOM     10  C   UNL     1     -58.461 -76.161 214.629  1.00  0.00     0.039 C 
ENDBRANCH   6   7
ENDBRANCH   5   6
ENDBRANCH   3   5
ENDBRANCH   1   2
BRANCH   1  11
ATOM     11  C   UNL     1     -63.138 -77.544 222.022  1.00  0.00     0.034 C 
BRANCH  11  12
ATOM     12  C   UNL     1     -64.149 -76.465 222.354  1.00  0.00    -0.077 C 
ATOM     13  C   UNL     1     -65.413 -76.742 222.747  1.00  0.00    -0.028 C 
ATOM     14  C   UNL     1     -63.751 -75.023 222.182  1.00  0.00     0.039 C 
BRANCH  13  15
ATOM     15  C   UNL     1     -65.942 -78.144 222.945  1.00  0.00     0.035 C 
BRANCH  15  16
ATOM     16  C   UNL     1     -67.253 -78.163 223.744  1.00  0.00     0.079 C 
BRANCH  16  17
ATOM     17  C   UNL     1     -67.057 -77.699 225.163  1.00  0.00     0.130 C 
ATOM     18  O   UNL     1     -67.627 -76.694 225.559  1.00  0.00    -0.300 OA
ATOM     19  C   UNL     1     -66.138 -78.443 226.087  1.00  0.00     0.087 C 
ENDBRANCH  16  17
ENDBRANCH  15  16
ENDBRANCH  13  15
ENDBRANCH  11  12
ENDBRANCH   1  11
TORSDOF 9
ENDMDL
MODEL 6
REMARK VINA RESULT:    -5.692      3.878      6.401
REMARK INTER + INTRA:          -9.576
REMARK INTER:                  -7.275
REMARK INTRA:                  -2.301
REMARK UNBOUND:                -0.889
REMARK SMILES CC(=O)CCC=C(C)CCC=C(C)CCC=C(C)C
REMARK SMILES IDX 10 1 11 2 12 3 13 4 14 5 15 6 16 7 18 8 17 9 19 10 9 11 7 12
REMARK SMILES IDX 6 13 8 14 5 15 4 16 2 17 3 18 1 19
REMARK H PARENT
REMARK Flexibility Score: inf
ROOT
ATOM      1  C   UNL     1     -60.593 -77.774 220.769  1.00  0.00     0.032 C 
ENDROOT
BRANCH   1   2
ATOM      2  C   UNL     1     -61.490 -76.708 221.345  1.00  0.00    -0.028 C 
ATOM      3  C   UNL     1     -62.579 -76.205 220.720  1.00  0.00    -0.077 C 
ATOM      4  C   UNL     1     -62.973 -76.640 219.326  1.00  0.00     0.039 C 
BRANCH   3   5
ATOM      5  C   UNL     1     -63.416 -75.158 221.426  1.00  0.00     0.034 C 
BRANCH   5   6
ATOM      6  C   UNL     1     -64.136 -75.732 222.654  1.00  0.00     0.032 C 
BRANCH   6   7
ATOM      7  C   UNL     1     -64.629 -77.139 222.408  1.00  0.00    -0.028 C 
ATOM      8  C   UNL     1     -66.911 -76.685 223.335  1.00  0.00     0.039 C 
ATOM      9  C   UNL     1     -65.860 -77.589 222.736  1.00  0.00    -0.080 C 
ATOM     10  C   UNL     1     -66.187 -79.037 222.473  1.00  0.00     0.039 C 
ENDBRANCH   6   7
ENDBRANCH   5   6
ENDBRANCH   3   5
ENDBRANCH   1   2
BRANCH   1  11
ATOM     11  C   UNL     1     -60.391 -78.915 221.771  1.00  0.00     0.034 C 
BRANCH  11  12
ATOM     12  C   UNL     1     -61.704 -79.622 222.047  1.00  0.00    -0.077 C 
ATOM     13  C   UNL     1     -62.344 -79.539 223.235  1.00  0.00    -0.028 C 
ATOM     14  C   UNL     1     -62.290 -80.502 220.975  1.00  0.00     0.039 C 
BRANCH  13  15
ATOM     15  C   UNL     1     -61.855 -78.703 224.396  1.00  0.00     0.035 C 
BRANCH  15  16
ATOM     16  C   UNL     1     -62.485 -79.134 225.727  1.00  0.00     0.079 C 
BRANCH  16  17
ATOM     17  C   UNL     1     -63.954 -78.804 225.791  1.00  0.00     0.130 C 
ATOM     18  O   UNL     1     -64.313 -77.638 225.861  1.00  0.00    -0.300 OA
ATOM     19  C   UNL     1     -64.979 -79.898 225.809  1.00  0.00     0.087 C 
ENDBRANCH  16  17
ENDBRANCH  15  16
ENDBRANCH  13  15
ENDBRANCH  11  12
ENDBRANCH   1  11
TORSDOF 9
ENDMDL
MODEL 7
REMARK VINA RESULT:    -5.648      4.602      7.351
REMARK INTER + INTRA:          -9.509
REMARK INTER:                  -7.482
REMARK INTRA:                  -2.027
REMARK UNBOUND:                -0.889
REMARK SMILES CC(=O)CCC=C(C)CCC=C(C)CCC=C(C)C
REMARK SMILES IDX 10 1 11 2 12 3 13 4 14 5 15 6 16 7 18 8 17 9 19 10 9 11 7 12
REMARK SMILES IDX 6 13 8 14 5 15 4 16 2 17 3 18 1 19
REMARK H PARENT
REMARK Flexibility Score: inf
ROOT
ATOM      1  C   UNL     1     -61.873 -76.961 221.430  1.00  0.00     0.032 C 
ENDROOT
BRANCH   1   2
ATOM      2  C   UNL     1     -61.181 -77.683 222.559  1.00  0.00    -0.028 C 
ATOM      3  C   UNL     1     -60.974 -79.019 222.599  1.00  0.00    -0.077 C 
ATOM      4  C   UNL     1     -61.479 -79.939 221.511  1.00  0.00     0.039 C 
BRANCH   3   5
ATOM      5  C   UNL     1     -60.234 -79.615 223.780  1.00  0.00     0.034 C 
BRANCH   5   6
ATOM      6  C   UNL     1     -61.181 -80.352 224.737  1.00  0.00     0.032 C 
BRANCH   6   7
ATOM      7  C   UNL     1     -62.087 -79.396 225.476  1.00  0.00    -0.028 C 
ATOM      8  C   UNL     1     -64.173 -80.273 224.404  1.00  0.00     0.039 C 
ATOM      9  C   UNL     1     -63.427 -79.328 225.315  1.00  0.00    -0.080 C 
ATOM     10  C   UNL     1     -64.190 -78.282 226.087  1.00  0.00     0.039 C 
ENDBRANCH   6   7
ENDBRANCH   5   6
ENDBRANCH   3   5
ENDBRANCH   1   2
BRANCH   1  11
ATOM     11  C   UNL     1     -63.384 -77.216 221.468  1.00  0.00     0.034 C 
BRANCH  11  12
ATOM     12  C   UNL     1     -64.094 -76.109 222.220  1.00  0.00    -0.077 C 
ATOM     13  C   UNL     1     -65.276 -76.293 222.850  1.00  0.00    -0.028 C 
ATOM     14  C   UNL     1     -63.490 -74.729 222.216  1.00  0.00     0.039 C 
BRANCH  13  15
ATOM     15  C   UNL     1     -65.993 -77.622 222.917  1.00  0.00     0.035 C 
BRANCH  15  16
ATOM     16  C   UNL     1     -67.454 -77.472 223.363  1.00  0.00     0.079 C 
BRANCH  16  17
ATOM     17  C   UNL     1     -67.611 -77.626 224.853  1.00  0.00     0.130 C 
ATOM     18  O   UNL     1     -67.649 -76.634 225.566  1.00  0.00    -0.300 OA
ATOM     19  C   UNL     1     -67.683 -78.989 225.474  1.00  0.00     0.087 C 
ENDBRANCH  16  17
ENDBRANCH  15  16
ENDBRANCH  13  15
ENDBRANCH  11  12
ENDBRANCH   1  11
TORSDOF 9
ENDMDL
MODEL 8
REMARK VINA RESULT:    -5.635      9.559     10.934
REMARK INTER + INTRA:          -9.489
REMARK INTER:                  -7.600
REMARK INTRA:                  -1.889
REMARK UNBOUND:                -0.889
REMARK SMILES CC(=O)CCC=C(C)CCC=C(C)CCC=C(C)C
REMARK SMILES IDX 10 1 11 2 12 3 13 4 14 5 15 6 16 7 18 8 17 9 19 10 9 11 7 12
REMARK SMILES IDX 6 13 8 14 5 15 4 16 2 17 3 18 1 19
REMARK H PARENT
REMARK Flexibility Score: inf
ROOT
ATOM      1  C   UNL     1     -69.786 -74.802 216.152  1.00  0.00     0.032 C 
ENDROOT
BRANCH   1   2
ATOM      2  C   UNL     1     -68.775 -75.917 216.059  1.00  0.00    -0.028 C 
ATOM      3  C   UNL     1     -67.455 -75.736 215.827  1.00  0.00    -0.077 C 
ATOM      4  C   UNL     1     -66.868 -74.364 215.579  1.00  0.00     0.039 C 
BRANCH   3   5
ATOM      5  C   UNL     1     -66.540 -76.943 215.791  1.00  0.00     0.034 C 
BRANCH   5   6
ATOM      6  C   UNL     1     -66.906 -77.906 214.653  1.00  0.00     0.032 C 
BRANCH   6   7
ATOM      7  C   UNL     1     -66.612 -77.309 213.296  1.00  0.00    -0.028 C 
ATOM      8  C   UNL     1     -69.016 -77.274 212.599  1.00  0.00     0.039 C 
ATOM      9  C   UNL     1     -67.544 -77.049 212.354  1.00  0.00    -0.080 C 
ATOM     10  C   UNL     1     -67.087 -76.499 211.026  1.00  0.00     0.039 C 
ENDBRANCH   6   7
ENDBRANCH   5   6
ENDBRANCH   3   5
ENDBRANCH   1   2
BRANCH   1  11
ATOM     11  C   UNL     1     -70.707 -74.802 214.928  1.00  0.00     0.034 C 
BRANCH  11  12
ATOM     12  C   UNL     1     -71.895 -73.887 215.154  1.00  0.00    -0.077 C 
ATOM     13  C   UNL     1     -73.064 -74.322 215.675  1.00  0.00    -0.028 C 
ATOM     14  C   UNL     1     -71.791 -72.447 214.725  1.00  0.00     0.039 C 
BRANCH  13  15
ATOM     15  C   UNL     1     -73.304 -75.743 216.131  1.00  0.00     0.035 C 
BRANCH  15  16
ATOM     16  C   UNL     1     -73.499 -75.840 217.650  1.00  0.00     0.079 C 
BRANCH  16  17
ATOM     17  C   UNL     1     -72.227 -76.224 218.361  1.00  0.00     0.130 C 
ATOM     18  O   UNL     1     -71.734 -77.325 218.172  1.00  0.00    -0.300 OA
ATOM     19  C   UNL     1     -71.582 -75.278 219.330  1.00  0.00     0.087 C 
ENDBRANCH  16  17
ENDBRANCH  15  16
ENDBRANCH  13  15
ENDBRANCH  11  12
ENDBRANCH   1  11
TORSDOF 9
ENDMDL
MODEL 9
REMARK VINA RESULT:    -5.545      4.001      5.978
REMARK INTER + INTRA:          -9.351
REMARK INTER:                  -7.532
REMARK INTRA:                  -1.820
REMARK UNBOUND:                -0.889
REMARK SMILES CC(=O)CCC=C(C)CCC=C(C)CCC=C(C)C
REMARK SMILES IDX 10 1 11 2 12 3 13 4 14 5 15 6 16 7 18 8 17 9 19 10 9 11 7 12
REMARK SMILES IDX 6 13 8 14 5 15 4 16 2 17 3 18 1 19
REMARK H PARENT
REMARK Flexibility Score: inf
ROOT
ATOM      1  C   UNL     1     -62.115 -79.044 224.697  1.00  0.00     0.032 C 
ENDROOT
BRANCH   1   2
ATOM      2  C   UNL     1     -61.180 -78.648 223.582  1.00  0.00    -0.028 C 
ATOM      3  C   UNL     1     -61.224 -79.157 222.330  1.00  0.00    -0.077 C 
ATOM      4  C   UNL     1     -62.209 -80.235 221.940  1.00  0.00     0.039 C 
BRANCH   3   5
ATOM      5  C   UNL     1     -60.245 -78.647 221.292  1.00  0.00     0.034 C 
BRANCH   5   6
ATOM      6  C   UNL     1     -60.881 -77.597 220.370  1.00  0.00     0.032 C 
BRANCH   6   7
ATOM      7  C   UNL     1     -61.579 -76.511 221.155  1.00  0.00    -0.028 C 
ATOM      8  C   UNL     1     -63.871 -77.242 220.460  1.00  0.00     0.039 C 
ATOM      9  C   UNL     1     -62.917 -76.321 221.181  1.00  0.00    -0.080 C 
ATOM     10  C   UNL     1     -63.460 -75.159 221.972  1.00  0.00     0.039 C 
ENDBRANCH   6   7
ENDBRANCH   5   6
ENDBRANCH   3   5
ENDBRANCH   1   2
BRANCH   1  11
ATOM     11  C   UNL     1     -63.357 -78.146 224.709  1.00  0.00     0.034 C 
BRANCH  11  12
ATOM     12  C   UNL     1     -64.546 -78.888 225.287  1.00  0.00    -0.077 C 
ATOM     13  C   UNL     1     -65.721 -79.009 224.631  1.00  0.00    -0.028 C 
ATOM     14  C   UNL     1     -64.435 -79.461 226.675  1.00  0.00     0.039 C 
BRANCH  13  15
ATOM     15  C   UNL     1     -65.967 -78.467 223.241  1.00  0.00     0.035 C 
BRANCH  15  16
ATOM     16  C   UNL     1     -66.731 -77.136 223.264  1.00  0.00     0.079 C 
BRANCH  16  17
ATOM     17  C   UNL     1     -67.835 -77.133 224.288  1.00  0.00     0.130 C 
ATOM     18  O   UNL     1     -67.677 -76.554 225.352  1.00  0.00    -0.300 OA
ATOM     19  C   UNL     1     -69.116 -77.869 224.027  1.00  0.00     0.087 C 
ENDBRANCH  16  17
ENDBRANCH  15  16
ENDBRANCH  13  15
ENDBRANCH  11  12
ENDBRANCH   1  11
TORSDOF 9
ENDMDL
