MODEL 1
REMARK VINA RESULT:    -4.323      0.000      0.000
REMARK INTER + INTRA:          -4.896
REMARK INTER:                  -4.702
REMARK INTRA:                  -0.194
REMARK UNBOUND:                -0.194
REMARK SMILES C=C(C)[C@H]1CC[C@H](C)C[C@H]1O
REMARK SMILES IDX 8 1 7 2 6 3 5 4 4 5 10 6 9 7 11 8 2 10 1 11 3 12
REMARK H PARENT 11 9
REMARK Flexibility Score: inf
ROOT
ATOM      1  C   UNL     1      44.747   9.725 119.445  1.00  0.00     0.008 C 
ATOM      2  C   UNL     1      44.896   8.710 118.307  1.00  0.00    -0.012 C 
ATOM      3  C   UNL     1      43.650   8.730 117.400  1.00  0.00     0.004 C 
ATOM      4  C   UNL     1      43.795   7.739 116.237  1.00  0.00     0.011 C 
ATOM      5  C   UNL     1      45.071   8.037 115.422  1.00  0.00     0.043 C 
ATOM      6  C   UNL     1      46.332   8.009 116.319  1.00  0.00     0.121 C 
ATOM      7  C   UNL     1      46.172   8.999 117.489  1.00  0.00     0.035 C 
ENDROOT
BRANCH   6   8
ATOM      8  O   UNL     1      46.559   6.714 116.816  1.00  0.00    -0.392 OA
ATOM      9  H   UNL     1      46.360   6.083 116.075  1.00  0.00     0.210 HD
ENDBRANCH   6   8
BRANCH   5  10
ATOM     10  C   UNL     1      45.207   7.122 114.207  1.00  0.00    -0.075 C 
ATOM     11  C   UNL     1      44.342   6.119 113.976  1.00  0.00     0.008 C 
ATOM     12  C   UNL     1      46.329   7.338 113.225  1.00  0.00     0.039 C 
ENDBRANCH   5  10
TORSDOF 2
ENDMDL
MODEL 2
REMARK VINA RESULT:    -4.296      8.562      9.827
REMARK INTER + INTRA:          -4.866
REMARK INTER:                  -4.683
REMARK INTRA:                  -0.183
REMARK UNBOUND:                -0.194
REMARK SMILES C=C(C)[C@H]1CC[C@H](C)C[C@H]1O
REMARK SMILES IDX 8 1 7 2 6 3 5 4 4 5 10 6 9 7 11 8 2 10 1 11 3 12
REMARK H PARENT 11 9
REMARK Flexibility Score: inf
ROOT
ATOM      1  C   UNL     1      41.415  11.989 111.753  1.00  0.00     0.008 C 
ATOM      2  C   UNL     1      41.007  13.077 112.753  1.00  0.00    -0.012 C 
ATOM      3  C   UNL     1      42.252  13.683 113.428  1.00  0.00     0.004 C 
ATOM      4  C   UNL     1      41.863  14.795 114.413  1.00  0.00     0.011 C 
ATOM      5  C   UNL     1      41.037  15.888 113.703  1.00  0.00     0.043 C 
ATOM      6  C   UNL     1      39.777  15.294 113.029  1.00  0.00     0.121 C 
ATOM      7  C   UNL     1      40.178  14.172 112.051  1.00  0.00     0.035 C 
ENDROOT
BRANCH   6   8
ATOM      8  O   UNL     1      38.888  14.791 113.994  1.00  0.00    -0.392 OA
ATOM      9  H   UNL     1      39.019  13.807 114.020  1.00  0.00     0.210 HD
ENDBRANCH   6   8
BRANCH   5  10
ATOM     10  C   UNL     1      40.700  17.052 114.632  1.00  0.00    -0.075 C 
ATOM     11  C   UNL     1      40.014  18.125 114.201  1.00  0.00     0.008 C 
ATOM     12  C   UNL     1      41.133  17.012 116.074  1.00  0.00     0.039 C 
ENDBRANCH   5  10
TORSDOF 2
ENDMDL
MODEL 3
REMARK VINA RESULT:    -4.284      1.940      3.865
REMARK INTER + INTRA:          -4.853
REMARK INTER:                  -4.668
REMARK INTRA:                  -0.185
REMARK UNBOUND:                -0.194
REMARK SMILES C=C(C)[C@H]1CC[C@H](C)C[C@H]1O
REMARK SMILES IDX 8 1 7 2 6 3 5 4 4 5 10 6 9 7 11 8 2 10 1 11 3 12
REMARK H PARENT 11 9
REMARK Flexibility Score: inf
ROOT
ATOM      1  C   UNL     1      42.038   6.319 114.183  1.00  0.00     0.008 C 
ATOM      2  C   UNL     1      43.292   7.173 114.399  1.00  0.00    -0.012 C 
ATOM      3  C   UNL     1      43.369   7.657 115.860  1.00  0.00     0.004 C 
ATOM      4  C   UNL     1      44.634   8.491 116.102  1.00  0.00     0.011 C 
ATOM      5  C   UNL     1      45.898   7.690 115.722  1.00  0.00     0.043 C 
ATOM      6  C   UNL     1      45.838   7.208 114.253  1.00  0.00     0.121 C 
ATOM      7  C   UNL     1      44.559   6.380 114.019  1.00  0.00     0.035 C 
ENDROOT
BRANCH   6   8
ATOM      8  O   UNL     1      45.869   8.300 113.369  1.00  0.00    -0.392 OA
ATOM      9  H   UNL     1      46.284   7.976 112.528  1.00  0.00     0.210 HD
ENDBRANCH   6   8
BRANCH   5  10
ATOM     10  C   UNL     1      47.182   8.458 116.025  1.00  0.00    -0.075 C 
ATOM     11  C   UNL     1      48.395   7.921 115.810  1.00  0.00     0.008 C 
ATOM     12  C   UNL     1      47.108   9.859 116.575  1.00  0.00     0.039 C 
ENDBRANCH   5  10
TORSDOF 2
ENDMDL
MODEL 4
REMARK VINA RESULT:    -4.247      3.007      6.200
REMARK INTER + INTRA:          -4.814
REMARK INTER:                  -4.642
REMARK INTRA:                  -0.172
REMARK UNBOUND:                -0.194
REMARK SMILES C=C(C)[C@H]1CC[C@H](C)C[C@H]1O
REMARK SMILES IDX 8 1 7 2 6 3 5 4 4 5 10 6 9 7 11 8 2 10 1 11 3 12
REMARK H PARENT 11 9
REMARK Flexibility Score: inf
ROOT
ATOM      1  C   UNL     1      45.226   7.925 117.571  1.00  0.00     0.008 C 
ATOM      2  C   UNL     1      44.874   9.201 118.343  1.00  0.00    -0.012 C 
ATOM      3  C   UNL     1      43.362   9.485 118.252  1.00  0.00     0.004 C 
ATOM      4  C   UNL     1      42.986  10.745 119.045  1.00  0.00     0.011 C 
ATOM      5  C   UNL     1      43.432  10.616 120.517  1.00  0.00     0.043 C 
ATOM      6  C   UNL     1      44.952  10.341 120.623  1.00  0.00     0.121 C 
ATOM      7  C   UNL     1      45.319   9.081 119.815  1.00  0.00     0.035 C 
ENDROOT
BRANCH   6   8
ATOM      8  O   UNL     1      45.690  11.442 120.155  1.00  0.00    -0.392 OA
ATOM      9  H   UNL     1      45.638  11.421 119.164  1.00  0.00     0.210 HD
ENDBRANCH   6   8
BRANCH   5  10
ATOM     10  C   UNL     1      43.004  11.817 121.357  1.00  0.00    -0.075 C 
ATOM     11  C   UNL     1      42.196  12.773 120.865  1.00  0.00     0.008 C 
ATOM     12  C   UNL     1      43.481  11.948 122.780  1.00  0.00     0.039 C 
ENDBRANCH   5  10
TORSDOF 2
ENDMDL
MODEL 5
REMARK VINA RESULT:    -4.232      6.635      8.941
REMARK INTER + INTRA:          -4.797
REMARK INTER:                  -4.638
REMARK INTRA:                  -0.159
REMARK UNBOUND:                -0.194
REMARK SMILES C=C(C)[C@H]1CC[C@H](C)C[C@H]1O
REMARK SMILES IDX 8 1 7 2 6 3 5 4 4 5 10 6 9 7 11 8 2 10 1 11 3 12
REMARK H PARENT 11 9
REMARK Flexibility Score: inf
ROOT
ATOM      1  C   UNL     1      42.300   4.592 113.163  1.00  0.00     0.008 C 
ATOM      2  C   UNL     1      42.275   3.170 112.593  1.00  0.00    -0.012 C 
ATOM      3  C   UNL     1      43.416   2.328 113.196  1.00  0.00     0.004 C 
ATOM      4  C   UNL     1      43.388   0.890 112.657  1.00  0.00     0.011 C 
ATOM      5  C   UNL     1      42.019   0.232 112.928  1.00  0.00     0.043 C 
ATOM      6  C   UNL     1      40.864   1.063 112.318  1.00  0.00     0.121 C 
ATOM      7  C   UNL     1      40.908   2.506 112.857  1.00  0.00     0.035 C 
ENDROOT
BRANCH   6   8
ATOM      8  O   UNL     1      40.947   1.074 110.915  1.00  0.00    -0.392 OA
ATOM      9  H   UNL     1      40.805   2.014 110.627  1.00  0.00     0.210 HD
ENDBRANCH   6   8
BRANCH   5  10
ATOM     10  C   UNL     1      41.980  -1.226 112.478  1.00  0.00    -0.075 C 
ATOM     11  C   UNL     1      40.852  -1.956 112.539  1.00  0.00     0.008 C 
ATOM     12  C   UNL     1      43.226  -1.881 111.942  1.00  0.00     0.039 C 
ENDBRANCH   5  10
TORSDOF 2
ENDMDL
MODEL 6
REMARK VINA RESULT:    -4.207      2.958      6.238
REMARK INTER + INTRA:          -4.770
REMARK INTER:                  -4.583
REMARK INTRA:                  -0.188
REMARK UNBOUND:                -0.194
REMARK SMILES C=C(C)[C@H]1CC[C@H](C)C[C@H]1O
REMARK SMILES IDX 8 1 7 2 6 3 5 4 4 5 10 6 9 7 11 8 2 10 1 11 3 12
REMARK H PARENT 11 9
REMARK Flexibility Score: inf
ROOT
ATOM      1  C   UNL     1      45.231   7.760 117.398  1.00  0.00     0.008 C 
ATOM      2  C   UNL     1      44.504   8.443 118.562  1.00  0.00    -0.012 C 
ATOM      3  C   UNL     1      45.515   9.143 119.491  1.00  0.00     0.004 C 
ATOM      4  C   UNL     1      44.801   9.858 120.648  1.00  0.00     0.011 C 
ATOM      5  C   UNL     1      43.762  10.863 120.110  1.00  0.00     0.043 C 
ATOM      6  C   UNL     1      42.734  10.170 119.184  1.00  0.00     0.121 C 
ATOM      7  C   UNL     1      43.461   9.448 118.033  1.00  0.00     0.035 C 
ENDROOT
BRANCH   6   8
ATOM      8  O   UNL     1      41.953   9.252 119.907  1.00  0.00    -0.392 OA
ATOM      9  H   UNL     1      42.328   9.217 120.825  1.00  0.00     0.210 HD
ENDBRANCH   6   8
BRANCH   5  10
ATOM     10  C   UNL     1      43.088  11.653 121.230  1.00  0.00    -0.075 C 
ATOM     11  C   UNL     1      42.199  12.628 120.973  1.00  0.00     0.008 C 
ATOM     12  C   UNL     1      43.410  11.340 122.668  1.00  0.00     0.039 C 
ENDBRANCH   5  10
TORSDOF 2
ENDMDL
MODEL 7
REMARK VINA RESULT:    -4.196      3.159      4.897
REMARK INTER + INTRA:          -4.758
REMARK INTER:                  -4.571
REMARK INTRA:                  -0.188
REMARK UNBOUND:                -0.194
REMARK SMILES C=C(C)[C@H]1CC[C@H](C)C[C@H]1O
REMARK SMILES IDX 8 1 7 2 6 3 5 4 4 5 10 6 9 7 11 8 2 10 1 11 3 12
REMARK H PARENT 11 9
REMARK Flexibility Score: inf
ROOT
ATOM      1  C   UNL     1      46.188   8.718 115.436  1.00  0.00     0.008 C 
ATOM      2  C   UNL     1      47.061   7.682 114.719  1.00  0.00    -0.012 C 
ATOM      3  C   UNL     1      46.636   7.549 113.243  1.00  0.00     0.004 C 
ATOM      4  C   UNL     1      47.519   6.537 112.502  1.00  0.00     0.011 C 
ATOM      5  C   UNL     1      49.008   6.927 112.611  1.00  0.00     0.043 C 
ATOM      6  C   UNL     1      49.451   7.054 114.089  1.00  0.00     0.121 C 
ATOM      7  C   UNL     1      48.551   8.065 114.826  1.00  0.00     0.035 C 
ENDROOT
BRANCH   6   8
ATOM      8  O   UNL     1      49.395   5.806 114.733  1.00  0.00    -0.392 OA
ATOM      9  H   UNL     1      50.175   5.765 115.346  1.00  0.00     0.210 HD
ENDBRANCH   6   8
BRANCH   5  10
ATOM     10  C   UNL     1      49.912   5.988 111.817  1.00  0.00    -0.075 C 
ATOM     11  C   UNL     1      51.172   6.325 111.491  1.00  0.00     0.008 C 
ATOM     12  C   UNL     1      49.399   4.639 111.384  1.00  0.00     0.039 C 
ENDBRANCH   5  10
TORSDOF 2
ENDMDL
MODEL 8
REMARK VINA RESULT:    -4.178      6.626      9.167
REMARK INTER + INTRA:          -4.738
REMARK INTER:                  -4.590
REMARK INTRA:                  -0.149
REMARK UNBOUND:                -0.194
REMARK SMILES C=C(C)[C@H]1CC[C@H](C)C[C@H]1O
REMARK SMILES IDX 8 1 7 2 6 3 5 4 4 5 10 6 9 7 11 8 2 10 1 11 3 12
REMARK H PARENT 11 9
REMARK Flexibility Score: inf
ROOT
ATOM      1  C   UNL     1      43.745  -2.087 112.262  1.00  0.00     0.008 C 
ATOM      2  C   UNL     1      42.947  -0.794 112.065  1.00  0.00    -0.012 C 
ATOM      3  C   UNL     1      41.580  -0.892 112.772  1.00  0.00     0.004 C 
ATOM      4  C   UNL     1      40.778   0.406 112.609  1.00  0.00     0.011 C 
ATOM      5  C   UNL     1      41.582   1.614 113.135  1.00  0.00     0.043 C 
ATOM      6  C   UNL     1      42.953   1.731 112.426  1.00  0.00     0.121 C 
ATOM      7  C   UNL     1      43.745   0.419 112.587  1.00  0.00     0.035 C 
ENDROOT
BRANCH   6   8
ATOM      8  O   UNL     1      42.783   2.023 111.062  1.00  0.00    -0.392 OA
ATOM      9  H   UNL     1      43.624   1.757 110.605  1.00  0.00     0.210 HD
ENDBRANCH   6   8
BRANCH   5  10
ATOM     10  C   UNL     1      40.784   2.914 113.065  1.00  0.00    -0.075 C 
ATOM     11  C   UNL     1      39.465   2.922 112.807  1.00  0.00     0.008 C 
ATOM     12  C   UNL     1      41.474   4.233 113.295  1.00  0.00     0.039 C 
ENDBRANCH   5  10
TORSDOF 2
ENDMDL
MODEL 9
REMARK VINA RESULT:    -4.158      1.398      4.260
REMARK INTER + INTRA:          -4.717
REMARK INTER:                  -4.530
REMARK INTRA:                  -0.187
REMARK UNBOUND:                -0.194
REMARK SMILES C=C(C)[C@H]1CC[C@H](C)C[C@H]1O
REMARK SMILES IDX 8 1 7 2 6 3 5 4 4 5 10 6 9 7 11 8 2 10 1 11 3 12
REMARK H PARENT 11 9
REMARK Flexibility Score: inf
ROOT
ATOM      1  C   UNL     1      46.104   7.256 113.598  1.00  0.00     0.008 C 
ATOM      2  C   UNL     1      45.558   7.997 114.823  1.00  0.00    -0.012 C 
ATOM      3  C   UNL     1      44.293   7.297 115.357  1.00  0.00     0.004 C 
ATOM      4  C   UNL     1      43.748   8.009 116.602  1.00  0.00     0.011 C 
ATOM      5  C   UNL     1      44.831   8.096 117.699  1.00  0.00     0.043 C 
ATOM      6  C   UNL     1      46.103   8.807 117.180  1.00  0.00     0.121 C 
ATOM      7  C   UNL     1      46.636   8.089 115.923  1.00  0.00     0.035 C 
ENDROOT
BRANCH   6   8
ATOM      8  O   UNL     1      45.834  10.154 116.883  1.00  0.00    -0.392 OA
ATOM      9  H   UNL     1      46.303  10.697 117.569  1.00  0.00     0.210 HD
ENDBRANCH   6   8
BRANCH   5  10
ATOM     10  C   UNL     1      44.302   8.726 118.985  1.00  0.00    -0.075 C 
ATOM     11  C   UNL     1      43.014   9.087 119.118  1.00  0.00     0.008 C 
ATOM     12  C   UNL     1      45.231   8.953 120.149  1.00  0.00     0.039 C 
ENDBRANCH   5  10
TORSDOF 2
ENDMDL
