MODEL 1
REMARK VINA RESULT:    -2.915      0.000      0.000
REMARK INTER + INTRA:          -3.904
REMARK INTER:                  -3.596
REMARK INTRA:                  -0.307
REMARK UNBOUND:                -0.307
REMARK SMILES CCCCCC(C)=O
REMARK SMILES IDX 4 1 3 2 2 3 1 4 5 5 6 6 8 7 7 8
REMARK H PARENT
REMARK Flexibility Score: inf
ROOT
ATOM      1  C   UNL     1      12.498  -4.881  -0.743  1.00  0.00     0.008 C 
ENDROOT
BRANCH   1   2
ATOM      2  C   UNL     1      13.740  -4.533   0.085  1.00  0.00     0.000 C 
BRANCH   2   3
ATOM      3  C   UNL     1      14.849  -5.571  -0.125  1.00  0.00    -0.003 C 
ATOM      4  C   UNL     1      15.488  -5.423  -1.503  1.00  0.00     0.004 C 
ENDBRANCH   2   3
ENDBRANCH   1   2
BRANCH   1   5
ATOM      5  C   UNL     1      12.113  -3.725  -1.673  1.00  0.00     0.075 C 
BRANCH   5   6
ATOM      6  C   UNL     1      12.407  -4.075  -3.109  1.00  0.00     0.129 C 
ATOM      7  O   UNL     1      12.881  -3.226  -3.849  1.00  0.00    -0.300 OA
ATOM      8  C   UNL     1      12.120  -5.442  -3.655  1.00  0.00     0.087 C 
ENDBRANCH   5   6
ENDBRANCH   1   5
TORSDOF 4
ENDMDL
MODEL 2
REMARK VINA RESULT:    -2.880      1.842      3.594
REMARK INTER + INTRA:          -3.861
REMARK INTER:                  -3.571
REMARK INTRA:                  -0.290
REMARK UNBOUND:                -0.307
REMARK SMILES CCCCCC(C)=O
REMARK SMILES IDX 4 1 3 2 2 3 1 4 5 5 6 6 8 7 7 8
REMARK H PARENT
REMARK Flexibility Score: inf
ROOT
ATOM      1  C   UNL     1      11.421  -4.982  -1.097  1.00  0.00     0.008 C 
ENDROOT
BRANCH   1   2
ATOM      2  C   UNL     1       9.993  -4.540  -1.442  1.00  0.00     0.000 C 
BRANCH   2   3
ATOM      3  C   UNL     1       9.672  -4.820  -2.914  1.00  0.00    -0.003 C 
ATOM      4  C   UNL     1       9.499  -3.521  -3.696  1.00  0.00     0.004 C 
ENDBRANCH   2   3
ENDBRANCH   1   2
BRANCH   1   5
ATOM      5  C   UNL     1      12.422  -3.847  -1.340  1.00  0.00     0.075 C 
BRANCH   5   6
ATOM      6  C   UNL     1      13.207  -4.091  -2.603  1.00  0.00     0.129 C 
ATOM      7  O   UNL     1      13.075  -3.329  -3.549  1.00  0.00    -0.300 OA
ATOM      8  C   UNL     1      14.142  -5.257  -2.730  1.00  0.00     0.087 C 
ENDBRANCH   5   6
ENDBRANCH   1   5
TORSDOF 4
ENDMDL
MODEL 3
REMARK VINA RESULT:    -2.743      1.975      4.239
REMARK INTER + INTRA:          -3.692
REMARK INTER:                  -3.332
REMARK INTRA:                  -0.359
REMARK UNBOUND:                -0.307
REMARK SMILES CCCCCC(C)=O
REMARK SMILES IDX 4 1 3 2 2 3 1 4 5 5 6 6 8 7 7 8
REMARK H PARENT
REMARK Flexibility Score: inf
ROOT
ATOM      1  C   UNL     1      10.763  -5.368  -3.962  1.00  0.00     0.008 C 
ENDROOT
BRANCH   1   2
ATOM      2  C   UNL     1       9.821  -5.535  -2.764  1.00  0.00     0.000 C 
BRANCH   2   3
ATOM      3  C   UNL     1       9.051  -4.238  -2.487  1.00  0.00    -0.003 C 
ATOM      4  C   UNL     1       9.055  -3.324  -3.708  1.00  0.00     0.004 C 
ENDBRANCH   2   3
ENDBRANCH   1   2
BRANCH   1   5
ATOM      5  C   UNL     1      12.230  -5.414  -3.520  1.00  0.00     0.075 C 
BRANCH   5   6
ATOM      6  C   UNL     1      12.704  -4.047  -3.101  1.00  0.00     0.129 C 
ATOM      7  O   UNL     1      12.976  -3.218  -3.957  1.00  0.00    -0.300 OA
ATOM      8  C   UNL     1      12.862  -3.683  -1.655  1.00  0.00     0.087 C 
ENDBRANCH   5   6
ENDBRANCH   1   5
TORSDOF 4
ENDMDL
MODEL 4
REMARK VINA RESULT:    -2.736     10.763     12.479
REMARK INTER + INTRA:          -3.683
REMARK INTER:                  -3.429
REMARK INTRA:                  -0.255
REMARK UNBOUND:                -0.307
REMARK SMILES CCCCCC(C)=O
REMARK SMILES IDX 4 1 3 2 2 3 1 4 5 5 6 6 8 7 7 8
REMARK H PARENT
REMARK Flexibility Score: inf
ROOT
ATOM      1  C   UNL     1       9.010   5.201  -8.840  1.00  0.00     0.008 C 
ENDROOT
BRANCH   1   2
ATOM      2  C   UNL     1      10.135   5.948  -9.567  1.00  0.00     0.000 C 
BRANCH   2   3
ATOM      3  C   UNL     1      10.403   7.309  -8.914  1.00  0.00    -0.003 C 
ATOM      4  C   UNL     1       9.670   7.434  -7.581  1.00  0.00     0.004 C 
ENDBRANCH   2   3
ENDBRANCH   1   2
BRANCH   1   5
ATOM      5  C   UNL     1       9.020   3.710  -9.193  1.00  0.00     0.075 C 
BRANCH   5   6
ATOM      6  C   UNL     1       9.414   2.882  -7.998  1.00  0.00     0.129 C 
ATOM      7  O   UNL     1       9.390   1.662  -8.078  1.00  0.00    -0.300 OA
ATOM      8  C   UNL     1       9.825   3.520  -6.705  1.00  0.00     0.087 C 
ENDBRANCH   5   6
ENDBRANCH   1   5
TORSDOF 4
ENDMDL
MODEL 5
REMARK VINA RESULT:    -2.493     16.322     17.085
REMARK INTER + INTRA:          -3.383
REMARK INTER:                  -3.235
REMARK INTRA:                  -0.147
REMARK UNBOUND:                -0.307
REMARK SMILES CCCCCC(C)=O
REMARK SMILES IDX 4 1 3 2 2 3 1 4 5 5 6 6 8 7 7 8
REMARK H PARENT
REMARK Flexibility Score: inf
ROOT
ATOM      1  C   UNL     1      17.751  10.205  -1.115  1.00  0.00     0.008 C 
ENDROOT
BRANCH   1   2
ATOM      2  C   UNL     1      17.421  10.093  -2.609  1.00  0.00     0.000 C 
BRANCH   2   3
ATOM      3  C   UNL     1      18.332  11.001  -3.443  1.00  0.00    -0.003 C 
ATOM      4  C   UNL     1      17.591  11.562  -4.652  1.00  0.00     0.004 C 
ENDBRANCH   2   3
ENDBRANCH   1   2
BRANCH   1   5
ATOM      5  C   UNL     1      18.712  11.370  -0.850  1.00  0.00     0.075 C 
BRANCH   5   6
ATOM      6  C   UNL     1      18.689  11.759   0.606  1.00  0.00     0.129 C 
ATOM      7  O   UNL     1      19.264  11.057   1.424  1.00  0.00    -0.300 OA
ATOM      8  C   UNL     1      17.963  12.983   1.077  1.00  0.00     0.087 C 
ENDBRANCH   5   6
ENDBRANCH   1   5
TORSDOF 4
ENDMDL
MODEL 6
REMARK VINA RESULT:    -2.418     10.370     12.174
REMARK INTER + INTRA:          -3.291
REMARK INTER:                  -2.948
REMARK INTRA:                  -0.343
REMARK UNBOUND:                -0.307
REMARK SMILES CCCCCC(C)=O
REMARK SMILES IDX 4 1 3 2 2 3 1 4 5 5 6 6 8 7 7 8
REMARK H PARENT
REMARK Flexibility Score: inf
ROOT
ATOM      1  C   UNL     1       8.814   5.217  -8.633  1.00  0.00     0.008 C 
ENDROOT
BRANCH   1   2
ATOM      2  C   UNL     1       7.324   5.486  -8.384  1.00  0.00     0.000 C 
BRANCH   2   3
ATOM      3  C   UNL     1       7.080   5.921  -6.934  1.00  0.00    -0.003 C 
ATOM      4  C   UNL     1       6.508   4.774  -6.105  1.00  0.00     0.004 C 
ENDBRANCH   2   3
ENDBRANCH   1   2
BRANCH   1   5
ATOM      5  C   UNL     1       9.040   3.784  -9.126  1.00  0.00     0.075 C 
BRANCH   5   6
ATOM      6  C   UNL     1       9.441   2.885  -7.985  1.00  0.00     0.129 C 
ATOM      7  O   UNL     1       9.344   1.673  -8.112  1.00  0.00    -0.300 OA
ATOM      8  C   UNL     1       9.947   3.444  -6.689  1.00  0.00     0.087 C 
ENDBRANCH   5   6
ENDBRANCH   1   5
TORSDOF 4
ENDMDL
MODEL 7
REMARK VINA RESULT:    -2.418     10.580     11.935
REMARK INTER + INTRA:          -3.290
REMARK INTER:                  -3.185
REMARK INTRA:                  -0.105
REMARK UNBOUND:                -0.307
REMARK SMILES CCCCCC(C)=O
REMARK SMILES IDX 4 1 3 2 2 3 1 4 5 5 6 6 8 7 7 8
REMARK H PARENT
REMARK Flexibility Score: inf
ROOT
ATOM      1  C   UNL     1      16.367   1.828   7.973  1.00  0.00     0.008 C 
ENDROOT
BRANCH   1   2
ATOM      2  C   UNL     1      17.392   2.713   8.693  1.00  0.00     0.000 C 
BRANCH   2   3
ATOM      3  C   UNL     1      18.028   3.716   7.725  1.00  0.00    -0.003 C 
ATOM      4  C   UNL     1      19.526   3.463   7.576  1.00  0.00     0.004 C 
ENDBRANCH   2   3
ENDBRANCH   1   2
BRANCH   1   5
ATOM      5  C   UNL     1      16.886   0.393   7.825  1.00  0.00     0.075 C 
BRANCH   5   6
ATOM      6  C   UNL     1      15.872  -0.471   7.122  1.00  0.00     0.129 C 
ATOM      7  O   UNL     1      15.619  -0.262   5.944  1.00  0.00    -0.300 OA
ATOM      8  C   UNL     1      15.154  -1.576   7.837  1.00  0.00     0.087 C 
ENDBRANCH   5   6
ENDBRANCH   1   5
TORSDOF 4
ENDMDL
MODEL 8
REMARK VINA RESULT:    -2.317      2.864      3.613
REMARK INTER + INTRA:          -3.166
REMARK INTER:                  -2.822
REMARK INTRA:                  -0.344
REMARK UNBOUND:                -0.307
REMARK SMILES CCCCCC(C)=O
REMARK SMILES IDX 4 1 3 2 2 3 1 4 5 5 6 6 8 7 7 8
REMARK H PARENT
REMARK Flexibility Score: inf
ROOT
ATOM      1  C   UNL     1      10.768  -4.248  -1.453  1.00  0.00     0.008 C 
ENDROOT
BRANCH   1   2
ATOM      2  C   UNL     1      11.662  -5.457  -1.756  1.00  0.00     0.000 C 
BRANCH   2   3
ATOM      3  C   UNL     1      12.218  -5.384  -3.183  1.00  0.00    -0.003 C 
ATOM      4  C   UNL     1      12.694  -3.973  -3.517  1.00  0.00     0.004 C 
ENDBRANCH   2   3
ENDBRANCH   1   2
BRANCH   1   5
ATOM      5  C   UNL     1       9.302  -4.550  -1.781  1.00  0.00     0.075 C 
BRANCH   5   6
ATOM      6  C   UNL     1       8.749  -3.530  -2.742  1.00  0.00     0.129 C 
ATOM      7  O   UNL     1       8.051  -2.621  -2.317  1.00  0.00    -0.300 OA
ATOM      8  C   UNL     1       9.026  -3.611  -4.213  1.00  0.00     0.087 C 
ENDBRANCH   5   6
ENDBRANCH   1   5
TORSDOF 4
ENDMDL
MODEL 9
REMARK VINA RESULT:    -2.293     11.431     13.006
REMARK INTER + INTRA:          -3.136
REMARK INTER:                  -2.803
REMARK INTRA:                  -0.333
REMARK UNBOUND:                -0.307
REMARK SMILES CCCCCC(C)=O
REMARK SMILES IDX 4 1 3 2 2 3 1 4 5 5 6 6 8 7 7 8
REMARK H PARENT
REMARK Flexibility Score: inf
ROOT
ATOM      1  C   UNL     1       8.691   5.475  -9.537  1.00  0.00     0.008 C 
ENDROOT
BRANCH   1   2
ATOM      2  C   UNL     1       9.124   4.007  -9.429  1.00  0.00     0.000 C 
BRANCH   2   3
ATOM      3  C   UNL     1       8.709   3.411  -8.079  1.00  0.00    -0.003 C 
ATOM      4  C   UNL     1       9.897   3.332  -7.124  1.00  0.00     0.004 C 
ENDBRANCH   2   3
ENDBRANCH   1   2
BRANCH   1   5
ATOM      5  C   UNL     1       9.851   6.418  -9.199  1.00  0.00     0.075 C 
BRANCH   5   6
ATOM      6  C   UNL     1       9.581   7.155  -7.914  1.00  0.00     0.129 C 
ATOM      7  O   UNL     1      10.506   7.693  -7.323  1.00  0.00    -0.300 OA
ATOM      8  C   UNL     1       8.201   7.235  -7.332  1.00  0.00     0.087 C 
ENDBRANCH   5   6
ENDBRANCH   1   5
TORSDOF 4
ENDMDL
