MODEL 1
REMARK VINA RESULT:    -3.368      0.000      0.000
REMARK INTER + INTRA:          -5.013
REMARK INTER:                  -4.747
REMARK INTRA:                  -0.266
REMARK UNBOUND:                -0.266
REMARK SMILES CCCCCCCCC(=O)[O-]
REMARK SMILES IDX 6 1 7 2 8 3 9 4 10 5 11 6 5 7 4 8 3 9 2 10 1 11
REMARK H PARENT
REMARK Flexibility Score: inf
ROOT
ATOM      1  C   UNL     1      -2.798  42.235  95.928  1.00  0.00     0.000 C 
ENDROOT
BRANCH   1   2
ATOM      2  C   UNL     1      -2.981  43.689  96.409  1.00  0.00     0.006 C 
BRANCH   2   3
ATOM      3  C   UNL     1      -2.770  44.753  95.321  1.00  0.00     0.053 C 
BRANCH   3   4
ATOM      4  C   UNL     1      -1.708  45.739  95.701  1.00  0.00     0.041 C 
ATOM      5  O   UNL     1      -0.876  46.136  94.844  1.00  0.00    -0.550 OA
ATOM      6  O   UNL     1      -1.660  46.245  96.993  1.00  0.00    -0.550 OA
ENDBRANCH   3   4
ENDBRANCH   2   3
ENDBRANCH   1   2
BRANCH   1   7
ATOM      7  C   UNL     1      -2.318  41.246  97.005  1.00  0.00     0.000 C 
BRANCH   7   8
ATOM      8  C   UNL     1      -1.930  39.874  96.431  1.00  0.00    -0.000 C 
BRANCH   8   9
ATOM      9  C   UNL     1      -2.295  39.780  94.942  1.00  0.00    -0.000 C 
BRANCH   9  10
ATOM     10  C   UNL     1      -1.199  39.101  94.108  1.00  0.00    -0.003 C 
ATOM     11  C   UNL     1      -1.575  38.967  92.633  1.00  0.00     0.004 C 
ENDBRANCH   9  10
ENDBRANCH   8   9
ENDBRANCH   7   8
ENDBRANCH   1   7
TORSDOF 7
ENDMDL
MODEL 2
REMARK VINA RESULT:    -3.341     17.301     17.714
REMARK INTER + INTRA:          -4.975
REMARK INTER:                  -4.636
REMARK INTRA:                  -0.339
REMARK UNBOUND:                -0.266
REMARK SMILES CCCCCCCCC(=O)[O-]
REMARK SMILES IDX 6 1 7 2 8 3 9 4 10 5 11 6 5 7 4 8 3 9 2 10 1 11
REMARK H PARENT
REMARK Flexibility Score: inf
ROOT
ATOM      1  C   UNL     1     -20.639  40.385  92.929  1.00  0.00     0.000 C 
ENDROOT
BRANCH   1   2
ATOM      2  C   UNL     1     -19.609  41.372  93.518  1.00  0.00     0.006 C 
BRANCH   2   3
ATOM      3  C   UNL     1     -18.228  40.761  93.800  1.00  0.00     0.053 C 
BRANCH   3   4
ATOM      4  C   UNL     1     -17.677  41.205  95.119  1.00  0.00     0.041 C 
ATOM      5  O   UNL     1     -16.434  41.207  95.320  1.00  0.00    -0.550 OA
ATOM      6  O   UNL     1     -18.536  41.652  96.116  1.00  0.00    -0.550 OA
ENDBRANCH   3   4
ENDBRANCH   2   3
ENDBRANCH   1   2
BRANCH   1   7
ATOM      7  C   UNL     1     -20.043  39.258  92.066  1.00  0.00     0.000 C 
BRANCH   7   8
ATOM      8  C   UNL     1     -20.336  37.857  92.624  1.00  0.00    -0.000 C 
BRANCH   8   9
ATOM      9  C   UNL     1     -20.055  36.777  91.571  1.00  0.00    -0.000 C 
BRANCH   9  10
ATOM     10  C   UNL     1     -19.246  37.309  90.379  1.00  0.00    -0.003 C 
ATOM     11  C   UNL     1     -19.685  36.703  89.047  1.00  0.00     0.004 C 
ENDBRANCH   9  10
ENDBRANCH   8   9
ENDBRANCH   7   8
ENDBRANCH   1   7
TORSDOF 7
ENDMDL
MODEL 3
REMARK VINA RESULT:    -3.324     17.565     18.278
REMARK INTER + INTRA:          -4.950
REMARK INTER:                  -4.496
REMARK INTRA:                  -0.454
REMARK UNBOUND:                -0.266
REMARK SMILES CCCCCCCCC(=O)[O-]
REMARK SMILES IDX 6 1 7 2 8 3 9 4 10 5 11 6 5 7 4 8 3 9 2 10 1 11
REMARK H PARENT
REMARK Flexibility Score: inf
ROOT
ATOM      1  C   UNL     1     -20.543  39.837  92.412  1.00  0.00     0.000 C 
ENDROOT
BRANCH   1   2
ATOM      2  C   UNL     1     -19.211  39.228  91.926  1.00  0.00     0.006 C 
BRANCH   2   3
ATOM      3  C   UNL     1     -19.219  38.762  90.462  1.00  0.00     0.053 C 
BRANCH   3   4
ATOM      4  C   UNL     1     -19.429  37.284  90.347  1.00  0.00     0.041 C 
ATOM      5  O   UNL     1     -19.148  36.685  89.275  1.00  0.00    -0.550 OA
ATOM      6  O   UNL     1     -19.901  36.561  91.435  1.00  0.00    -0.550 OA
ENDBRANCH   3   4
ENDBRANCH   2   3
ENDBRANCH   1   2
BRANCH   1   7
ATOM      7  C   UNL     1     -20.404  41.059  93.338  1.00  0.00     0.000 C 
BRANCH   7   8
ATOM      8  C   UNL     1     -18.945  41.497  93.536  1.00  0.00    -0.000 C 
BRANCH   8   9
ATOM      9  C   UNL     1     -18.504  41.294  94.992  1.00  0.00    -0.000 C 
BRANCH   9  10
ATOM     10  C   UNL     1     -16.976  41.239  95.144  1.00  0.00    -0.003 C 
ATOM     11  C   UNL     1     -16.334  40.155  94.279  1.00  0.00     0.004 C 
ENDBRANCH   9  10
ENDBRANCH   8   9
ENDBRANCH   7   8
ENDBRANCH   1   7
TORSDOF 7
ENDMDL
MODEL 4
REMARK VINA RESULT:    -3.289     15.448     17.214
REMARK INTER + INTRA:          -4.901
REMARK INTER:                  -4.214
REMARK INTRA:                  -0.686
REMARK UNBOUND:                -0.266
REMARK SMILES CCCCCCCCC(=O)[O-]
REMARK SMILES IDX 6 1 7 2 8 3 9 4 10 5 11 6 5 7 4 8 3 9 2 10 1 11
REMARK H PARENT
REMARK Flexibility Score: inf
ROOT
ATOM      1  C   UNL     1      -4.339  30.075 107.235  1.00  0.00     0.000 C 
ENDROOT
BRANCH   1   2
ATOM      2  C   UNL     1      -5.657  29.945 108.028  1.00  0.00     0.006 C 
BRANCH   2   3
ATOM      3  C   UNL     1      -6.545  28.767 107.598  1.00  0.00     0.053 C 
BRANCH   3   4
ATOM      4  C   UNL     1      -7.694  29.214 106.747  1.00  0.00     0.041 C 
ATOM      5  O   UNL     1      -8.209  30.350 106.922  1.00  0.00    -0.550 OA
ATOM      6  O   UNL     1      -8.173  28.389 105.738  1.00  0.00    -0.550 OA
ENDBRANCH   3   4
ENDBRANCH   2   3
ENDBRANCH   1   2
BRANCH   1   7
ATOM      7  C   UNL     1      -3.983  31.506 106.790  1.00  0.00     0.000 C 
BRANCH   7   8
ATOM      8  C   UNL     1      -5.069  32.148 105.914  1.00  0.00    -0.000 C 
BRANCH   8   9
ATOM      9  C   UNL     1      -4.958  31.667 104.461  1.00  0.00    -0.000 C 
BRANCH   9  10
ATOM     10  C   UNL     1      -6.246  30.998 103.959  1.00  0.00    -0.003 C 
ATOM     11  C   UNL     1      -7.406  31.983 103.811  1.00  0.00     0.004 C 
ENDBRANCH   9  10
ENDBRANCH   8   9
ENDBRANCH   7   8
ENDBRANCH   1   7
TORSDOF 7
ENDMDL
MODEL 5
REMARK VINA RESULT:    -3.283     17.193     17.953
REMARK INTER + INTRA:          -4.892
REMARK INTER:                  -4.147
REMARK INTRA:                  -0.745
REMARK UNBOUND:                -0.266
REMARK SMILES CCCCCCCCC(=O)[O-]
REMARK SMILES IDX 6 1 7 2 8 3 9 4 10 5 11 6 5 7 4 8 3 9 2 10 1 11
REMARK H PARENT
REMARK Flexibility Score: inf
ROOT
ATOM      1  C   UNL     1     -18.950  41.522  93.819  1.00  0.00     0.000 C 
ENDROOT
BRANCH   1   2
ATOM      2  C   UNL     1     -19.943  40.535  93.171  1.00  0.00     0.006 C 
BRANCH   2   3
ATOM      3  C   UNL     1     -19.482  39.070  93.177  1.00  0.00     0.053 C 
BRANCH   3   4
ATOM      4  C   UNL     1     -19.493  38.474  91.803  1.00  0.00     0.041 C 
ATOM      5  O   UNL     1     -19.998  37.337  91.609  1.00  0.00    -0.550 OA
ATOM      6  O   UNL     1     -18.976  39.189  90.731  1.00  0.00    -0.550 OA
ENDBRANCH   3   4
ENDBRANCH   2   3
ENDBRANCH   1   2
BRANCH   1   7
ATOM      7  C   UNL     1     -17.575  40.927  94.175  1.00  0.00     0.000 C 
BRANCH   7   8
ATOM      8  C   UNL     1     -17.253  41.018  95.674  1.00  0.00    -0.000 C 
BRANCH   8   9
ATOM      9  C   UNL     1     -18.441  41.593  96.458  1.00  0.00    -0.000 C 
BRANCH   9  10
ATOM     10  C   UNL     1     -18.985  40.615  97.509  1.00  0.00    -0.003 C 
ATOM     11  C   UNL     1     -19.905  39.553  96.909  1.00  0.00     0.004 C 
ENDBRANCH   9  10
ENDBRANCH   8   9
ENDBRANCH   7   8
ENDBRANCH   1   7
TORSDOF 7
ENDMDL
MODEL 6
REMARK VINA RESULT:    -3.247      3.268      6.264
REMARK INTER + INTRA:          -4.841
REMARK INTER:                  -4.464
REMARK INTRA:                  -0.378
REMARK UNBOUND:                -0.266
REMARK SMILES CCCCCCCCC(=O)[O-]
REMARK SMILES IDX 6 1 7 2 8 3 9 4 10 5 11 6 5 7 4 8 3 9 2 10 1 11
REMARK H PARENT
REMARK Flexibility Score: inf
ROOT
ATOM      1  C   UNL     1      -2.872  43.549  96.371  1.00  0.00     0.000 C 
ENDROOT
BRANCH   1   2
ATOM      2  C   UNL     1      -2.884  42.050  96.004  1.00  0.00     0.006 C 
BRANCH   2   3
ATOM      3  C   UNL     1      -2.340  41.120  97.099  1.00  0.00     0.053 C 
BRANCH   3   4
ATOM      4  C   UNL     1      -1.844  39.824  96.536  1.00  0.00     0.041 C 
ATOM      5  O   UNL     1      -1.899  38.771  97.225  1.00  0.00    -0.550 OA
ATOM      6  O   UNL     1      -1.353  39.772  95.238  1.00  0.00    -0.550 OA
ENDBRANCH   3   4
ENDBRANCH   2   3
ENDBRANCH   1   2
BRANCH   1   7
ATOM      7  C   UNL     1      -3.007  44.515  95.180  1.00  0.00     0.000 C 
BRANCH   7   8
ATOM      8  C   UNL     1      -2.246  45.833  95.388  1.00  0.00    -0.000 C 
BRANCH   8   9
ATOM      9  C   UNL     1      -1.821  45.995  96.854  1.00  0.00    -0.000 C 
BRANCH   9  10
ATOM     10  C   UNL     1      -2.591  47.114  97.572  1.00  0.00    -0.003 C 
ATOM     11  C   UNL     1      -3.705  46.582  98.473  1.00  0.00     0.004 C 
ENDBRANCH   9  10
ENDBRANCH   8   9
ENDBRANCH   7   8
ENDBRANCH   1   7
TORSDOF 7
ENDMDL
MODEL 7
REMARK VINA RESULT:    -3.236     16.966     17.453
REMARK INTER + INTRA:          -4.826
REMARK INTER:                  -4.157
REMARK INTRA:                  -0.669
REMARK UNBOUND:                -0.266
REMARK SMILES CCCCCCCCC(=O)[O-]
REMARK SMILES IDX 6 1 7 2 8 3 9 4 10 5 11 6 5 7 4 8 3 9 2 10 1 11
REMARK H PARENT
REMARK Flexibility Score: inf
ROOT
ATOM      1  C   UNL     1     -20.725  40.225  92.574  1.00  0.00     0.000 C 
ENDROOT
BRANCH   1   2
ATOM      2  C   UNL     1     -19.843  41.135  93.453  1.00  0.00     0.006 C 
BRANCH   2   3
ATOM      3  C   UNL     1     -19.298  40.463  94.722  1.00  0.00     0.053 C 
BRANCH   3   4
ATOM      4  C   UNL     1     -18.173  41.242  95.330  1.00  0.00     0.041 C 
ATOM      5  O   UNL     1     -18.255  41.655  96.517  1.00  0.00    -0.550 OA
ATOM      6  O   UNL     1     -17.018  41.484  94.596  1.00  0.00    -0.550 OA
ENDBRANCH   3   4
ENDBRANCH   2   3
ENDBRANCH   1   2
BRANCH   1   7
ATOM      7  C   UNL     1     -20.755  38.743  92.991  1.00  0.00     0.000 C 
BRANCH   7   8
ATOM      8  C   UNL     1     -19.910  37.845  92.075  1.00  0.00    -0.000 C 
BRANCH   8   9
ATOM      9  C   UNL     1     -19.273  38.662  90.942  1.00  0.00    -0.000 C 
BRANCH   9  10
ATOM     10  C   UNL     1     -17.738  38.644  90.991  1.00  0.00    -0.003 C 
ATOM     11  C   UNL     1     -17.192  38.546  92.414  1.00  0.00     0.004 C 
ENDBRANCH   9  10
ENDBRANCH   8   9
ENDBRANCH   7   8
ENDBRANCH   1   7
TORSDOF 7
ENDMDL
MODEL 8
REMARK VINA RESULT:    -3.177     17.641     18.494
REMARK INTER + INTRA:          -4.743
REMARK INTER:                  -4.345
REMARK INTRA:                  -0.398
REMARK UNBOUND:                -0.266
REMARK SMILES CCCCCCCCC(=O)[O-]
REMARK SMILES IDX 6 1 7 2 8 3 9 4 10 5 11 6 5 7 4 8 3 9 2 10 1 11
REMARK H PARENT
REMARK Flexibility Score: inf
ROOT
ATOM      1  C   UNL     1     -19.065  39.145  91.821  1.00  0.00     0.000 C 
ENDROOT
BRANCH   1   2
ATOM      2  C   UNL     1     -19.259  38.665  90.368  1.00  0.00     0.006 C 
BRANCH   2   3
ATOM      3  C   UNL     1     -19.511  37.156  90.223  1.00  0.00     0.053 C 
BRANCH   3   4
ATOM      4  C   UNL     1     -18.269  36.356  90.462  1.00  0.00     0.041 C 
ATOM      5  O   UNL     1     -18.112  35.735  91.547  1.00  0.00    -0.550 OA
ATOM      6  O   UNL     1     -17.298  36.266  89.473  1.00  0.00    -0.550 OA
ENDBRANCH   3   4
ENDBRANCH   2   3
ENDBRANCH   1   2
BRANCH   1   7
ATOM      7  C   UNL     1     -20.363  39.330  92.627  1.00  0.00     0.000 C 
BRANCH   7   8
ATOM      8  C   UNL     1     -20.594  40.783  93.070  1.00  0.00    -0.000 C 
BRANCH   8   9
ATOM      9  C   UNL     1     -19.262  41.477  93.388  1.00  0.00    -0.000 C 
BRANCH   9  10
ATOM     10  C   UNL     1     -18.801  41.236  94.833  1.00  0.00    -0.003 C 
ATOM     11  C   UNL     1     -17.279  41.199  94.971  1.00  0.00     0.004 C 
ENDBRANCH   9  10
ENDBRANCH   8   9
ENDBRANCH   7   8
ENDBRANCH   1   7
TORSDOF 7
ENDMDL
MODEL 9
REMARK VINA RESULT:    -3.174     16.211     16.834
REMARK INTER + INTRA:          -4.738
REMARK INTER:                  -4.439
REMARK INTRA:                  -0.300
REMARK UNBOUND:                -0.266
REMARK SMILES CCCCCCCCC(=O)[O-]
REMARK SMILES IDX 6 1 7 2 8 3 9 4 10 5 11 6 5 7 4 8 3 9 2 10 1 11
REMARK H PARENT
REMARK Flexibility Score: inf
ROOT
ATOM      1  C   UNL     1     -18.810  41.242  93.773  1.00  0.00     0.000 C 
ENDROOT
BRANCH   1   2
ATOM      2  C   UNL     1     -20.055  40.720  93.023  1.00  0.00     0.006 C 
BRANCH   2   3
ATOM      3  C   UNL     1     -19.962  39.252  92.578  1.00  0.00     0.053 C 
BRANCH   3   4
ATOM      4  C   UNL     1     -19.044  39.079  91.408  1.00  0.00     0.041 C 
ATOM      5  O   UNL     1     -17.838  38.767  91.588  1.00  0.00    -0.550 OA
ATOM      6  O   UNL     1     -19.531  39.228  90.115  1.00  0.00    -0.550 OA
ENDBRANCH   3   4
ENDBRANCH   2   3
ENDBRANCH   1   2
BRANCH   1   7
ATOM      7  C   UNL     1     -18.860  41.092  95.304  1.00  0.00     0.000 C 
BRANCH   7   8
ATOM      8  C   UNL     1     -17.470  41.137  95.956  1.00  0.00    -0.000 C 
BRANCH   8   9
ATOM      9  C   UNL     1     -16.364  41.151  94.891  1.00  0.00    -0.000 C 
BRANCH   9  10
ATOM     10  C   UNL     1     -15.259  40.123  95.174  1.00  0.00    -0.003 C 
ATOM     11  C   UNL     1     -13.865  40.638  94.814  1.00  0.00     0.004 C 
ENDBRANCH   9  10
ENDBRANCH   8   9
ENDBRANCH   7   8
ENDBRANCH   1   7
TORSDOF 7
ENDMDL
