MODEL 1
REMARK VINA RESULT:    -4.153      0.000      0.000
REMARK INTER + INTRA:         -15.043
REMARK INTER:                 -10.466
REMARK INTRA:                  -4.577
REMARK UNBOUND:                -4.577
REMARK SMILES CCCCCCCCCCCCCCCCCCCCCCCCCCCC(=O)[O-]
REMARK SMILES IDX 15 1 16 2 17 3 18 4 19 5 20 6 21 7 22 8 23 9 24 10 25 11
REMARK SMILES IDX 26 12 27 13 28 14 29 15 30 16 14 17 13 18 12 19 11 20 10 21
REMARK SMILES IDX 9 22 8 23 7 24 6 25 5 26 4 27 3 28 2 29 1 30
REMARK H PARENT
REMARK Flexibility Score: inf
ROOT
ATOM      1  C   UNL     1       1.060   7.871   6.836  1.00  0.00     0.000 C 
ENDROOT
BRANCH   1   2
ATOM      2  C   UNL     1      -0.005   8.974   6.745  1.00  0.00     0.000 C 
BRANCH   2   3
ATOM      3  C   UNL     1      -1.262   8.577   7.533  1.00  0.00     0.000 C 
BRANCH   3   4
ATOM      4  C   UNL     1      -2.532   8.548   6.663  1.00  0.00     0.000 C 
BRANCH   4   5
ATOM      5  C   UNL     1      -2.930   7.155   6.136  1.00  0.00     0.000 C 
BRANCH   5   6
ATOM      6  C   UNL     1      -2.145   5.972   6.736  1.00  0.00     0.000 C 
BRANCH   6   7
ATOM      7  C   UNL     1      -2.008   4.760   5.789  1.00  0.00     0.000 C 
BRANCH   7   8
ATOM      8  C   UNL     1      -1.036   3.693   6.327  1.00  0.00     0.000 C 
BRANCH   8   9
ATOM      9  C   UNL     1       0.087   4.294   7.188  1.00  0.00     0.000 C 
BRANCH   9  10
ATOM     10  C   UNL     1       1.304   3.360   7.307  1.00  0.00     0.000 C 
BRANCH  10  11
ATOM     11  C   UNL     1       2.590   4.103   7.714  1.00  0.00     0.000 C 
BRANCH  11  12
ATOM     12  C   UNL     1       3.415   4.663   6.541  1.00  0.00     0.006 C 
BRANCH  12  13
ATOM     13  C   UNL     1       4.384   3.632   5.939  1.00  0.00     0.053 C 
BRANCH  13  14
ATOM     14  C   UNL     1       5.757   3.691   6.549  1.00  0.00     0.041 C 
ATOM     15  O   UNL     1       6.024   4.490   7.487  1.00  0.00    -0.550 OA
ATOM     16  O   UNL     1       6.758   2.865   6.053  1.00  0.00    -0.550 OA
ENDBRANCH  13  14
ENDBRANCH  12  13
ENDBRANCH  11  12
ENDBRANCH  10  11
ENDBRANCH   9  10
ENDBRANCH   8   9
ENDBRANCH   7   8
ENDBRANCH   6   7
ENDBRANCH   5   6
ENDBRANCH   4   5
ENDBRANCH   3   4
ENDBRANCH   2   3
ENDBRANCH   1   2
BRANCH   1  17
ATOM     17  C   UNL     1       1.316   7.176   5.487  1.00  0.00     0.000 C 
BRANCH  17  18
ATOM     18  C   UNL     1       0.716   7.897   4.263  1.00  0.00     0.000 C 
BRANCH  18  19
ATOM     19  C   UNL     1      -0.380   7.116   3.509  1.00  0.00     0.000 C 
BRANCH  19  20
ATOM     20  C   UNL     1       0.134   6.163   2.414  1.00  0.00     0.000 C 
BRANCH  20  21
ATOM     21  C   UNL     1      -0.076   4.680   2.764  1.00  0.00     0.000 C 
BRANCH  21  22
ATOM     22  C   UNL     1       1.186   4.045   3.386  1.00  0.00    -0.000 C 
BRANCH  22  23
ATOM     23  C   UNL     1       2.500   4.678   2.898  1.00  0.00    -0.000 C 
BRANCH  23  24
ATOM     24  C   UNL     1       2.995   4.083   1.571  1.00  0.00    -0.000 C 
BRANCH  24  25
ATOM     25  C   UNL     1       3.349   5.161   0.534  1.00  0.00    -0.000 C 
BRANCH  25  26
ATOM     26  C   UNL     1       2.254   5.335  -0.532  1.00  0.00    -0.000 C 
BRANCH  26  27
ATOM     27  C   UNL     1       2.825   5.707  -1.909  1.00  0.00    -0.000 C 
BRANCH  27  28
ATOM     28  C   UNL     1       4.204   6.383  -1.814  1.00  0.00    -0.000 C 
BRANCH  28  29
ATOM     29  C   UNL     1       4.953   6.386  -3.155  1.00  0.00    -0.003 C 
ATOM     30  C   UNL     1       5.257   4.978  -3.666  1.00  0.00     0.004 C 
ENDBRANCH  28  29
ENDBRANCH  27  28
ENDBRANCH  26  27
ENDBRANCH  25  26
ENDBRANCH  24  25
ENDBRANCH  23  24
ENDBRANCH  22  23
ENDBRANCH  21  22
ENDBRANCH  20  21
ENDBRANCH  19  20
ENDBRANCH  18  19
ENDBRANCH  17  18
ENDBRANCH   1  17
TORSDOF 26
ENDMDL
MODEL 2
REMARK VINA RESULT:    -4.105      3.152      7.303
REMARK INTER + INTRA:         -14.921
REMARK INTER:                 -10.829
REMARK INTRA:                  -4.092
REMARK UNBOUND:                -4.577
REMARK SMILES CCCCCCCCCCCCCCCCCCCCCCCCCCCC(=O)[O-]
REMARK SMILES IDX 15 1 16 2 17 3 18 4 19 5 20 6 21 7 22 8 23 9 24 10 25 11
REMARK SMILES IDX 26 12 27 13 28 14 29 15 30 16 14 17 13 18 12 19 11 20 10 21
REMARK SMILES IDX 9 22 8 23 7 24 6 25 5 26 4 27 3 28 2 29 1 30
REMARK H PARENT
REMARK Flexibility Score: inf
ROOT
ATOM      1  C   UNL     1      -0.306   6.886   3.668  1.00  0.00     0.000 C 
ENDROOT
BRANCH   1   2
ATOM      2  C   UNL     1       0.780   7.927   3.980  1.00  0.00     0.000 C 
BRANCH   2   3
ATOM      3  C   UNL     1       2.175   7.287   3.924  1.00  0.00     0.000 C 
BRANCH   3   4
ATOM      4  C   UNL     1       2.132   5.748   3.965  1.00  0.00     0.000 C 
BRANCH   4   5
ATOM      5  C   UNL     1       3.069   5.043   2.965  1.00  0.00     0.000 C 
BRANCH   5   6
ATOM      6  C   UNL     1       2.469   3.816   2.250  1.00  0.00     0.000 C 
BRANCH   6   7
ATOM      7  C   UNL     1       0.963   3.941   1.936  1.00  0.00     0.000 C 
BRANCH   7   8
ATOM      8  C   UNL     1       0.683   4.826   0.707  1.00  0.00     0.000 C 
BRANCH   8   9
ATOM      9  C   UNL     1       1.430   4.350  -0.548  1.00  0.00     0.000 C 
BRANCH   9  10
ATOM     10  C   UNL     1       2.170   5.492  -1.266  1.00  0.00     0.000 C 
BRANCH  10  11
ATOM     11  C   UNL     1       3.621   5.664  -0.779  1.00  0.00     0.000 C 
BRANCH  11  12
ATOM     12  C   UNL     1       4.527   6.485  -1.715  1.00  0.00     0.006 C 
BRANCH  12  13
ATOM     13  C   UNL     1       5.654   5.651  -2.346  1.00  0.00     0.053 C 
BRANCH  13  14
ATOM     14  C   UNL     1       5.311   5.146  -3.721  1.00  0.00     0.041 C 
ATOM     15  O   UNL     1       5.979   5.492  -4.732  1.00  0.00    -0.550 OA
ATOM     16  O   UNL     1       4.221   4.299  -3.882  1.00  0.00    -0.550 OA
ENDBRANCH  13  14
ENDBRANCH  12  13
ENDBRANCH  11  12
ENDBRANCH  10  11
ENDBRANCH   9  10
ENDBRANCH   8   9
ENDBRANCH   7   8
ENDBRANCH   6   7
ENDBRANCH   5   6
ENDBRANCH   4   5
ENDBRANCH   3   4
ENDBRANCH   2   3
ENDBRANCH   1   2
BRANCH   1  17
ATOM     17  C   UNL     1      -1.481   6.934   4.661  1.00  0.00     0.000 C 
BRANCH  17  18
ATOM     18  C   UNL     1      -1.993   8.351   4.990  1.00  0.00     0.000 C 
BRANCH  18  19
ATOM     19  C   UNL     1      -2.397   8.582   6.461  1.00  0.00     0.000 C 
BRANCH  19  20
ATOM     20  C   UNL     1      -1.385   8.072   7.503  1.00  0.00     0.000 C 
BRANCH  20  21
ATOM     21  C   UNL     1      -0.056   8.845   7.476  1.00  0.00     0.000 C 
BRANCH  21  22
ATOM     22  C   UNL     1       1.111   8.015   8.051  1.00  0.00    -0.000 C 
BRANCH  22  23
ATOM     23  C   UNL     1       1.202   6.594   7.471  1.00  0.00    -0.000 C 
BRANCH  23  24
ATOM     24  C   UNL     1       2.610   5.989   7.587  1.00  0.00    -0.000 C 
BRANCH  24  25
ATOM     25  C   UNL     1       2.586   4.517   8.027  1.00  0.00    -0.000 C 
BRANCH  25  26
ATOM     26  C   UNL     1       2.518   3.546   6.836  1.00  0.00    -0.000 C 
BRANCH  26  27
ATOM     27  C   UNL     1       3.836   2.788   6.616  1.00  0.00    -0.000 C 
BRANCH  27  28
ATOM     28  C   UNL     1       5.054   3.727   6.554  1.00  0.00    -0.000 C 
BRANCH  28  29
ATOM     29  C   UNL     1       5.721   3.735   5.170  1.00  0.00    -0.003 C 
ATOM     30  C   UNL     1       5.434   2.467   4.367  1.00  0.00     0.004 C 
ENDBRANCH  28  29
ENDBRANCH  27  28
ENDBRANCH  26  27
ENDBRANCH  25  26
ENDBRANCH  24  25
ENDBRANCH  23  24
ENDBRANCH  22  23
ENDBRANCH  21  22
ENDBRANCH  20  21
ENDBRANCH  19  20
ENDBRANCH  18  19
ENDBRANCH  17  18
ENDBRANCH   1  17
TORSDOF 26
ENDMDL
MODEL 3
REMARK VINA RESULT:    -4.064      1.527      3.067
REMARK INTER + INTRA:         -14.819
REMARK INTER:                 -10.950
REMARK INTRA:                  -3.869
REMARK UNBOUND:                -4.577
REMARK SMILES CCCCCCCCCCCCCCCCCCCCCCCCCCCC(=O)[O-]
REMARK SMILES IDX 15 1 16 2 17 3 18 4 19 5 20 6 21 7 22 8 23 9 24 10 25 11
REMARK SMILES IDX 26 12 27 13 28 14 29 15 30 16 14 17 13 18 12 19 11 20 10 21
REMARK SMILES IDX 9 22 8 23 7 24 6 25 5 26 4 27 3 28 2 29 1 30
REMARK H PARENT
REMARK Flexibility Score: inf
ROOT
ATOM      1  C   UNL     1       1.394   5.767   3.371  1.00  0.00     0.000 C 
ENDROOT
BRANCH   1   2
ATOM      2  C   UNL     1       0.753   7.139   3.112  1.00  0.00     0.000 C 
BRANCH   2   3
ATOM      3  C   UNL     1       1.127   8.129   4.224  1.00  0.00     0.000 C 
BRANCH   3   4
ATOM      4  C   UNL     1      -0.095   8.651   5.001  1.00  0.00     0.000 C 
BRANCH   4   5
ATOM      5  C   UNL     1       0.100   8.765   6.525  1.00  0.00     0.000 C 
BRANCH   5   6
ATOM      6  C   UNL     1      -0.732   7.784   7.374  1.00  0.00     0.000 C 
BRANCH   6   7
ATOM      7  C   UNL     1      -1.172   6.511   6.619  1.00  0.00     0.000 C 
BRANCH   7   8
ATOM      8  C   UNL     1      -0.124   5.385   6.693  1.00  0.00     0.000 C 
BRANCH   8   9
ATOM      9  C   UNL     1       0.998   5.685   7.700  1.00  0.00     0.000 C 
BRANCH   9  10
ATOM     10  C   UNL     1       2.398   5.613   7.064  1.00  0.00     0.000 C 
BRANCH  10  11
ATOM     11  C   UNL     1       3.531   5.666   8.104  1.00  0.00     0.000 C 
BRANCH  11  12
ATOM     12  C   UNL     1       4.575   4.541   7.984  1.00  0.00     0.006 C 
BRANCH  12  13
ATOM     13  C   UNL     1       4.225   3.508   6.899  1.00  0.00     0.053 C 
BRANCH  13  14
ATOM     14  C   UNL     1       5.397   2.654   6.502  1.00  0.00     0.041 C 
ATOM     15  O   UNL     1       5.249   1.445   6.179  1.00  0.00    -0.550 OA
ATOM     16  O   UNL     1       6.674   3.204   6.514  1.00  0.00    -0.550 OA
ENDBRANCH  13  14
ENDBRANCH  12  13
ENDBRANCH  11  12
ENDBRANCH  10  11
ENDBRANCH   9  10
ENDBRANCH   8   9
ENDBRANCH   7   8
ENDBRANCH   6   7
ENDBRANCH   5   6
ENDBRANCH   4   5
ENDBRANCH   3   4
ENDBRANCH   2   3
ENDBRANCH   1   2
BRANCH   1  17
ATOM     17  C   UNL     1       2.929   5.830   3.453  1.00  0.00     0.000 C 
BRANCH  17  18
ATOM     18  C   UNL     1       3.633   4.458   3.483  1.00  0.00     0.000 C 
BRANCH  18  19
ATOM     19  C   UNL     1       2.697   3.239   3.617  1.00  0.00     0.000 C 
BRANCH  19  20
ATOM     20  C   UNL     1       2.535   2.397   2.338  1.00  0.00     0.000 C 
BRANCH  20  21
ATOM     21  C   UNL     1       3.751   2.492   1.400  1.00  0.00     0.000 C 
BRANCH  21  22
ATOM     22  C   UNL     1       3.374   3.061   0.016  1.00  0.00    -0.000 C 
BRANCH  22  23
ATOM     23  C   UNL     1       2.078   3.888   0.021  1.00  0.00    -0.000 C 
BRANCH  23  24
ATOM     24  C   UNL     1       2.289   5.335  -0.451  1.00  0.00    -0.000 C 
BRANCH  24  25
ATOM     25  C   UNL     1       3.766   5.657  -0.729  1.00  0.00    -0.000 C 
BRANCH  25  26
ATOM     26  C   UNL     1       3.947   6.593  -1.936  1.00  0.00    -0.000 C 
BRANCH  26  27
ATOM     27  C   UNL     1       4.867   5.995  -3.013  1.00  0.00    -0.000 C 
BRANCH  27  28
ATOM     28  C   UNL     1       6.356   6.103  -2.643  1.00  0.00    -0.000 C 
BRANCH  28  29
ATOM     29  C   UNL     1       6.885   4.838  -1.950  1.00  0.00    -0.003 C 
ATOM     30  C   UNL     1       8.381   4.622  -2.175  1.00  0.00     0.004 C 
ENDBRANCH  28  29
ENDBRANCH  27  28
ENDBRANCH  26  27
ENDBRANCH  25  26
ENDBRANCH  24  25
ENDBRANCH  23  24
ENDBRANCH  22  23
ENDBRANCH  21  22
ENDBRANCH  20  21
ENDBRANCH  19  20
ENDBRANCH  18  19
ENDBRANCH  17  18
ENDBRANCH   1  17
TORSDOF 26
ENDMDL
MODEL 4
REMARK VINA RESULT:    -4.054     10.570     14.098
REMARK INTER + INTRA:         -14.792
REMARK INTER:                 -10.202
REMARK INTRA:                  -4.590
REMARK UNBOUND:                -4.577
REMARK SMILES CCCCCCCCCCCCCCCCCCCCCCCCCCCC(=O)[O-]
REMARK SMILES IDX 15 1 16 2 17 3 18 4 19 5 20 6 21 7 22 8 23 9 24 10 25 11
REMARK SMILES IDX 26 12 27 13 28 14 29 15 30 16 14 17 13 18 12 19 11 20 10 21
REMARK SMILES IDX 9 22 8 23 7 24 6 25 5 26 4 27 3 28 2 29 1 30
REMARK H PARENT
REMARK Flexibility Score: inf
ROOT
ATOM      1  C   UNL     1      -1.923  -6.792   3.714  1.00  0.00     0.000 C 
ENDROOT
BRANCH   1   2
ATOM      2  C   UNL     1      -2.981  -6.037   2.895  1.00  0.00     0.000 C 
BRANCH   2   3
ATOM      3  C   UNL     1      -3.595  -4.899   3.723  1.00  0.00     0.000 C 
BRANCH   3   4
ATOM      4  C   UNL     1      -3.688  -3.572   2.948  1.00  0.00     0.000 C 
BRANCH   4   5
ATOM      5  C   UNL     1      -2.643  -2.511   3.344  1.00  0.00     0.000 C 
BRANCH   5   6
ATOM      6  C   UNL     1      -1.179  -2.995   3.356  1.00  0.00     0.000 C 
BRANCH   6   7
ATOM      7  C   UNL     1      -0.457  -2.853   1.998  1.00  0.00     0.000 C 
BRANCH   7   8
ATOM      8  C   UNL     1      -1.326  -2.159   0.933  1.00  0.00     0.000 C 
BRANCH   8   9
ATOM      9  C   UNL     1      -1.742  -3.106  -0.203  1.00  0.00     0.000 C 
BRANCH   9  10
ATOM     10  C   UNL     1      -1.351  -4.569   0.074  1.00  0.00     0.000 C 
BRANCH  10  11
ATOM     11  C   UNL     1      -1.977  -5.556  -0.929  1.00  0.00     0.000 C 
BRANCH  11  12
ATOM     12  C   UNL     1      -3.475  -5.339  -1.203  1.00  0.00     0.006 C 
BRANCH  12  13
ATOM     13  C   UNL     1      -3.996  -6.169  -2.389  1.00  0.00     0.053 C 
BRANCH  13  14
ATOM     14  C   UNL     1      -5.432  -5.876  -2.724  1.00  0.00     0.041 C 
ATOM     15  O   UNL     1      -5.840  -4.694  -2.885  1.00  0.00    -0.550 OA
ATOM     16  O   UNL     1      -6.333  -6.928  -2.837  1.00  0.00    -0.550 OA
ENDBRANCH  13  14
ENDBRANCH  12  13
ENDBRANCH  11  12
ENDBRANCH  10  11
ENDBRANCH   9  10
ENDBRANCH   8   9
ENDBRANCH   7   8
ENDBRANCH   6   7
ENDBRANCH   5   6
ENDBRANCH   4   5
ENDBRANCH   3   4
ENDBRANCH   2   3
ENDBRANCH   1   2
BRANCH   1  17
ATOM     17  C   UNL     1      -0.511  -6.680   3.113  1.00  0.00     0.000 C 
BRANCH  17  18
ATOM     18  C   UNL     1       0.591  -6.286   4.118  1.00  0.00     0.000 C 
BRANCH  18  19
ATOM     19  C   UNL     1       1.486  -7.445   4.604  1.00  0.00     0.000 C 
BRANCH  19  20
ATOM     20  C   UNL     1       1.265  -7.871   6.067  1.00  0.00     0.000 C 
BRANCH  20  21
ATOM     21  C   UNL     1      -0.072  -8.600   6.282  1.00  0.00     0.000 C 
BRANCH  21  22
ATOM     22  C   UNL     1      -1.025  -7.808   7.202  1.00  0.00    -0.000 C 
BRANCH  22  23
ATOM     23  C   UNL     1      -0.379  -6.565   7.835  1.00  0.00    -0.000 C 
BRANCH  23  24
ATOM     24  C   UNL     1      -1.165  -5.274   7.558  1.00  0.00    -0.000 C 
BRANCH  24  25
ATOM     25  C   UNL     1      -2.585  -5.547   7.038  1.00  0.00    -0.000 C 
BRANCH  25  26
ATOM     26  C   UNL     1      -3.655  -5.380   8.131  1.00  0.00    -0.000 C 
BRANCH  26  27
ATOM     27  C   UNL     1      -4.727  -4.345   7.754  1.00  0.00    -0.000 C 
BRANCH  27  28
ATOM     28  C   UNL     1      -4.164  -3.198   6.896  1.00  0.00    -0.000 C 
BRANCH  28  29
ATOM     29  C   UNL     1      -5.254  -2.222   6.428  1.00  0.00    -0.003 C 
ATOM     30  C   UNL     1      -6.302  -2.890   5.538  1.00  0.00     0.004 C 
ENDBRANCH  28  29
ENDBRANCH  27  28
ENDBRANCH  26  27
ENDBRANCH  25  26
ENDBRANCH  24  25
ENDBRANCH  23  24
ENDBRANCH  22  23
ENDBRANCH  21  22
ENDBRANCH  20  21
ENDBRANCH  19  20
ENDBRANCH  18  19
ENDBRANCH  17  18
ENDBRANCH   1  17
TORSDOF 26
ENDMDL
MODEL 5
REMARK VINA RESULT:    -4.048     11.650     14.962
REMARK INTER + INTRA:         -14.778
REMARK INTER:                 -10.648
REMARK INTRA:                  -4.130
REMARK UNBOUND:                -4.577
REMARK SMILES CCCCCCCCCCCCCCCCCCCCCCCCCCCC(=O)[O-]
REMARK SMILES IDX 15 1 16 2 17 3 18 4 19 5 20 6 21 7 22 8 23 9 24 10 25 11
REMARK SMILES IDX 26 12 27 13 28 14 29 15 30 16 14 17 13 18 12 19 11 20 10 21
REMARK SMILES IDX 9 22 8 23 7 24 6 25 5 26 4 27 3 28 2 29 1 30
REMARK H PARENT
REMARK Flexibility Score: inf
ROOT
ATOM      1  C   UNL     1       0.854  -7.887   4.888  1.00  0.00     0.000 C 
ENDROOT
BRANCH   1   2
ATOM      2  C   UNL     1       0.124  -7.108   3.783  1.00  0.00     0.000 C 
BRANCH   2   3
ATOM      3  C   UNL     1      -1.384  -7.395   3.826  1.00  0.00     0.000 C 
BRANCH   3   4
ATOM      4  C   UNL     1      -2.242  -6.131   3.636  1.00  0.00     0.000 C 
BRANCH   4   5
ATOM      5  C   UNL     1      -2.369  -5.642   2.179  1.00  0.00     0.000 C 
BRANCH   5   6
ATOM      6  C   UNL     1      -1.282  -4.652   1.717  1.00  0.00     0.000 C 
BRANCH   6   7
ATOM      7  C   UNL     1      -1.106  -4.578   0.185  1.00  0.00     0.000 C 
BRANCH   7   8
ATOM      8  C   UNL     1      -2.356  -5.051  -0.580  1.00  0.00     0.000 C 
BRANCH   8   9
ATOM      9  C   UNL     1      -2.037  -5.509  -2.012  1.00  0.00     0.000 C 
BRANCH   9  10
ATOM     10  C   UNL     1      -3.046  -6.544  -2.540  1.00  0.00     0.000 C 
BRANCH  10  11
ATOM     11  C   UNL     1      -4.367  -6.550  -1.750  1.00  0.00     0.000 C 
BRANCH  11  12
ATOM     12  C   UNL     1      -5.641  -6.518  -2.613  1.00  0.00     0.006 C 
BRANCH  12  13
ATOM     13  C   UNL     1      -6.123  -5.090  -2.922  1.00  0.00     0.053 C 
BRANCH  13  14
ATOM     14  C   UNL     1      -5.808  -4.656  -4.327  1.00  0.00     0.041 C 
ATOM     15  O   UNL     1      -5.971  -5.433  -5.306  1.00  0.00    -0.550 OA
ATOM     16  O   UNL     1      -5.306  -3.379  -4.549  1.00  0.00    -0.550 OA
ENDBRANCH  13  14
ENDBRANCH  12  13
ENDBRANCH  11  12
ENDBRANCH  10  11
ENDBRANCH   9  10
ENDBRANCH   8   9
ENDBRANCH   7   8
ENDBRANCH   6   7
ENDBRANCH   5   6
ENDBRANCH   4   5
ENDBRANCH   3   4
ENDBRANCH   2   3
ENDBRANCH   1   2
BRANCH   1  17
ATOM     17  C   UNL     1      -0.108  -8.629   5.832  1.00  0.00     0.000 C 
BRANCH  17  18
ATOM     18  C   UNL     1       0.218  -8.484   7.332  1.00  0.00     0.000 C 
BRANCH  18  19
ATOM     19  C   UNL     1      -0.561  -7.378   8.073  1.00  0.00     0.000 C 
BRANCH  19  20
ATOM     20  C   UNL     1      -1.713  -6.743   7.273  1.00  0.00     0.000 C 
BRANCH  20  21
ATOM     21  C   UNL     1      -1.703  -5.206   7.326  1.00  0.00     0.000 C 
BRANCH  21  22
ATOM     22  C   UNL     1      -0.274  -4.638   7.462  1.00  0.00    -0.000 C 
BRANCH  22  23
ATOM     23  C   UNL     1       0.419  -4.384   6.113  1.00  0.00    -0.000 C 
BRANCH  23  24
ATOM     24  C   UNL     1       1.911  -4.753   6.127  1.00  0.00    -0.000 C 
BRANCH  24  25
ATOM     25  C   UNL     1       2.416  -5.120   7.531  1.00  0.00    -0.000 C 
BRANCH  25  26
ATOM     26  C   UNL     1       3.183  -6.453   7.551  1.00  0.00    -0.000 C 
BRANCH  26  27
ATOM     27  C   UNL     1       4.146  -6.598   6.362  1.00  0.00    -0.000 C 
BRANCH  27  28
ATOM     28  C   UNL     1       4.336  -8.063   5.932  1.00  0.00    -0.000 C 
BRANCH  28  29
ATOM     29  C   UNL     1       3.738  -9.056   6.940  1.00  0.00    -0.003 C 
ATOM     30  C   UNL     1       4.807  -9.816   7.725  1.00  0.00     0.004 C 
ENDBRANCH  28  29
ENDBRANCH  27  28
ENDBRANCH  26  27
ENDBRANCH  25  26
ENDBRANCH  24  25
ENDBRANCH  23  24
ENDBRANCH  22  23
ENDBRANCH  21  22
ENDBRANCH  20  21
ENDBRANCH  19  20
ENDBRANCH  18  19
ENDBRANCH  17  18
ENDBRANCH   1  17
TORSDOF 26
ENDMDL
MODEL 6
REMARK VINA RESULT:    -4.043      2.143      5.149
REMARK INTER + INTRA:         -14.766
REMARK INTER:                  -9.624
REMARK INTRA:                  -5.142
REMARK UNBOUND:                -4.577
REMARK SMILES CCCCCCCCCCCCCCCCCCCCCCCCCCCC(=O)[O-]
REMARK SMILES IDX 15 1 16 2 17 3 18 4 19 5 20 6 21 7 22 8 23 9 24 10 25 11
REMARK SMILES IDX 26 12 27 13 28 14 29 15 30 16 14 17 13 18 12 19 11 20 10 21
REMARK SMILES IDX 9 22 8 23 7 24 6 25 5 26 4 27 3 28 2 29 1 30
REMARK H PARENT
REMARK Flexibility Score: inf
ROOT
ATOM      1  C   UNL     1       1.682   3.779   0.660  1.00  0.00     0.000 C 
ENDROOT
BRANCH   1   2
ATOM      2  C   UNL     1       2.824   4.265   1.565  1.00  0.00     0.000 C 
BRANCH   2   3
ATOM      3  C   UNL     1       2.837   5.798   1.643  1.00  0.00     0.000 C 
BRANCH   3   4
ATOM      4  C   UNL     1       2.933   6.326   3.086  1.00  0.00     0.000 C 
BRANCH   4   5
ATOM      5  C   UNL     1       1.684   7.076   3.591  1.00  0.00     0.000 C 
BRANCH   5   6
ATOM      6  C   UNL     1       0.346   6.620   2.976  1.00  0.00     0.000 C 
BRANCH   6   7
ATOM      7  C   UNL     1      -0.546   5.807   3.939  1.00  0.00     0.000 C 
BRANCH   7   8
ATOM      8  C   UNL     1      -0.295   4.290   3.843  1.00  0.00     0.000 C 
BRANCH   8   9
ATOM      9  C   UNL     1       0.358   3.717   5.110  1.00  0.00     0.000 C 
BRANCH   9  10
ATOM     10  C   UNL     1       1.820   3.293   4.883  1.00  0.00     0.000 C 
BRANCH  10  11
ATOM     11  C   UNL     1       2.682   3.416   6.153  1.00  0.00     0.000 C 
BRANCH  11  12
ATOM     12  C   UNL     1       3.857   4.405   6.047  1.00  0.00     0.006 C 
BRANCH  12  13
ATOM     13  C   UNL     1       4.856   4.036   4.938  1.00  0.00     0.053 C 
BRANCH  13  14
ATOM     14  C   UNL     1       6.002   3.200   5.436  1.00  0.00     0.041 C 
ATOM     15  O   UNL     1       6.549   2.332   4.704  1.00  0.00    -0.550 OA
ATOM     16  O   UNL     1       6.454   3.372   6.739  1.00  0.00    -0.550 OA
ENDBRANCH  13  14
ENDBRANCH  12  13
ENDBRANCH  11  12
ENDBRANCH  10  11
ENDBRANCH   9  10
ENDBRANCH   8   9
ENDBRANCH   7   8
ENDBRANCH   6   7
ENDBRANCH   5   6
ENDBRANCH   4   5
ENDBRANCH   3   4
ENDBRANCH   2   3
ENDBRANCH   1   2
BRANCH   1  17
ATOM     17  C   UNL     1       1.174   4.870  -0.299  1.00  0.00     0.000 C 
BRANCH  17  18
ATOM     18  C   UNL     1       1.194   4.479  -1.792  1.00  0.00     0.000 C 
BRANCH  18  19
ATOM     19  C   UNL     1       2.303   5.144  -2.633  1.00  0.00     0.000 C 
BRANCH  19  20
ATOM     20  C   UNL     1       2.761   6.527  -2.135  1.00  0.00     0.000 C 
BRANCH  20  21
ATOM     21  C   UNL     1       4.265   6.582  -1.821  1.00  0.00     0.000 C 
BRANCH  21  22
ATOM     22  C   UNL     1       4.872   5.175  -1.634  1.00  0.00    -0.000 C 
BRANCH  22  23
ATOM     23  C   UNL     1       6.364   5.094  -1.995  1.00  0.00    -0.000 C 
BRANCH  23  24
ATOM     24  C   UNL     1       6.616   5.129  -3.511  1.00  0.00    -0.000 C 
BRANCH  24  25
ATOM     25  C   UNL     1       5.438   4.562  -4.319  1.00  0.00    -0.000 C 
BRANCH  25  26
ATOM     26  C   UNL     1       5.644   3.087  -4.704  1.00  0.00    -0.000 C 
BRANCH  26  27
ATOM     27  C   UNL     1       4.650   2.149  -3.999  1.00  0.00    -0.000 C 
BRANCH  27  28
ATOM     28  C   UNL     1       5.197   1.600  -2.670  1.00  0.00    -0.000 C 
BRANCH  28  29
ATOM     29  C   UNL     1       4.147   1.614  -1.550  1.00  0.00    -0.003 C 
ATOM     30  C   UNL     1       4.771   1.680  -0.156  1.00  0.00     0.004 C 
ENDBRANCH  28  29
ENDBRANCH  27  28
ENDBRANCH  26  27
ENDBRANCH  25  26
ENDBRANCH  24  25
ENDBRANCH  23  24
ENDBRANCH  22  23
ENDBRANCH  21  22
ENDBRANCH  20  21
ENDBRANCH  19  20
ENDBRANCH  18  19
ENDBRANCH  17  18
ENDBRANCH   1  17
TORSDOF 26
ENDMDL
MODEL 7
REMARK VINA RESULT:    -4.037     10.859     12.876
REMARK INTER + INTRA:         -14.751
REMARK INTER:                 -10.685
REMARK INTRA:                  -4.066
REMARK UNBOUND:                -4.577
REMARK SMILES CCCCCCCCCCCCCCCCCCCCCCCCCCCC(=O)[O-]
REMARK SMILES IDX 15 1 16 2 17 3 18 4 19 5 20 6 21 7 22 8 23 9 24 10 25 11
REMARK SMILES IDX 26 12 27 13 28 14 29 15 30 16 14 17 13 18 12 19 11 20 10 21
REMARK SMILES IDX 9 22 8 23 7 24 6 25 5 26 4 27 3 28 2 29 1 30
REMARK H PARENT
REMARK Flexibility Score: inf
ROOT
ATOM      1  C   UNL     1      -3.490  -3.237   0.672  1.00  0.00     0.000 C 
ENDROOT
BRANCH   1   2
ATOM      2  C   UNL     1      -3.004  -4.505   1.391  1.00  0.00     0.000 C 
BRANCH   2   3
ATOM      3  C   UNL     1      -2.407  -4.153   2.762  1.00  0.00     0.000 C 
BRANCH   3   4
ATOM      4  C   UNL     1      -0.924  -4.547   2.890  1.00  0.00     0.000 C 
BRANCH   4   5
ATOM      5  C   UNL     1      -0.559  -5.917   2.288  1.00  0.00     0.000 C 
BRANCH   5   6
ATOM      6  C   UNL     1      -0.009  -6.954   3.288  1.00  0.00     0.000 C 
BRANCH   6   7
ATOM      7  C   UNL     1      -1.083  -7.576   4.207  1.00  0.00     0.000 C 
BRANCH   7   8
ATOM      8  C   UNL     1      -0.578  -7.795   5.645  1.00  0.00     0.000 C 
BRANCH   8   9
ATOM      9  C   UNL     1      -1.418  -7.044   6.690  1.00  0.00     0.000 C 
BRANCH   9  10
ATOM     10  C   UNL     1      -2.093  -5.787   6.113  1.00  0.00     0.000 C 
BRANCH  10  11
ATOM     11  C   UNL     1      -2.593  -4.822   7.204  1.00  0.00     0.000 C 
BRANCH  11  12
ATOM     12  C   UNL     1      -4.103  -4.525   7.165  1.00  0.00     0.006 C 
BRANCH  12  13
ATOM     13  C   UNL     1      -4.554  -3.868   5.849  1.00  0.00     0.053 C 
BRANCH  13  14
ATOM     14  C   UNL     1      -5.676  -2.886   6.038  1.00  0.00     0.041 C 
ATOM     15  O   UNL     1      -6.571  -3.072   6.906  1.00  0.00    -0.550 OA
ATOM     16  O   UNL     1      -5.740  -1.761   5.225  1.00  0.00    -0.550 OA
ENDBRANCH  13  14
ENDBRANCH  12  13
ENDBRANCH  11  12
ENDBRANCH  10  11
ENDBRANCH   9  10
ENDBRANCH   8   9
ENDBRANCH   7   8
ENDBRANCH   6   7
ENDBRANCH   5   6
ENDBRANCH   4   5
ENDBRANCH   3   4
ENDBRANCH   2   3
ENDBRANCH   1   2
BRANCH   1  17
ATOM     17  C   UNL     1      -2.645  -2.893  -0.568  1.00  0.00     0.000 C 
BRANCH  17  18
ATOM     18  C   UNL     1      -1.299  -3.640  -0.661  1.00  0.00     0.000 C 
BRANCH  18  19
ATOM     19  C   UNL     1      -1.321  -4.941  -1.490  1.00  0.00     0.000 C 
BRANCH  19  20
ATOM     20  C   UNL     1      -2.529  -5.092  -2.433  1.00  0.00     0.000 C 
BRANCH  20  21
ATOM     21  C   UNL     1      -3.022  -6.545  -2.546  1.00  0.00     0.000 C 
BRANCH  21  22
ATOM     22  C   UNL     1      -4.507  -6.688  -2.147  1.00  0.00    -0.000 C 
BRANCH  22  23
ATOM     23  C   UNL     1      -5.167  -5.359  -1.743  1.00  0.00    -0.000 C 
BRANCH  23  24
ATOM     24  C   UNL     1      -6.612  -5.230  -2.250  1.00  0.00    -0.000 C 
BRANCH  24  25
ATOM     25  C   UNL     1      -7.151  -3.795  -2.143  1.00  0.00    -0.000 C 
BRANCH  25  26
ATOM     26  C   UNL     1      -6.027  -2.745  -2.118  1.00  0.00    -0.000 C 
BRANCH  26  27
ATOM     27  C   UNL     1      -5.746  -2.147  -3.505  1.00  0.00    -0.000 C 
BRANCH  27  28
ATOM     28  C   UNL     1      -4.266  -2.267  -3.910  1.00  0.00    -0.000 C 
BRANCH  28  29
ATOM     29  C   UNL     1      -4.060  -3.184  -5.125  1.00  0.00    -0.003 C 
ATOM     30  C   UNL     1      -5.296  -4.023  -5.449  1.00  0.00     0.004 C 
ENDBRANCH  28  29
ENDBRANCH  27  28
ENDBRANCH  26  27
ENDBRANCH  25  26
ENDBRANCH  24  25
ENDBRANCH  23  24
ENDBRANCH  22  23
ENDBRANCH  21  22
ENDBRANCH  20  21
ENDBRANCH  19  20
ENDBRANCH  18  19
ENDBRANCH  17  18
ENDBRANCH   1  17
TORSDOF 26
ENDMDL
MODEL 8
REMARK VINA RESULT:    -4.000     10.438     13.655
REMARK INTER + INTRA:         -14.657
REMARK INTER:                  -9.623
REMARK INTRA:                  -5.034
REMARK UNBOUND:                -4.577
REMARK SMILES CCCCCCCCCCCCCCCCCCCCCCCCCCCC(=O)[O-]
REMARK SMILES IDX 15 1 16 2 17 3 18 4 19 5 20 6 21 7 22 8 23 9 24 10 25 11
REMARK SMILES IDX 26 12 27 13 28 14 29 15 30 16 14 17 13 18 12 19 11 20 10 21
REMARK SMILES IDX 9 22 8 23 7 24 6 25 5 26 4 27 3 28 2 29 1 30
REMARK H PARENT
REMARK Flexibility Score: inf
ROOT
ATOM      1  C   UNL     1      -2.105  -3.980   4.276  1.00  0.00     0.000 C 
ENDROOT
BRANCH   1   2
ATOM      2  C   UNL     1      -3.335  -4.881   4.092  1.00  0.00     0.000 C 
BRANCH   2   3
ATOM      3  C   UNL     1      -3.195  -5.733   2.821  1.00  0.00     0.000 C 
BRANCH   3   4
ATOM      4  C   UNL     1      -2.737  -4.917   1.598  1.00  0.00     0.000 C 
BRANCH   4   5
ATOM      5  C   UNL     1      -1.486  -5.462   0.883  1.00  0.00     0.000 C 
BRANCH   5   6
ATOM      6  C   UNL     1      -0.388  -4.421   0.586  1.00  0.00     0.000 C 
BRANCH   6   7
ATOM      7  C   UNL     1      -0.927  -3.044   0.141  1.00  0.00     0.000 C 
BRANCH   7   8
ATOM      8  C   UNL     1      -0.744  -2.793  -1.367  1.00  0.00     0.000 C 
BRANCH   8   9
ATOM      9  C   UNL     1      -2.066  -2.465  -2.078  1.00  0.00     0.000 C 
BRANCH   9  10
ATOM     10  C   UNL     1      -3.043  -3.654  -2.090  1.00  0.00     0.000 C 
BRANCH  10  11
ATOM     11  C   UNL     1      -2.431  -4.925  -2.708  1.00  0.00     0.000 C 
BRANCH  11  12
ATOM     12  C   UNL     1      -3.201  -6.225  -2.414  1.00  0.00     0.006 C 
BRANCH  12  13
ATOM     13  C   UNL     1      -4.463  -5.998  -1.564  1.00  0.00     0.053 C 
BRANCH  13  14
ATOM     14  C   UNL     1      -5.725  -5.975  -2.382  1.00  0.00     0.041 C 
ATOM     15  O   UNL     1      -6.194  -7.027  -2.893  1.00  0.00    -0.550 OA
ATOM     16  O   UNL     1      -6.375  -4.766  -2.597  1.00  0.00    -0.550 OA
ENDBRANCH  13  14
ENDBRANCH  12  13
ENDBRANCH  11  12
ENDBRANCH  10  11
ENDBRANCH   9  10
ENDBRANCH   8   9
ENDBRANCH   7   8
ENDBRANCH   6   7
ENDBRANCH   5   6
ENDBRANCH   4   5
ENDBRANCH   3   4
ENDBRANCH   2   3
ENDBRANCH   1   2
BRANCH   1  17
ATOM     17  C   UNL     1      -2.475  -2.520   4.593  1.00  0.00     0.000 C 
BRANCH  17  18
ATOM     18  C   UNL     1      -2.005  -2.018   5.973  1.00  0.00     0.000 C 
BRANCH  18  19
ATOM     19  C   UNL     1      -3.117  -1.858   7.031  1.00  0.00     0.000 C 
BRANCH  19  20
ATOM     20  C   UNL     1      -3.889  -3.148   7.367  1.00  0.00     0.000 C 
BRANCH  20  21
ATOM     21  C   UNL     1      -3.103  -4.092   8.291  1.00  0.00     0.000 C 
BRANCH  21  22
ATOM     22  C   UNL     1      -3.092  -5.544   7.766  1.00  0.00    -0.000 C 
BRANCH  22  23
ATOM     23  C   UNL     1      -1.704  -6.025   7.311  1.00  0.00    -0.000 C 
BRANCH  23  24
ATOM     24  C   UNL     1      -0.602  -4.980   7.544  1.00  0.00    -0.000 C 
BRANCH  24  25
ATOM     25  C   UNL     1       0.766  -5.434   7.011  1.00  0.00    -0.000 C 
BRANCH  25  26
ATOM     26  C   UNL     1       0.958  -5.101   5.522  1.00  0.00    -0.000 C 
BRANCH  26  27
ATOM     27  C   UNL     1       1.389  -6.322   4.695  1.00  0.00    -0.000 C 
BRANCH  27  28
ATOM     28  C   UNL     1       0.296  -6.789   3.719  1.00  0.00    -0.000 C 
BRANCH  28  29
ATOM     29  C   UNL     1      -0.635  -7.844   4.336  1.00  0.00    -0.003 C 
ATOM     30  C   UNL     1       0.064  -8.707   5.386  1.00  0.00     0.004 C 
ENDBRANCH  28  29
ENDBRANCH  27  28
ENDBRANCH  26  27
ENDBRANCH  25  26
ENDBRANCH  24  25
ENDBRANCH  23  24
ENDBRANCH  22  23
ENDBRANCH  21  22
ENDBRANCH  20  21
ENDBRANCH  19  20
ENDBRANCH  18  19
ENDBRANCH  17  18
ENDBRANCH   1  17
TORSDOF 26
ENDMDL
MODEL 9
REMARK VINA RESULT:    -3.976     10.977     14.369
REMARK INTER + INTRA:         -14.596
REMARK INTER:                 -10.040
REMARK INTRA:                  -4.556
REMARK UNBOUND:                -4.577
REMARK SMILES CCCCCCCCCCCCCCCCCCCCCCCCCCCC(=O)[O-]
REMARK SMILES IDX 15 1 16 2 17 3 18 4 19 5 20 6 21 7 22 8 23 9 24 10 25 11
REMARK SMILES IDX 26 12 27 13 28 14 29 15 30 16 14 17 13 18 12 19 11 20 10 21
REMARK SMILES IDX 9 22 8 23 7 24 6 25 5 26 4 27 3 28 2 29 1 30
REMARK H PARENT
REMARK Flexibility Score: inf
ROOT
ATOM      1  C   UNL     1      -1.501  -7.152   3.489  1.00  0.00     0.000 C 
ENDROOT
BRANCH   1   2
ATOM      2  C   UNL     1      -2.666  -6.153   3.411  1.00  0.00     0.000 C 
BRANCH   2   3
ATOM      3  C   UNL     1      -2.624  -5.377   2.087  1.00  0.00     0.000 C 
BRANCH   3   4
ATOM      4  C   UNL     1      -1.277  -5.511   1.353  1.00  0.00     0.000 C 
BRANCH   4   5
ATOM      5  C   UNL     1      -1.046  -4.490   0.222  1.00  0.00     0.000 C 
BRANCH   5   6
ATOM      6  C   UNL     1      -2.309  -3.760  -0.278  1.00  0.00     0.000 C 
BRANCH   6   7
ATOM      7  C   UNL     1      -2.646  -4.026  -1.761  1.00  0.00     0.000 C 
BRANCH   7   8
ATOM      8  C   UNL     1      -2.009  -5.324  -2.291  1.00  0.00     0.000 C 
BRANCH   8   9
ATOM      9  C   UNL     1      -3.014  -6.482  -2.387  1.00  0.00     0.000 C 
BRANCH   9  10
ATOM     10  C   UNL     1      -4.387  -6.125  -1.790  1.00  0.00     0.000 C 
BRANCH  10  11
ATOM     11  C   UNL     1      -5.555  -6.810  -2.523  1.00  0.00     0.000 C 
BRANCH  11  12
ATOM     12  C   UNL     1      -6.659  -5.858  -3.017  1.00  0.00     0.006 C 
BRANCH  12  13
ATOM     13  C   UNL     1      -6.883  -4.659  -2.079  1.00  0.00     0.053 C 
BRANCH  13  14
ATOM     14  C   UNL     1      -8.329  -4.259  -1.975  1.00  0.00     0.041 C 
ATOM     15  O   UNL     1      -8.827  -3.879  -0.882  1.00  0.00    -0.550 OA
ATOM     16  O   UNL     1      -9.137  -4.330  -3.103  1.00  0.00    -0.550 OA
ENDBRANCH  13  14
ENDBRANCH  12  13
ENDBRANCH  11  12
ENDBRANCH  10  11
ENDBRANCH   9  10
ENDBRANCH   8   9
ENDBRANCH   7   8
ENDBRANCH   6   7
ENDBRANCH   5   6
ENDBRANCH   4   5
ENDBRANCH   3   4
ENDBRANCH   2   3
ENDBRANCH   1   2
BRANCH   1  17
ATOM     17  C   UNL     1      -1.151  -7.549   4.934  1.00  0.00     0.000 C 
BRANCH  17  18
ATOM     18  C   UNL     1       0.338  -7.389   5.306  1.00  0.00     0.000 C 
BRANCH  18  19
ATOM     19  C   UNL     1       1.188  -6.591   4.296  1.00  0.00     0.000 C 
BRANCH  19  20
ATOM     20  C   UNL     1       1.526  -5.150   4.722  1.00  0.00     0.000 C 
BRANCH  20  21
ATOM     21  C   UNL     1       0.700  -4.094   3.969  1.00  0.00     0.000 C 
BRANCH  21  22
ATOM     22  C   UNL     1      -0.507  -3.602   4.795  1.00  0.00    -0.000 C 
BRANCH  22  23
ATOM     23  C   UNL     1      -0.917  -2.153   4.485  1.00  0.00    -0.000 C 
BRANCH  23  24
ATOM     24  C   UNL     1      -1.950  -2.053   3.351  1.00  0.00    -0.000 C 
BRANCH  24  25
ATOM     25  C   UNL     1      -3.353  -1.686   3.860  1.00  0.00    -0.000 C 
BRANCH  25  26
ATOM     26  C   UNL     1      -4.416  -2.720   3.452  1.00  0.00    -0.000 C 
BRANCH  26  27
ATOM     27  C   UNL     1      -4.991  -3.481   4.657  1.00  0.00    -0.000 C 
BRANCH  27  28
ATOM     28  C   UNL     1      -4.219  -3.198   5.957  1.00  0.00    -0.000 C 
BRANCH  28  29
ATOM     29  C   UNL     1      -4.300  -4.362   6.956  1.00  0.00    -0.003 C 
ATOM     30  C   UNL     1      -2.987  -5.136   7.069  1.00  0.00     0.004 C 
ENDBRANCH  28  29
ENDBRANCH  27  28
ENDBRANCH  26  27
ENDBRANCH  25  26
ENDBRANCH  24  25
ENDBRANCH  23  24
ENDBRANCH  22  23
ENDBRANCH  21  22
ENDBRANCH  20  21
ENDBRANCH  19  20
ENDBRANCH  18  19
ENDBRANCH  17  18
ENDBRANCH   1  17
TORSDOF 26
ENDMDL
