MODEL 1
REMARK VINA RESULT:     6.965      0.000      0.000
REMARK INTER + INTRA:          11.257
REMARK INTER:                  11.851
REMARK INTRA:                  -0.594
REMARK UNBOUND:                -0.594
REMARK SMILES CCCCCCCCCCCCCC(=O)[O-]
REMARK SMILES IDX 8 1 9 2 10 3 11 4 12 5 13 6 14 7 15 8 16 9 7 10 6 11 5 12
REMARK SMILES IDX 4 13 3 14 2 15 1 16
REMARK H PARENT
REMARK Flexibility Score: inf
ROOT
ATOM      1  C   UNL     1       3.697   7.322  -2.145  1.00  0.00     0.000 C 
ENDROOT
BRANCH   1   2
ATOM      2  C   UNL     1       2.803   7.689  -3.343  1.00  0.00     0.000 C 
BRANCH   2   3
ATOM      3  C   UNL     1       1.436   6.989  -3.296  1.00  0.00     0.000 C 
BRANCH   3   4
ATOM      4  C   UNL     1       0.368   7.722  -4.123  1.00  0.00     0.000 C 
BRANCH   4   5
ATOM      5  C   UNL     1       1.009   8.752  -5.061  1.00  0.00     0.006 C 
BRANCH   5   6
ATOM      6  C   UNL     1       0.288   8.790  -6.411  1.00  0.00     0.053 C 
BRANCH   6   7
ATOM      7  C   UNL     1       1.235   8.460  -7.521  1.00  0.00     0.041 C 
ATOM      8  O   UNL     1       0.809   7.933  -8.582  1.00  0.00    -0.550 OA
ATOM      9  O   UNL     1       2.596   8.690  -7.364  1.00  0.00    -0.550 OA
ENDBRANCH   6   7
ENDBRANCH   5   6
ENDBRANCH   4   5
ENDBRANCH   3   4
ENDBRANCH   2   3
ENDBRANCH   1   2
BRANCH   1  10
ATOM     10  C   UNL     1       5.166   7.717  -2.364  1.00  0.00     0.000 C 
BRANCH  10  11
ATOM     11  C   UNL     1       6.077   6.497  -2.585  1.00  0.00    -0.000 C 
BRANCH  11  12
ATOM     12  C   UNL     1       5.355   5.335  -3.284  1.00  0.00    -0.000 C 
BRANCH  12  13
ATOM     13  C   UNL     1       6.100   4.847  -4.539  1.00  0.00    -0.000 C 
BRANCH  13  14
ATOM     14  C   UNL     1       6.764   3.472  -4.344  1.00  0.00    -0.000 C 
BRANCH  14  15
ATOM     15  C   UNL     1       7.218   3.166  -2.906  1.00  0.00    -0.003 C 
ATOM     16  C   UNL     1       7.234   1.671  -2.586  1.00  0.00     0.004 C 
ENDBRANCH  14  15
ENDBRANCH  13  14
ENDBRANCH  12  13
ENDBRANCH  11  12
ENDBRANCH  10  11
ENDBRANCH   1  10
TORSDOF 12
ENDMDL
MODEL 2
REMARK VINA RESULT:     7.291      0.628      1.324
REMARK INTER + INTRA:          11.812
REMARK INTER:                  12.432
REMARK INTRA:                  -0.620
REMARK UNBOUND:                -0.594
REMARK SMILES CCCCCCCCCCCCCC(=O)[O-]
REMARK SMILES IDX 8 1 9 2 10 3 11 4 12 5 13 6 14 7 15 8 16 9 7 10 6 11 5 12
REMARK SMILES IDX 4 13 3 14 2 15 1 16
REMARK H PARENT
REMARK Flexibility Score: inf
ROOT
ATOM      1  C   UNL     1       2.788   7.619  -3.194  1.00  0.00     0.000 C 
ENDROOT
BRANCH   1   2
ATOM      2  C   UNL     1       1.438   6.885  -3.091  1.00  0.00     0.000 C 
BRANCH   2   3
ATOM      3  C   UNL     1       0.519   7.168  -4.288  1.00  0.00     0.000 C 
BRANCH   3   4
ATOM      4  C   UNL     1       0.164   8.657  -4.423  1.00  0.00     0.000 C 
BRANCH   4   5
ATOM      5  C   UNL     1       0.448   9.163  -5.843  1.00  0.00     0.006 C 
BRANCH   5   6
ATOM      6  C   UNL     1       1.826   8.702  -6.325  1.00  0.00     0.053 C 
BRANCH   6   7
ATOM      7  C   UNL     1       1.866   8.641  -7.819  1.00  0.00     0.041 C 
ATOM      8  O   UNL     1       0.890   8.170  -8.461  1.00  0.00    -0.550 OA
ATOM      9  O   UNL     1       3.000   9.060  -8.502  1.00  0.00    -0.550 OA
ENDBRANCH   6   7
ENDBRANCH   5   6
ENDBRANCH   4   5
ENDBRANCH   3   4
ENDBRANCH   2   3
ENDBRANCH   1   2
BRANCH   1  10
ATOM     10  C   UNL     1       3.748   7.248  -2.053  1.00  0.00     0.000 C 
BRANCH  10  11
ATOM     11  C   UNL     1       5.193   7.703  -2.328  1.00  0.00    -0.000 C 
BRANCH  11  12
ATOM     12  C   UNL     1       6.142   6.529  -2.611  1.00  0.00    -0.000 C 
BRANCH  12  13
ATOM     13  C   UNL     1       5.413   5.309  -3.199  1.00  0.00    -0.000 C 
BRANCH  13  14
ATOM     14  C   UNL     1       6.181   4.653  -4.361  1.00  0.00    -0.000 C 
BRANCH  14  15
ATOM     15  C   UNL     1       6.570   3.181  -4.135  1.00  0.00    -0.003 C 
ATOM     16  C   UNL     1       7.257   2.941  -2.791  1.00  0.00     0.004 C 
ENDBRANCH  14  15
ENDBRANCH  13  14
ENDBRANCH  12  13
ENDBRANCH  11  12
ENDBRANCH  10  11
ENDBRANCH   1  10
TORSDOF 12
ENDMDL
MODEL 3
REMARK VINA RESULT:     8.226      2.505      6.660
REMARK INTER + INTRA:          13.402
REMARK INTER:                  13.810
REMARK INTRA:                  -0.408
REMARK UNBOUND:                -0.594
REMARK SMILES CCCCCCCCCCCCCC(=O)[O-]
REMARK SMILES IDX 8 1 9 2 10 3 11 4 12 5 13 6 14 7 15 8 16 9 7 10 6 11 5 12
REMARK SMILES IDX 4 13 3 14 2 15 1 16
REMARK H PARENT
REMARK Flexibility Score: inf
ROOT
ATOM      1  C   UNL     1       1.384   7.208  -2.793  1.00  0.00     0.000 C 
ENDROOT
BRANCH   1   2
ATOM      2  C   UNL     1       2.859   7.505  -3.118  1.00  0.00     0.000 C 
BRANCH   2   3
ATOM      3  C   UNL     1       3.791   7.244  -1.925  1.00  0.00     0.000 C 
BRANCH   3   4
ATOM      4  C   UNL     1       5.236   7.692  -2.194  1.00  0.00     0.000 C 
BRANCH   4   5
ATOM      5  C   UNL     1       6.099   6.514  -2.662  1.00  0.00     0.006 C 
BRANCH   5   6
ATOM      6  C   UNL     1       5.231   5.393  -3.242  1.00  0.00     0.053 C 
BRANCH   6   7
ATOM      7  C   UNL     1       6.013   4.578  -4.222  1.00  0.00     0.041 C 
ATOM      8  O   UNL     1       5.937   4.823  -5.455  1.00  0.00    -0.550 OA
ATOM      9  O   UNL     1       6.791   3.516  -3.778  1.00  0.00    -0.550 OA
ENDBRANCH   6   7
ENDBRANCH   5   6
ENDBRANCH   4   5
ENDBRANCH   3   4
ENDBRANCH   2   3
ENDBRANCH   1   2
BRANCH   1  10
ATOM     10  C   UNL     1       0.484   7.267  -4.037  1.00  0.00     0.000 C 
BRANCH  10  11
ATOM     11  C   UNL     1       0.185   8.711  -4.479  1.00  0.00    -0.000 C 
BRANCH  11  12
ATOM     12  C   UNL     1       0.885   9.086  -5.795  1.00  0.00    -0.000 C 
BRANCH  12  13
ATOM     13  C   UNL     1       0.177   8.499  -7.027  1.00  0.00    -0.000 C 
BRANCH  13  14
ATOM     14  C   UNL     1       1.132   8.271  -8.215  1.00  0.00    -0.000 C 
BRANCH  14  15
ATOM     15  C   UNL     1       2.561   8.804  -8.011  1.00  0.00    -0.003 C 
ATOM     16  C   UNL     1       3.141   9.460  -9.264  1.00  0.00     0.004 C 
ENDBRANCH  14  15
ENDBRANCH  13  14
ENDBRANCH  12  13
ENDBRANCH  11  12
ENDBRANCH  10  11
ENDBRANCH   1  10
TORSDOF 12
ENDMDL
MODEL 4
REMARK VINA RESULT:     8.273      2.664      7.115
REMARK INTER + INTRA:          13.483
REMARK INTER:                  13.885
REMARK INTRA:                  -0.402
REMARK UNBOUND:                -0.594
REMARK SMILES CCCCCCCCCCCCCC(=O)[O-]
REMARK SMILES IDX 8 1 9 2 10 3 11 4 12 5 13 6 14 7 15 8 16 9 7 10 6 11 5 12
REMARK SMILES IDX 4 13 3 14 2 15 1 16
REMARK H PARENT
REMARK Flexibility Score: inf
ROOT
ATOM      1  C   UNL     1       1.386   7.216  -3.255  1.00  0.00     0.000 C 
ENDROOT
BRANCH   1   2
ATOM      2  C   UNL     1       2.864   7.642  -3.306  1.00  0.00     0.000 C 
BRANCH   2   3
ATOM      3  C   UNL     1       3.658   7.168  -2.079  1.00  0.00     0.000 C 
BRANCH   3   4
ATOM      4  C   UNL     1       5.115   7.655  -2.093  1.00  0.00     0.000 C 
BRANCH   4   5
ATOM      5  C   UNL     1       6.038   6.608  -2.730  1.00  0.00     0.006 C 
BRANCH   5   6
ATOM      6  C   UNL     1       5.248   5.369  -3.160  1.00  0.00     0.053 C 
BRANCH   6   7
ATOM      7  C   UNL     1       6.038   4.558  -4.137  1.00  0.00     0.041 C 
ATOM      8  O   UNL     1       5.953   4.791  -5.372  1.00  0.00    -0.550 OA
ATOM      9  O   UNL     1       6.833   3.510  -3.689  1.00  0.00    -0.550 OA
ENDBRANCH   6   7
ENDBRANCH   5   6
ENDBRANCH   4   5
ENDBRANCH   3   4
ENDBRANCH   2   3
ENDBRANCH   1   2
BRANCH   1  10
ATOM     10  C   UNL     1       0.447   8.276  -3.855  1.00  0.00     0.000 C 
BRANCH  10  11
ATOM     11  C   UNL     1       0.218   8.073  -5.363  1.00  0.00    -0.000 C 
BRANCH  11  12
ATOM     12  C   UNL     1       0.917   9.142  -6.219  1.00  0.00    -0.000 C 
BRANCH  12  13
ATOM     13  C   UNL     1       1.427   8.585  -7.558  1.00  0.00    -0.000 C 
BRANCH  13  14
ATOM     14  C   UNL     1       0.323   7.890  -8.378  1.00  0.00    -0.000 C 
BRANCH  14  15
ATOM     15  C   UNL     1      -0.320   8.762  -9.472  1.00  0.00    -0.003 C 
ATOM     16  C   UNL     1      -0.513   8.019 -10.794  1.00  0.00     0.004 C 
ENDBRANCH  14  15
ENDBRANCH  13  14
ENDBRANCH  12  13
ENDBRANCH  11  12
ENDBRANCH  10  11
ENDBRANCH   1  10
TORSDOF 12
ENDMDL
MODEL 5
REMARK VINA RESULT:     8.476      1.523      2.772
REMARK INTER + INTRA:          13.829
REMARK INTER:                  14.291
REMARK INTRA:                  -0.462
REMARK UNBOUND:                -0.594
REMARK SMILES CCCCCCCCCCCCCC(=O)[O-]
REMARK SMILES IDX 8 1 9 2 10 3 11 4 12 5 13 6 14 7 15 8 16 9 7 10 6 11 5 12
REMARK SMILES IDX 4 13 3 14 2 15 1 16
REMARK H PARENT
REMARK Flexibility Score: inf
ROOT
ATOM      1  C   UNL     1       1.155   7.226  -3.136  1.00  0.00     0.000 C 
ENDROOT
BRANCH   1   2
ATOM      2  C   UNL     1       0.353   7.586  -4.400  1.00  0.00     0.000 C 
BRANCH   2   3
ATOM      3  C   UNL     1       0.840   8.885  -5.059  1.00  0.00     0.000 C 
BRANCH   3   4
ATOM      4  C   UNL     1       1.309   8.675  -6.507  1.00  0.00     0.000 C 
BRANCH   4   5
ATOM      5  C   UNL     1       0.122   8.379  -7.431  1.00  0.00     0.006 C 
BRANCH   5   6
ATOM      6  C   UNL     1       0.580   8.234  -8.885  1.00  0.00     0.053 C 
BRANCH   6   7
ATOM      7  C   UNL     1      -0.502   8.666  -9.822  1.00  0.00     0.041 C 
ATOM      8  O   UNL     1      -1.375   9.492  -9.445  1.00  0.00    -0.550 OA
ATOM      9  O   UNL     1      -0.576   8.122 -11.098  1.00  0.00    -0.550 OA
ENDBRANCH   6   7
ENDBRANCH   5   6
ENDBRANCH   4   5
ENDBRANCH   3   4
ENDBRANCH   2   3
ENDBRANCH   1   2
BRANCH   1  10
ATOM     10  C   UNL     1       2.642   7.594  -3.257  1.00  0.00     0.000 C 
BRANCH  10  11
ATOM     11  C   UNL     1       3.501   6.944  -2.158  1.00  0.00    -0.000 C 
BRANCH  11  12
ATOM     12  C   UNL     1       4.953   7.447  -2.164  1.00  0.00    -0.000 C 
BRANCH  12  13
ATOM     13  C   UNL     1       5.925   6.435  -2.794  1.00  0.00    -0.000 C 
BRANCH  13  14
ATOM     14  C   UNL     1       5.207   5.341  -3.607  1.00  0.00    -0.000 C 
BRANCH  14  15
ATOM     15  C   UNL     1       6.138   4.320  -4.286  1.00  0.00    -0.003 C 
ATOM     16  C   UNL     1       6.830   3.386  -3.293  1.00  0.00     0.004 C 
ENDBRANCH  14  15
ENDBRANCH  13  14
ENDBRANCH  12  13
ENDBRANCH  11  12
ENDBRANCH  10  11
ENDBRANCH   1  10
TORSDOF 12
ENDMDL
MODEL 6
REMARK VINA RESULT:     8.913      3.271      7.097
REMARK INTER + INTRA:          14.572
REMARK INTER:                  15.099
REMARK INTRA:                  -0.528
REMARK UNBOUND:                -0.594
REMARK SMILES CCCCCCCCCCCCCC(=O)[O-]
REMARK SMILES IDX 8 1 9 2 10 3 11 4 12 5 13 6 14 7 15 8 16 9 7 10 6 11 5 12
REMARK SMILES IDX 4 13 3 14 2 15 1 16
REMARK H PARENT
REMARK Flexibility Score: inf
ROOT
ATOM      1  C   UNL     1       3.524   7.234  -2.145  1.00  0.00     0.000 C 
ENDROOT
BRANCH   1   2
ATOM      2  C   UNL     1       5.018   7.598  -2.212  1.00  0.00     0.000 C 
BRANCH   2   3
ATOM      3  C   UNL     1       5.869   6.485  -2.841  1.00  0.00     0.000 C 
BRANCH   3   4
ATOM      4  C   UNL     1       5.025   5.298  -3.330  1.00  0.00     0.000 C 
BRANCH   4   5
ATOM      5  C   UNL     1       5.729   4.557  -4.473  1.00  0.00     0.006 C 
BRANCH   5   6
ATOM      6  C   UNL     1       7.118   4.076  -4.043  1.00  0.00     0.053 C 
BRANCH   6   7
ATOM      7  C   UNL     1       7.084   2.623  -3.691  1.00  0.00     0.041 C 
ATOM      8  O   UNL     1       6.939   1.755  -4.591  1.00  0.00    -0.550 OA
ATOM      9  O   UNL     1       7.166   2.229  -2.361  1.00  0.00    -0.550 OA
ENDBRANCH   6   7
ENDBRANCH   5   6
ENDBRANCH   4   5
ENDBRANCH   3   4
ENDBRANCH   2   3
ENDBRANCH   1   2
BRANCH   1  10
ATOM     10  C   UNL     1       2.757   7.655  -3.408  1.00  0.00     0.000 C 
BRANCH  10  11
ATOM     11  C   UNL     1       1.320   7.104  -3.437  1.00  0.00    -0.000 C 
BRANCH  11  12
ATOM     12  C   UNL     1       0.342   8.035  -4.170  1.00  0.00    -0.000 C 
BRANCH  12  13
ATOM     13  C   UNL     1       0.978   8.712  -5.395  1.00  0.00    -0.000 C 
BRANCH  13  14
ATOM     14  C   UNL     1       0.141   8.543  -6.677  1.00  0.00    -0.000 C 
BRANCH  14  15
ATOM     15  C   UNL     1       0.957   8.359  -7.968  1.00  0.00    -0.003 C 
ATOM     16  C   UNL     1       2.409   8.819  -7.831  1.00  0.00     0.004 C 
ENDBRANCH  14  15
ENDBRANCH  13  14
ENDBRANCH  12  13
ENDBRANCH  11  12
ENDBRANCH  10  11
ENDBRANCH   1  10
TORSDOF 12
ENDMDL
MODEL 7
REMARK VINA RESULT:     9.175      3.437      7.802
REMARK INTER + INTRA:          15.017
REMARK INTER:                  15.539
REMARK INTRA:                  -0.522
REMARK UNBOUND:                -0.594
REMARK SMILES CCCCCCCCCCCCCC(=O)[O-]
REMARK SMILES IDX 8 1 9 2 10 3 11 4 12 5 13 6 14 7 15 8 16 9 7 10 6 11 5 12
REMARK SMILES IDX 4 13 3 14 2 15 1 16
REMARK H PARENT
REMARK Flexibility Score: inf
ROOT
ATOM      1  C   UNL     1       0.799   9.103  -5.884  1.00  0.00     0.000 C 
ENDROOT
BRANCH   1   2
ATOM      2  C   UNL     1       0.215   7.942  -5.058  1.00  0.00     0.000 C 
BRANCH   2   3
ATOM      3  C   UNL     1       0.589   8.028  -3.571  1.00  0.00     0.000 C 
BRANCH   3   4
ATOM      4  C   UNL     1       1.590   6.941  -3.149  1.00  0.00     0.000 C 
BRANCH   4   5
ATOM      5  C   UNL     1       3.034   7.417  -3.349  1.00  0.00     0.006 C 
BRANCH   5   6
ATOM      6  C   UNL     1       3.863   7.207  -2.079  1.00  0.00     0.053 C 
BRANCH   6   7
ATOM      7  C   UNL     1       5.324   7.230  -2.397  1.00  0.00     0.041 C 
ATOM      8  O   UNL     1       5.855   6.268  -3.010  1.00  0.00    -0.550 OA
ATOM      9  O   UNL     1       6.111   8.294  -1.973  1.00  0.00    -0.550 OA
ENDBRANCH   6   7
ENDBRANCH   5   6
ENDBRANCH   4   5
ENDBRANCH   3   4
ENDBRANCH   2   3
ENDBRANCH   1   2
BRANCH   1  10
ATOM     10  C   UNL     1       1.703   8.615  -7.027  1.00  0.00     0.000 C 
BRANCH  10  11
ATOM     11  C   UNL     1       0.899   8.124  -8.245  1.00  0.00    -0.000 C 
BRANCH  11  12
ATOM     12  C   UNL     1      -0.529   8.691  -8.281  1.00  0.00    -0.000 C 
BRANCH  12  13
ATOM     13  C   UNL     1      -1.023   8.953  -9.713  1.00  0.00    -0.000 C 
BRANCH  13  14
ATOM     14  C   UNL     1      -0.166   8.248 -10.782  1.00  0.00    -0.000 C 
BRANCH  14  15
ATOM     15  C   UNL     1      -0.964   7.543 -11.894  1.00  0.00    -0.003 C 
ATOM     16  C   UNL     1      -0.269   7.594 -13.255  1.00  0.00     0.004 C 
ENDBRANCH  14  15
ENDBRANCH  13  14
ENDBRANCH  12  13
ENDBRANCH  11  12
ENDBRANCH  10  11
ENDBRANCH   1  10
TORSDOF 12
ENDMDL
MODEL 8
REMARK VINA RESULT:     9.179      3.582      7.348
REMARK INTER + INTRA:          15.024
REMARK INTER:                  15.707
REMARK INTRA:                  -0.682
REMARK UNBOUND:                -0.594
REMARK SMILES CCCCCCCCCCCCCC(=O)[O-]
REMARK SMILES IDX 8 1 9 2 10 3 11 4 12 5 13 6 14 7 15 8 16 9 7 10 6 11 5 12
REMARK SMILES IDX 4 13 3 14 2 15 1 16
REMARK H PARENT
REMARK Flexibility Score: inf
ROOT
ATOM      1  C   UNL     1       0.860   8.964  -5.663  1.00  0.00     0.000 C 
ENDROOT
BRANCH   1   2
ATOM      2  C   UNL     1       0.158   8.530  -4.363  1.00  0.00     0.000 C 
BRANCH   2   3
ATOM      3  C   UNL     1       0.956   7.475  -3.584  1.00  0.00     0.000 C 
BRANCH   3   4
ATOM      4  C   UNL     1       2.472   7.601  -3.800  1.00  0.00     0.000 C 
BRANCH   4   5
ATOM      5  C   UNL     1       3.237   6.589  -2.939  1.00  0.00     0.006 C 
BRANCH   5   6
ATOM      6  C   UNL     1       4.024   7.293  -1.830  1.00  0.00     0.053 C 
BRANCH   6   7
ATOM      7  C   UNL     1       5.467   7.409  -2.205  1.00  0.00     0.041 C 
ATOM      8  O   UNL     1       6.073   6.427  -2.710  1.00  0.00    -0.550 OA
ATOM      9  O   UNL     1       6.159   8.588  -1.953  1.00  0.00    -0.550 OA
ENDBRANCH   6   7
ENDBRANCH   5   6
ENDBRANCH   4   5
ENDBRANCH   3   4
ENDBRANCH   2   3
ENDBRANCH   1   2
BRANCH   1  10
ATOM     10  C   UNL     1       0.185   8.387  -6.917  1.00  0.00     0.000 C 
BRANCH  10  11
ATOM     11  C   UNL     1       1.127   8.363  -8.134  1.00  0.00    -0.000 C 
BRANCH  11  12
ATOM     12  C   UNL     1       2.490   9.009  -7.842  1.00  0.00    -0.000 C 
BRANCH  12  13
ATOM     13  C   UNL     1       3.397   9.059  -9.084  1.00  0.00    -0.000 C 
BRANCH  13  14
ATOM     14  C   UNL     1       2.953  10.122 -10.107  1.00  0.00    -0.000 C 
BRANCH  14  15
ATOM     15  C   UNL     1       3.406   9.860 -11.555  1.00  0.00    -0.003 C 
ATOM     16  C   UNL     1       2.685  10.738 -12.577  1.00  0.00     0.004 C 
ENDBRANCH  14  15
ENDBRANCH  13  14
ENDBRANCH  12  13
ENDBRANCH  11  12
ENDBRANCH  10  11
ENDBRANCH   1  10
TORSDOF 12
ENDMDL
