MODEL 1
REMARK VINA RESULT:     0.356      0.000      0.000
REMARK INTER + INTRA:           3.139
REMARK INTER:                   0.543
REMARK INTRA:                   2.596
REMARK UNBOUND:                 2.596
REMARK SMILES CC(=O)CCC=C(C)CCC=C(C)CCC=C(C)C
REMARK SMILES IDX 10 1 11 2 12 3 13 4 14 5 15 6 16 7 18 8 17 9 19 10 9 11 7 12
REMARK SMILES IDX 6 13 8 14 5 15 4 16 2 17 3 18 1 19
REMARK H PARENT
REMARK Flexibility Score: inf
ROOT
ATOM      1  C   UNL     1      -3.448   5.795   6.175  1.00  0.00     0.032 C 
ENDROOT
BRANCH   1   2
ATOM      2  C   UNL     1      -4.087   5.988   7.530  1.00  0.00    -0.028 C 
ATOM      3  C   UNL     1      -3.431   6.274   8.680  1.00  0.00    -0.077 C 
ATOM      4  C   UNL     1      -4.242   6.390   9.946  1.00  0.00     0.039 C 
BRANCH   3   5
ATOM      5  C   UNL     1      -1.926   6.458   8.770  1.00  0.00     0.034 C 
BRANCH   5   6
ATOM      6  C   UNL     1      -1.531   7.194  10.057  1.00  0.00     0.032 C 
BRANCH   6   7
ATOM      7  C   UNL     1      -0.038   7.396  10.119  1.00  0.00    -0.028 C 
ATOM      8  C   UNL     1      -0.194   9.865   9.723  1.00  0.00     0.039 C 
ATOM      9  C   UNL     1       0.577   8.594   9.995  1.00  0.00    -0.080 C 
ATOM     10  C   UNL     1       2.078   8.647  10.118  1.00  0.00     0.039 C 
ENDBRANCH   6   7
ENDBRANCH   5   6
ENDBRANCH   3   5
ENDBRANCH   1   2
BRANCH   1  11
ATOM     11  C   UNL     1      -3.032   4.337   5.929  1.00  0.00     0.034 C 
BRANCH  11  12
ATOM     12  C   UNL     1      -3.819   3.375   6.797  1.00  0.00    -0.077 C 
ATOM     13  C   UNL     1      -4.271   3.795   8.000  1.00  0.00    -0.028 C 
ATOM     14  C   UNL     1      -4.067   1.970   6.300  1.00  0.00     0.039 C 
BRANCH  13  15
ATOM     15  C   UNL     1      -5.125   2.966   8.926  1.00  0.00     0.035 C 
BRANCH  15  16
ATOM     16  C   UNL     1      -5.588   3.800  10.125  1.00  0.00     0.079 C 
BRANCH  16  17
ATOM     17  C   UNL     1      -7.059   4.107  10.022  1.00  0.00     0.130 C 
ATOM     18  O   UNL     1      -7.425   5.267   9.916  1.00  0.00    -0.300 OA
ATOM     19  C   UNL     1      -8.087   3.015  10.034  1.00  0.00     0.087 C 
ENDBRANCH  16  17
ENDBRANCH  15  16
ENDBRANCH  13  15
ENDBRANCH  11  12
ENDBRANCH   1  11
TORSDOF 9
ENDMDL
MODEL 2
REMARK VINA RESULT:     1.318      2.050      6.623
REMARK INTER + INTRA:           4.607
REMARK INTER:                   4.109
REMARK INTRA:                   0.498
REMARK UNBOUND:                 2.596
REMARK SMILES CC(=O)CCC=C(C)CCC=C(C)CCC=C(C)C
REMARK SMILES IDX 10 1 11 2 12 3 13 4 14 5 15 6 16 7 18 8 17 9 19 10 9 11 7 12
REMARK SMILES IDX 6 13 8 14 5 15 4 16 2 17 3 18 1 19
REMARK H PARENT
REMARK Flexibility Score: inf
ROOT
ATOM      1  C   UNL     1      -2.936   4.602   6.551  1.00  0.00     0.032 C 
ENDROOT
BRANCH   1   2
ATOM      2  C   UNL     1      -4.131   3.678   6.565  1.00  0.00    -0.028 C 
ATOM      3  C   UNL     1      -4.438   2.797   7.547  1.00  0.00    -0.077 C 
ATOM      4  C   UNL     1      -5.657   1.929   7.361  1.00  0.00     0.039 C 
BRANCH   3   5
ATOM      5  C   UNL     1      -3.611   2.617   8.809  1.00  0.00     0.034 C 
BRANCH   5   6
ATOM      6  C   UNL     1      -4.295   3.267  10.019  1.00  0.00     0.032 C 
BRANCH   6   7
ATOM      7  C   UNL     1      -5.763   2.923  10.049  1.00  0.00    -0.028 C 
ATOM      8  C   UNL     1      -6.488   5.320  10.125  1.00  0.00     0.039 C 
ATOM      9  C   UNL     1      -6.762   3.835  10.072  1.00  0.00    -0.080 C 
ATOM     10  C   UNL     1      -8.186   3.341  10.061  1.00  0.00     0.039 C 
ENDBRANCH   6   7
ENDBRANCH   5   6
ENDBRANCH   3   5
ENDBRANCH   1   2
BRANCH   1  11
ATOM     11  C   UNL     1      -3.308   6.042   6.932  1.00  0.00     0.034 C 
BRANCH  11  12
ATOM     12  C   UNL     1      -2.992   6.338   8.385  1.00  0.00    -0.077 C 
ATOM     13  C   UNL     1      -1.736   6.708   8.722  1.00  0.00    -0.028 C 
ATOM     14  C   UNL     1      -4.084   6.198   9.419  1.00  0.00     0.039 C 
BRANCH  13  15
ATOM     15  C   UNL     1      -1.308   7.098  10.114  1.00  0.00     0.035 C 
BRANCH  15  16
ATOM     16  C   UNL     1       0.145   7.586  10.115  1.00  0.00     0.079 C 
BRANCH  16  17
ATOM     17  C   UNL     1       0.202   9.085   9.984  1.00  0.00     0.130 C 
ATOM     18  O   UNL     1      -0.826   9.709   9.768  1.00  0.00    -0.300 OA
ATOM     19  C   UNL     1       1.495   9.833  10.125  1.00  0.00     0.087 C 
ENDBRANCH  16  17
ENDBRANCH  15  16
ENDBRANCH  13  15
ENDBRANCH  11  12
ENDBRANCH   1  11
TORSDOF 9
ENDMDL
MODEL 3
REMARK VINA RESULT:     2.245      3.139      4.148
REMARK INTER + INTRA:           6.021
REMARK INTER:                   7.067
REMARK INTRA:                  -1.046
REMARK UNBOUND:                 2.596
REMARK SMILES CC(=O)CCC=C(C)CCC=C(C)CCC=C(C)C
REMARK SMILES IDX 10 1 11 2 12 3 13 4 14 5 15 6 16 7 18 8 17 9 19 10 9 11 7 12
REMARK SMILES IDX 6 13 8 14 5 15 4 16 2 17 3 18 1 19
REMARK H PARENT
REMARK Flexibility Score: inf
ROOT
ATOM      1  C   UNL     1      -5.098   4.371   9.367  1.00  0.00     0.032 C 
ENDROOT
BRANCH   1   2
ATOM      2  C   UNL     1      -4.657   5.195   8.180  1.00  0.00    -0.028 C 
ATOM      3  C   UNL     1      -3.439   5.768   8.024  1.00  0.00    -0.077 C 
ATOM      4  C   UNL     1      -3.199   6.590   6.783  1.00  0.00     0.039 C 
BRANCH   3   5
ATOM      5  C   UNL     1      -2.315   5.650   9.038  1.00  0.00     0.034 C 
BRANCH   5   6
ATOM      6  C   UNL     1      -2.109   6.968   9.796  1.00  0.00     0.032 C 
BRANCH   6   7
ATOM      7  C   UNL     1      -0.640   7.244   9.996  1.00  0.00    -0.028 C 
ATOM      8  C   UNL     1      -0.848   9.665   9.388  1.00  0.00     0.039 C 
ATOM      9  C   UNL     1      -0.062   8.456   9.839  1.00  0.00    -0.080 C 
ATOM     10  C   UNL     1       1.415   8.588  10.112  1.00  0.00     0.039 C 
ENDBRANCH   6   7
ENDBRANCH   5   6
ENDBRANCH   3   5
ENDBRANCH   1   2
BRANCH   1  11
ATOM     11  C   UNL     1      -5.391   2.912   8.986  1.00  0.00     0.034 C 
BRANCH  11  12
ATOM     12  C   UNL     1      -4.238   2.289   8.225  1.00  0.00    -0.077 C 
ATOM     13  C   UNL     1      -3.213   1.743   8.918  1.00  0.00    -0.028 C 
ATOM     14  C   UNL     1      -4.258   2.305   6.715  1.00  0.00     0.039 C 
BRANCH  13  15
ATOM     15  C   UNL     1      -2.043   1.031   8.287  1.00  0.00     0.035 C 
BRANCH  15  16
ATOM     16  C   UNL     1      -1.547  -0.100   9.195  1.00  0.00     0.079 C 
BRANCH  16  17
ATOM     17  C   UNL     1      -1.623  -1.425   8.484  1.00  0.00     0.130 C 
ATOM     18  O   UNL     1      -1.594  -1.454   7.263  1.00  0.00    -0.300 OA
ATOM     19  C   UNL     1      -1.723  -2.714   9.243  1.00  0.00     0.087 C 
ENDBRANCH  16  17
ENDBRANCH  15  16
ENDBRANCH  13  15
ENDBRANCH  11  12
ENDBRANCH   1  11
TORSDOF 9
ENDMDL
