MODEL 1
REMARK VINA RESULT:    -4.701      0.000      0.000
REMARK INTER + INTRA:          -5.341
REMARK INTER:                  -5.250
REMARK INTRA:                  -0.090
REMARK UNBOUND:                -0.090
REMARK SMILES CCc1ccc(O)cc1O
REMARK SMILES IDX 3 1 9 2 8 3 6 4 5 5 4 6 2 7 1 8 10 9 7 11
REMARK H PARENT 10 10 7 12
REMARK Flexibility Score: inf
ROOT
ATOM      1  C   UNL     1     -12.984   2.282  29.672  1.00  0.00    -0.006 A 
ATOM      2  C   UNL     1     -13.362   0.922  29.810  1.00  0.00     0.122 A 
ATOM      3  C   UNL     1     -12.940   0.195  30.929  1.00  0.00     0.092 A 
ATOM      4  C   UNL     1     -12.134   0.789  31.904  1.00  0.00     0.119 A 
ATOM      5  C   UNL     1     -11.744   2.124  31.762  1.00  0.00     0.047 A 
ATOM      6  C   UNL     1     -12.162   2.864  30.653  1.00  0.00     0.011 A 
ENDROOT
BRANCH   1   7
ATOM      7  C   UNL     1     -13.400   3.116  28.483  1.00  0.00     0.036 C 
ATOM      8  C   UNL     1     -14.272   4.291  28.919  1.00  0.00     0.009 C 
ENDBRANCH   1   7
BRANCH   2   9
ATOM      9  O   UNL     1     -14.148   0.263  28.860  1.00  0.00    -0.508 OA
ATOM     10  H   UNL     1     -14.663  -0.584  29.052  1.00  0.00     0.293 HD
ENDBRANCH   2   9
BRANCH   4  11
ATOM     11  O   UNL     1     -11.726   0.043  33.007  1.00  0.00    -0.508 OA
ATOM     12  H   UNL     1     -12.333  -0.649  33.432  1.00  0.00     0.293 HD
ENDBRANCH   4  11
TORSDOF 3
ENDMDL
MODEL 2
REMARK VINA RESULT:    -4.687      1.603      2.231
REMARK INTER + INTRA:          -5.326
REMARK INTER:                  -5.233
REMARK INTRA:                  -0.093
REMARK UNBOUND:                -0.090
REMARK SMILES CCc1ccc(O)cc1O
REMARK SMILES IDX 3 1 9 2 8 3 6 4 5 5 4 6 2 7 1 8 10 9 7 11
REMARK H PARENT 10 10 7 12
REMARK Flexibility Score: inf
ROOT
ATOM      1  C   UNL     1     -13.129   1.750  29.468  1.00  0.00    -0.006 A 
ATOM      2  C   UNL     1     -12.406   2.536  30.402  1.00  0.00     0.122 A 
ATOM      3  C   UNL     1     -11.947   1.954  31.589  1.00  0.00     0.092 A 
ATOM      4  C   UNL     1     -12.208   0.611  31.874  1.00  0.00     0.119 A 
ATOM      5  C   UNL     1     -12.937  -0.162  30.965  1.00  0.00     0.047 A 
ATOM      6  C   UNL     1     -13.397   0.404  29.774  1.00  0.00     0.011 A 
ENDROOT
BRANCH   1   7
ATOM      7  C   UNL     1     -13.659   2.322  28.175  1.00  0.00     0.036 C 
ATOM      8  C   UNL     1     -15.183   2.256  28.133  1.00  0.00     0.009 C 
ENDBRANCH   1   7
BRANCH   2   9
ATOM      9  O   UNL     1     -12.130   3.889  30.187  1.00  0.00    -0.508 OA
ATOM     10  H   UNL     1     -11.245   4.231  29.841  1.00  0.00     0.293 HD
ENDBRANCH   2   9
BRANCH   4  11
ATOM     11  O   UNL     1     -11.742   0.057  33.064  1.00  0.00    -0.508 OA
ATOM     12  H   UNL     1     -11.525  -0.931  33.138  1.00  0.00     0.293 HD
ENDBRANCH   4  11
TORSDOF 3
ENDMDL
MODEL 3
REMARK VINA RESULT:    -4.558     10.684     11.540
REMARK INTER + INTRA:          -5.181
REMARK INTER:                  -5.077
REMARK INTRA:                  -0.104
REMARK UNBOUND:                -0.090
REMARK SMILES CCc1ccc(O)cc1O
REMARK SMILES IDX 3 1 9 2 8 3 6 4 5 5 4 6 2 7 1 8 10 9 7 11
REMARK H PARENT 10 10 7 12
REMARK Flexibility Score: inf
ROOT
ATOM      1  C   UNL     1      -1.914   0.269  28.770  1.00  0.00    -0.006 A 
ATOM      2  C   UNL     1      -3.246   0.247  28.283  1.00  0.00     0.122 A 
ATOM      3  C   UNL     1      -3.482   0.021  26.922  1.00  0.00     0.092 A 
ATOM      4  C   UNL     1      -2.420  -0.166  26.034  1.00  0.00     0.119 A 
ATOM      5  C   UNL     1      -1.105  -0.127  26.508  1.00  0.00     0.047 A 
ATOM      6  C   UNL     1      -0.854   0.093  27.864  1.00  0.00     0.011 A 
ENDROOT
BRANCH   1   7
ATOM      7  C   UNL     1      -1.594   0.518  30.226  1.00  0.00     0.036 C 
ATOM      8  C   UNL     1      -1.213   1.978  30.458  1.00  0.00     0.009 C 
ENDBRANCH   1   7
BRANCH   2   9
ATOM      9  O   UNL     1      -4.351   0.449  29.114  1.00  0.00    -0.508 OA
ATOM     10  H   UNL     1      -4.298   0.459  30.123  1.00  0.00     0.293 HD
ENDBRANCH   2   9
BRANCH   4  11
ATOM     11  O   UNL     1      -2.682  -0.388  24.684  1.00  0.00    -0.508 OA
ATOM     12  H   UNL     1      -2.655  -1.319  24.286  1.00  0.00     0.293 HD
ENDBRANCH   4  11
TORSDOF 3
ENDMDL
MODEL 4
REMARK VINA RESULT:    -4.494     10.668     11.597
REMARK INTER + INTRA:          -5.110
REMARK INTER:                  -5.025
REMARK INTRA:                  -0.085
REMARK UNBOUND:                -0.090
REMARK SMILES CCc1ccc(O)cc1O
REMARK SMILES IDX 3 1 9 2 8 3 6 4 5 5 4 6 2 7 1 8 10 9 7 11
REMARK H PARENT 10 10 7 12
REMARK Flexibility Score: inf
ROOT
ATOM      1  C   UNL     1      -2.277   0.642  28.818  1.00  0.00    -0.006 A 
ATOM      2  C   UNL     1      -1.148   0.212  28.075  1.00  0.00     0.122 A 
ATOM      3  C   UNL     1      -1.296  -0.128  26.725  1.00  0.00     0.092 A 
ATOM      4  C   UNL     1      -2.547  -0.065  26.105  1.00  0.00     0.119 A 
ATOM      5  C   UNL     1      -3.665   0.341  26.839  1.00  0.00     0.047 A 
ATOM      6  C   UNL     1      -3.532   0.688  28.186  1.00  0.00     0.011 A 
ENDROOT
BRANCH   1   7
ATOM      7  C   UNL     1      -2.184   1.012  30.279  1.00  0.00     0.036 C 
ATOM      8  C   UNL     1      -3.569   1.065  30.918  1.00  0.00     0.009 C 
ENDBRANCH   1   7
BRANCH   2   9
ATOM      9  O   UNL     1       0.125   0.106  28.640  1.00  0.00    -0.508 OA
ATOM     10  H   UNL     1       0.547   0.829  29.206  1.00  0.00     0.293 HD
ENDBRANCH   2   9
BRANCH   4  11
ATOM     11  O   UNL     1      -2.667  -0.410  24.761  1.00  0.00    -0.508 OA
ATOM     12  H   UNL     1      -2.774   0.296  24.041  1.00  0.00     0.293 HD
ENDBRANCH   4  11
TORSDOF 3
ENDMDL
MODEL 5
REMARK VINA RESULT:    -4.280      0.921      3.468
REMARK INTER + INTRA:          -4.871
REMARK INTER:                  -4.784
REMARK INTRA:                  -0.087
REMARK UNBOUND:                -0.090
REMARK SMILES CCc1ccc(O)cc1O
REMARK SMILES IDX 3 1 9 2 8 3 6 4 5 5 4 6 2 7 1 8 10 9 7 11
REMARK H PARENT 10 10 7 12
REMARK Flexibility Score: inf
ROOT
ATOM      1  C   UNL     1     -11.864   2.233  31.568  1.00  0.00    -0.006 A 
ATOM      2  C   UNL     1     -12.142   0.856  31.762  1.00  0.00     0.122 A 
ATOM      3  C   UNL     1     -12.891   0.159  30.806  1.00  0.00     0.092 A 
ATOM      4  C   UNL     1     -13.383   0.809  29.671  1.00  0.00     0.119 A 
ATOM      5  C   UNL     1     -13.126   2.171  29.486  1.00  0.00     0.047 A 
ATOM      6  C   UNL     1     -12.376   2.878  30.428  1.00  0.00     0.011 A 
ENDROOT
BRANCH   1   7
ATOM      7  C   UNL     1     -11.071   3.042  32.567  1.00  0.00     0.036 C 
ATOM      8  C   UNL     1      -9.914   3.767  31.886  1.00  0.00     0.009 C 
ENDBRANCH   1   7
BRANCH   2   9
ATOM      9  O   UNL     1     -11.699   0.153  32.885  1.00  0.00    -0.508 OA
ATOM     10  H   UNL     1     -12.268  -0.011  33.703  1.00  0.00     0.293 HD
ENDBRANCH   2   9
BRANCH   4  11
ATOM     11  O   UNL     1     -14.127   0.093  28.736  1.00  0.00    -0.508 OA
ATOM     12  H   UNL     1     -14.848   0.538  28.180  1.00  0.00     0.293 HD
ENDBRANCH   4  11
TORSDOF 3
ENDMDL
MODEL 6
REMARK VINA RESULT:    -4.195     10.761     11.482
REMARK INTER + INTRA:          -4.775
REMARK INTER:                  -4.672
REMARK INTRA:                  -0.104
REMARK UNBOUND:                -0.090
REMARK SMILES CCc1ccc(O)cc1O
REMARK SMILES IDX 3 1 9 2 8 3 6 4 5 5 4 6 2 7 1 8 10 9 7 11
REMARK H PARENT 10 10 7 12
REMARK Flexibility Score: inf
ROOT
ATOM      1  C   UNL     1      -1.643  -0.040  27.943  1.00  0.00    -0.006 A 
ATOM      2  C   UNL     1      -2.502  -0.280  29.046  1.00  0.00     0.122 A 
ATOM      3  C   UNL     1      -2.330   0.447  30.229  1.00  0.00     0.092 A 
ATOM      4  C   UNL     1      -1.310   1.396  30.343  1.00  0.00     0.119 A 
ATOM      5  C   UNL     1      -0.450   1.622  29.264  1.00  0.00     0.047 A 
ATOM      6  C   UNL     1      -0.612   0.907  28.075  1.00  0.00     0.011 A 
ENDROOT
BRANCH   1   7
ATOM      7  C   UNL     1      -1.772  -0.799  26.643  1.00  0.00     0.036 C 
ATOM      8  C   UNL     1      -2.711  -0.077  25.680  1.00  0.00     0.009 C 
ENDBRANCH   1   7
BRANCH   2   9
ATOM      9  O   UNL     1      -3.527  -1.229  29.004  1.00  0.00    -0.508 OA
ATOM     10  H   UNL     1      -3.793  -1.800  29.795  1.00  0.00     0.293 HD
ENDBRANCH   2   9
BRANCH   4  11
ATOM     11  O   UNL     1      -1.159   2.104  31.532  1.00  0.00    -0.508 OA
ATOM     12  H   UNL     1      -0.349   2.691  31.700  1.00  0.00     0.293 HD
ENDBRANCH   4  11
TORSDOF 3
ENDMDL
MODEL 7
REMARK VINA RESULT:    -4.103      8.011      9.873
REMARK INTER + INTRA:          -4.673
REMARK INTER:                  -4.588
REMARK INTRA:                  -0.085
REMARK UNBOUND:                -0.090
REMARK SMILES CCc1ccc(O)cc1O
REMARK SMILES IDX 3 1 9 2 8 3 6 4 5 5 4 6 2 7 1 8 10 9 7 11
REMARK H PARENT 10 10 7 12
REMARK Flexibility Score: inf
ROOT
ATOM      1  C   UNL     1     -12.344   9.959  30.934  1.00  0.00    -0.006 A 
ATOM      2  C   UNL     1     -12.242  11.373  30.979  1.00  0.00     0.122 A 
ATOM      3  C   UNL     1     -13.261  12.160  30.429  1.00  0.00     0.092 A 
ATOM      4  C   UNL     1     -14.369  11.567  29.818  1.00  0.00     0.119 A 
ATOM      5  C   UNL     1     -14.464  10.174  29.755  1.00  0.00     0.047 A 
ATOM      6  C   UNL     1     -13.457   9.376  30.304  1.00  0.00     0.011 A 
ENDROOT
BRANCH   1   7
ATOM      7  C   UNL     1     -11.273   9.057  31.501  1.00  0.00     0.036 C 
ATOM      8  C   UNL     1     -11.892   7.885  32.258  1.00  0.00     0.009 C 
ENDBRANCH   1   7
BRANCH   2   9
ATOM      9  O   UNL     1     -11.150  12.027  31.556  1.00  0.00    -0.508 OA
ATOM     10  H   UNL     1     -11.003  12.098  32.553  1.00  0.00     0.293 HD
ENDBRANCH   2   9
BRANCH   4  11
ATOM     11  O   UNL     1     -15.368  12.372  29.276  1.00  0.00    -0.508 OA
ATOM     12  H   UNL     1     -16.212  12.590  29.794  1.00  0.00     0.293 HD
ENDBRANCH   4  11
TORSDOF 3
ENDMDL
MODEL 8
REMARK VINA RESULT:    -4.089      2.268      4.542
REMARK INTER + INTRA:          -4.657
REMARK INTER:                  -4.560
REMARK INTRA:                  -0.097
REMARK UNBOUND:                -0.090
REMARK SMILES CCc1ccc(O)cc1O
REMARK SMILES IDX 3 1 9 2 8 3 6 4 5 5 4 6 2 7 1 8 10 9 7 11
REMARK H PARENT 10 10 7 12
REMARK Flexibility Score: inf
ROOT
ATOM      1  C   UNL     1     -13.352   1.626  29.307  1.00  0.00    -0.006 A 
ATOM      2  C   UNL     1     -12.923   2.931  29.661  1.00  0.00     0.122 A 
ATOM      3  C   UNL     1     -13.622   4.044  29.179  1.00  0.00     0.092 A 
ATOM      4  C   UNL     1     -14.727   3.885  28.338  1.00  0.00     0.119 A 
ATOM      5  C   UNL     1     -15.141   2.601  27.972  1.00  0.00     0.047 A 
ATOM      6  C   UNL     1     -14.457   1.481  28.450  1.00  0.00     0.011 A 
ENDROOT
BRANCH   1   7
ATOM      7  C   UNL     1     -12.635   0.386  29.787  1.00  0.00     0.036 C 
ATOM      8  C   UNL     1     -13.133  -0.032  31.167  1.00  0.00     0.009 C 
ENDBRANCH   1   7
BRANCH   2   9
ATOM      9  O   UNL     1     -11.814   3.159  30.479  1.00  0.00    -0.508 OA
ATOM     10  H   UNL     1     -11.880   3.360  31.467  1.00  0.00     0.293 HD
ENDBRANCH   2   9
BRANCH   4  11
ATOM     11  O   UNL     1     -15.403   5.010  27.871  1.00  0.00    -0.508 OA
ATOM     12  H   UNL     1     -16.360   5.204  28.144  1.00  0.00     0.293 HD
ENDBRANCH   4  11
TORSDOF 3
ENDMDL
MODEL 9
REMARK VINA RESULT:    -3.326     10.389     11.231
REMARK INTER + INTRA:          -3.806
REMARK INTER:                  -3.721
REMARK INTRA:                  -0.085
REMARK UNBOUND:                -0.090
REMARK SMILES CCc1ccc(O)cc1O
REMARK SMILES IDX 3 1 9 2 8 3 6 4 5 5 4 6 2 7 1 8 10 9 7 11
REMARK H PARENT 10 10 7 12
REMARK Flexibility Score: inf
ROOT
ATOM      1  C   UNL     1      -1.894  -0.104  27.970  1.00  0.00    -0.006 A 
ATOM      2  C   UNL     1      -1.221   0.318  29.145  1.00  0.00     0.122 A 
ATOM      3  C   UNL     1      -1.915   0.371  30.360  1.00  0.00     0.092 A 
ATOM      4  C   UNL     1      -3.269   0.030  30.425  1.00  0.00     0.119 A 
ATOM      5  C   UNL     1      -3.940  -0.368  29.265  1.00  0.00     0.047 A 
ATOM      6  C   UNL     1      -3.260  -0.430  28.046  1.00  0.00     0.011 A 
ENDROOT
BRANCH   1   7
ATOM      7  C   UNL     1      -1.204  -0.172  26.628  1.00  0.00     0.036 C 
ATOM      8  C   UNL     1      -2.218  -0.344  25.501  1.00  0.00     0.009 C 
ENDBRANCH   1   7
BRANCH   2   9
ATOM      9  O   UNL     1       0.125   0.692  29.143  1.00  0.00    -0.508 OA
ATOM     10  H   UNL     1       0.887   0.038  29.252  1.00  0.00     0.293 HD
ENDBRANCH   2   9
BRANCH   4  11
ATOM     11  O   UNL     1      -3.936   0.093  31.645  1.00  0.00    -0.508 OA
ATOM     12  H   UNL     1      -3.563  -0.353  32.476  1.00  0.00     0.293 HD
ENDBRANCH   4  11
TORSDOF 3
ENDMDL
