MODEL 1
REMARK VINA RESULT:    -4.908      0.000      0.000
REMARK INTER + INTRA:         -10.830
REMARK INTER:                  -8.925
REMARK INTRA:                  -1.905
REMARK UNBOUND:                -1.905
REMARK SMILES CCCCCCCCCCCCCC[C@H](C)C(=O)[O-]
REMARK SMILES IDX 9 1 10 2 11 3 12 4 13 5 14 6 15 7 16 8 17 9 18 10 19 11 8 12
REMARK SMILES IDX 7 13 6 14 5 15 4 16 3 17 2 18 1 19
REMARK H PARENT
REMARK Flexibility Score: inf
ROOT
ATOM      1  C   UNL     1      40.173  65.170   5.584  1.00  0.00     0.000 C 
ENDROOT
BRANCH   1   2
ATOM      2  C   UNL     1      41.094  64.007   5.181  1.00  0.00     0.000 C 
BRANCH   2   3
ATOM      3  C   UNL     1      42.579  64.314   5.425  1.00  0.00     0.000 C 
BRANCH   3   4
ATOM      4  C   UNL     1      42.771  65.759   5.900  1.00  0.00     0.000 C 
BRANCH   4   5
ATOM      5  C   UNL     1      44.062  66.362   5.325  1.00  0.00     0.001 C 
BRANCH   5   6
ATOM      6  C   UNL     1      43.827  67.745   4.679  1.00  0.00     0.009 C 
BRANCH   6   7
ATOM      7  C   UNL     1      44.672  67.986   3.407  1.00  0.00     0.032 C 
ATOM      8  C   UNL     1      46.125  68.357   3.727  1.00  0.00     0.014 C 
BRANCH   7   9
ATOM      9  C   UNL     1      44.041  69.064   2.568  1.00  0.00     0.044 C 
ATOM     10  O   UNL     1      42.951  69.591   2.918  1.00  0.00    -0.550 OA
ATOM     11  O   UNL     1      44.661  69.485   1.398  1.00  0.00    -0.550 OA
ENDBRANCH   7   9
ENDBRANCH   6   7
ENDBRANCH   5   6
ENDBRANCH   4   5
ENDBRANCH   3   4
ENDBRANCH   2   3
ENDBRANCH   1   2
BRANCH   1  12
ATOM     12  C   UNL     1      39.042  64.728   6.528  1.00  0.00     0.000 C 
BRANCH  12  13
ATOM     13  C   UNL     1      39.370  64.992   8.006  1.00  0.00    -0.000 C 
BRANCH  13  14
ATOM     14  C   UNL     1      39.544  63.700   8.818  1.00  0.00    -0.000 C 
BRANCH  14  15
ATOM     15  C   UNL     1      41.001  63.225   8.788  1.00  0.00    -0.000 C 
BRANCH  15  16
ATOM     16  C   UNL     1      41.105  61.803   8.215  1.00  0.00    -0.000 C 
BRANCH  16  17
ATOM     17  C   UNL     1      39.730  61.144   8.016  1.00  0.00    -0.000 C 
BRANCH  17  18
ATOM     18  C   UNL     1      39.522  60.633   6.583  1.00  0.00    -0.003 C 
ATOM     19  C   UNL     1      40.858  60.420   5.878  1.00  0.00     0.004 C 
ENDBRANCH  17  18
ENDBRANCH  16  17
ENDBRANCH  15  16
ENDBRANCH  14  15
ENDBRANCH  13  14
ENDBRANCH  12  13
ENDBRANCH   1  12
TORSDOF 14
ENDMDL
MODEL 2
REMARK VINA RESULT:    -4.791      5.288      7.813
REMARK INTER + INTRA:         -10.617
REMARK INTER:                  -8.104
REMARK INTRA:                  -2.513
REMARK UNBOUND:                -1.905
REMARK SMILES CCCCCCCCCCCCCC[C@H](C)C(=O)[O-]
REMARK SMILES IDX 9 1 10 2 11 3 12 4 13 5 14 6 15 7 16 8 17 9 18 10 19 11 8 12
REMARK SMILES IDX 7 13 6 14 5 15 4 16 3 17 2 18 1 19
REMARK H PARENT
REMARK Flexibility Score: inf
ROOT
ATOM      1  C   UNL     1      39.471  62.290   7.882  1.00  0.00     0.000 C 
ENDROOT
BRANCH   1   2
ATOM      2  C   UNL     1      40.249  61.061   8.378  1.00  0.00     0.000 C 
BRANCH   2   3
ATOM      3  C   UNL     1      41.724  61.080   7.951  1.00  0.00     0.000 C 
BRANCH   3   4
ATOM      4  C   UNL     1      42.185  59.688   7.502  1.00  0.00     0.000 C 
BRANCH   4   5
ATOM      5  C   UNL     1      40.993  58.833   7.047  1.00  0.00     0.001 C 
BRANCH   5   6
ATOM      6  C   UNL     1      41.013  58.562   5.526  1.00  0.00     0.009 C 
BRANCH   6   7
ATOM      7  C   UNL     1      39.606  58.525   4.886  1.00  0.00     0.032 C 
ATOM      8  C   UNL     1      38.764  59.756   5.243  1.00  0.00     0.014 C 
BRANCH   7   9
ATOM      9  C   UNL     1      38.885  57.273   5.304  1.00  0.00     0.044 C 
ATOM     10  O   UNL     1      37.849  57.339   6.018  1.00  0.00    -0.550 OA
ATOM     11  O   UNL     1      39.361  56.031   4.903  1.00  0.00    -0.550 OA
ENDBRANCH   7   9
ENDBRANCH   6   7
ENDBRANCH   5   6
ENDBRANCH   4   5
ENDBRANCH   3   4
ENDBRANCH   2   3
ENDBRANCH   1   2
BRANCH   1  12
ATOM     12  C   UNL     1      39.694  63.528   8.769  1.00  0.00     0.000 C 
BRANCH  12  13
ATOM     13  C   UNL     1      40.119  64.764   7.961  1.00  0.00    -0.000 C 
BRANCH  13  14
ATOM     14  C   UNL     1      41.627  64.796   7.670  1.00  0.00    -0.000 C 
BRANCH  14  15
ATOM     15  C   UNL     1      41.896  65.149   6.202  1.00  0.00    -0.000 C 
BRANCH  15  16
ATOM     16  C   UNL     1      42.383  63.918   5.421  1.00  0.00    -0.000 C 
BRANCH  16  17
ATOM     17  C   UNL     1      41.229  63.131   4.779  1.00  0.00    -0.000 C 
BRANCH  17  18
ATOM     18  C   UNL     1      41.697  61.819   4.133  1.00  0.00    -0.003 C 
ATOM     19  C   UNL     1      40.937  61.544   2.839  1.00  0.00     0.004 C 
ENDBRANCH  17  18
ENDBRANCH  16  17
ENDBRANCH  15  16
ENDBRANCH  14  15
ENDBRANCH  13  14
ENDBRANCH  12  13
ENDBRANCH   1  12
TORSDOF 14
ENDMDL
MODEL 3
REMARK VINA RESULT:    -4.722      4.147      6.882
REMARK INTER + INTRA:         -10.493
REMARK INTER:                  -8.347
REMARK INTRA:                  -2.145
REMARK UNBOUND:                -1.905
REMARK SMILES CCCCCCCCCCCCCC[C@H](C)C(=O)[O-]
REMARK SMILES IDX 9 1 10 2 11 3 12 4 13 5 14 6 15 7 16 8 17 9 18 10 19 11 8 12
REMARK SMILES IDX 7 13 6 14 5 15 4 16 3 17 2 18 1 19
REMARK H PARENT
REMARK Flexibility Score: inf
ROOT
ATOM      1  C   UNL     1      41.949  58.289   8.302  1.00  0.00     0.000 C 
ENDROOT
BRANCH   1   2
ATOM      2  C   UNL     1      42.383  59.144   7.100  1.00  0.00     0.000 C 
BRANCH   2   3
ATOM      3  C   UNL     1      41.930  60.607   7.218  1.00  0.00     0.000 C 
BRANCH   3   4
ATOM      4  C   UNL     1      40.986  60.796   8.411  1.00  0.00     0.000 C 
BRANCH   4   5
ATOM      5  C   UNL     1      40.565  62.267   8.554  1.00  0.00     0.001 C 
BRANCH   5   6
ATOM      6  C   UNL     1      39.650  62.729   7.398  1.00  0.00     0.009 C 
BRANCH   6   7
ATOM      7  C   UNL     1      40.025  64.117   6.828  1.00  0.00     0.032 C 
ATOM      8  C   UNL     1      41.407  64.590   7.294  1.00  0.00     0.014 C 
BRANCH   7   9
ATOM      9  C   UNL     1      38.981  65.129   7.214  1.00  0.00     0.044 C 
ATOM     10  O   UNL     1      38.677  65.304   8.425  1.00  0.00    -0.550 OA
ATOM     11  O   UNL     1      38.344  65.878   6.233  1.00  0.00    -0.550 OA
ENDBRANCH   7   9
ENDBRANCH   6   7
ENDBRANCH   5   6
ENDBRANCH   4   5
ENDBRANCH   3   4
ENDBRANCH   2   3
ENDBRANCH   1   2
BRANCH   1  12
ATOM     12  C   UNL     1      41.529  56.866   7.895  1.00  0.00     0.000 C 
BRANCH  12  13
ATOM     13  C   UNL     1      42.239  56.383   6.620  1.00  0.00    -0.000 C 
BRANCH  13  14
ATOM     14  C   UNL     1      41.270  55.790   5.586  1.00  0.00    -0.000 C 
BRANCH  14  15
ATOM     15  C   UNL     1      40.442  56.892   4.915  1.00  0.00    -0.000 C 
BRANCH  15  16
ATOM     16  C   UNL     1      38.940  56.572   4.987  1.00  0.00    -0.000 C 
BRANCH  16  17
ATOM     17  C   UNL     1      38.082  57.821   5.248  1.00  0.00    -0.000 C 
BRANCH  17  18
ATOM     18  C   UNL     1      38.678  58.732   6.330  1.00  0.00    -0.003 C 
ATOM     19  C   UNL     1      38.130  58.376   7.709  1.00  0.00     0.004 C 
ENDBRANCH  17  18
ENDBRANCH  16  17
ENDBRANCH  15  16
ENDBRANCH  14  15
ENDBRANCH  13  14
ENDBRANCH  12  13
ENDBRANCH   1  12
TORSDOF 14
ENDMDL
MODEL 4
REMARK VINA RESULT:    -4.714      4.657      7.449
REMARK INTER + INTRA:         -10.477
REMARK INTER:                  -8.408
REMARK INTRA:                  -2.068
REMARK UNBOUND:                -1.905
REMARK SMILES CCCCCCCCCCCCCC[C@H](C)C(=O)[O-]
REMARK SMILES IDX 9 1 10 2 11 3 12 4 13 5 14 6 15 7 16 8 17 9 18 10 19 11 8 12
REMARK SMILES IDX 7 13 6 14 5 15 4 16 3 17 2 18 1 19
REMARK H PARENT
REMARK Flexibility Score: inf
ROOT
ATOM      1  C   UNL     1      40.612  64.760   7.706  1.00  0.00     0.000 C 
ENDROOT
BRANCH   1   2
ATOM      2  C   UNL     1      40.583  63.579   8.690  1.00  0.00     0.000 C 
BRANCH   2   3
ATOM      3  C   UNL     1      39.631  62.459   8.244  1.00  0.00     0.000 C 
BRANCH   3   4
ATOM      4  C   UNL     1      40.285  61.082   8.411  1.00  0.00     0.000 C 
BRANCH   4   5
ATOM      5  C   UNL     1      41.765  61.120   8.001  1.00  0.00     0.001 C 
BRANCH   5   6
ATOM      6  C   UNL     1      42.435  59.731   8.095  1.00  0.00     0.009 C 
BRANCH   6   7
ATOM      7  C   UNL     1      41.552  58.581   7.557  1.00  0.00     0.032 C 
ATOM      8  C   UNL     1      41.116  57.609   8.660  1.00  0.00     0.014 C 
BRANCH   7   9
ATOM      9  C   UNL     1      42.285  57.833   6.477  1.00  0.00     0.044 C 
ATOM     10  O   UNL     1      41.998  58.017   5.264  1.00  0.00    -0.550 OA
ATOM     11  O   UNL     1      43.287  56.931   6.815  1.00  0.00    -0.550 OA
ENDBRANCH   7   9
ENDBRANCH   6   7
ENDBRANCH   5   6
ENDBRANCH   4   5
ENDBRANCH   3   4
ENDBRANCH   2   3
ENDBRANCH   1   2
BRANCH   1  12
ATOM     12  C   UNL     1      42.041  65.157   7.300  1.00  0.00     0.000 C 
BRANCH  12  13
ATOM     13  C   UNL     1      42.294  64.992   5.793  1.00  0.00    -0.000 C 
BRANCH  13  14
ATOM     14  C   UNL     1      42.385  63.521   5.362  1.00  0.00    -0.000 C 
BRANCH  14  15
ATOM     15  C   UNL     1      41.104  63.078   4.645  1.00  0.00    -0.000 C 
BRANCH  15  16
ATOM     16  C   UNL     1      41.179  61.595   4.250  1.00  0.00    -0.000 C 
BRANCH  16  17
ATOM     17  C   UNL     1      39.989  60.780   4.783  1.00  0.00    -0.000 C 
BRANCH  17  18
ATOM     18  C   UNL     1      39.406  59.828   3.730  1.00  0.00    -0.003 C 
ATOM     19  C   UNL     1      39.383  60.483   2.351  1.00  0.00     0.004 C 
ENDBRANCH  17  18
ENDBRANCH  16  17
ENDBRANCH  15  16
ENDBRANCH  14  15
ENDBRANCH  13  14
ENDBRANCH  12  13
ENDBRANCH   1  12
TORSDOF 14
ENDMDL
MODEL 5
REMARK VINA RESULT:    -4.699      4.940      7.432
REMARK INTER + INTRA:         -10.451
REMARK INTER:                  -8.325
REMARK INTRA:                  -2.125
REMARK UNBOUND:                -1.905
REMARK SMILES CCCCCCCCCCCCCC[C@H](C)C(=O)[O-]
REMARK SMILES IDX 9 1 10 2 11 3 12 4 13 5 14 6 15 7 16 8 17 9 18 10 19 11 8 12
REMARK SMILES IDX 7 13 6 14 5 15 4 16 3 17 2 18 1 19
REMARK H PARENT
REMARK Flexibility Score: inf
ROOT
ATOM      1  C   UNL     1      38.977  65.207   6.609  1.00  0.00     0.000 C 
ENDROOT
BRANCH   1   2
ATOM      2  C   UNL     1      39.474  64.734   7.984  1.00  0.00     0.000 C 
BRANCH   2   3
ATOM      3  C   UNL     1      39.570  63.205   8.087  1.00  0.00     0.000 C 
BRANCH   3   4
ATOM      4  C   UNL     1      40.898  62.778   8.724  1.00  0.00     0.000 C 
BRANCH   4   5
ATOM      5  C   UNL     1      41.271  61.345   8.316  1.00  0.00     0.001 C 
BRANCH   5   6
ATOM      6  C   UNL     1      40.046  60.404   8.297  1.00  0.00     0.009 C 
BRANCH   6   7
ATOM      7  C   UNL     1      40.411  58.917   8.074  1.00  0.00     0.032 C 
ATOM      8  C   UNL     1      41.678  58.743   7.227  1.00  0.00     0.014 C 
BRANCH   7   9
ATOM      9  C   UNL     1      39.260  58.199   7.425  1.00  0.00     0.044 C 
ATOM     10  O   UNL     1      38.155  58.090   8.022  1.00  0.00    -0.550 OA
ATOM     11  O   UNL     1      39.410  57.647   6.159  1.00  0.00    -0.550 OA
ENDBRANCH   7   9
ENDBRANCH   6   7
ENDBRANCH   5   6
ENDBRANCH   4   5
ENDBRANCH   3   4
ENDBRANCH   2   3
ENDBRANCH   1   2
BRANCH   1  12
ATOM     12  C   UNL     1      40.072  65.142   5.530  1.00  0.00     0.000 C 
BRANCH  12  13
ATOM     13  C   UNL     1      41.487  65.262   6.118  1.00  0.00    -0.000 C 
BRANCH  13  14
ATOM     14  C   UNL     1      42.558  64.603   5.235  1.00  0.00    -0.000 C 
BRANCH  14  15
ATOM     15  C   UNL     1      42.705  63.114   5.570  1.00  0.00    -0.000 C 
BRANCH  15  16
ATOM     16  C   UNL     1      42.142  62.238   4.440  1.00  0.00    -0.000 C 
BRANCH  16  17
ATOM     17  C   UNL     1      40.738  61.695   4.756  1.00  0.00    -0.000 C 
BRANCH  17  18
ATOM     18  C   UNL     1      40.459  60.349   4.075  1.00  0.00    -0.003 C 
ATOM     19  C   UNL     1      39.760  60.548   2.733  1.00  0.00     0.004 C 
ENDBRANCH  17  18
ENDBRANCH  16  17
ENDBRANCH  15  16
ENDBRANCH  14  15
ENDBRANCH  13  14
ENDBRANCH  12  13
ENDBRANCH   1  12
TORSDOF 14
ENDMDL
MODEL 6
REMARK VINA RESULT:    -4.662      3.987      7.037
REMARK INTER + INTRA:         -10.383
REMARK INTER:                  -7.857
REMARK INTRA:                  -2.526
REMARK UNBOUND:                -1.905
REMARK SMILES CCCCCCCCCCCCCC[C@H](C)C(=O)[O-]
REMARK SMILES IDX 9 1 10 2 11 3 12 4 13 5 14 6 15 7 16 8 17 9 18 10 19 11 8 12
REMARK SMILES IDX 7 13 6 14 5 15 4 16 3 17 2 18 1 19
REMARK H PARENT
REMARK Flexibility Score: inf
ROOT
ATOM      1  C   UNL     1      40.357  59.530   8.379  1.00  0.00     0.000 C 
ENDROOT
BRANCH   1   2
ATOM      2  C   UNL     1      40.705  58.047   8.173  1.00  0.00     0.000 C 
BRANCH   2   3
ATOM      3  C   UNL     1      41.895  57.843   7.223  1.00  0.00     0.000 C 
BRANCH   3   4
ATOM      4  C   UNL     1      41.477  57.047   5.981  1.00  0.00     0.000 C 
BRANCH   4   5
ATOM      5  C   UNL     1      40.548  57.876   5.081  1.00  0.00     0.001 C 
BRANCH   5   6
ATOM      6  C   UNL     1      41.210  59.187   4.604  1.00  0.00     0.009 C 
BRANCH   6   7
ATOM      7  C   UNL     1      40.231  60.382   4.523  1.00  0.00     0.032 C 
ATOM      8  C   UNL     1      38.854  60.056   5.114  1.00  0.00     0.014 C 
BRANCH   7   9
ATOM      9  C   UNL     1      40.081  60.825   3.093  1.00  0.00     0.044 C 
ATOM     10  O   UNL     1      40.966  61.540   2.549  1.00  0.00    -0.550 OA
ATOM     11  O   UNL     1      38.961  60.449   2.363  1.00  0.00    -0.550 OA
ENDBRANCH   7   9
ENDBRANCH   6   7
ENDBRANCH   5   6
ENDBRANCH   4   5
ENDBRANCH   3   4
ENDBRANCH   2   3
ENDBRANCH   1   2
BRANCH   1  12
ATOM     12  C   UNL     1      41.524  60.466   8.021  1.00  0.00     0.000 C 
BRANCH  12  13
ATOM     13  C   UNL     1      41.236  61.932   8.380  1.00  0.00    -0.000 C 
BRANCH  13  14
ATOM     14  C   UNL     1      39.734  62.254   8.411  1.00  0.00    -0.000 C 
BRANCH  14  15
ATOM     15  C   UNL     1      39.493  63.764   8.296  1.00  0.00    -0.000 C 
BRANCH  15  16
ATOM     16  C   UNL     1      40.692  64.464   7.640  1.00  0.00    -0.000 C 
BRANCH  16  17
ATOM     17  C   UNL     1      40.382  64.958   6.217  1.00  0.00    -0.000 C 
BRANCH  17  18
ATOM     18  C   UNL     1      40.902  64.003   5.134  1.00  0.00    -0.003 C 
ATOM     19  C   UNL     1      42.366  63.646   5.373  1.00  0.00     0.004 C 
ENDBRANCH  17  18
ENDBRANCH  16  17
ENDBRANCH  15  16
ENDBRANCH  14  15
ENDBRANCH  13  14
ENDBRANCH  12  13
ENDBRANCH   1  12
TORSDOF 14
ENDMDL
MODEL 7
REMARK VINA RESULT:    -4.656      5.007      7.203
REMARK INTER + INTRA:         -10.371
REMARK INTER:                  -7.969
REMARK INTRA:                  -2.402
REMARK UNBOUND:                -1.905
REMARK SMILES CCCCCCCCCCCCCC[C@H](C)C(=O)[O-]
REMARK SMILES IDX 9 1 10 2 11 3 12 4 13 5 14 6 15 7 16 8 17 9 18 10 19 11 8 12
REMARK SMILES IDX 7 13 6 14 5 15 4 16 3 17 2 18 1 19
REMARK H PARENT
REMARK Flexibility Score: inf
ROOT
ATOM      1  C   UNL     1      41.082  63.784   5.039  1.00  0.00     0.000 C 
ENDROOT
BRANCH   1   2
ATOM      2  C   UNL     1      40.446  64.999   5.733  1.00  0.00     0.000 C 
BRANCH   2   3
ATOM      3  C   UNL     1      40.638  64.978   7.257  1.00  0.00     0.000 C 
BRANCH   3   4
ATOM      4  C   UNL     1      39.403  64.402   7.960  1.00  0.00     0.000 C 
BRANCH   4   5
ATOM      5  C   UNL     1      39.758  63.126   8.739  1.00  0.00     0.001 C 
BRANCH   5   6
ATOM      6  C   UNL     1      39.630  61.855   7.870  1.00  0.00     0.009 C 
BRANCH   6   7
ATOM      7  C   UNL     1      40.425  60.647   8.420  1.00  0.00     0.032 C 
ATOM      8  C   UNL     1      41.877  60.625   7.927  1.00  0.00     0.014 C 
BRANCH   7   9
ATOM      9  C   UNL     1      39.737  59.365   8.041  1.00  0.00     0.044 C 
ATOM     10  O   UNL     1      40.327  58.259   8.171  1.00  0.00    -0.550 OA
ATOM     11  O   UNL     1      38.440  59.394   7.543  1.00  0.00    -0.550 OA
ENDBRANCH   7   9
ENDBRANCH   6   7
ENDBRANCH   5   6
ENDBRANCH   4   5
ENDBRANCH   3   4
ENDBRANCH   2   3
ENDBRANCH   1   2
BRANCH   1  12
ATOM     12  C   UNL     1      42.571  63.615   5.390  1.00  0.00     0.000 C 
BRANCH  12  13
ATOM     13  C   UNL     1      43.150  62.285   4.882  1.00  0.00    -0.000 C 
BRANCH  13  14
ATOM     14  C   UNL     1      42.185  61.530   3.955  1.00  0.00    -0.000 C 
BRANCH  14  15
ATOM     15  C   UNL     1      42.327  60.014   4.132  1.00  0.00    -0.000 C 
BRANCH  15  16
ATOM     16  C   UNL     1      40.988  59.380   4.538  1.00  0.00    -0.000 C 
BRANCH  16  17
ATOM     17  C   UNL     1      39.804  60.348   4.384  1.00  0.00    -0.000 C 
BRANCH  17  18
ATOM     18  C   UNL     1      38.519  59.642   3.929  1.00  0.00    -0.003 C 
ATOM     19  C   UNL     1      38.250  59.893   2.448  1.00  0.00     0.004 C 
ENDBRANCH  17  18
ENDBRANCH  16  17
ENDBRANCH  15  16
ENDBRANCH  14  15
ENDBRANCH  13  14
ENDBRANCH  12  13
ENDBRANCH   1  12
TORSDOF 14
ENDMDL
MODEL 8
REMARK VINA RESULT:    -4.645      4.517      6.736
REMARK INTER + INTRA:         -10.351
REMARK INTER:                  -7.513
REMARK INTRA:                  -2.838
REMARK UNBOUND:                -1.905
REMARK SMILES CCCCCCCCCCCCCC[C@H](C)C(=O)[O-]
REMARK SMILES IDX 9 1 10 2 11 3 12 4 13 5 14 6 15 7 16 8 17 9 18 10 19 11 8 12
REMARK SMILES IDX 7 13 6 14 5 15 4 16 3 17 2 18 1 19
REMARK H PARENT
REMARK Flexibility Score: inf
ROOT
ATOM      1  C   UNL     1      38.763  58.084   7.475  1.00  0.00     0.000 C 
ENDROOT
BRANCH   1   2
ATOM      2  C   UNL     1      40.013  57.951   8.360  1.00  0.00     0.000 C 
BRANCH   2   3
ATOM      3  C   UNL     1      40.635  59.310   8.716  1.00  0.00     0.000 C 
BRANCH   3   4
ATOM      4  C   UNL     1      41.947  59.531   7.954  1.00  0.00     0.000 C 
BRANCH   4   5
ATOM      5  C   UNL     1      42.028  60.962   7.399  1.00  0.00     0.001 C 
BRANCH   5   6
ATOM      6  C   UNL     1      41.110  61.940   8.165  1.00  0.00     0.009 C 
BRANCH   6   7
ATOM      7  C   UNL     1      40.293  62.873   7.242  1.00  0.00     0.032 C 
ATOM      8  C   UNL     1      40.814  62.880   5.800  1.00  0.00     0.014 C 
BRANCH   7   9
ATOM      9  C   UNL     1      40.298  64.273   7.794  1.00  0.00     0.044 C 
ATOM     10  O   UNL     1      41.357  64.956   7.797  1.00  0.00    -0.550 OA
ATOM     11  O   UNL     1      39.128  64.822   8.306  1.00  0.00    -0.550 OA
ENDBRANCH   7   9
ENDBRANCH   6   7
ENDBRANCH   5   6
ENDBRANCH   4   5
ENDBRANCH   3   4
ENDBRANCH   2   3
ENDBRANCH   1   2
BRANCH   1  12
ATOM     12  C   UNL     1      38.378  59.551   7.213  1.00  0.00     0.000 C 
BRANCH  12  13
ATOM     13  C   UNL     1      38.508  59.938   5.731  1.00  0.00    -0.000 C 
BRANCH  13  14
ATOM     14  C   UNL     1      39.003  58.779   4.853  1.00  0.00    -0.000 C 
BRANCH  14  15
ATOM     15  C   UNL     1      40.499  58.922   4.547  1.00  0.00    -0.000 C 
BRANCH  15  16
ATOM     16  C   UNL     1      41.243  57.604   4.815  1.00  0.00    -0.000 C 
BRANCH  16  17
ATOM     17  C   UNL     1      42.760  57.803   4.971  1.00  0.00    -0.000 C 
BRANCH  17  18
ATOM     18  C   UNL     1      43.400  56.758   5.896  1.00  0.00    -0.003 C 
ATOM     19  C   UNL     1      42.352  55.789   6.436  1.00  0.00     0.004 C 
ENDBRANCH  17  18
ENDBRANCH  16  17
ENDBRANCH  15  16
ENDBRANCH  14  15
ENDBRANCH  13  14
ENDBRANCH  12  13
ENDBRANCH   1  12
TORSDOF 14
ENDMDL
MODEL 9
REMARK VINA RESULT:    -4.632     13.727     15.676
REMARK INTER + INTRA:         -10.328
REMARK INTER:                  -7.722
REMARK INTRA:                  -2.606
REMARK UNBOUND:                -1.905
REMARK SMILES CCCCCCCCCCCCCC[C@H](C)C(=O)[O-]
REMARK SMILES IDX 9 1 10 2 11 3 12 4 13 5 14 6 15 7 16 8 17 9 18 10 19 11 8 12
REMARK SMILES IDX 7 13 6 14 5 15 4 16 3 17 2 18 1 19
REMARK H PARENT
REMARK Flexibility Score: inf
ROOT
ATOM      1  C   UNL     1      29.631  57.606   5.999  1.00  0.00     0.000 C 
ENDROOT
BRANCH   1   2
ATOM      2  C   UNL     1      29.955  57.918   4.529  1.00  0.00     0.000 C 
BRANCH   2   3
ATOM      3  C   UNL     1      29.939  59.423   4.224  1.00  0.00     0.000 C 
BRANCH   3   4
ATOM      4  C   UNL     1      29.960  59.680   2.713  1.00  0.00     0.000 C 
BRANCH   4   5
ATOM      5  C   UNL     1      30.893  58.690   1.998  1.00  0.00     0.001 C 
BRANCH   5   6
ATOM      6  C   UNL     1      30.202  57.988   0.809  1.00  0.00     0.009 C 
BRANCH   6   7
ATOM      7  C   UNL     1      29.493  58.964  -0.160  1.00  0.00     0.032 C 
ATOM      8  C   UNL     1      28.470  58.260  -1.060  1.00  0.00     0.014 C 
BRANCH   7   9
ATOM      9  C   UNL     1      30.512  59.678  -1.005  1.00  0.00     0.044 C 
ATOM     10  O   UNL     1      30.773  60.894  -0.801  1.00  0.00    -0.550 OA
ATOM     11  O   UNL     1      31.172  58.997  -2.020  1.00  0.00    -0.550 OA
ENDBRANCH   7   9
ENDBRANCH   6   7
ENDBRANCH   5   6
ENDBRANCH   4   5
ENDBRANCH   3   4
ENDBRANCH   2   3
ENDBRANCH   1   2
BRANCH   1  12
ATOM     12  C   UNL     1      28.952  56.237   6.177  1.00  0.00     0.000 C 
BRANCH  12  13
ATOM     13  C   UNL     1      28.935  55.414   4.880  1.00  0.00    -0.000 C 
BRANCH  13  14
ATOM     14  C   UNL     1      27.761  54.425   4.817  1.00  0.00    -0.000 C 
BRANCH  14  15
ATOM     15  C   UNL     1      26.851  54.728   3.620  1.00  0.00    -0.000 C 
BRANCH  15  16
ATOM     16  C   UNL     1      27.645  55.381   2.478  1.00  0.00    -0.000 C 
BRANCH  16  17
ATOM     17  C   UNL     1      26.904  56.571   1.847  1.00  0.00    -0.000 C 
BRANCH  17  18
ATOM     18  C   UNL     1      26.716  57.736   2.829  1.00  0.00    -0.003 C 
ATOM     19  C   UNL     1      26.335  59.017   2.093  1.00  0.00     0.004 C 
ENDBRANCH  17  18
ENDBRANCH  16  17
ENDBRANCH  15  16
ENDBRANCH  14  15
ENDBRANCH  13  14
ENDBRANCH  12  13
ENDBRANCH   1  12
TORSDOF 14
ENDMDL
