MODEL 1
REMARK VINA RESULT:    43.658      0.000      0.000
REMARK INTER + INTRA:          97.943
REMARK INTER:                  92.150
REMARK INTRA:                   5.792
REMARK UNBOUND:                 5.792
REMARK SMILES CCC(=O)CCCCC[C@H]1NC(=O)[C@H]2CCCCN2C(=O)[C@H]([C@H](C)CC)NC(=O)[C@H](Cc2cn(OC)c3ccccc23)NC1=O
REMARK SMILES IDX 9 1 10 2 44 3 43 4 45 6 30 7 28 8 27 9 29 11 22 12 23 14
REMARK SMILES IDX 24 15 25 16 26 17 31 18 32 19 33 20 42 21 34 22 37 23 41 24
REMARK SMILES IDX 38 25 40 26 39 27 35 28 36 29 11 30 12 31 13 33 14 34 19 35
REMARK SMILES IDX 15 36 18 37 16 38 17 39 20 40 21 41 8 43 7 44 6 45 5 46 3 47
REMARK SMILES IDX 4 48 2 49 1 50
REMARK H PARENT 43 5 27 10 11 32
REMARK Flexibility Score: 80.00
ROOT
ATOM      1  C   UNL     1      -0.892 -32.871  40.283  1.00  0.00     0.035 C 
ENDROOT
BRANCH   1   2
ATOM      2  C   UNL     1      -1.533 -32.404  41.590  1.00  0.00     0.171 C 
BRANCH   2   3
ATOM      3  C   UNL     1      -1.136 -33.267  42.781  1.00  0.00     0.243 C 
ATOM      4  N   UNL     1       0.166 -33.239  43.348  1.00  0.00    -0.342 N 
ATOM      5  H   UNL     1       0.664 -32.327  43.412  1.00  0.00     0.164 HD
ATOM      6  O   UNL     1      -1.977 -34.035  43.315  1.00  0.00    -0.273 OA
BRANCH   4   7
ATOM      7  C   UNL     1       0.900 -34.462  43.712  1.00  0.00     0.175 C 
BRANCH   7   8
ATOM      8  C   UNL     1       0.005 -35.302  44.600  1.00  0.00     0.243 C 
ATOM      9  N   UNL     1      -1.061 -34.800  45.391  1.00  0.00    -0.342 N 
ATOM     10  H   UNL     1      -0.659 -34.650  46.348  1.00  0.00     0.164 HD
ATOM     11  O   UNL     1       0.294 -36.528  44.726  1.00  0.00    -0.273 OA
BRANCH   9  12
ATOM     12  C   UNL     1      -2.333 -35.552  45.454  1.00  0.00     0.174 CG0
ATOM     13  G   UNL     1      -3.524 -34.594  45.644  1.00  0.00     0.000 G0
BRANCH  12  14
ATOM     14  C   UNL     1      -2.354 -36.621  46.591  1.00  0.00     0.018 C 
ATOM     15  C   UNL     1      -3.787 -37.056  46.969  1.00  0.00     0.010 C 
BRANCH  14  16
ATOM     16  C   UNL     1      -1.559 -36.179  47.866  1.00  0.00     0.002 C 
ATOM     17  C   UNL     1      -1.848 -37.022  49.125  1.00  0.00     0.004 C 
ENDBRANCH  14  16
ENDBRANCH  12  14
ENDBRANCH   9  12
ENDBRANCH   7   8
BRANCH   7  18
ATOM     18  C   UNL     1       2.373 -34.208  44.171  1.00  0.00     0.073 C 
BRANCH  18  19
ATOM     19  C   UNL     1       2.605 -34.133  45.659  1.00  0.00    -0.016 A 
ATOM     20  C   UNL     1       2.411 -33.016  46.466  1.00  0.00     0.134 A 
ATOM     21  C   UNL     1       3.132 -35.109  46.491  1.00  0.00     0.006 A 
ATOM     22  N   UNL     1       2.790 -33.288  47.734  1.00  0.00    -0.191 N 
ATOM     23  C   UNL     1       3.298 -34.536  47.728  1.00  0.00     0.087 A 
ATOM     24  C   UNL     1       3.567 -36.409  46.229  1.00  0.00     0.011 A 
ATOM     25  C   UNL     1       3.913 -35.219  48.778  1.00  0.00     0.030 A 
ATOM     26  C   UNL     1       4.179 -37.123  47.281  1.00  0.00     0.001 A 
ATOM     27  C   UNL     1       4.348 -36.536  48.548  1.00  0.00     0.002 A 
BRANCH  22  28
ATOM     28  O   UNL     1       2.926 -32.397  48.782  1.00  0.00    -0.417 OA
ATOM     29  C   UNL     1       2.044 -31.300  48.974  1.00  0.00     0.313 C 
ENDBRANCH  22  28
ENDBRANCH  18  19
ENDBRANCH   7  18
ENDBRANCH   4   7
ENDBRANCH   2   3
BRANCH   2  30
ATOM     30  N   UNL     1      -3.018 -32.420  41.487  1.00  0.00    -0.343 N 
ATOM     31  C   UNL     1      -3.852 -33.459  42.013  1.00  0.00     0.243 C 
ATOM     32  H   UNL     1      -3.432 -31.477  41.461  1.00  0.00     0.164 HD
ATOM     33  O   UNL     1      -3.933 -34.535  41.375  1.00  0.00    -0.273 OA
BRANCH  31  34
ATOM     34  C   UNL     1      -4.469 -33.313  43.395  1.00  0.00     0.174 C 
ATOM     35  N   UNL     1      -4.395 -34.583  44.165  1.00  0.00    -0.329 N 
ATOM     36  C   UNL     1      -5.922 -32.776  43.326  1.00  0.00     0.035 C 
ATOM     37  C   UNL     1      -5.318 -35.674  43.772  1.00  0.00     0.120 C 
ATOM     38  C   UNL     1      -6.960 -33.835  42.944  1.00  0.00     0.004 C 
ATOM     39  C   UNL     1      -6.785 -35.146  43.716  1.00  0.00     0.022 C 
BRANCH  35  40
ATOM     40  C   UNL     1      -3.530 -34.624  45.359  1.00  0.00     0.246 CG0
ATOM     41  O   UNL     1      -3.874 -33.957  46.382  1.00  0.00    -0.272 OA
ATOM     42  G   UNL     1      -2.288 -35.520  45.528  1.00  0.00     0.000 G0
ENDBRANCH  35  40
ENDBRANCH  31  34
ENDBRANCH   2  30
ENDBRANCH   1   2
BRANCH   1  43
ATOM     43  C   UNL     1      -0.821 -31.861  39.111  1.00  0.00     0.003 C 
BRANCH  43  44
ATOM     44  C   UNL     1      -1.402 -32.381  37.792  1.00  0.00     0.001 C 
BRANCH  44  45
ATOM     45  C   UNL     1      -1.281 -31.363  36.654  1.00  0.00     0.008 C 
BRANCH  45  46
ATOM     46  C   UNL     1      -0.708 -32.045  35.412  1.00  0.00     0.075 C 
BRANCH  46  47
ATOM     47  C   UNL     1      -1.717 -32.969  34.802  1.00  0.00     0.132 C 
ATOM     48  O   UNL     1      -1.336 -34.007  34.271  1.00  0.00    -0.300 OA
BRANCH  47  49
ATOM     49  C   UNL     1      -3.175 -32.579  34.774  1.00  0.00     0.072 C 
ATOM     50  C   UNL     1      -3.879 -32.822  36.119  1.00  0.00     0.012 C 
ENDBRANCH  47  49
ENDBRANCH  46  47
ENDBRANCH  45  46
ENDBRANCH  44  45
ENDBRANCH  43  44
ENDBRANCH   1  43
TORSDOF 12
ENDMDL
MODEL 2
REMARK VINA RESULT:    44.366      3.579      9.755
REMARK INTER + INTRA:          99.437
REMARK INTER:                  88.958
REMARK INTRA:                  10.479
REMARK UNBOUND:                 5.792
REMARK SMILES CCC(=O)CCCCC[C@H]1NC(=O)[C@H]2CCCCN2C(=O)[C@H]([C@H](C)CC)NC(=O)[C@H](Cc2cn(OC)c3ccccc23)NC1=O
REMARK SMILES IDX 9 1 10 2 44 3 43 4 45 6 30 7 28 8 27 9 29 11 22 12 23 14
REMARK SMILES IDX 24 15 25 16 26 17 31 18 32 19 33 20 42 21 34 22 37 23 41 24
REMARK SMILES IDX 38 25 40 26 39 27 35 28 36 29 11 30 12 31 13 33 14 34 19 35
REMARK SMILES IDX 15 36 18 37 16 38 17 39 20 40 21 41 8 43 7 44 6 45 5 46 3 47
REMARK SMILES IDX 4 48 2 49 1 50
REMARK H PARENT 43 5 27 10 11 32
REMARK Flexibility Score: 80.00
ROOT
ATOM      1  C   UNL     1      -2.534 -35.889  44.262  1.00  0.00     0.035 C 
ENDROOT
BRANCH   1   2
ATOM      2  C   UNL     1      -3.711 -36.844  44.057  1.00  0.00     0.171 C 
BRANCH   2   3
ATOM      3  C   UNL     1      -4.744 -36.303  43.078  1.00  0.00     0.243 C 
ATOM      4  N   UNL     1      -4.386 -35.663  41.861  1.00  0.00    -0.342 N 
ATOM      5  H   UNL     1      -3.573 -36.028  41.325  1.00  0.00     0.164 HD
ATOM      6  O   UNL     1      -5.972 -36.425  43.321  1.00  0.00    -0.273 OA
BRANCH   4   7
ATOM      7  C   UNL     1      -5.022 -34.417  41.403  1.00  0.00     0.175 C 
BRANCH   7   8
ATOM      8  C   UNL     1      -6.038 -33.995  42.445  1.00  0.00     0.243 C 
ATOM      9  N   UNL     1      -6.260 -34.655  43.681  1.00  0.00    -0.342 N 
ATOM     10  H   UNL     1      -7.062 -35.310  43.513  1.00  0.00     0.164 HD
ATOM     11  O   UNL     1      -6.817 -33.043  42.146  1.00  0.00    -0.273 OA
BRANCH   9  12
ATOM     12  C   UNL     1      -6.468 -33.851  44.905  1.00  0.00     0.174 CG0
ATOM     13  G   UNL     1      -5.119 -33.410  45.504  1.00  0.00     0.000 G0
BRANCH  12  14
ATOM     14  C   UNL     1      -7.286 -34.606  45.998  1.00  0.00     0.018 C 
ATOM     15  C   UNL     1      -8.735 -34.904  45.554  1.00  0.00     0.010 C 
BRANCH  14  16
ATOM     16  C   UNL     1      -7.274 -33.880  47.386  1.00  0.00     0.002 C 
ATOM     17  C   UNL     1      -6.815 -32.409  47.335  1.00  0.00     0.004 C 
ENDBRANCH  14  16
ENDBRANCH  12  14
ENDBRANCH   9  12
ENDBRANCH   7   8
BRANCH   7  18
ATOM     18  C   UNL     1      -5.463 -34.442  39.903  1.00  0.00     0.073 C 
BRANCH  18  19
ATOM     19  C   UNL     1      -6.639 -33.571  39.539  1.00  0.00    -0.016 A 
ATOM     20  C   UNL     1      -7.451 -32.873  40.427  1.00  0.00     0.134 A 
ATOM     21  C   UNL     1      -7.192 -33.365  38.284  1.00  0.00     0.006 A 
ATOM     22  N   UNL     1      -8.451 -32.258  39.758  1.00  0.00    -0.191 N 
ATOM     23  C   UNL     1      -8.333 -32.623  38.466  1.00  0.00     0.087 A 
ATOM     24  C   UNL     1      -6.837 -33.854  37.027  1.00  0.00     0.011 A 
ATOM     25  C   UNL     1      -9.196 -32.329  37.408  1.00  0.00     0.030 A 
ATOM     26  C   UNL     1      -7.687 -33.556  35.940  1.00  0.00     0.001 A 
ATOM     27  C   UNL     1      -8.856 -32.797  36.126  1.00  0.00     0.002 A 
BRANCH  22  28
ATOM     28  O   UNL     1      -9.559 -31.628  40.292  1.00  0.00    -0.417 OA
ATOM     29  C   UNL     1      -9.589 -31.124  41.619  1.00  0.00     0.313 C 
ENDBRANCH  22  28
ENDBRANCH  18  19
ENDBRANCH   7  18
ENDBRANCH   4   7
ENDBRANCH   2   3
BRANCH   2  30
ATOM     30  N   UNL     1      -4.401 -37.119  45.347  1.00  0.00    -0.343 N 
ATOM     31  C   UNL     1      -3.987 -36.592  46.612  1.00  0.00     0.243 C 
ATOM     32  H   UNL     1      -5.411 -37.290  45.237  1.00  0.00     0.164 HD
ATOM     33  O   UNL     1      -3.004 -37.122  47.182  1.00  0.00    -0.273 OA
BRANCH  31  34
ATOM     34  C   UNL     1      -4.614 -35.314  47.147  1.00  0.00     0.174 C 
ATOM     35  N   UNL     1      -4.145 -34.117  46.399  1.00  0.00    -0.329 N 
ATOM     36  C   UNL     1      -4.391 -35.153  48.672  1.00  0.00     0.035 C 
ATOM     37  C   UNL     1      -2.762 -33.651  46.659  1.00  0.00     0.120 C 
ATOM     38  C   UNL     1      -2.991 -34.655  49.047  1.00  0.00     0.004 C 
ATOM     39  C   UNL     1      -2.532 -33.470  48.192  1.00  0.00     0.022 C 
BRANCH  35  40
ATOM     40  C   UNL     1      -5.122 -33.383  45.573  1.00  0.00     0.246 CG0
ATOM     41  O   UNL     1      -4.849 -32.194  45.222  1.00  0.00    -0.272 OA
ATOM     42  G   UNL     1      -6.411 -33.980  44.978  1.00  0.00     0.000 G0
ENDBRANCH  35  40
ENDBRANCH  31  34
ENDBRANCH   2  30
ENDBRANCH   1   2
BRANCH   1  43
ATOM     43  C   UNL     1      -1.157 -36.504  44.615  1.00  0.00     0.003 C 
BRANCH  43  44
ATOM     44  C   UNL     1      -0.036 -35.477  44.803  1.00  0.00     0.001 C 
BRANCH  44  45
ATOM     45  C   UNL     1       1.068 -35.977  45.741  1.00  0.00     0.008 C 
BRANCH  45  46
ATOM     46  C   UNL     1       0.774 -35.523  47.170  1.00  0.00     0.075 C 
BRANCH  46  47
ATOM     47  C   UNL     1       1.788 -34.519  47.627  1.00  0.00     0.132 C 
ATOM     48  O   UNL     1       2.178 -33.662  46.841  1.00  0.00    -0.300 OA
BRANCH  47  49
ATOM     49  C   UNL     1       2.377 -34.621  49.013  1.00  0.00     0.072 C 
ATOM     50  C   UNL     1       3.865 -35.008  48.996  1.00  0.00     0.012 C 
ENDBRANCH  47  49
ENDBRANCH  46  47
ENDBRANCH  45  46
ENDBRANCH  44  45
ENDBRANCH  43  44
ENDBRANCH   1  43
TORSDOF 12
ENDMDL
MODEL 3
REMARK VINA RESULT:    46.586      8.386     11.593
REMARK INTER + INTRA:         104.123
REMARK INTER:                 103.869
REMARK INTRA:                   0.255
REMARK UNBOUND:                 5.792
REMARK SMILES CCC(=O)CCCCC[C@H]1NC(=O)[C@H]2CCCCN2C(=O)[C@H]([C@H](C)CC)NC(=O)[C@H](Cc2cn(OC)c3ccccc23)NC1=O
REMARK SMILES IDX 9 1 10 2 44 3 43 4 45 6 30 7 28 8 27 9 29 11 22 12 23 14
REMARK SMILES IDX 24 15 25 16 26 17 31 18 32 19 33 20 42 21 34 22 37 23 41 24
REMARK SMILES IDX 38 25 40 26 39 27 35 28 36 29 11 30 12 31 13 33 14 34 19 35
REMARK SMILES IDX 15 36 18 37 16 38 17 39 20 40 21 41 8 43 7 44 6 45 5 46 3 47
REMARK SMILES IDX 4 48 2 49 1 50
REMARK H PARENT 43 5 27 10 11 32
REMARK Flexibility Score: 80.00
ROOT
ATOM      1  C   UNL     1      -4.243 -25.063  46.799  1.00  0.00     0.035 C 
ENDROOT
BRANCH   1   2
ATOM      2  C   UNL     1      -4.374 -25.564  48.238  1.00  0.00     0.171 C 
BRANCH   2   3
ATOM      3  C   UNL     1      -5.278 -26.784  48.357  1.00  0.00     0.243 C 
ATOM      4  N   UNL     1      -4.857 -28.090  47.988  1.00  0.00    -0.342 N 
ATOM      5  H   UNL     1      -3.878 -28.376  48.193  1.00  0.00     0.164 HD
ATOM      6  O   UNL     1      -6.446 -26.665  48.810  1.00  0.00    -0.273 OA
BRANCH   4   7
ATOM      7  C   UNL     1      -5.700 -29.001  47.197  1.00  0.00     0.175 C 
BRANCH   7   8
ATOM      8  C   UNL     1      -6.621 -28.163  46.334  1.00  0.00     0.243 C 
ATOM      9  N   UNL     1      -7.900 -27.692  46.727  1.00  0.00    -0.342 N 
ATOM     10  H   UNL     1      -8.588 -28.393  46.358  1.00  0.00     0.164 HD
ATOM     11  O   UNL     1      -6.267 -27.953  45.137  1.00  0.00    -0.273 OA
BRANCH   9  12
ATOM     12  C   UNL     1      -8.302 -26.311  46.381  1.00  0.00     0.174 CG0
ATOM     13  G   UNL     1      -8.271 -25.405  47.627  1.00  0.00     0.000 G0
BRANCH  12  14
ATOM     14  C   UNL     1      -9.718 -26.233  45.731  1.00  0.00     0.018 C 
ATOM     15  C   UNL     1     -10.782 -27.017  46.530  1.00  0.00     0.010 C 
BRANCH  14  16
ATOM     16  C   UNL     1      -9.730 -26.667  44.226  1.00  0.00     0.002 C 
ATOM     17  C   UNL     1     -10.151 -28.131  43.986  1.00  0.00     0.004 C 
ENDBRANCH  14  16
ENDBRANCH  12  14
ENDBRANCH   9  12
ENDBRANCH   7   8
BRANCH   7  18
ATOM     18  C   UNL     1      -6.321 -30.173  48.026  1.00  0.00     0.073 C 
BRANCH  18  19
ATOM     19  C   UNL     1      -5.543 -31.464  48.042  1.00  0.00    -0.016 A 
ATOM     20  C   UNL     1      -4.176 -31.597  48.264  1.00  0.00     0.134 A 
ATOM     21  C   UNL     1      -6.002 -32.741  47.757  1.00  0.00     0.006 A 
ATOM     22  N   UNL     1      -3.807 -32.890  48.133  1.00  0.00    -0.191 N 
ATOM     23  C   UNL     1      -4.907 -33.569  47.750  1.00  0.00     0.087 A 
ATOM     24  C   UNL     1      -7.269 -33.211  47.408  1.00  0.00     0.011 A 
ATOM     25  C   UNL     1      -5.003 -34.914  47.387  1.00  0.00     0.030 A 
ATOM     26  C   UNL     1      -7.392 -34.571  47.052  1.00  0.00     0.001 A 
ATOM     27  C   UNL     1      -6.270 -35.419  47.044  1.00  0.00     0.002 A 
BRANCH  22  28
ATOM     28  O   UNL     1      -2.523 -33.400  48.093  1.00  0.00    -0.417 OA
ATOM     29  C   UNL     1      -1.992 -34.220  49.125  1.00  0.00     0.313 C 
ENDBRANCH  22  28
ENDBRANCH  18  19
ENDBRANCH   7  18
ENDBRANCH   4   7
ENDBRANCH   2   3
BRANCH   2  30
ATOM     30  N   UNL     1      -4.921 -24.499  49.122  1.00  0.00    -0.343 N 
ATOM     31  C   UNL     1      -5.547 -23.302  48.650  1.00  0.00     0.243 C 
ATOM     32  H   UNL     1      -5.257 -24.858  50.028  1.00  0.00     0.164 HD
ATOM     33  O   UNL     1      -4.815 -22.379  48.222  1.00  0.00    -0.273 OA
BRANCH  31  34
ATOM     34  C   UNL     1      -7.060 -23.238  48.509  1.00  0.00     0.174 C 
ATOM     35  N   UNL     1      -7.526 -23.922  47.274  1.00  0.00    -0.329 N 
ATOM     36  C   UNL     1      -7.588 -21.782  48.584  1.00  0.00     0.035 C 
ATOM     37  C   UNL     1      -7.289 -23.234  45.983  1.00  0.00     0.120 C 
ATOM     38  C   UNL     1      -7.407 -20.987  47.287  1.00  0.00     0.004 C 
ATOM     39  C   UNL     1      -7.831 -21.772  46.042  1.00  0.00     0.022 C 
BRANCH  35  40
ATOM     40  C   UNL     1      -8.324 -25.154  47.417  1.00  0.00     0.246 CG0
ATOM     41  O   UNL     1      -9.203 -25.205  48.332  1.00  0.00    -0.272 OA
ATOM     42  G   UNL     1      -8.278 -26.362  46.462  1.00  0.00     0.000 G0
ENDBRANCH  35  40
ENDBRANCH  31  34
ENDBRANCH   2  30
ENDBRANCH   1   2
BRANCH   1  43
ATOM     43  C   UNL     1      -2.818 -24.922  46.209  1.00  0.00     0.003 C 
BRANCH  43  44
ATOM     44  C   UNL     1      -2.030 -23.721  46.740  1.00  0.00     0.001 C 
BRANCH  44  45
ATOM     45  C   UNL     1      -2.396 -22.415  46.026  1.00  0.00     0.008 C 
BRANCH  45  46
ATOM     46  C   UNL     1      -1.483 -21.290  46.511  1.00  0.00     0.075 C 
BRANCH  46  47
ATOM     47  C   UNL     1      -0.047 -21.714  46.462  1.00  0.00     0.132 C 
ATOM     48  O   UNL     1       0.294 -22.586  45.670  1.00  0.00    -0.300 OA
BRANCH  47  49
ATOM     49  C   UNL     1       0.944 -21.128  47.438  1.00  0.00     0.072 C 
ATOM     50  C   UNL     1       0.606 -21.466  48.900  1.00  0.00     0.012 C 
ENDBRANCH  47  49
ENDBRANCH  46  47
ENDBRANCH  45  46
ENDBRANCH  44  45
ENDBRANCH  43  44
ENDBRANCH   1  43
TORSDOF 12
ENDMDL
