MODEL 1
REMARK VINA RESULT:    -3.315      0.000      0.000
REMARK INTER + INTRA:          -9.073
REMARK INTER:                  -6.027
REMARK INTRA:                  -3.045
REMARK UNBOUND:                -3.045
REMARK SMILES CCCCCC=CCC=CCCCCCCCC(=O)[O-]
REMARK SMILES IDX 11 1 12 2 13 3 14 4 15 5 16 6 17 7 18 8 19 9 20 10 10 11
REMARK SMILES IDX 9 12 8 13 7 14 6 15 5 16 4 17 3 18 2 19 1 20
REMARK H PARENT
REMARK Flexibility Score: inf
ROOT
ATOM      1  C   UNL     1      17.449 -13.771  -2.191  1.00  0.00     0.027 C 
ENDROOT
BRANCH   1   2
ATOM      2  C   UNL     1      16.609 -13.464  -3.441  1.00  0.00     0.004 C 
BRANCH   2   3
ATOM      3  C   UNL     1      16.467 -11.961  -3.753  1.00  0.00     0.000 C 
BRANCH   3   4
ATOM      4  C   UNL     1      16.683 -11.073  -2.519  1.00  0.00     0.000 C 
BRANCH   4   5
ATOM      5  C   UNL     1      15.938  -9.738  -2.668  1.00  0.00     0.000 C 
BRANCH   5   6
ATOM      6  C   UNL     1      15.156  -9.348  -1.403  1.00  0.00     0.006 C 
BRANCH   6   7
ATOM      7  C   UNL     1      13.710  -8.934  -1.705  1.00  0.00     0.053 C 
BRANCH   7   8
ATOM      8  C   UNL     1      13.674  -7.582  -2.343  1.00  0.00     0.041 C 
ATOM      9  O   UNL     1      13.351  -7.462  -3.554  1.00  0.00    -0.550 OA
ATOM     10  O   UNL     1      14.050  -6.459  -1.617  1.00  0.00    -0.550 OA
ENDBRANCH   7   8
ENDBRANCH   6   7
ENDBRANCH   5   6
ENDBRANCH   4   5
ENDBRANCH   3   4
ENDBRANCH   2   3
ENDBRANCH   1   2
BRANCH   1  11
ATOM     11  C   UNL     1      17.101 -15.105  -1.575  1.00  0.00    -0.031 C 
ATOM     12  C   UNL     1      16.701 -15.248  -0.298  1.00  0.00    -0.027 C 
BRANCH  12  13
ATOM     13  C   UNL     1      16.541 -14.104   0.672  1.00  0.00     0.054 C 
BRANCH  13  14
ATOM     14  C   UNL     1      15.112 -13.645   0.752  1.00  0.00    -0.027 C 
ATOM     15  C   UNL     1      14.643 -12.670  -0.042  1.00  0.00    -0.031 C 
BRANCH  15  16
ATOM     16  C   UNL     1      13.224 -12.180   0.064  1.00  0.00     0.027 C 
BRANCH  16  17
ATOM     17  C   UNL     1      12.357 -12.695  -1.091  1.00  0.00     0.004 C 
BRANCH  17  18
ATOM     18  C   UNL     1      13.141 -12.796  -2.409  1.00  0.00     0.000 C 
BRANCH  18  19
ATOM     19  C   UNL     1      12.788 -14.085  -3.159  1.00  0.00    -0.003 C 
ATOM     20  C   UNL     1      13.469 -15.295  -2.525  1.00  0.00     0.004 C 
ENDBRANCH  18  19
ENDBRANCH  17  18
ENDBRANCH  16  17
ENDBRANCH  15  16
ENDBRANCH  13  14
ENDBRANCH  12  13
ENDBRANCH   1  11
TORSDOF 14
ENDMDL
MODEL 2
REMARK VINA RESULT:    -3.228      1.315      2.886
REMARK INTER + INTRA:          -8.915
REMARK INTER:                  -6.051
REMARK INTRA:                  -2.864
REMARK UNBOUND:                -3.045
REMARK SMILES CCCCCC=CCC=CCCCCCCCC(=O)[O-]
REMARK SMILES IDX 11 1 12 2 13 3 14 4 15 5 16 6 17 7 18 8 19 9 20 10 10 11
REMARK SMILES IDX 9 12 8 13 7 14 6 15 5 16 4 17 3 18 2 19 1 20
REMARK H PARENT
REMARK Flexibility Score: inf
ROOT
ATOM      1  C   UNL     1      17.667 -12.991  -0.500  1.00  0.00     0.027 C 
ENDROOT
BRANCH   1   2
ATOM      2  C   UNL     1      16.398 -12.544   0.243  1.00  0.00     0.004 C 
BRANCH   2   3
ATOM      3  C   UNL     1      15.763 -11.254  -0.312  1.00  0.00     0.000 C 
BRANCH   3   4
ATOM      4  C   UNL     1      16.790 -10.318  -0.967  1.00  0.00     0.000 C 
BRANCH   4   5
ATOM      5  C   UNL     1      16.264  -9.780  -2.306  1.00  0.00     0.000 C 
BRANCH   5   6
ATOM      6  C   UNL     1      14.782  -9.376  -2.245  1.00  0.00     0.006 C 
BRANCH   6   7
ATOM      7  C   UNL     1      14.548  -8.105  -1.417  1.00  0.00     0.053 C 
BRANCH   7   8
ATOM      8  C   UNL     1      13.648  -7.162  -2.148  1.00  0.00     0.041 C 
ATOM      9  O   UNL     1      13.242  -6.111  -1.586  1.00  0.00    -0.550 OA
ATOM     10  O   UNL     1      13.212  -7.468  -3.431  1.00  0.00    -0.550 OA
ENDBRANCH   7   8
ENDBRANCH   6   7
ENDBRANCH   5   6
ENDBRANCH   4   5
ENDBRANCH   3   4
ENDBRANCH   2   3
ENDBRANCH   1   2
BRANCH   1  11
ATOM     11  C   UNL     1      17.496 -14.328  -1.182  1.00  0.00    -0.031 C 
ATOM     12  C   UNL     1      17.114 -14.460  -2.465  1.00  0.00    -0.027 C 
BRANCH  12  13
ATOM     13  C   UNL     1      16.819 -13.301  -3.384  1.00  0.00     0.054 C 
BRANCH  13  14
ATOM     14  C   UNL     1      15.339 -13.085  -3.540  1.00  0.00    -0.027 C 
ATOM     15  C   UNL     1      14.447 -13.896  -2.953  1.00  0.00    -0.031 C 
BRANCH  15  16
ATOM     16  C   UNL     1      12.966 -13.708  -3.140  1.00  0.00     0.027 C 
BRANCH  16  17
ATOM     17  C   UNL     1      12.496 -12.344  -2.618  1.00  0.00     0.004 C 
BRANCH  17  18
ATOM     18  C   UNL     1      12.337 -12.329  -1.089  1.00  0.00     0.000 C 
BRANCH  18  19
ATOM     19  C   UNL     1      11.840 -10.962  -0.604  1.00  0.00    -0.003 C 
ATOM     20  C   UNL     1      11.208 -10.169  -1.745  1.00  0.00     0.004 C 
ENDBRANCH  18  19
ENDBRANCH  17  18
ENDBRANCH  16  17
ENDBRANCH  15  16
ENDBRANCH  13  14
ENDBRANCH  12  13
ENDBRANCH   1  11
TORSDOF 14
ENDMDL
MODEL 3
REMARK VINA RESULT:    -3.201      4.885      7.097
REMARK INTER + INTRA:          -8.866
REMARK INTER:                  -6.639
REMARK INTRA:                  -2.227
REMARK UNBOUND:                -3.045
REMARK SMILES CCCCCC=CCC=CCCCCCCCC(=O)[O-]
REMARK SMILES IDX 11 1 12 2 13 3 14 4 15 5 16 6 17 7 18 8 19 9 20 10 10 11
REMARK SMILES IDX 9 12 8 13 7 14 6 15 5 16 4 17 3 18 2 19 1 20
REMARK H PARENT
REMARK Flexibility Score: inf
ROOT
ATOM      1  C   UNL     1      17.864 -12.901  -1.515  1.00  0.00     0.027 C 
ENDROOT
BRANCH   1   2
ATOM      2  C   UNL     1      17.037 -13.946  -0.749  1.00  0.00     0.004 C 
BRANCH   2   3
ATOM      3  C   UNL     1      17.037 -15.347  -1.392  1.00  0.00     0.000 C 
BRANCH   3   4
ATOM      4  C   UNL     1      16.697 -16.462  -0.393  1.00  0.00     0.000 C 
BRANCH   4   5
ATOM      5  C   UNL     1      17.769 -16.562   0.703  1.00  0.00     0.000 C 
BRANCH   5   6
ATOM      6  C   UNL     1      18.659 -17.806   0.553  1.00  0.00     0.006 C 
BRANCH   6   7
ATOM      7  C   UNL     1      18.289 -18.655  -0.670  1.00  0.00     0.053 C 
BRANCH   7   8
ATOM      8  C   UNL     1      19.465 -19.460  -1.123  1.00  0.00     0.041 C 
ATOM      9  O   UNL     1      20.631 -19.000  -1.003  1.00  0.00    -0.550 OA
ATOM     10  O   UNL     1      19.272 -20.695  -1.729  1.00  0.00    -0.550 OA
ENDBRANCH   7   8
ENDBRANCH   6   7
ENDBRANCH   5   6
ENDBRANCH   4   5
ENDBRANCH   3   4
ENDBRANCH   2   3
ENDBRANCH   1   2
BRANCH   1  11
ATOM     11  C   UNL     1      17.410 -12.743  -2.947  1.00  0.00    -0.031 C 
ATOM     12  C   UNL     1      16.730 -11.671  -3.392  1.00  0.00    -0.027 C 
BRANCH  12  13
ATOM     13  C   UNL     1      16.346 -10.494  -2.531  1.00  0.00     0.054 C 
BRANCH  13  14
ATOM     14  C   UNL     1      14.956 -10.647  -1.977  1.00  0.00    -0.027 C 
ATOM     15  C   UNL     1      14.745 -11.083  -0.727  1.00  0.00    -0.031 C 
BRANCH  15  16
ATOM     16  C   UNL     1      13.355 -11.277  -0.183  1.00  0.00     0.027 C 
BRANCH  16  17
ATOM     17  C   UNL     1      12.628 -12.434  -0.879  1.00  0.00     0.004 C 
BRANCH  17  18
ATOM     18  C   UNL     1      13.319 -13.786  -0.640  1.00  0.00     0.000 C 
BRANCH  18  19
ATOM     19  C   UNL     1      13.500 -14.549  -1.957  1.00  0.00    -0.003 C 
ATOM     20  C   UNL     1      13.362 -13.616  -3.157  1.00  0.00     0.004 C 
ENDBRANCH  18  19
ENDBRANCH  17  18
ENDBRANCH  16  17
ENDBRANCH  15  16
ENDBRANCH  13  14
ENDBRANCH  12  13
ENDBRANCH   1  11
TORSDOF 14
ENDMDL
MODEL 4
REMARK VINA RESULT:    -3.170      1.861      4.122
REMARK INTER + INTRA:          -8.810
REMARK INTER:                  -6.549
REMARK INTRA:                  -2.261
REMARK UNBOUND:                -3.045
REMARK SMILES CCCCCC=CCC=CCCCCCCCC(=O)[O-]
REMARK SMILES IDX 11 1 12 2 13 3 14 4 15 5 16 6 17 7 18 8 19 9 20 10 10 11
REMARK SMILES IDX 9 12 8 13 7 14 6 15 5 16 4 17 3 18 2 19 1 20
REMARK H PARENT
REMARK Flexibility Score: inf
ROOT
ATOM      1  C   UNL     1      13.813 -13.492  -3.164  1.00  0.00     0.027 C 
ENDROOT
BRANCH   1   2
ATOM      2  C   UNL     1      12.846 -12.604  -2.365  1.00  0.00     0.004 C 
BRANCH   2   3
ATOM      3  C   UNL     1      13.475 -11.943  -1.123  1.00  0.00     0.000 C 
BRANCH   3   4
ATOM      4  C   UNL     1      12.721 -10.682  -0.672  1.00  0.00     0.000 C 
BRANCH   4   5
ATOM      5  C   UNL     1      12.227  -9.876  -1.883  1.00  0.00     0.000 C 
BRANCH   5   6
ATOM      6  C   UNL     1      12.651  -8.400  -1.828  1.00  0.00     0.006 C 
BRANCH   6   7
ATOM      7  C   UNL     1      12.455  -7.677  -3.168  1.00  0.00     0.053 C 
BRANCH   7   8
ATOM      8  C   UNL     1      11.318  -6.710  -3.078  1.00  0.00     0.041 C 
ATOM      9  O   UNL     1      11.519  -5.532  -2.681  1.00  0.00    -0.550 OA
ATOM     10  O   UNL     1      10.027  -7.122  -3.382  1.00  0.00    -0.550 OA
ENDBRANCH   7   8
ENDBRANCH   6   7
ENDBRANCH   5   6
ENDBRANCH   4   5
ENDBRANCH   3   4
ENDBRANCH   2   3
ENDBRANCH   1   2
BRANCH   1  11
ATOM     11  C   UNL     1      14.418 -14.590  -2.322  1.00  0.00    -0.031 C 
ATOM     12  C   UNL     1      15.738 -14.841  -2.271  1.00  0.00    -0.027 C 
BRANCH  12  13
ATOM     13  C   UNL     1      16.779 -14.059  -3.033  1.00  0.00     0.054 C 
BRANCH  13  14
ATOM     14  C   UNL     1      17.410 -12.998  -2.175  1.00  0.00    -0.027 C 
ATOM     15  C   UNL     1      17.710 -13.225  -0.888  1.00  0.00    -0.031 C 
BRANCH  15  16
ATOM     16  C   UNL     1      18.304 -12.153  -0.015  1.00  0.00     0.027 C 
BRANCH  16  17
ATOM     17  C   UNL     1      17.270 -11.081   0.352  1.00  0.00     0.004 C 
BRANCH  17  18
ATOM     18  C   UNL     1      17.462  -9.786  -0.454  1.00  0.00     0.000 C 
BRANCH  18  19
ATOM     19  C   UNL     1      16.147  -9.349  -1.109  1.00  0.00    -0.003 C 
ATOM     20  C   UNL     1      16.089  -9.782  -2.571  1.00  0.00     0.004 C 
ENDBRANCH  18  19
ENDBRANCH  17  18
ENDBRANCH  16  17
ENDBRANCH  15  16
ENDBRANCH  13  14
ENDBRANCH  12  13
ENDBRANCH   1  11
TORSDOF 14
ENDMDL
MODEL 5
REMARK VINA RESULT:    -3.148      4.969      7.691
REMARK INTER + INTRA:          -8.770
REMARK INTER:                  -7.044
REMARK INTRA:                  -1.726
REMARK UNBOUND:                -3.045
REMARK SMILES CCCCCC=CCC=CCCCCCCCC(=O)[O-]
REMARK SMILES IDX 11 1 12 2 13 3 14 4 15 5 16 6 17 7 18 8 19 9 20 10 10 11
REMARK SMILES IDX 9 12 8 13 7 14 6 15 5 16 4 17 3 18 2 19 1 20
REMARK H PARENT
REMARK Flexibility Score: inf
ROOT
ATOM      1  C   UNL     1      17.084 -14.620  -2.226  1.00  0.00     0.027 C 
ENDROOT
BRANCH   1   2
ATOM      2  C   UNL     1      17.483 -13.909  -0.923  1.00  0.00     0.004 C 
BRANCH   2   3
ATOM      3  C   UNL     1      16.891 -14.545   0.350  1.00  0.00     0.000 C 
BRANCH   3   4
ATOM      4  C   UNL     1      17.542 -15.890   0.704  1.00  0.00     0.000 C 
BRANCH   4   5
ATOM      5  C   UNL     1      16.643 -17.062   0.281  1.00  0.00     0.000 C 
BRANCH   5   6
ATOM      6  C   UNL     1      17.435 -18.226  -0.336  1.00  0.00     0.006 C 
BRANCH   6   7
ATOM      7  C   UNL     1      18.922 -18.198   0.042  1.00  0.00     0.053 C 
BRANCH   7   8
ATOM      8  C   UNL     1      19.698 -19.149  -0.811  1.00  0.00     0.041 C 
ATOM      9  O   UNL     1      20.928 -19.324  -0.607  1.00  0.00    -0.550 OA
ATOM     10  O   UNL     1      19.077 -19.802  -1.868  1.00  0.00    -0.550 OA
ENDBRANCH   7   8
ENDBRANCH   6   7
ENDBRANCH   5   6
ENDBRANCH   4   5
ENDBRANCH   3   4
ENDBRANCH   2   3
ENDBRANCH   1   2
BRANCH   1  11
ATOM     11  C   UNL     1      15.687 -14.260  -2.674  1.00  0.00    -0.031 C 
ATOM     12  C   UNL     1      15.407 -13.184  -3.431  1.00  0.00    -0.027 C 
BRANCH  12  13
ATOM     13  C   UNL     1      16.444 -12.211  -3.935  1.00  0.00     0.054 C 
BRANCH  13  14
ATOM     14  C   UNL     1      16.601 -11.042  -3.003  1.00  0.00    -0.027 C 
ATOM     15  C   UNL     1      15.588 -10.619  -2.232  1.00  0.00    -0.031 C 
BRANCH  15  16
ATOM     16  C   UNL     1      15.730  -9.425  -1.328  1.00  0.00     0.027 C 
BRANCH  16  17
ATOM     17  C   UNL     1      15.695  -9.825   0.153  1.00  0.00     0.004 C 
BRANCH  17  18
ATOM     18  C   UNL     1      16.910  -9.293   0.929  1.00  0.00     0.000 C 
BRANCH  18  19
ATOM     19  C   UNL     1      18.217  -9.640   0.206  1.00  0.00    -0.003 C 
ATOM     20  C   UNL     1      18.804 -10.949   0.727  1.00  0.00     0.004 C 
ENDBRANCH  18  19
ENDBRANCH  17  18
ENDBRANCH  16  17
ENDBRANCH  15  16
ENDBRANCH  13  14
ENDBRANCH  12  13
ENDBRANCH   1  11
TORSDOF 14
ENDMDL
MODEL 6
REMARK VINA RESULT:    -3.146      1.453      2.726
REMARK INTER + INTRA:          -8.766
REMARK INTER:                  -6.541
REMARK INTRA:                  -2.224
REMARK UNBOUND:                -3.045
REMARK SMILES CCCCCC=CCC=CCCCCCCCC(=O)[O-]
REMARK SMILES IDX 11 1 12 2 13 3 14 4 15 5 16 6 17 7 18 8 19 9 20 10 10 11
REMARK SMILES IDX 9 12 8 13 7 14 6 15 5 16 4 17 3 18 2 19 1 20
REMARK H PARENT
REMARK Flexibility Score: inf
ROOT
ATOM      1  C   UNL     1      17.899 -12.784  -0.816  1.00  0.00     0.027 C 
ENDROOT
BRANCH   1   2
ATOM      2  C   UNL     1      16.870 -12.291   0.215  1.00  0.00     0.004 C 
BRANCH   2   3
ATOM      3  C   UNL     1      16.045 -11.075  -0.247  1.00  0.00     0.000 C 
BRANCH   3   4
ATOM      4  C   UNL     1      16.825 -10.149  -1.192  1.00  0.00     0.000 C 
BRANCH   4   5
ATOM      5  C   UNL     1      15.940  -9.685  -2.359  1.00  0.00     0.000 C 
BRANCH   5   6
ATOM      6  C   UNL     1      14.512  -9.328  -1.918  1.00  0.00     0.006 C 
BRANCH   6   7
ATOM      7  C   UNL     1      14.402  -7.898  -1.370  1.00  0.00     0.053 C 
BRANCH   7   8
ATOM      8  C   UNL     1      13.468  -7.087  -2.209  1.00  0.00     0.041 C 
ATOM      9  O   UNL     1      12.866  -6.099  -1.712  1.00  0.00    -0.550 OA
ATOM     10  O   UNL     1      13.220  -7.451  -3.526  1.00  0.00    -0.550 OA
ENDBRANCH   7   8
ENDBRANCH   6   7
ENDBRANCH   5   6
ENDBRANCH   4   5
ENDBRANCH   3   4
ENDBRANCH   2   3
ENDBRANCH   1   2
BRANCH   1  11
ATOM     11  C   UNL     1      17.536 -14.130  -1.395  1.00  0.00    -0.031 C 
ATOM     12  C   UNL     1      16.954 -14.285  -2.598  1.00  0.00    -0.027 C 
BRANCH  12  13
ATOM     13  C   UNL     1      16.601 -13.145  -3.521  1.00  0.00     0.054 C 
BRANCH  13  14
ATOM     14  C   UNL     1      15.113 -13.010  -3.686  1.00  0.00    -0.027 C 
ATOM     15  C   UNL     1      14.269 -13.284  -2.680  1.00  0.00    -0.031 C 
BRANCH  15  16
ATOM     16  C   UNL     1      12.777 -13.190  -2.854  1.00  0.00     0.027 C 
BRANCH  16  17
ATOM     17  C   UNL     1      12.196 -14.464  -3.479  1.00  0.00     0.004 C 
BRANCH  17  18
ATOM     18  C   UNL     1      12.834 -15.739  -2.905  1.00  0.00     0.000 C 
BRANCH  18  19
ATOM     19  C   UNL     1      11.952 -16.963  -3.176  1.00  0.00    -0.003 C 
ATOM     20  C   UNL     1      10.505 -16.552  -3.437  1.00  0.00     0.004 C 
ENDBRANCH  18  19
ENDBRANCH  17  18
ENDBRANCH  16  17
ENDBRANCH  15  16
ENDBRANCH  13  14
ENDBRANCH  12  13
ENDBRANCH   1  11
TORSDOF 14
ENDMDL
MODEL 7
REMARK VINA RESULT:    -3.120      2.789      4.700
REMARK INTER + INTRA:          -8.718
REMARK INTER:                  -6.155
REMARK INTRA:                  -2.564
REMARK UNBOUND:                -3.045
REMARK SMILES CCCCCC=CCC=CCCCCCCCC(=O)[O-]
REMARK SMILES IDX 11 1 12 2 13 3 14 4 15 5 16 6 17 7 18 8 19 9 20 10 10 11
REMARK SMILES IDX 9 12 8 13 7 14 6 15 5 16 4 17 3 18 2 19 1 20
REMARK H PARENT
REMARK Flexibility Score: inf
ROOT
ATOM      1  C   UNL     1      17.388 -14.011  -0.558  1.00  0.00     0.027 C 
ENDROOT
BRANCH   1   2
ATOM      2  C   UNL     1      17.132 -14.360  -2.033  1.00  0.00     0.004 C 
BRANCH   2   3
ATOM      3  C   UNL     1      17.259 -13.164  -2.997  1.00  0.00     0.000 C 
BRANCH   3   4
ATOM      4  C   UNL     1      15.958 -12.871  -3.759  1.00  0.00     0.000 C 
BRANCH   4   5
ATOM      5  C   UNL     1      14.803 -13.732  -3.223  1.00  0.00     0.000 C 
BRANCH   5   6
ATOM      6  C   UNL     1      13.629 -12.891  -2.697  1.00  0.00     0.006 C 
BRANCH   6   7
ATOM      7  C   UNL     1      12.396 -13.741  -2.360  1.00  0.00     0.053 C 
BRANCH   7   8
ATOM      8  C   UNL     1      11.778 -14.286  -3.608  1.00  0.00     0.041 C 
ATOM      9  O   UNL     1      11.159 -13.520  -4.394  1.00  0.00    -0.550 OA
ATOM     10  O   UNL     1      11.837 -15.647  -3.879  1.00  0.00    -0.550 OA
ENDBRANCH   7   8
ENDBRANCH   6   7
ENDBRANCH   5   6
ENDBRANCH   4   5
ENDBRANCH   3   4
ENDBRANCH   2   3
ENDBRANCH   1   2
BRANCH   1  11
ATOM     11  C   UNL     1      18.252 -12.783  -0.398  1.00  0.00    -0.031 C 
ATOM     12  C   UNL     1      17.799 -11.619   0.102  1.00  0.00    -0.027 C 
BRANCH  12  13
ATOM     13  C   UNL     1      16.383 -11.395   0.572  1.00  0.00     0.054 C 
BRANCH  13  14
ATOM     14  C   UNL     1      15.559 -10.697  -0.474  1.00  0.00    -0.027 C 
ATOM     15  C   UNL     1      16.132 -10.030  -1.487  1.00  0.00    -0.031 C 
BRANCH  15  16
ATOM     16  C   UNL     1      15.311  -9.295  -2.513  1.00  0.00     0.027 C 
BRANCH  16  17
ATOM     17  C   UNL     1      14.474  -8.178  -1.878  1.00  0.00     0.004 C 
BRANCH  17  18
ATOM     18  C   UNL     1      13.010  -8.208  -2.346  1.00  0.00     0.000 C 
BRANCH  18  19
ATOM     19  C   UNL     1      12.094  -8.746  -1.241  1.00  0.00    -0.003 C 
ATOM     20  C   UNL     1      11.506 -10.102  -1.624  1.00  0.00     0.004 C 
ENDBRANCH  18  19
ENDBRANCH  17  18
ENDBRANCH  16  17
ENDBRANCH  15  16
ENDBRANCH  13  14
ENDBRANCH  12  13
ENDBRANCH   1  11
TORSDOF 14
ENDMDL
MODEL 8
REMARK VINA RESULT:    -3.101      2.465      4.863
REMARK INTER + INTRA:          -8.685
REMARK INTER:                  -5.843
REMARK INTRA:                  -2.843
REMARK UNBOUND:                -3.045
REMARK SMILES CCCCCC=CCC=CCCCCCCCC(=O)[O-]
REMARK SMILES IDX 11 1 12 2 13 3 14 4 15 5 16 6 17 7 18 8 19 9 20 10 10 11
REMARK SMILES IDX 9 12 8 13 7 14 6 15 5 16 4 17 3 18 2 19 1 20
REMARK H PARENT
REMARK Flexibility Score: inf
ROOT
ATOM      1  C   UNL     1      17.069 -14.145  -2.549  1.00  0.00     0.027 C 
ENDROOT
BRANCH   1   2
ATOM      2  C   UNL     1      16.743 -13.978  -1.056  1.00  0.00     0.004 C 
BRANCH   2   3
ATOM      3  C   UNL     1      15.237 -13.994  -0.733  1.00  0.00     0.000 C 
BRANCH   3   4
ATOM      4  C   UNL     1      14.779 -12.751   0.045  1.00  0.00     0.000 C 
BRANCH   4   5
ATOM      5  C   UNL     1      13.514 -12.147  -0.583  1.00  0.00     0.000 C 
BRANCH   5   6
ATOM      6  C   UNL     1      12.786 -13.128  -1.515  1.00  0.00     0.006 C 
BRANCH   6   7
ATOM      7  C   UNL     1      12.413 -12.498  -2.864  1.00  0.00     0.053 C 
BRANCH   7   8
ATOM      8  C   UNL     1      11.022 -12.882  -3.255  1.00  0.00     0.041 C 
ATOM      9  O   UNL     1      10.107 -12.915  -2.390  1.00  0.00    -0.550 OA
ATOM     10  O   UNL     1      10.745 -13.258  -4.563  1.00  0.00    -0.550 OA
ENDBRANCH   7   8
ENDBRANCH   6   7
ENDBRANCH   5   6
ENDBRANCH   4   5
ENDBRANCH   3   4
ENDBRANCH   2   3
ENDBRANCH   1   2
BRANCH   1  11
ATOM     11  C   UNL     1      15.981 -13.599  -3.442  1.00  0.00    -0.031 C 
ATOM     12  C   UNL     1      15.982 -12.345  -3.927  1.00  0.00    -0.027 C 
BRANCH  12  13
ATOM     13  C   UNL     1      17.067 -11.333  -3.654  1.00  0.00     0.054 C 
BRANCH  13  14
ATOM     14  C   UNL     1      16.731 -10.473  -2.467  1.00  0.00    -0.027 C 
ATOM     15  C   UNL     1      15.574  -9.797  -2.397  1.00  0.00    -0.031 C 
BRANCH  15  16
ATOM     16  C   UNL     1      15.252  -8.903  -1.230  1.00  0.00     0.027 C 
BRANCH  16  17
ATOM     17  C   UNL     1      13.905  -8.192  -1.413  1.00  0.00     0.004 C 
BRANCH  17  18
ATOM     18  C   UNL     1      13.577  -7.935  -2.892  1.00  0.00     0.000 C 
BRANCH  18  19
ATOM     19  C   UNL     1      12.078  -7.680  -3.084  1.00  0.00    -0.003 C 
ATOM     20  C   UNL     1      11.261  -8.930  -2.767  1.00  0.00     0.004 C 
ENDBRANCH  18  19
ENDBRANCH  17  18
ENDBRANCH  16  17
ENDBRANCH  15  16
ENDBRANCH  13  14
ENDBRANCH  12  13
ENDBRANCH   1  11
TORSDOF 14
ENDMDL
MODEL 9
REMARK VINA RESULT:    -3.057      1.744      3.539
REMARK INTER + INTRA:          -8.605
REMARK INTER:                  -6.036
REMARK INTRA:                  -2.568
REMARK UNBOUND:                -3.045
REMARK SMILES CCCCCC=CCC=CCCCCCCCC(=O)[O-]
REMARK SMILES IDX 11 1 12 2 13 3 14 4 15 5 16 6 17 7 18 8 19 9 20 10 10 11
REMARK SMILES IDX 9 12 8 13 7 14 6 15 5 16 4 17 3 18 2 19 1 20
REMARK H PARENT
REMARK Flexibility Score: inf
ROOT
ATOM      1  C   UNL     1      17.218 -11.094  -0.678  1.00  0.00     0.027 C 
ENDROOT
BRANCH   1   2
ATOM      2  C   UNL     1      16.082 -11.674   0.180  1.00  0.00     0.004 C 
BRANCH   2   3
ATOM      3  C   UNL     1      14.807 -10.808   0.209  1.00  0.00     0.000 C 
BRANCH   3   4
ATOM      4  C   UNL     1      13.597 -11.507  -0.428  1.00  0.00     0.000 C 
BRANCH   4   5
ATOM      5  C   UNL     1      12.987 -10.641  -1.541  1.00  0.00     0.000 C 
BRANCH   5   6
ATOM      6  C   UNL     1      13.050  -9.138  -1.227  1.00  0.00     0.006 C 
BRANCH   6   7
ATOM      7  C   UNL     1      13.004  -8.267  -2.490  1.00  0.00     0.053 C 
BRANCH   7   8
ATOM      8  C   UNL     1      11.769  -7.425  -2.500  1.00  0.00     0.041 C 
ATOM      9  O   UNL     1      10.772  -7.754  -1.803  1.00  0.00    -0.550 OA
ATOM     10  O   UNL     1      11.695  -6.305  -3.319  1.00  0.00    -0.550 OA
ENDBRANCH   7   8
ENDBRANCH   6   7
ENDBRANCH   5   6
ENDBRANCH   4   5
ENDBRANCH   3   4
ENDBRANCH   2   3
ENDBRANCH   1   2
BRANCH   1  11
ATOM     11  C   UNL     1      16.717 -10.117  -1.715  1.00  0.00    -0.031 C 
ATOM     12  C   UNL     1      16.505 -10.447  -3.001  1.00  0.00    -0.027 C 
BRANCH  12  13
ATOM     13  C   UNL     1      16.728 -11.826  -3.569  1.00  0.00     0.054 C 
BRANCH  13  14
ATOM     14  C   UNL     1      15.509 -12.691  -3.413  1.00  0.00    -0.027 C 
ATOM     15  C   UNL     1      15.565 -13.874  -2.783  1.00  0.00    -0.031 C 
BRANCH  15  16
ATOM     16  C   UNL     1      14.355 -14.761  -2.660  1.00  0.00     0.027 C 
BRANCH  16  17
ATOM     17  C   UNL     1      13.071 -14.033  -3.080  1.00  0.00     0.004 C 
BRANCH  17  18
ATOM     18  C   UNL     1      11.994 -15.001  -3.595  1.00  0.00     0.000 C 
BRANCH  18  19
ATOM     19  C   UNL     1      12.219 -16.414  -3.044  1.00  0.00    -0.003 C 
ATOM     20  C   UNL     1      11.822 -17.474  -4.068  1.00  0.00     0.004 C 
ENDBRANCH  18  19
ENDBRANCH  17  18
ENDBRANCH  16  17
ENDBRANCH  15  16
ENDBRANCH  13  14
ENDBRANCH  12  13
ENDBRANCH   1  11
TORSDOF 14
ENDMDL
