MODEL 1
REMARK VINA RESULT:    -4.647      0.000      0.000
REMARK INTER + INTRA:          -5.510
REMARK INTER:                  -5.461
REMARK INTRA:                  -0.048
REMARK UNBOUND:                -0.048
REMARK SMILES O=C([O-])CCC(=O)[O-]
REMARK SMILES IDX 4 1 2 2 1 3 3 4 5 5 6 6 7 7 8 8
REMARK H PARENT
REMARK Flexibility Score: inf
ROOT
ATOM      1  C   UNL     1     -15.211  34.023  -9.885  1.00  0.00     0.059 C 
ENDROOT
BRANCH   1   2
ATOM      2  C   UNL     1     -13.986  34.886  -9.895  1.00  0.00     0.042 C 
ATOM      3  O   UNL     1     -13.489  35.270 -10.986  1.00  0.00    -0.550 OA
ATOM      4  O   UNL     1     -13.417  35.300  -8.697  1.00  0.00    -0.550 OA
ENDBRANCH   1   2
BRANCH   1   5
ATOM      5  C   UNL     1     -15.614  33.599 -11.301  1.00  0.00     0.059 C 
BRANCH   5   6
ATOM      6  C   UNL     1     -17.097  33.425 -11.423  1.00  0.00     0.042 C 
ATOM      7  O   UNL     1     -17.571  32.427 -12.028  1.00  0.00    -0.550 OA
ATOM      8  O   UNL     1     -17.956  34.343 -10.833  1.00  0.00    -0.550 OA
ENDBRANCH   5   6
ENDBRANCH   1   5
TORSDOF 3
ENDMDL
MODEL 2
REMARK VINA RESULT:    -4.642      0.303      4.244
REMARK INTER + INTRA:          -5.504
REMARK INTER:                  -5.452
REMARK INTRA:                  -0.052
REMARK UNBOUND:                -0.048
REMARK SMILES O=C([O-])CCC(=O)[O-]
REMARK SMILES IDX 4 1 2 2 1 3 3 4 5 5 6 6 7 7 8 8
REMARK H PARENT
REMARK Flexibility Score: inf
ROOT
ATOM      1  C   UNL     1     -15.502  33.659 -11.057  1.00  0.00     0.059 C 
ENDROOT
BRANCH   1   2
ATOM      2  C   UNL     1     -16.983  33.437 -11.125  1.00  0.00     0.042 C 
ATOM      3  O   UNL     1     -17.760  34.116 -10.403  1.00  0.00    -0.550 OA
ATOM      4  O   UNL     1     -17.507  32.510 -12.017  1.00  0.00    -0.550 OA
ENDBRANCH   1   2
BRANCH   1   5
ATOM      5  C   UNL     1     -15.060  34.086  -9.654  1.00  0.00     0.059 C 
BRANCH   5   6
ATOM      6  C   UNL     1     -13.879  35.006  -9.705  1.00  0.00     0.042 C 
ATOM      7  O   UNL     1     -13.386  35.346 -10.814  1.00  0.00    -0.550 OA
ATOM      8  O   UNL     1     -13.347  35.521  -8.529  1.00  0.00    -0.550 OA
ENDBRANCH   5   6
ENDBRANCH   1   5
TORSDOF 3
ENDMDL
MODEL 3
REMARK VINA RESULT:    -4.590     13.090     14.139
REMARK INTER + INTRA:          -5.443
REMARK INTER:                  -5.383
REMARK INTRA:                  -0.061
REMARK UNBOUND:                -0.048
REMARK SMILES O=C([O-])CCC(=O)[O-]
REMARK SMILES IDX 4 1 2 2 1 3 3 4 5 5 6 6 7 7 8 8
REMARK H PARENT
REMARK Flexibility Score: inf
ROOT
ATOM      1  C   UNL     1     -21.053  23.800  -3.874  1.00  0.00     0.059 C 
ENDROOT
BRANCH   1   2
ATOM      2  C   UNL     1     -20.942  22.495  -3.145  1.00  0.00     0.042 C 
ATOM      3  O   UNL     1     -21.647  22.277  -2.125  1.00  0.00    -0.550 OA
ATOM      4  O   UNL     1     -20.090  21.506  -3.617  1.00  0.00    -0.550 OA
ENDBRANCH   1   2
BRANCH   1   5
ATOM      5  C   UNL     1     -22.093  24.721  -3.227  1.00  0.00     0.059 C 
BRANCH   5   6
ATOM      6  C   UNL     1     -22.907  25.441  -4.257  1.00  0.00     0.042 C 
ATOM      7  O   UNL     1     -23.129  24.908  -5.377  1.00  0.00    -0.550 OA
ATOM      8  O   UNL     1     -23.456  26.683  -3.966  1.00  0.00    -0.550 OA
ENDBRANCH   5   6
ENDBRANCH   1   5
TORSDOF 3
ENDMDL
MODEL 4
REMARK VINA RESULT:    -4.568      0.121      4.207
REMARK INTER + INTRA:          -5.418
REMARK INTER:                  -5.373
REMARK INTRA:                  -0.044
REMARK UNBOUND:                -0.048
REMARK SMILES O=C([O-])CCC(=O)[O-]
REMARK SMILES IDX 4 1 2 2 1 3 3 4 5 5 6 6 7 7 8 8
REMARK H PARENT
REMARK Flexibility Score: inf
ROOT
ATOM      1  C   UNL     1     -15.711  33.590 -11.286  1.00  0.00     0.059 C 
ENDROOT
BRANCH   1   2
ATOM      2  C   UNL     1     -17.192  33.389 -11.399  1.00  0.00     0.042 C 
ATOM      3  O   UNL     1     -17.651  32.407 -12.040  1.00  0.00    -0.550 OA
ATOM      4  O   UNL     1     -18.063  34.262 -10.761  1.00  0.00    -0.550 OA
ENDBRANCH   1   2
BRANCH   1   5
ATOM      5  C   UNL     1     -15.300  33.967  -9.859  1.00  0.00     0.059 C 
BRANCH   5   6
ATOM      6  C   UNL     1     -14.088  34.848  -9.850  1.00  0.00     0.042 C 
ATOM      7  O   UNL     1     -13.566  35.198  -8.759  1.00  0.00    -0.550 OA
ATOM      8  O   UNL     1     -13.512  35.250 -11.049  1.00  0.00    -0.550 OA
ENDBRANCH   5   6
ENDBRANCH   1   5
TORSDOF 3
ENDMDL
MODEL 5
REMARK VINA RESULT:    -4.543     12.968     14.194
REMARK INTER + INTRA:          -5.387
REMARK INTER:                  -5.330
REMARK INTRA:                  -0.058
REMARK UNBOUND:                -0.048
REMARK SMILES O=C([O-])CCC(=O)[O-]
REMARK SMILES IDX 4 1 2 2 1 3 3 4 5 5 6 6 7 7 8 8
REMARK H PARENT
REMARK Flexibility Score: inf
ROOT
ATOM      1  C   UNL     1     -22.085  24.811  -3.326  1.00  0.00     0.059 C 
ENDROOT
BRANCH   1   2
ATOM      2  C   UNL     1     -22.855  25.531  -4.391  1.00  0.00     0.042 C 
ATOM      3  O   UNL     1     -23.079  24.974  -5.498  1.00  0.00    -0.550 OA
ATOM      4  O   UNL     1     -23.362  26.800  -4.145  1.00  0.00    -0.550 OA
ENDBRANCH   1   2
BRANCH   1   5
ATOM      5  C   UNL     1     -21.078  23.825  -3.926  1.00  0.00     0.059 C 
BRANCH   5   6
ATOM      6  C   UNL     1     -20.997  22.563  -3.123  1.00  0.00     0.042 C 
ATOM      7  O   UNL     1     -21.705  22.421  -2.090  1.00  0.00    -0.550 OA
ATOM      8  O   UNL     1     -20.169  21.527  -3.537  1.00  0.00    -0.550 OA
ENDBRANCH   5   6
ENDBRANCH   1   5
TORSDOF 3
ENDMDL
MODEL 6
REMARK VINA RESULT:    -4.262     12.612     13.252
REMARK INTER + INTRA:          -5.058
REMARK INTER:                  -5.032
REMARK INTRA:                  -0.026
REMARK UNBOUND:                -0.048
REMARK SMILES O=C([O-])CCC(=O)[O-]
REMARK SMILES IDX 4 1 2 2 1 3 3 4 5 5 6 6 7 7 8 8
REMARK H PARENT
REMARK Flexibility Score: inf
ROOT
ATOM      1  C   UNL     1     -21.201  24.891  -5.292  1.00  0.00     0.059 C 
ENDROOT
BRANCH   1   2
ATOM      2  C   UNL     1     -20.601  23.589  -4.855  1.00  0.00     0.042 C 
ATOM      3  O   UNL     1     -19.773  22.993  -5.593  1.00  0.00    -0.550 OA
ATOM      4  O   UNL     1     -20.926  23.056  -3.614  1.00  0.00    -0.550 OA
ENDBRANCH   1   2
BRANCH   1   5
ATOM      5  C   UNL     1     -22.707  24.940  -5.015  1.00  0.00     0.059 C 
BRANCH   5   6
ATOM      6  C   UNL     1     -23.023  25.824  -3.848  1.00  0.00     0.042 C 
ATOM      7  O   UNL     1     -23.734  26.852  -4.003  1.00  0.00    -0.550 OA
ATOM      8  O   UNL     1     -22.567  25.489  -2.579  1.00  0.00    -0.550 OA
ENDBRANCH   5   6
ENDBRANCH   1   5
TORSDOF 3
ENDMDL
MODEL 7
REMARK VINA RESULT:    -4.235     12.601     13.453
REMARK INTER + INTRA:          -5.026
REMARK INTER:                  -4.966
REMARK INTRA:                  -0.060
REMARK UNBOUND:                -0.048
REMARK SMILES O=C([O-])CCC(=O)[O-]
REMARK SMILES IDX 4 1 2 2 1 3 3 4 5 5 6 6 7 7 8 8
REMARK H PARENT
REMARK Flexibility Score: inf
ROOT
ATOM      1  C   UNL     1     -22.709  24.943  -5.058  1.00  0.00     0.059 C 
ENDROOT
BRANCH   1   2
ATOM      2  C   UNL     1     -23.162  25.704  -3.849  1.00  0.00     0.042 C 
ATOM      3  O   UNL     1     -23.599  26.879  -3.968  1.00  0.00    -0.550 OA
ATOM      4  O   UNL     1     -23.142  25.100  -2.599  1.00  0.00    -0.550 OA
ENDBRANCH   1   2
BRANCH   1   5
ATOM      5  C   UNL     1     -21.181  24.921  -5.171  1.00  0.00     0.059 C 
BRANCH   5   6
ATOM      6  C   UNL     1     -20.620  23.587  -4.784  1.00  0.00     0.042 C 
ATOM      7  O   UNL     1     -19.821  22.988  -5.552  1.00  0.00    -0.550 OA
ATOM      8  O   UNL     1     -20.947  23.023  -3.558  1.00  0.00    -0.550 OA
ENDBRANCH   5   6
ENDBRANCH   1   5
TORSDOF 3
ENDMDL
MODEL 8
REMARK VINA RESULT:    -4.083     11.662     12.887
REMARK INTER + INTRA:          -4.848
REMARK INTER:                  -4.865
REMARK INTRA:                   0.017
REMARK UNBOUND:                -0.048
REMARK SMILES O=C([O-])CCC(=O)[O-]
REMARK SMILES IDX 4 1 2 2 1 3 3 4 5 5 6 6 7 7 8 8
REMARK H PARENT
REMARK Flexibility Score: inf
ROOT
ATOM      1  C   UNL     1     -23.041  25.354  -4.532  1.00  0.00     0.059 C 
ENDROOT
BRANCH   1   2
ATOM      2  C   UNL     1     -22.391  24.732  -3.333  1.00  0.00     0.042 C 
ATOM      3  O   UNL     1     -22.876  24.912  -2.185  1.00  0.00    -0.550 OA
ATOM      4  O   UNL     1     -21.275  23.921  -3.489  1.00  0.00    -0.550 OA
ENDBRANCH   1   2
BRANCH   1   5
ATOM      5  C   UNL     1     -22.022  26.089  -5.408  1.00  0.00     0.059 C 
BRANCH   5   6
ATOM      6  C   UNL     1     -21.602  25.258  -6.581  1.00  0.00     0.042 C 
ATOM      7  O   UNL     1     -20.659  24.430  -6.469  1.00  0.00    -0.550 OA
ATOM      8  O   UNL     1     -22.280  25.368  -7.789  1.00  0.00    -0.550 OA
ENDBRANCH   5   6
ENDBRANCH   1   5
TORSDOF 3
ENDMDL
MODEL 9
REMARK VINA RESULT:    -4.008     11.960     13.273
REMARK INTER + INTRA:          -4.759
REMARK INTER:                  -4.669
REMARK INTRA:                  -0.091
REMARK UNBOUND:                -0.048
REMARK SMILES O=C([O-])CCC(=O)[O-]
REMARK SMILES IDX 4 1 2 2 1 3 3 4 5 5 6 6 7 7 8 8
REMARK H PARENT
REMARK Flexibility Score: inf
ROOT
ATOM      1  C   UNL     1     -22.907  25.056  -4.408  1.00  0.00     0.059 C 
ENDROOT
BRANCH   1   2
ATOM      2  C   UNL     1     -22.370  25.881  -5.538  1.00  0.00     0.042 C 
ATOM      3  O   UNL     1     -22.094  27.096  -5.360  1.00  0.00    -0.550 OA
ATOM      4  O   UNL     1     -22.137  25.296  -6.776  1.00  0.00    -0.550 OA
ENDBRANCH   1   2
BRANCH   1   5
ATOM      5  C   UNL     1     -21.833  24.780  -3.351  1.00  0.00     0.059 C 
BRANCH   5   6
ATOM      6  C   UNL     1     -21.134  23.479  -3.603  1.00  0.00     0.042 C 
ATOM      7  O   UNL     1     -21.352  22.486  -2.859  1.00  0.00    -0.550 OA
ATOM      8  O   UNL     1     -20.270  23.352  -4.684  1.00  0.00    -0.550 OA
ENDBRANCH   5   6
ENDBRANCH   1   5
TORSDOF 3
ENDMDL
