MODEL 1
REMARK VINA RESULT:    -4.083      0.000      0.000
REMARK INTER + INTRA:          -4.640
REMARK INTER:                  -4.441
REMARK INTRA:                  -0.199
REMARK UNBOUND:                -0.199
REMARK SMILES CC(C)(C)[C@H]1C=C[C@@H](O)CC1
REMARK SMILES IDX 5 1 11 2 10 3 8 4 7 5 6 6 2 7 1 8 3 9 4 10 9 11
REMARK H PARENT 9 12
REMARK Flexibility Score: inf
ROOT
ATOM      1  C   UNL     1     141.818 142.797 144.219  1.00  0.00     0.017 C 
ATOM      2  C   UNL     1     141.476 143.426 142.833  1.00  0.00     0.011 C 
ATOM      3  C   UNL     1     141.229 142.394 141.697  1.00  0.00     0.037 C 
ATOM      4  C   UNL     1     141.544 140.942 142.108  1.00  0.00     0.137 C 
ATOM      5  C   UNL     1     140.904 140.639 143.438  1.00  0.00     0.000 C 
ATOM      6  C   UNL     1     141.008 141.528 144.432  1.00  0.00    -0.025 C 
ENDROOT
BRANCH   1   7
ATOM      7  C   UNL     1     141.738 143.807 145.427  1.00  0.00    -0.032 C 
ATOM      8  C   UNL     1     142.822 143.471 146.478  1.00  0.00     0.011 C 
ATOM      9  C   UNL     1     141.928 145.276 144.980  1.00  0.00     0.011 C 
ATOM     10  C   UNL     1     140.362 143.677 146.125  1.00  0.00     0.011 C 
ENDBRANCH   1   7
BRANCH   4  11
ATOM     11  O   UNL     1     141.119 140.034 141.123  1.00  0.00    -0.389 OA
ATOM     12  H   UNL     1     141.488 140.338 140.253  1.00  0.00     0.211 HD
ENDBRANCH   4  11
TORSDOF 2
ENDMDL
MODEL 2
REMARK VINA RESULT:    -4.062      1.309      2.321
REMARK INTER + INTRA:          -4.618
REMARK INTER:                  -4.418
REMARK INTRA:                  -0.199
REMARK UNBOUND:                -0.199
REMARK SMILES CC(C)(C)[C@H]1C=C[C@@H](O)CC1
REMARK SMILES IDX 5 1 11 2 10 3 8 4 7 5 6 6 2 7 1 8 3 9 4 10 9 11
REMARK H PARENT 9 12
REMARK Flexibility Score: inf
ROOT
ATOM      1  C   UNL     1     142.064 142.557 144.313  1.00  0.00     0.017 C 
ATOM      2  C   UNL     1     141.226 141.277 144.617  1.00  0.00     0.011 C 
ATOM      3  C   UNL     1     141.602 140.037 143.758  1.00  0.00     0.037 C 
ATOM      4  C   UNL     1     142.612 140.351 142.637  1.00  0.00     0.137 C 
ATOM      5  C   UNL     1     143.761 141.150 143.196  1.00  0.00     0.000 C 
ATOM      6  C   UNL     1     143.506 142.178 144.013  1.00  0.00    -0.025 C 
ENDROOT
BRANCH   1   7
ATOM      7  C   UNL     1     141.922 143.697 145.392  1.00  0.00    -0.032 C 
ATOM      8  C   UNL     1     142.148 145.081 144.741  1.00  0.00     0.011 C 
ATOM      9  C   UNL     1     140.531 143.696 146.070  1.00  0.00     0.011 C 
ATOM     10  C   UNL     1     143.004 143.518 146.485  1.00  0.00     0.011 C 
ENDBRANCH   1   7
BRANCH   4  11
ATOM     11  O   UNL     1     143.068 139.173 142.022  1.00  0.00    -0.389 OA
ATOM     12  H   UNL     1     143.856 139.408 141.465  1.00  0.00     0.211 HD
ENDBRANCH   4  11
TORSDOF 2
ENDMDL
MODEL 3
REMARK VINA RESULT:    -4.052      8.351      9.807
REMARK INTER + INTRA:          -4.607
REMARK INTER:                  -4.406
REMARK INTRA:                  -0.201
REMARK UNBOUND:                -0.199
REMARK SMILES CC(C)(C)[C@H]1C=C[C@@H](O)CC1
REMARK SMILES IDX 5 1 11 2 10 3 8 4 7 5 6 6 2 7 1 8 3 9 4 10 9 11
REMARK H PARENT 9 12
REMARK Flexibility Score: inf
ROOT
ATOM      1  C   UNL     1     146.900 136.914 147.936  1.00  0.00     0.017 C 
ATOM      2  C   UNL     1     148.063 137.889 148.300  1.00  0.00     0.011 C 
ATOM      3  C   UNL     1     147.610 139.217 148.968  1.00  0.00     0.037 C 
ATOM      4  C   UNL     1     146.080 139.405 148.984  1.00  0.00     0.137 C 
ATOM      5  C   UNL     1     145.418 138.146 149.482  1.00  0.00     0.000 C 
ATOM      6  C   UNL     1     145.823 136.963 149.008  1.00  0.00    -0.025 C 
ENDROOT
BRANCH   1   7
ATOM      7  C   UNL     1     147.367 135.453 147.576  1.00  0.00    -0.032 C 
ATOM      8  C   UNL     1     146.216 134.675 146.898  1.00  0.00     0.011 C 
ATOM      9  C   UNL     1     148.591 135.442 146.628  1.00  0.00     0.011 C 
ATOM     10  C   UNL     1     147.740 134.690 148.871  1.00  0.00     0.011 C 
ENDBRANCH   1   7
BRANCH   4  11
ATOM     11  O   UNL     1     145.714 140.512 149.768  1.00  0.00    -0.389 OA
ATOM     12  H   UNL     1     146.440 141.187 149.695  1.00  0.00     0.211 HD
ENDBRANCH   4  11
TORSDOF 2
ENDMDL
MODEL 4
REMARK VINA RESULT:    -4.036      1.357      2.355
REMARK INTER + INTRA:          -4.589
REMARK INTER:                  -4.392
REMARK INTRA:                  -0.197
REMARK UNBOUND:                -0.199
REMARK SMILES CC(C)(C)[C@H]1C=C[C@@H](O)CC1
REMARK SMILES IDX 5 1 11 2 10 3 8 4 7 5 6 6 2 7 1 8 3 9 4 10 9 11
REMARK H PARENT 9 12
REMARK Flexibility Score: inf
ROOT
ATOM      1  C   UNL     1     142.107 142.590 144.327  1.00  0.00     0.017 C 
ATOM      2  C   UNL     1     141.266 141.300 144.579  1.00  0.00     0.011 C 
ATOM      3  C   UNL     1     141.696 140.070 143.730  1.00  0.00     0.037 C 
ATOM      4  C   UNL     1     142.759 140.402 142.665  1.00  0.00     0.137 C 
ATOM      5  C   UNL     1     143.871 141.206 143.288  1.00  0.00     0.000 C 
ATOM      6  C   UNL     1     143.565 142.226 144.098  1.00  0.00    -0.025 C 
ENDROOT
BRANCH   1   7
ATOM      7  C   UNL     1     141.900 143.720 145.407  1.00  0.00    -0.032 C 
ATOM      8  C   UNL     1     140.464 143.657 145.978  1.00  0.00     0.011 C 
ATOM      9  C   UNL     1     142.900 143.601 146.582  1.00  0.00     0.011 C 
ATOM     10  C   UNL     1     142.075 145.109 144.748  1.00  0.00     0.011 C 
ENDBRANCH   1   7
BRANCH   4  11
ATOM     11  O   UNL     1     143.256 139.233 142.065  1.00  0.00    -0.389 OA
ATOM     12  H   UNL     1     143.449 139.440 141.113  1.00  0.00     0.211 HD
ENDBRANCH   4  11
TORSDOF 2
ENDMDL
MODEL 5
REMARK VINA RESULT:    -4.031      9.764     11.581
REMARK INTER + INTRA:          -4.584
REMARK INTER:                  -4.383
REMARK INTRA:                  -0.201
REMARK UNBOUND:                -0.199
REMARK SMILES CC(C)(C)[C@H]1C=C[C@@H](O)CC1
REMARK SMILES IDX 5 1 11 2 10 3 8 4 7 5 6 6 2 7 1 8 3 9 4 10 9 11
REMARK H PARENT 9 12
REMARK Flexibility Score: inf
ROOT
ATOM      1  C   UNL     1     138.980 132.975 148.331  1.00  0.00     0.017 C 
ATOM      2  C   UNL     1     137.641 133.202 149.098  1.00  0.00     0.011 C 
ATOM      3  C   UNL     1     137.789 133.314 150.641  1.00  0.00     0.037 C 
ATOM      4  C   UNL     1     139.211 133.001 151.145  1.00  0.00     0.137 C 
ATOM      5  C   UNL     1     140.222 133.755 150.319  1.00  0.00     0.000 C 
ATOM      6  C   UNL     1     140.099 133.768 148.988  1.00  0.00    -0.025 C 
ENDROOT
BRANCH   1   7
ATOM      7  C   UNL     1     138.881 133.195 146.773  1.00  0.00    -0.032 C 
ATOM      8  C   UNL     1     137.492 133.766 146.401  1.00  0.00     0.011 C 
ATOM      9  C   UNL     1     139.966 134.164 146.245  1.00  0.00     0.011 C 
ATOM     10  C   UNL     1     139.034 131.839 146.043  1.00  0.00     0.011 C 
ENDBRANCH   1   7
BRANCH   4  11
ATOM     11  O   UNL     1     139.344 133.307 152.510  1.00  0.00    -0.389 OA
ATOM     12  H   UNL     1     139.153 132.480 153.025  1.00  0.00     0.211 HD
ENDBRANCH   4  11
TORSDOF 2
ENDMDL
MODEL 6
REMARK VINA RESULT:    -3.969     14.075     15.411
REMARK INTER + INTRA:          -4.517
REMARK INTER:                  -4.319
REMARK INTRA:                  -0.198
REMARK UNBOUND:                -0.199
REMARK SMILES CC(C)(C)[C@H]1C=C[C@@H](O)CC1
REMARK SMILES IDX 5 1 11 2 10 3 8 4 7 5 6 6 2 7 1 8 3 9 4 10 9 11
REMARK H PARENT 9 12
REMARK Flexibility Score: inf
ROOT
ATOM      1  C   UNL     1     150.529 133.529 152.530  1.00  0.00     0.017 C 
ATOM      2  C   UNL     1     149.147 133.902 151.911  1.00  0.00     0.011 C 
ATOM      3  C   UNL     1     149.209 134.406 150.442  1.00  0.00     0.037 C 
ATOM      4  C   UNL     1     150.646 134.614 149.926  1.00  0.00     0.137 C 
ATOM      5  C   UNL     1     151.486 133.407 150.255  1.00  0.00     0.000 C 
ATOM      6  C   UNL     1     151.412 132.874 151.479  1.00  0.00    -0.025 C 
ENDROOT
BRANCH   1   7
ATOM      7  C   UNL     1     150.439 132.714 153.876  1.00  0.00    -0.032 C 
ATOM      8  C   UNL     1     149.522 133.446 154.884  1.00  0.00     0.011 C 
ATOM      9  C   UNL     1     149.887 131.283 153.662  1.00  0.00     0.011 C 
ATOM     10  C   UNL     1     151.843 132.610 154.519  1.00  0.00     0.011 C 
ENDBRANCH   1   7
BRANCH   4  11
ATOM     11  O   UNL     1     150.655 134.875 148.545  1.00  0.00    -0.389 OA
ATOM     12  H   UNL     1     151.604 134.920 148.252  1.00  0.00     0.211 HD
ENDBRANCH   4  11
TORSDOF 2
ENDMDL
MODEL 7
REMARK VINA RESULT:    -3.833      9.306     10.520
REMARK INTER + INTRA:          -4.368
REMARK INTER:                  -4.167
REMARK INTRA:                  -0.201
REMARK UNBOUND:                -0.199
REMARK SMILES CC(C)(C)[C@H]1C=C[C@@H](O)CC1
REMARK SMILES IDX 5 1 11 2 10 3 8 4 7 5 6 6 2 7 1 8 3 9 4 10 9 11
REMARK H PARENT 9 12
REMARK Flexibility Score: inf
ROOT
ATOM      1  C   UNL     1     147.299 136.622 148.372  1.00  0.00     0.017 C 
ATOM      2  C   UNL     1     147.198 135.304 149.201  1.00  0.00     0.011 C 
ATOM      3  C   UNL     1     148.554 134.582 149.437  1.00  0.00     0.037 C 
ATOM      4  C   UNL     1     149.726 135.206 148.655  1.00  0.00     0.137 C 
ATOM      5  C   UNL     1     149.724 136.701 148.841  1.00  0.00     0.000 C 
ATOM      6  C   UNL     1     148.571 137.371 148.736  1.00  0.00    -0.025 C 
ENDROOT
BRANCH   1   7
ATOM      7  C   UNL     1     146.003 137.518 148.418  1.00  0.00    -0.032 C 
ATOM      8  C   UNL     1     145.380 137.629 147.007  1.00  0.00     0.011 C 
ATOM      9  C   UNL     1     144.932 136.955 149.383  1.00  0.00     0.011 C 
ATOM     10  C   UNL     1     146.374 138.949 148.874  1.00  0.00     0.011 C 
ENDBRANCH   1   7
BRANCH   4  11
ATOM     11  O   UNL     1     150.954 134.649 149.051  1.00  0.00    -0.389 OA
ATOM     12  H   UNL     1     150.766 133.979 149.761  1.00  0.00     0.211 HD
ENDBRANCH   4  11
TORSDOF 2
ENDMDL
MODEL 8
REMARK VINA RESULT:    -3.824      2.310      2.467
REMARK INTER + INTRA:          -4.359
REMARK INTER:                  -4.158
REMARK INTRA:                  -0.201
REMARK UNBOUND:                -0.199
REMARK SMILES CC(C)(C)[C@H]1C=C[C@@H](O)CC1
REMARK SMILES IDX 5 1 11 2 10 3 8 4 7 5 6 6 2 7 1 8 3 9 4 10 9 11
REMARK H PARENT 9 12
REMARK Flexibility Score: inf
ROOT
ATOM      1  C   UNL     1     143.470 143.049 144.075  1.00  0.00     0.017 C 
ATOM      2  C   UNL     1     143.688 144.069 142.915  1.00  0.00     0.011 C 
ATOM      3  C   UNL     1     144.323 143.463 141.632  1.00  0.00     0.037 C 
ATOM      4  C   UNL     1     144.785 142.004 141.806  1.00  0.00     0.137 C 
ATOM      5  C   UNL     1     143.690 141.197 142.455  1.00  0.00     0.000 C 
ATOM      6  C   UNL     1     143.046 141.702 143.513  1.00  0.00    -0.025 C 
ENDROOT
BRANCH   1   7
ATOM      7  C   UNL     1     142.535 143.573 145.231  1.00  0.00    -0.032 C 
ATOM      8  C   UNL     1     143.304 143.593 146.573  1.00  0.00     0.011 C 
ATOM      9  C   UNL     1     141.998 144.998 144.954  1.00  0.00     0.011 C 
ATOM     10  C   UNL     1     141.331 142.617 145.403  1.00  0.00     0.011 C 
ENDBRANCH   1   7
BRANCH   4  11
ATOM     11  O   UNL     1     145.164 141.442 140.575  1.00  0.00    -0.389 OA
ATOM     12  H   UNL     1     145.449 142.184 139.979  1.00  0.00     0.211 HD
ENDBRANCH   4  11
TORSDOF 2
ENDMDL
MODEL 9
REMARK VINA RESULT:    -3.817     11.522     12.785
REMARK INTER + INTRA:          -4.351
REMARK INTER:                  -4.149
REMARK INTRA:                  -0.201
REMARK UNBOUND:                -0.199
REMARK SMILES CC(C)(C)[C@H]1C=C[C@@H](O)CC1
REMARK SMILES IDX 5 1 11 2 10 3 8 4 7 5 6 6 2 7 1 8 3 9 4 10 9 11
REMARK H PARENT 9 12
REMARK Flexibility Score: inf
ROOT
ATOM      1  C   UNL     1     138.951 132.376 150.102  1.00  0.00     0.017 C 
ATOM      2  C   UNL     1     137.562 133.080 150.204  1.00  0.00     0.011 C 
ATOM      3  C   UNL     1     136.353 132.188 149.806  1.00  0.00     0.037 C 
ATOM      4  C   UNL     1     136.764 130.827 149.211  1.00  0.00     0.137 C 
ATOM      5  C   UNL     1     137.810 130.184 150.084  1.00  0.00     0.000 C 
ATOM      6  C   UNL     1     138.832 130.922 150.531  1.00  0.00    -0.025 C 
ENDROOT
BRANCH   1   7
ATOM      7  C   UNL     1     140.125 133.150 150.813  1.00  0.00    -0.032 C 
ATOM      8  C   UNL     1     139.781 133.393 152.301  1.00  0.00     0.011 C 
ATOM      9  C   UNL     1     141.467 132.382 150.740  1.00  0.00     0.011 C 
ATOM     10  C   UNL     1     140.313 134.536 150.150  1.00  0.00     0.011 C 
ENDBRANCH   1   7
BRANCH   4  11
ATOM     11  O   UNL     1     135.649 129.986 149.054  1.00  0.00    -0.389 OA
ATOM     12  H   UNL     1     135.750 129.510 148.188  1.00  0.00     0.211 HD
ENDBRANCH   4  11
TORSDOF 2
ENDMDL
