MODEL 1
REMARK VINA RESULT:    -5.582      0.000      0.000
REMARK INTER + INTRA:         -12.114
REMARK INTER:                  -9.824
REMARK INTRA:                  -2.290
REMARK UNBOUND:                -2.290
REMARK SMILES CCCCCCCCCCCCCCC(=O)[O-]
REMARK SMILES IDX 9 1 10 2 11 3 12 4 13 5 14 6 15 7 16 8 17 9 8 10 7 11 6 12
REMARK SMILES IDX 5 13 4 14 3 15 2 16 1 17
REMARK H PARENT
REMARK Flexibility Score: inf
ROOT
ATOM      1  C   UNL     1     219.676  -6.530  24.864  1.00  0.00     0.000 C 
ENDROOT
BRANCH   1   2
ATOM      2  C   UNL     1     218.236  -6.845  24.421  1.00  0.00     0.000 C 
BRANCH   2   3
ATOM      3  C   UNL     1     217.497  -7.753  25.417  1.00  0.00     0.000 C 
BRANCH   3   4
ATOM      4  C   UNL     1     218.018  -7.602  26.853  1.00  0.00     0.000 C 
BRANCH   4   5
ATOM      5  C   UNL     1     217.738  -8.866  27.674  1.00  0.00     0.006 C 
BRANCH   5   6
ATOM      6  C   UNL     1     218.199  -8.695  29.124  1.00  0.00     0.053 C 
BRANCH   6   7
ATOM      7  C   UNL     1     219.340  -9.614  29.423  1.00  0.00     0.041 C 
ATOM      8  O   UNL     1     220.401  -9.548  28.748  1.00  0.00    -0.550 OA
ATOM      9  O   UNL     1     219.251 -10.513  30.478  1.00  0.00    -0.550 OA
ENDBRANCH   6   7
ENDBRANCH   5   6
ENDBRANCH   4   5
ENDBRANCH   3   4
ENDBRANCH   2   3
ENDBRANCH   1   2
BRANCH   1  10
ATOM     10  C   UNL     1     220.710  -6.841  23.771  1.00  0.00     0.000 C 
BRANCH  10  11
ATOM     11  C   UNL     1     221.668  -7.976  24.172  1.00  0.00    -0.000 C 
BRANCH  11  12
ATOM     12  C   UNL     1     221.227  -8.696  25.457  1.00  0.00    -0.000 C 
BRANCH  12  13
ATOM     13  C   UNL     1     220.796 -10.148  25.202  1.00  0.00    -0.000 C 
BRANCH  13  14
ATOM     14  C   UNL     1     220.281 -10.326  23.769  1.00  0.00    -0.000 C 
BRANCH  14  15
ATOM     15  C   UNL     1     218.775 -10.629  23.760  1.00  0.00    -0.000 C 
BRANCH  15  16
ATOM     16  C   UNL     1     218.069 -10.080  22.510  1.00  0.00    -0.003 C 
ATOM     17  C   UNL     1     219.013  -9.304  21.591  1.00  0.00     0.004 C 
ENDBRANCH  15  16
ENDBRANCH  14  15
ENDBRANCH  13  14
ENDBRANCH  12  13
ENDBRANCH  11  12
ENDBRANCH  10  11
ENDBRANCH   1  10
TORSDOF 13
ENDMDL
MODEL 2
REMARK VINA RESULT:    -5.543      1.152      2.658
REMARK INTER + INTRA:         -12.045
REMARK INTER:                  -9.724
REMARK INTRA:                  -2.321
REMARK UNBOUND:                -2.290
REMARK SMILES CCCCCCCCCCCCCCC(=O)[O-]
REMARK SMILES IDX 9 1 10 2 11 3 12 4 13 5 14 6 15 7 16 8 17 9 8 10 7 11 6 12
REMARK SMILES IDX 5 13 4 14 3 15 2 16 1 17
REMARK H PARENT
REMARK Flexibility Score: inf
ROOT
ATOM      1  C   UNL     1     218.615  -6.764  24.866  1.00  0.00     0.000 C 
ENDROOT
BRANCH   1   2
ATOM      2  C   UNL     1     218.366  -7.283  26.293  1.00  0.00     0.000 C 
BRANCH   2   3
ATOM      3  C   UNL     1     217.260  -8.348  26.350  1.00  0.00     0.000 C 
BRANCH   3   4
ATOM      4  C   UNL     1     217.242  -9.111  27.683  1.00  0.00     0.000 C 
BRANCH   4   5
ATOM      5  C   UNL     1     218.173  -8.450  28.707  1.00  0.00     0.006 C 
BRANCH   5   6
ATOM      6  C   UNL     1     219.188  -9.454  29.257  1.00  0.00     0.053 C 
BRANCH   6   7
ATOM      7  C   UNL     1     220.570  -9.103  28.806  1.00  0.00     0.041 C 
ATOM      8  O   UNL     1     221.366 -10.006  28.436  1.00  0.00    -0.550 OA
ATOM      9  O   UNL     1     220.966  -7.772  28.749  1.00  0.00    -0.550 OA
ENDBRANCH   6   7
ENDBRANCH   5   6
ENDBRANCH   4   5
ENDBRANCH   3   4
ENDBRANCH   2   3
ENDBRANCH   1   2
BRANCH   1  10
ATOM     10  C   UNL     1     217.574  -7.279  23.862  1.00  0.00     0.000 C 
BRANCH  10  11
ATOM     11  C   UNL     1     218.204  -8.122  22.738  1.00  0.00    -0.000 C 
BRANCH  11  12
ATOM     12  C   UNL     1     217.687  -9.569  22.725  1.00  0.00    -0.000 C 
BRANCH  12  13
ATOM     13  C   UNL     1     218.389 -10.457  23.763  1.00  0.00    -0.000 C 
BRANCH  13  14
ATOM     14  C   UNL     1     219.913 -10.310  23.672  1.00  0.00    -0.000 C 
BRANCH  14  15
ATOM     15  C   UNL     1     220.517  -9.981  25.045  1.00  0.00    -0.000 C 
BRANCH  15  16
ATOM     16  C   UNL     1     221.621  -8.914  24.965  1.00  0.00    -0.003 C 
ATOM     17  C   UNL     1     221.790  -8.343  23.557  1.00  0.00     0.004 C 
ENDBRANCH  15  16
ENDBRANCH  14  15
ENDBRANCH  13  14
ENDBRANCH  12  13
ENDBRANCH  11  12
ENDBRANCH  10  11
ENDBRANCH   1  10
TORSDOF 13
ENDMDL
MODEL 3
REMARK VINA RESULT:    -5.492      1.481      2.179
REMARK INTER + INTRA:         -11.956
REMARK INTER:                 -10.276
REMARK INTRA:                  -1.680
REMARK UNBOUND:                -2.290
REMARK SMILES CCCCCCCCCCCCCCC(=O)[O-]
REMARK SMILES IDX 9 1 10 2 11 3 12 4 13 5 14 6 15 7 16 8 17 9 8 10 7 11 6 12
REMARK SMILES IDX 5 13 4 14 3 15 2 16 1 17
REMARK H PARENT
REMARK Flexibility Score: inf
ROOT
ATOM      1  C   UNL     1     218.654  -6.558  25.009  1.00  0.00     0.000 C 
ENDROOT
BRANCH   1   2
ATOM      2  C   UNL     1     217.611  -7.665  25.245  1.00  0.00     0.000 C 
BRANCH   2   3
ATOM      3  C   UNL     1     218.122  -8.767  26.187  1.00  0.00     0.000 C 
BRANCH   3   4
ATOM      4  C   UNL     1     217.212  -8.971  27.407  1.00  0.00     0.000 C 
BRANCH   4   5
ATOM      5  C   UNL     1     218.039  -9.161  28.684  1.00  0.00     0.006 C 
BRANCH   5   6
ATOM      6  C   UNL     1     218.314  -7.819  29.368  1.00  0.00     0.053 C 
BRANCH   6   7
ATOM      7  C   UNL     1     219.781  -7.637  29.593  1.00  0.00     0.041 C 
ATOM      8  O   UNL     1     220.238  -7.561  30.764  1.00  0.00    -0.550 OA
ATOM      9  O   UNL     1     220.652  -7.599  28.511  1.00  0.00    -0.550 OA
ENDBRANCH   6   7
ENDBRANCH   5   6
ENDBRANCH   4   5
ENDBRANCH   3   4
ENDBRANCH   2   3
ENDBRANCH   1   2
BRANCH   1  10
ATOM     10  C   UNL     1     220.096  -7.079  25.100  1.00  0.00     0.000 C 
BRANCH  10  11
ATOM     11  C   UNL     1     220.888  -6.852  23.800  1.00  0.00    -0.000 C 
BRANCH  11  12
ATOM     12  C   UNL     1     221.730  -8.074  23.400  1.00  0.00    -0.000 C 
BRANCH  12  13
ATOM     13  C   UNL     1     221.343  -8.633  22.023  1.00  0.00    -0.000 C 
BRANCH  13  14
ATOM     14  C   UNL     1     219.882  -8.310  21.689  1.00  0.00    -0.000 C 
BRANCH  14  15
ATOM     15  C   UNL     1     219.037  -9.591  21.623  1.00  0.00    -0.000 C 
BRANCH  15  16
ATOM     16  C   UNL     1     218.940 -10.305  22.980  1.00  0.00    -0.003 C 
ATOM     17  C   UNL     1     217.597 -11.007  23.183  1.00  0.00     0.004 C 
ENDBRANCH  15  16
ENDBRANCH  14  15
ENDBRANCH  13  14
ENDBRANCH  12  13
ENDBRANCH  11  12
ENDBRANCH  10  11
ENDBRANCH   1  10
TORSDOF 13
ENDMDL
MODEL 4
REMARK VINA RESULT:    -5.443      2.910      4.939
REMARK INTER + INTRA:         -11.869
REMARK INTER:                  -9.450
REMARK INTRA:                  -2.419
REMARK UNBOUND:                -2.290
REMARK SMILES CCCCCCCCCCCCCCC(=O)[O-]
REMARK SMILES IDX 9 1 10 2 11 3 12 4 13 5 14 6 15 7 16 8 17 9 8 10 7 11 6 12
REMARK SMILES IDX 5 13 4 14 3 15 2 16 1 17
REMARK H PARENT
REMARK Flexibility Score: inf
ROOT
ATOM      1  C   UNL     1     220.762  -7.201  23.524  1.00  0.00     0.000 C 
ENDROOT
BRANCH   1   2
ATOM      2  C   UNL     1     219.845  -6.578  24.592  1.00  0.00     0.000 C 
BRANCH   2   3
ATOM      3  C   UNL     1     218.361  -6.901  24.359  1.00  0.00     0.000 C 
BRANCH   3   4
ATOM      4  C   UNL     1     217.872  -8.080  25.211  1.00  0.00     0.000 C 
BRANCH   4   5
ATOM      5  C   UNL     1     217.864  -9.380  24.398  1.00  0.00     0.006 C 
BRANCH   5   6
ATOM      6  C   UNL     1     217.574  -9.104  22.921  1.00  0.00     0.053 C 
BRANCH   6   7
ATOM      7  C   UNL     1     218.287 -10.091  22.054  1.00  0.00     0.041 C 
ATOM      8  O   UNL     1     217.931 -11.300  22.044  1.00  0.00    -0.550 OA
ATOM      9  O   UNL     1     219.314  -9.670  21.219  1.00  0.00    -0.550 OA
ENDBRANCH   6   7
ENDBRANCH   5   6
ENDBRANCH   4   5
ENDBRANCH   3   4
ENDBRANCH   2   3
ENDBRANCH   1   2
BRANCH   1  10
ATOM     10  C   UNL     1     221.828  -8.126  24.131  1.00  0.00     0.000 C 
BRANCH  10  11
ATOM     11  C   UNL     1     221.409  -9.607  24.101  1.00  0.00    -0.000 C 
BRANCH  11  12
ATOM     12  C   UNL     1     221.385 -10.242  25.501  1.00  0.00    -0.000 C 
BRANCH  12  13
ATOM     13  C   UNL     1     221.654  -9.221  26.617  1.00  0.00    -0.000 C 
BRANCH  13  14
ATOM     14  C   UNL     1     220.477  -9.157  27.599  1.00  0.00    -0.000 C 
BRANCH  14  15
ATOM     15  C   UNL     1     220.251  -7.721  28.094  1.00  0.00    -0.000 C 
BRANCH  15  16
ATOM     16  C   UNL     1     218.894  -7.543  28.792  1.00  0.00    -0.003 C 
ATOM     17  C   UNL     1     218.055  -8.821  28.789  1.00  0.00     0.004 C 
ENDBRANCH  15  16
ENDBRANCH  14  15
ENDBRANCH  13  14
ENDBRANCH  12  13
ENDBRANCH  11  12
ENDBRANCH  10  11
ENDBRANCH   1  10
TORSDOF 13
ENDMDL
MODEL 5
REMARK VINA RESULT:    -5.441      1.229      2.297
REMARK INTER + INTRA:         -11.866
REMARK INTER:                  -9.895
REMARK INTRA:                  -1.971
REMARK UNBOUND:                -2.290
REMARK SMILES CCCCCCCCCCCCCCC(=O)[O-]
REMARK SMILES IDX 9 1 10 2 11 3 12 4 13 5 14 6 15 7 16 8 17 9 8 10 7 11 6 12
REMARK SMILES IDX 5 13 4 14 3 15 2 16 1 17
REMARK H PARENT
REMARK Flexibility Score: inf
ROOT
ATOM      1  C   UNL     1     220.817  -6.866  24.086  1.00  0.00     0.000 C 
ENDROOT
BRANCH   1   2
ATOM      2  C   UNL     1     219.599  -6.334  24.863  1.00  0.00     0.000 C 
BRANCH   2   3
ATOM      3  C   UNL     1     218.315  -7.124  24.561  1.00  0.00     0.000 C 
BRANCH   3   4
ATOM      4  C   UNL     1     217.529  -7.482  25.831  1.00  0.00     0.000 C 
BRANCH   4   5
ATOM      5  C   UNL     1     218.070  -8.767  26.468  1.00  0.00     0.006 C 
BRANCH   5   6
ATOM      6  C   UNL     1     217.317  -9.103  27.757  1.00  0.00     0.053 C 
BRANCH   6   7
ATOM      7  C   UNL     1     218.195  -8.887  28.948  1.00  0.00     0.041 C 
ATOM      8  O   UNL     1     218.766  -9.865  29.500  1.00  0.00    -0.550 OA
ATOM      9  O   UNL     1     218.422  -7.601  29.421  1.00  0.00    -0.550 OA
ENDBRANCH   6   7
ENDBRANCH   5   6
ENDBRANCH   4   5
ENDBRANCH   3   4
ENDBRANCH   2   3
ENDBRANCH   1   2
BRANCH   1  10
ATOM     10  C   UNL     1     221.180  -8.307  24.475  1.00  0.00     0.000 C 
BRANCH  10  11
ATOM     11  C   UNL     1     221.872  -9.069  23.331  1.00  0.00    -0.000 C 
BRANCH  11  12
ATOM     12  C   UNL     1     221.705  -8.373  21.971  1.00  0.00    -0.000 C 
BRANCH  12  13
ATOM     13  C   UNL     1     220.693  -9.086  21.062  1.00  0.00    -0.000 C 
BRANCH  13  14
ATOM     14  C   UNL     1     219.379  -8.299  20.978  1.00  0.00    -0.000 C 
BRANCH  14  15
ATOM     15  C   UNL     1     218.266  -9.001  21.769  1.00  0.00    -0.000 C 
BRANCH  15  16
ATOM     16  C   UNL     1     218.571 -10.485  22.028  1.00  0.00    -0.003 C 
ATOM     17  C   UNL     1     218.461 -10.861  23.506  1.00  0.00     0.004 C 
ENDBRANCH  15  16
ENDBRANCH  14  15
ENDBRANCH  13  14
ENDBRANCH  12  13
ENDBRANCH  11  12
ENDBRANCH  10  11
ENDBRANCH   1  10
TORSDOF 13
ENDMDL
MODEL 6
REMARK VINA RESULT:    -5.425      2.702      5.590
REMARK INTER + INTRA:         -11.838
REMARK INTER:                  -9.716
REMARK INTRA:                  -2.123
REMARK UNBOUND:                -2.290
REMARK SMILES CCCCCCCCCCCCCCC(=O)[O-]
REMARK SMILES IDX 9 1 10 2 11 3 12 4 13 5 14 6 15 7 16 8 17 9 8 10 7 11 6 12
REMARK SMILES IDX 5 13 4 14 3 15 2 16 1 17
REMARK H PARENT
REMARK Flexibility Score: inf
ROOT
ATOM      1  C   UNL     1     217.617  -7.673  25.254  1.00  0.00     0.000 C 
ENDROOT
BRANCH   1   2
ATOM      2  C   UNL     1     218.603  -6.573  24.824  1.00  0.00     0.000 C 
BRANCH   2   3
ATOM      3  C   UNL     1     220.064  -6.936  25.129  1.00  0.00     0.000 C 
BRANCH   3   4
ATOM      4  C   UNL     1     220.966  -6.853  23.889  1.00  0.00     0.000 C 
BRANCH   4   5
ATOM      5  C   UNL     1     221.544  -8.229  23.537  1.00  0.00     0.006 C 
BRANCH   5   6
ATOM      6  C   UNL     1     221.048  -8.701  22.168  1.00  0.00     0.053 C 
BRANCH   6   7
ATOM      7  C   UNL     1     219.620  -9.138  22.251  1.00  0.00     0.041 C 
ATOM      8  O   UNL     1     218.744  -8.580  21.539  1.00  0.00    -0.550 OA
ATOM      9  O   UNL     1     219.263 -10.195  23.079  1.00  0.00    -0.550 OA
ENDBRANCH   6   7
ENDBRANCH   5   6
ENDBRANCH   4   5
ENDBRANCH   3   4
ENDBRANCH   2   3
ENDBRANCH   1   2
BRANCH   1  10
ATOM     10  C   UNL     1     218.245  -8.676  26.234  1.00  0.00     0.000 C 
BRANCH  10  11
ATOM     11  C   UNL     1     217.317  -9.007  27.416  1.00  0.00    -0.000 C 
BRANCH  11  12
ATOM     12  C   UNL     1     217.966  -8.710  28.777  1.00  0.00    -0.000 C 
BRANCH  12  13
ATOM     13  C   UNL     1     218.848  -7.452  28.750  1.00  0.00    -0.000 C 
BRANCH  13  14
ATOM     14  C   UNL     1     220.196  -7.711  29.433  1.00  0.00    -0.000 C 
BRANCH  14  15
ATOM     15  C   UNL     1     221.315  -7.879  28.395  1.00  0.00    -0.000 C 
BRANCH  15  16
ATOM     16  C   UNL     1     221.812  -9.329  28.290  1.00  0.00    -0.003 C 
ATOM     17  C   UNL     1     221.636  -9.915  26.889  1.00  0.00     0.004 C 
ENDBRANCH  15  16
ENDBRANCH  14  15
ENDBRANCH  13  14
ENDBRANCH  12  13
ENDBRANCH  11  12
ENDBRANCH  10  11
ENDBRANCH   1  10
TORSDOF 13
ENDMDL
MODEL 7
REMARK VINA RESULT:    -5.395      1.524      4.857
REMARK INTER + INTRA:         -11.785
REMARK INTER:                  -9.896
REMARK INTRA:                  -1.890
REMARK UNBOUND:                -2.290
REMARK SMILES CCCCCCCCCCCCCCC(=O)[O-]
REMARK SMILES IDX 9 1 10 2 11 3 12 4 13 5 14 6 15 7 16 8 17 9 8 10 7 11 6 12
REMARK SMILES IDX 5 13 4 14 3 15 2 16 1 17
REMARK H PARENT
REMARK Flexibility Score: inf
ROOT
ATOM      1  C   UNL     1     218.631  -9.631  21.869  1.00  0.00     0.000 C 
ENDROOT
BRANCH   1   2
ATOM      2  C   UNL     1     219.592  -8.489  21.496  1.00  0.00     0.000 C 
BRANCH   2   3
ATOM      3  C   UNL     1     220.961  -8.621  22.181  1.00  0.00     0.000 C 
BRANCH   3   4
ATOM      4  C   UNL     1     221.223  -7.502  23.199  1.00  0.00     0.000 C 
BRANCH   4   5
ATOM      5  C   UNL     1     221.457  -8.078  24.601  1.00  0.00     0.006 C 
BRANCH   5   6
ATOM      6  C   UNL     1     221.422  -9.608  24.580  1.00  0.00     0.053 C 
BRANCH   6   7
ATOM      7  C   UNL     1     221.531 -10.153  25.968  1.00  0.00     0.041 C 
ATOM      8  O   UNL     1     221.144  -9.467  26.951  1.00  0.00    -0.550 OA
ATOM      9  O   UNL     1     222.016 -11.438  26.175  1.00  0.00    -0.550 OA
ENDBRANCH   6   7
ENDBRANCH   5   6
ENDBRANCH   4   5
ENDBRANCH   3   4
ENDBRANCH   2   3
ENDBRANCH   1   2
BRANCH   1  10
ATOM     10  C   UNL     1     217.675  -9.248  23.008  1.00  0.00     0.000 C 
BRANCH  10  11
ATOM     11  C   UNL     1     217.484  -7.726  23.131  1.00  0.00    -0.000 C 
BRANCH  11  12
ATOM     12  C   UNL     1     217.693  -7.219  24.567  1.00  0.00    -0.000 C 
BRANCH  12  13
ATOM     13  C   UNL     1     217.986  -8.355  25.558  1.00  0.00    -0.000 C 
BRANCH  13  14
ATOM     14  C   UNL     1     217.869  -7.866  27.007  1.00  0.00    -0.000 C 
BRANCH  14  15
ATOM     15  C   UNL     1     217.574  -9.034  27.960  1.00  0.00    -0.000 C 
BRANCH  15  16
ATOM     16  C   UNL     1     218.254  -8.867  29.327  1.00  0.00    -0.003 C 
ATOM     17  C   UNL     1     219.005  -7.541  29.457  1.00  0.00     0.004 C 
ENDBRANCH  15  16
ENDBRANCH  14  15
ENDBRANCH  13  14
ENDBRANCH  12  13
ENDBRANCH  11  12
ENDBRANCH  10  11
ENDBRANCH   1  10
TORSDOF 13
ENDMDL
MODEL 8
REMARK VINA RESULT:    -5.363      2.367      5.150
REMARK INTER + INTRA:         -11.728
REMARK INTER:                  -9.601
REMARK INTRA:                  -2.128
REMARK UNBOUND:                -2.290
REMARK SMILES CCCCCCCCCCCCCCC(=O)[O-]
REMARK SMILES IDX 9 1 10 2 11 3 12 4 13 5 14 6 15 7 16 8 17 9 8 10 7 11 6 12
REMARK SMILES IDX 5 13 4 14 3 15 2 16 1 17
REMARK H PARENT
REMARK Flexibility Score: inf
ROOT
ATOM      1  C   UNL     1     217.507  -8.566  26.552  1.00  0.00     0.000 C 
ENDROOT
BRANCH   1   2
ATOM      2  C   UNL     1     218.223  -7.207  26.460  1.00  0.00     0.000 C 
BRANCH   2   3
ATOM      3  C   UNL     1     218.555  -6.811  25.013  1.00  0.00     0.000 C 
BRANCH   3   4
ATOM      4  C   UNL     1     217.507  -7.310  24.008  1.00  0.00     0.000 C 
BRANCH   4   5
ATOM      5  C   UNL     1     218.167  -8.112  22.879  1.00  0.00     0.006 C 
BRANCH   5   6
ATOM      6  C   UNL     1     219.465  -8.768  23.356  1.00  0.00     0.053 C 
BRANCH   6   7
ATOM      7  C   UNL     1     219.238 -10.212  23.669  1.00  0.00     0.041 C 
ATOM      8  O   UNL     1     220.182 -10.923  24.105  1.00  0.00    -0.550 OA
ATOM      9  O   UNL     1     217.971 -10.764  23.526  1.00  0.00    -0.550 OA
ENDBRANCH   6   7
ENDBRANCH   5   6
ENDBRANCH   4   5
ENDBRANCH   3   4
ENDBRANCH   2   3
ENDBRANCH   1   2
BRANCH   1  10
ATOM     10  C   UNL     1     217.504  -9.134  27.979  1.00  0.00     0.000 C 
BRANCH  10  11
ATOM     11  C   UNL     1     217.914  -8.089  29.031  1.00  0.00    -0.000 C 
BRANCH  11  12
ATOM     12  C   UNL     1     218.832  -8.673  30.117  1.00  0.00    -0.000 C 
BRANCH  12  13
ATOM     13  C   UNL     1     220.128  -7.867  30.292  1.00  0.00    -0.000 C 
BRANCH  13  14
ATOM     14  C   UNL     1     221.004  -7.956  29.036  1.00  0.00    -0.000 C 
BRANCH  14  15
ATOM     15  C   UNL     1     221.267  -9.419  28.652  1.00  0.00    -0.000 C 
BRANCH  15  16
ATOM     16  C   UNL     1     221.312  -9.632  27.131  1.00  0.00    -0.003 C 
ATOM     17  C   UNL     1     221.722  -8.371  26.369  1.00  0.00     0.004 C 
ENDBRANCH  15  16
ENDBRANCH  14  15
ENDBRANCH  13  14
ENDBRANCH  12  13
ENDBRANCH  11  12
ENDBRANCH  10  11
ENDBRANCH   1  10
TORSDOF 13
ENDMDL
MODEL 9
REMARK VINA RESULT:    -5.322      1.306      2.947
REMARK INTER + INTRA:         -11.656
REMARK INTER:                  -9.428
REMARK INTRA:                  -2.229
REMARK UNBOUND:                -2.290
REMARK SMILES CCCCCCCCCCCCCCC(=O)[O-]
REMARK SMILES IDX 9 1 10 2 11 3 12 4 13 5 14 6 15 7 16 8 17 9 8 10 7 11 6 12
REMARK SMILES IDX 5 13 4 14 3 15 2 16 1 17
REMARK H PARENT
REMARK Flexibility Score: inf
ROOT
ATOM      1  C   UNL     1     217.529  -7.266  24.030  1.00  0.00     0.000 C 
ENDROOT
BRANCH   1   2
ATOM      2  C   UNL     1     218.618  -6.868  25.042  1.00  0.00     0.000 C 
BRANCH   2   3
ATOM      3  C   UNL     1     218.243  -7.232  26.487  1.00  0.00     0.000 C 
BRANCH   3   4
ATOM      4  C   UNL     1     217.585  -8.615  26.597  1.00  0.00     0.000 C 
BRANCH   4   5
ATOM      5  C   UNL     1     217.590  -9.113  28.047  1.00  0.00     0.006 C 
BRANCH   5   6
ATOM      6  C   UNL     1     218.099  -8.029  29.000  1.00  0.00     0.053 C 
BRANCH   6   7
ATOM      7  C   UNL     1     219.162  -8.577  29.897  1.00  0.00     0.041 C 
ATOM      8  O   UNL     1     220.179  -7.886  30.172  1.00  0.00    -0.550 OA
ATOM      9  O   UNL     1     219.009  -9.833  30.470  1.00  0.00    -0.550 OA
ENDBRANCH   6   7
ENDBRANCH   5   6
ENDBRANCH   4   5
ENDBRANCH   3   4
ENDBRANCH   2   3
ENDBRANCH   1   2
BRANCH   1  10
ATOM     10  C   UNL     1     218.090  -8.066  22.845  1.00  0.00     0.000 C 
BRANCH  10  11
ATOM     11  C   UNL     1     217.948  -9.586  23.040  1.00  0.00    -0.000 C 
BRANCH  11  12
ATOM     12  C   UNL     1     219.235 -10.237  23.572  1.00  0.00    -0.000 C 
BRANCH  12  13
ATOM     13  C   UNL     1     220.503  -9.507  23.103  1.00  0.00    -0.000 C 
BRANCH  13  14
ATOM     14  C   UNL     1     221.549  -9.449  24.223  1.00  0.00    -0.000 C 
BRANCH  14  15
ATOM     15  C   UNL     1     221.025 -10.121  25.500  1.00  0.00    -0.000 C 
BRANCH  15  16
ATOM     16  C   UNL     1     221.301  -9.287  26.762  1.00  0.00    -0.003 C 
ATOM     17  C   UNL     1     221.921 -10.111  27.891  1.00  0.00     0.004 C 
ENDBRANCH  15  16
ENDBRANCH  14  15
ENDBRANCH  13  14
ENDBRANCH  12  13
ENDBRANCH  11  12
ENDBRANCH  10  11
ENDBRANCH   1  10
TORSDOF 13
ENDMDL
