MODEL 1
REMARK VINA RESULT:    -4.845      0.000      0.000
REMARK INTER + INTRA:         -12.046
REMARK INTER:                  -9.378
REMARK INTRA:                  -2.668
REMARK UNBOUND:                -2.668
REMARK SMILES CCCCCC=CCC=CCCCCCCCCOC(C)=O
REMARK SMILES IDX 12 1 11 2 10 3 9 4 8 5 7 6 6 7 5 8 4 9 3 10 2 11 1 12 13 13
REMARK SMILES IDX 14 14 15 15 16 16 17 17 18 18 19 19 20 20 22 21 21 22
REMARK H PARENT
REMARK Flexibility Score: inf
ROOT
ATOM      1  C   UNL     1      94.991 -58.833 104.399  1.00  0.00     0.004 C 
ENDROOT
BRANCH   1   2
ATOM      2  C   UNL     1      96.323 -58.758 105.155  1.00  0.00     0.027 C 
BRANCH   2   3
ATOM      3  C   UNL     1      97.014 -60.094 105.171  1.00  0.00    -0.031 C 
ATOM      4  C   UNL     1      98.298 -60.217 105.545  1.00  0.00    -0.027 C 
BRANCH   4   5
ATOM      5  C   UNL     1      98.985 -61.551 105.555  1.00  0.00     0.054 C 
BRANCH   5   6
ATOM      6  C   UNL     1      98.921 -62.157 106.935  1.00  0.00    -0.027 C 
ATOM      7  C   UNL     1      98.304 -63.313 107.247  1.00  0.00    -0.031 C 
BRANCH   7   8
ATOM      8  C   UNL     1      97.622 -64.224 106.256  1.00  0.00     0.027 C 
BRANCH   8   9
ATOM      9  C   UNL     1      96.090 -64.145 106.356  1.00  0.00     0.004 C 
BRANCH   9  10
ATOM     10  C   UNL     1      95.466 -63.483 105.115  1.00  0.00     0.000 C 
BRANCH  10  11
ATOM     11  C   UNL     1      96.381 -63.557 103.884  1.00  0.00    -0.003 C 
ATOM     12  C   UNL     1      95.690 -64.179 102.671  1.00  0.00     0.004 C 
ENDBRANCH  10  11
ENDBRANCH   9  10
ENDBRANCH   8   9
ENDBRANCH   7   8
ENDBRANCH   5   6
ENDBRANCH   4   5
ENDBRANCH   2   3
ENDBRANCH   1   2
BRANCH   1  13
ATOM     13  C   UNL     1      94.699 -60.270 103.943  1.00  0.00     0.000 C 
BRANCH  13  14
ATOM     14  C   UNL     1      94.103 -60.333 102.528  1.00  0.00     0.000 C 
BRANCH  14  15
ATOM     15  C   UNL     1      92.649 -60.838 102.522  1.00  0.00     0.000 C 
BRANCH  15  16
ATOM     16  C   UNL     1      92.544 -62.361 102.723  1.00  0.00     0.003 C 
BRANCH  16  17
ATOM     17  C   UNL     1      91.704 -63.104 101.667  1.00  0.00     0.042 C 
BRANCH  17  18
ATOM     18  C   UNL     1      91.758 -64.629 101.792  1.00  0.00     0.233 C 
BRANCH  18  19
ATOM     19  O   UNL     1      90.922 -65.068 102.857  1.00  0.00    -0.466 OA
BRANCH  19  20
ATOM     20  C   UNL     1      91.375 -65.914 103.873  1.00  0.00     0.302 C 
ATOM     21  O   UNL     1      90.563 -66.603 104.548  1.00  0.00    -0.253 OA
ATOM     22  C   UNL     1      92.830 -65.963 104.194  1.00  0.00     0.139 C 
ENDBRANCH  19  20
ENDBRANCH  18  19
ENDBRANCH  17  18
ENDBRANCH  16  17
ENDBRANCH  15  16
ENDBRANCH  14  15
ENDBRANCH  13  14
ENDBRANCH   1  13
TORSDOF 16
ENDMDL
MODEL 2
REMARK VINA RESULT:    -4.786      2.683      5.445
REMARK INTER + INTRA:         -11.930
REMARK INTER:                  -9.137
REMARK INTRA:                  -2.793
REMARK UNBOUND:                -2.668
REMARK SMILES CCCCCC=CCC=CCCCCCCCCOC(C)=O
REMARK SMILES IDX 12 1 11 2 10 3 9 4 8 5 7 6 6 7 5 8 4 9 3 10 2 11 1 12 13 13
REMARK SMILES IDX 14 14 15 15 16 16 17 17 18 18 19 19 20 20 22 21 21 22
REMARK H PARENT
REMARK Flexibility Score: inf
ROOT
ATOM      1  C   UNL     1      94.725 -59.072 104.173  1.00  0.00     0.004 C 
ENDROOT
BRANCH   1   2
ATOM      2  C   UNL     1      94.052 -60.034 103.186  1.00  0.00     0.027 C 
BRANCH   2   3
ATOM      3  C   UNL     1      94.646 -61.412 103.282  1.00  0.00    -0.031 C 
ATOM      4  C   UNL     1      95.009 -62.099 102.187  1.00  0.00    -0.027 C 
BRANCH   4   5
ATOM      5  C   UNL     1      95.597 -63.476 102.286  1.00  0.00     0.054 C 
BRANCH   5   6
ATOM      6  C   UNL     1      95.783 -63.858 103.733  1.00  0.00    -0.027 C 
ATOM      7  C   UNL     1      94.904 -64.567 104.467  1.00  0.00    -0.031 C 
BRANCH   7   8
ATOM      8  C   UNL     1      93.612 -65.146 103.948  1.00  0.00     0.027 C 
BRANCH   8   9
ATOM      9  C   UNL     1      92.403 -64.258 104.283  1.00  0.00     0.004 C 
BRANCH   9  10
ATOM     10  C   UNL     1      91.761 -63.658 103.021  1.00  0.00     0.000 C 
BRANCH  10  11
ATOM     11  C   UNL     1      92.029 -64.503 101.766  1.00  0.00    -0.003 C 
ATOM     12  C   UNL     1      91.916 -63.693 100.474  1.00  0.00     0.004 C 
ENDBRANCH  10  11
ENDBRANCH   9  10
ENDBRANCH   8   9
ENDBRANCH   7   8
ENDBRANCH   5   6
ENDBRANCH   4   5
ENDBRANCH   2   3
ENDBRANCH   1   2
BRANCH   1  13
ATOM     13  C   UNL     1      95.697 -59.823 105.095  1.00  0.00     0.000 C 
BRANCH  13  14
ATOM     14  C   UNL     1      97.021 -59.069 105.300  1.00  0.00     0.000 C 
BRANCH  14  15
ATOM     15  C   UNL     1      98.207 -60.017 105.548  1.00  0.00     0.000 C 
BRANCH  15  16
ATOM     16  C   UNL     1      97.834 -61.501 105.374  1.00  0.00     0.003 C 
BRANCH  16  17
ATOM     17  C   UNL     1      98.721 -62.494 106.149  1.00  0.00     0.042 C 
BRANCH  17  18
ATOM     18  C   UNL     1      97.934 -63.521 106.968  1.00  0.00     0.233 C 
BRANCH  18  19
ATOM     19  O   UNL     1      98.000 -64.802 106.350  1.00  0.00    -0.466 OA
BRANCH  19  20
ATOM     20  C   UNL     1      97.586 -65.972 106.992  1.00  0.00     0.302 C 
ATOM     21  O   UNL     1      98.262 -67.032 106.897  1.00  0.00    -0.253 OA
ATOM     22  C   UNL     1      96.306 -65.978 107.756  1.00  0.00     0.139 C 
ENDBRANCH  19  20
ENDBRANCH  18  19
ENDBRANCH  17  18
ENDBRANCH  16  17
ENDBRANCH  15  16
ENDBRANCH  14  15
ENDBRANCH  13  14
ENDBRANCH   1  13
TORSDOF 16
ENDMDL
MODEL 3
REMARK VINA RESULT:    -4.780      2.054      2.922
REMARK INTER + INTRA:         -11.920
REMARK INTER:                  -9.461
REMARK INTRA:                  -2.459
REMARK UNBOUND:                -2.668
REMARK SMILES CCCCCC=CCC=CCCCCCCCCOC(C)=O
REMARK SMILES IDX 12 1 11 2 10 3 9 4 8 5 7 6 6 7 5 8 4 9 3 10 2 11 1 12 13 13
REMARK SMILES IDX 14 14 15 15 16 16 17 17 18 18 19 19 20 20 22 21 21 22
REMARK H PARENT
REMARK Flexibility Score: inf
ROOT
ATOM      1  C   UNL     1      95.483 -59.941 104.803  1.00  0.00     0.004 C 
ENDROOT
BRANCH   1   2
ATOM      2  C   UNL     1      96.774 -59.462 105.478  1.00  0.00     0.027 C 
BRANCH   2   3
ATOM      3  C   UNL     1      97.913 -60.405 105.201  1.00  0.00    -0.031 C 
ATOM      4  C   UNL     1      98.975 -60.484 106.019  1.00  0.00    -0.027 C 
BRANCH   4   5
ATOM      5  C   UNL     1     100.111 -61.423 105.738  1.00  0.00     0.054 C 
BRANCH   5   6
ATOM      6  C   UNL     1      99.639 -62.567 104.877  1.00  0.00    -0.027 C 
ATOM      7  C   UNL     1      99.624 -63.862 105.247  1.00  0.00    -0.031 C 
BRANCH   7   8
ATOM      8  C   UNL     1     100.024 -64.377 106.607  1.00  0.00     0.027 C 
BRANCH   8   9
ATOM      9  C   UNL     1      98.835 -64.981 107.371  1.00  0.00     0.004 C 
BRANCH   9  10
ATOM     10  C   UNL     1      97.770 -63.924 107.707  1.00  0.00     0.000 C 
BRANCH  10  11
ATOM     11  C   UNL     1      96.375 -64.308 107.191  1.00  0.00    -0.003 C 
ATOM     12  C   UNL     1      95.916 -63.434 106.024  1.00  0.00     0.004 C 
ENDBRANCH  10  11
ENDBRANCH   9  10
ENDBRANCH   8   9
ENDBRANCH   7   8
ENDBRANCH   5   6
ENDBRANCH   4   5
ENDBRANCH   2   3
ENDBRANCH   1   2
BRANCH   1  13
ATOM     13  C   UNL     1      94.616 -58.750 104.368  1.00  0.00     0.000 C 
BRANCH  13  14
ATOM     14  C   UNL     1      93.520 -59.149 103.367  1.00  0.00     0.000 C 
BRANCH  14  15
ATOM     15  C   UNL     1      93.955 -60.301 102.445  1.00  0.00     0.000 C 
BRANCH  15  16
ATOM     16  C   UNL     1      92.804 -61.270 102.116  1.00  0.00     0.003 C 
BRANCH  16  17
ATOM     17  C   UNL     1      92.852 -62.619 102.860  1.00  0.00     0.042 C 
BRANCH  17  18
ATOM     18  C   UNL     1      93.114 -63.821 101.948  1.00  0.00     0.233 C 
BRANCH  18  19
ATOM     19  O   UNL     1      94.412 -63.731 101.370  1.00  0.00    -0.466 OA
BRANCH  19  20
ATOM     20  C   UNL     1      95.582 -63.824 102.127  1.00  0.00     0.302 C 
ATOM     21  O   UNL     1      96.298 -62.806 102.334  1.00  0.00    -0.253 OA
ATOM     22  C   UNL     1      96.015 -65.150 102.653  1.00  0.00     0.139 C 
ENDBRANCH  19  20
ENDBRANCH  18  19
ENDBRANCH  17  18
ENDBRANCH  16  17
ENDBRANCH  15  16
ENDBRANCH  14  15
ENDBRANCH  13  14
ENDBRANCH   1  13
TORSDOF 16
ENDMDL
MODEL 4
REMARK VINA RESULT:    -4.738      3.534      6.540
REMARK INTER + INTRA:         -11.837
REMARK INTER:                  -9.086
REMARK INTRA:                  -2.751
REMARK UNBOUND:                -2.668
REMARK SMILES CCCCCC=CCC=CCCCCCCCCOC(C)=O
REMARK SMILES IDX 12 1 11 2 10 3 9 4 8 5 7 6 6 7 5 8 4 9 3 10 2 11 1 12 13 13
REMARK SMILES IDX 14 14 15 15 16 16 17 17 18 18 19 19 20 20 22 21 21 22
REMARK H PARENT
REMARK Flexibility Score: inf
ROOT
ATOM      1  C   UNL     1      94.494 -59.223 104.024  1.00  0.00     0.004 C 
ENDROOT
BRANCH   1   2
ATOM      2  C   UNL     1      94.172 -60.146 102.842  1.00  0.00     0.027 C 
BRANCH   2   3
ATOM      3  C   UNL     1      94.619 -61.555 103.117  1.00  0.00    -0.031 C 
ATOM      4  C   UNL     1      95.244 -62.289 102.183  1.00  0.00    -0.027 C 
BRANCH   4   5
ATOM      5  C   UNL     1      95.685 -63.697 102.459  1.00  0.00     0.054 C 
BRANCH   5   6
ATOM      6  C   UNL     1      95.698 -63.955 103.945  1.00  0.00    -0.027 C 
ATOM      7  C   UNL     1      94.730 -64.592 104.630  1.00  0.00    -0.031 C 
BRANCH   7   8
ATOM      8  C   UNL     1      93.496 -65.205 104.016  1.00  0.00     0.027 C 
BRANCH   8   9
ATOM      9  C   UNL     1      92.271 -64.285 104.135  1.00  0.00     0.004 C 
BRANCH   9  10
ATOM     10  C   UNL     1      91.736 -63.855 102.759  1.00  0.00     0.000 C 
BRANCH  10  11
ATOM     11  C   UNL     1      91.962 -64.924 101.679  1.00  0.00    -0.003 C 
ATOM     12  C   UNL     1      92.658 -64.370 100.436  1.00  0.00     0.004 C 
ENDBRANCH  10  11
ENDBRANCH   9  10
ENDBRANCH   8   9
ENDBRANCH   7   8
ENDBRANCH   5   6
ENDBRANCH   4   5
ENDBRANCH   2   3
ENDBRANCH   1   2
BRANCH   1  13
ATOM     13  C   UNL     1      95.490 -59.889 104.985  1.00  0.00     0.000 C 
BRANCH  13  14
ATOM     14  C   UNL     1      96.737 -59.026 105.237  1.00  0.00     0.000 C 
BRANCH  14  15
ATOM     15  C   UNL     1      97.969 -59.867 105.614  1.00  0.00     0.000 C 
BRANCH  15  16
ATOM     16  C   UNL     1      97.835 -61.344 105.201  1.00  0.00     0.003 C 
BRANCH  16  17
ATOM     17  C   UNL     1      98.389 -62.361 106.217  1.00  0.00     0.042 C 
BRANCH  17  18
ATOM     18  C   UNL     1      99.665 -63.069 105.753  1.00  0.00     0.233 C 
BRANCH  18  19
ATOM     19  O   UNL     1     100.190 -62.433 104.592  1.00  0.00    -0.466 OA
BRANCH  19  20
ATOM     20  C   UNL     1     101.409 -61.752 104.590  1.00  0.00     0.302 C 
ATOM     21  O   UNL     1     102.211 -61.870 103.624  1.00  0.00    -0.253 OA
ATOM     22  C   UNL     1     101.786 -60.916 105.765  1.00  0.00     0.139 C 
ENDBRANCH  19  20
ENDBRANCH  18  19
ENDBRANCH  17  18
ENDBRANCH  16  17
ENDBRANCH  15  16
ENDBRANCH  14  15
ENDBRANCH  13  14
ENDBRANCH   1  13
TORSDOF 16
ENDMDL
MODEL 5
REMARK VINA RESULT:    -4.612      1.375      2.089
REMARK INTER + INTRA:         -11.594
REMARK INTER:                  -9.253
REMARK INTRA:                  -2.340
REMARK UNBOUND:                -2.668
REMARK SMILES CCCCCC=CCC=CCCCCCCCCOC(C)=O
REMARK SMILES IDX 12 1 11 2 10 3 9 4 8 5 7 6 6 7 5 8 4 9 3 10 2 11 1 12 13 13
REMARK SMILES IDX 14 14 15 15 16 16 17 17 18 18 19 19 20 20 22 21 21 22
REMARK H PARENT
REMARK Flexibility Score: inf
ROOT
ATOM      1  C   UNL     1      95.335 -60.118 104.547  1.00  0.00     0.004 C 
ENDROOT
BRANCH   1   2
ATOM      2  C   UNL     1      96.316 -59.105 105.149  1.00  0.00     0.027 C 
BRANCH   2   3
ATOM      3  C   UNL     1      97.612 -59.765 105.532  1.00  0.00    -0.031 C 
ATOM      4  C   UNL     1      97.909 -61.012 105.133  1.00  0.00    -0.027 C 
BRANCH   4   5
ATOM      5  C   UNL     1      99.201 -61.670 105.521  1.00  0.00     0.054 C 
BRANCH   5   6
ATOM      6  C   UNL     1      99.124 -62.167 106.943  1.00  0.00    -0.027 C 
ATOM      7  C   UNL     1      98.467 -63.272 107.345  1.00  0.00    -0.031 C 
BRANCH   7   8
ATOM      8  C   UNL     1      97.746 -64.230 106.429  1.00  0.00     0.027 C 
BRANCH   8   9
ATOM      9  C   UNL     1      96.219 -64.076 106.516  1.00  0.00     0.004 C 
BRANCH   9  10
ATOM     10  C   UNL     1      95.588 -63.806 105.140  1.00  0.00     0.000 C 
BRANCH  10  11
ATOM     11  C   UNL     1      96.464 -64.306 103.981  1.00  0.00    -0.003 C 
ATOM     12  C   UNL     1      96.605 -63.277 102.860  1.00  0.00     0.004 C 
ENDBRANCH  10  11
ENDBRANCH   9  10
ENDBRANCH   8   9
ENDBRANCH   7   8
ENDBRANCH   5   6
ENDBRANCH   4   5
ENDBRANCH   2   3
ENDBRANCH   1   2
BRANCH   1  13
ATOM     13  C   UNL     1      94.294 -59.416 103.662  1.00  0.00     0.000 C 
BRANCH  13  14
ATOM     14  C   UNL     1      93.970 -60.208 102.385  1.00  0.00     0.000 C 
BRANCH  14  15
ATOM     15  C   UNL     1      92.748 -61.128 102.557  1.00  0.00     0.000 C 
BRANCH  15  16
ATOM     16  C   UNL     1      93.136 -62.596 102.813  1.00  0.00     0.003 C 
BRANCH  16  17
ATOM     17  C   UNL     1      92.039 -63.458 103.466  1.00  0.00     0.042 C 
BRANCH  17  18
ATOM     18  C   UNL     1      91.488 -64.557 102.552  1.00  0.00     0.233 C 
BRANCH  18  19
ATOM     19  O   UNL     1      91.097 -64.007 101.298  1.00  0.00    -0.466 OA
BRANCH  19  20
ATOM     20  C   UNL     1      91.673 -64.404 100.088  1.00  0.00     0.302 C 
ATOM     21  O   UNL     1      92.850 -64.857 100.053  1.00  0.00    -0.253 OA
ATOM     22  C   UNL     1      90.906 -64.243  98.820  1.00  0.00     0.139 C 
ENDBRANCH  19  20
ENDBRANCH  18  19
ENDBRANCH  17  18
ENDBRANCH  16  17
ENDBRANCH  15  16
ENDBRANCH  14  15
ENDBRANCH  13  14
ENDBRANCH   1  13
TORSDOF 16
ENDMDL
MODEL 6
REMARK VINA RESULT:    -4.609      1.038      1.898
REMARK INTER + INTRA:         -11.589
REMARK INTER:                  -9.448
REMARK INTRA:                  -2.141
REMARK UNBOUND:                -2.668
REMARK SMILES CCCCCC=CCC=CCCCCCCCCOC(C)=O
REMARK SMILES IDX 12 1 11 2 10 3 9 4 8 5 7 6 6 7 5 8 4 9 3 10 2 11 1 12 13 13
REMARK SMILES IDX 14 14 15 15 16 16 17 17 18 18 19 19 20 20 22 21 21 22
REMARK H PARENT
REMARK Flexibility Score: inf
ROOT
ATOM      1  C   UNL     1      94.691 -60.420 103.766  1.00  0.00     0.004 C 
ENDROOT
BRANCH   1   2
ATOM      2  C   UNL     1      95.019 -59.084 104.445  1.00  0.00     0.027 C 
BRANCH   2   3
ATOM      3  C   UNL     1      96.340 -59.149 105.161  1.00  0.00    -0.031 C 
ATOM      4  C   UNL     1      97.091 -60.261 105.150  1.00  0.00    -0.027 C 
BRANCH   4   5
ATOM      5  C   UNL     1      98.407 -60.324 105.869  1.00  0.00     0.054 C 
BRANCH   5   6
ATOM      6  C   UNL     1      99.237 -61.464 105.334  1.00  0.00    -0.027 C 
ATOM      7  C   UNL     1      99.293 -62.699 105.868  1.00  0.00    -0.031 C 
BRANCH   7   8
ATOM      8  C   UNL     1      98.490 -63.166 107.056  1.00  0.00     0.027 C 
BRANCH   8   9
ATOM      9  C   UNL     1      97.479 -64.260 106.680  1.00  0.00     0.004 C 
BRANCH   9  10
ATOM     10  C   UNL     1      96.085 -63.682 106.384  1.00  0.00     0.000 C 
BRANCH  10  11
ATOM     11  C   UNL     1      95.723 -63.751 104.893  1.00  0.00    -0.003 C 
ATOM     12  C   UNL     1      96.048 -65.109 104.269  1.00  0.00     0.004 C 
ENDBRANCH  10  11
ENDBRANCH   9  10
ENDBRANCH   8   9
ENDBRANCH   7   8
ENDBRANCH   5   6
ENDBRANCH   4   5
ENDBRANCH   2   3
ENDBRANCH   1   2
BRANCH   1  13
ATOM     13  C   UNL     1      93.750 -60.211 102.570  1.00  0.00     0.000 C 
BRANCH  13  14
ATOM     14  C   UNL     1      92.574 -61.202 102.563  1.00  0.00     0.000 C 
BRANCH  14  15
ATOM     15  C   UNL     1      93.036 -62.666 102.661  1.00  0.00     0.000 C 
BRANCH  15  16
ATOM     16  C   UNL     1      92.139 -63.516 103.580  1.00  0.00     0.003 C 
BRANCH  16  17
ATOM     17  C   UNL     1      91.985 -64.991 103.161  1.00  0.00     0.042 C 
BRANCH  17  18
ATOM     18  C   UNL     1      92.302 -65.989 104.278  1.00  0.00     0.233 C 
BRANCH  18  19
ATOM     19  O   UNL     1      91.099 -66.518 104.826  1.00  0.00    -0.466 OA
BRANCH  19  20
ATOM     20  C   UNL     1      90.015 -66.903 104.033  1.00  0.00     0.302 C 
ATOM     21  O   UNL     1      88.965 -66.205 103.995  1.00  0.00    -0.253 OA
ATOM     22  C   UNL     1      90.082 -68.179 103.265  1.00  0.00     0.139 C 
ENDBRANCH  19  20
ENDBRANCH  18  19
ENDBRANCH  17  18
ENDBRANCH  16  17
ENDBRANCH  15  16
ENDBRANCH  14  15
ENDBRANCH  13  14
ENDBRANCH   1  13
TORSDOF 16
ENDMDL
MODEL 7
REMARK VINA RESULT:    -4.606      1.457      2.421
REMARK INTER + INTRA:         -11.583
REMARK INTER:                  -8.963
REMARK INTRA:                  -2.620
REMARK UNBOUND:                -2.668
REMARK SMILES CCCCCC=CCC=CCCCCCCCCOC(C)=O
REMARK SMILES IDX 12 1 11 2 10 3 9 4 8 5 7 6 6 7 5 8 4 9 3 10 2 11 1 12 13 13
REMARK SMILES IDX 14 14 15 15 16 16 17 17 18 18 19 19 20 20 22 21 21 22
REMARK H PARENT
REMARK Flexibility Score: inf
ROOT
ATOM      1  C   UNL     1      96.987 -59.212 105.451  1.00  0.00     0.004 C 
ENDROOT
BRANCH   1   2
ATOM      2  C   UNL     1      98.247 -60.086 105.447  1.00  0.00     0.027 C 
BRANCH   2   3
ATOM      3  C   UNL     1      97.931 -61.497 105.859  1.00  0.00    -0.031 C 
ATOM      4  C   UNL     1      98.837 -62.267 106.482  1.00  0.00    -0.027 C 
BRANCH   4   5
ATOM      5  C   UNL     1      98.519 -63.677 106.888  1.00  0.00     0.054 C 
BRANCH   5   6
ATOM      6  C   UNL     1      98.905 -64.633 105.788  1.00  0.00    -0.027 C 
ATOM      7  C   UNL     1      98.135 -65.637 105.327  1.00  0.00    -0.031 C 
BRANCH   7   8
ATOM      8  C   UNL     1      96.732 -65.936 105.795  1.00  0.00     0.027 C 
BRANCH   8   9
ATOM      9  C   UNL     1      95.675 -65.516 104.762  1.00  0.00     0.004 C 
BRANCH   9  10
ATOM     10  C   UNL     1      95.428 -63.998 104.773  1.00  0.00     0.000 C 
BRANCH  10  11
ATOM     11  C   UNL     1      95.485 -63.382 103.368  1.00  0.00    -0.003 C 
ATOM     12  C   UNL     1      96.915 -63.104 102.903  1.00  0.00     0.004 C 
ENDBRANCH  10  11
ENDBRANCH   9  10
ENDBRANCH   8   9
ENDBRANCH   7   8
ENDBRANCH   5   6
ENDBRANCH   4   5
ENDBRANCH   2   3
ENDBRANCH   1   2
BRANCH   1  13
ATOM     13  C   UNL     1      95.757 -60.021 105.011  1.00  0.00     0.000 C 
BRANCH  13  14
ATOM     14  C   UNL     1      94.812 -59.215 104.106  1.00  0.00     0.000 C 
BRANCH  14  15
ATOM     15  C   UNL     1      94.011 -60.110 103.144  1.00  0.00     0.000 C 
BRANCH  15  16
ATOM     16  C   UNL     1      92.955 -59.330 102.340  1.00  0.00     0.003 C 
BRANCH  16  17
ATOM     17  C   UNL     1      92.176 -60.162 101.303  1.00  0.00     0.042 C 
BRANCH  17  18
ATOM     18  C   UNL     1      92.604 -61.630 101.238  1.00  0.00     0.233 C 
BRANCH  18  19
ATOM     19  O   UNL     1      91.647 -62.455 101.895  1.00  0.00    -0.466 OA
BRANCH  19  20
ATOM     20  C   UNL     1      91.955 -63.729 102.379  1.00  0.00     0.302 C 
ATOM     21  O   UNL     1      92.247 -64.666 101.586  1.00  0.00    -0.253 OA
ATOM     22  C   UNL     1      91.888 -63.996 103.844  1.00  0.00     0.139 C 
ENDBRANCH  19  20
ENDBRANCH  18  19
ENDBRANCH  17  18
ENDBRANCH  16  17
ENDBRANCH  15  16
ENDBRANCH  14  15
ENDBRANCH  13  14
ENDBRANCH   1  13
TORSDOF 16
ENDMDL
MODEL 8
REMARK VINA RESULT:    -4.605      3.881      7.445
REMARK INTER + INTRA:         -11.580
REMARK INTER:                  -9.527
REMARK INTRA:                  -2.053
REMARK UNBOUND:                -2.668
REMARK SMILES CCCCCC=CCC=CCCCCCCCCOC(C)=O
REMARK SMILES IDX 12 1 11 2 10 3 9 4 8 5 7 6 6 7 5 8 4 9 3 10 2 11 1 12 13 13
REMARK SMILES IDX 14 14 15 15 16 16 17 17 18 18 19 19 20 20 22 21 21 22
REMARK H PARENT
REMARK Flexibility Score: inf
ROOT
ATOM      1  C   UNL     1      96.438 -59.897 105.114  1.00  0.00     0.004 C 
ENDROOT
BRANCH   1   2
ATOM      2  C   UNL     1      95.806 -58.537 104.793  1.00  0.00     0.027 C 
BRANCH   2   3
ATOM      3  C   UNL     1      94.369 -58.692 104.378  1.00  0.00    -0.031 C 
ATOM      4  C   UNL     1      94.025 -59.388 103.282  1.00  0.00    -0.027 C 
BRANCH   4   5
ATOM      5  C   UNL     1      92.591 -59.537 102.867  1.00  0.00     0.054 C 
BRANCH   5   6
ATOM      6  C   UNL     1      92.499 -60.331 101.589  1.00  0.00    -0.027 C 
ATOM      7  C   UNL     1      92.497 -61.675 101.509  1.00  0.00    -0.031 C 
BRANCH   7   8
ATOM      8  C   UNL     1      92.527 -62.612 102.691  1.00  0.00     0.027 C 
BRANCH   8   9
ATOM      9  C   UNL     1      93.806 -63.463 102.724  1.00  0.00     0.004 C 
BRANCH   9  10
ATOM     10  C   UNL     1      95.017 -62.706 102.155  1.00  0.00     0.000 C 
BRANCH  10  11
ATOM     11  C   UNL     1      96.311 -62.997 102.930  1.00  0.00    -0.003 C 
ATOM     12  C   UNL     1      96.050 -63.439 104.370  1.00  0.00     0.004 C 
ENDBRANCH  10  11
ENDBRANCH   9  10
ENDBRANCH   8   9
ENDBRANCH   7   8
ENDBRANCH   5   6
ENDBRANCH   4   5
ENDBRANCH   2   3
ENDBRANCH   1   2
BRANCH   1  13
ATOM     13  C   UNL     1      97.917 -59.737 105.499  1.00  0.00     0.000 C 
BRANCH  13  14
ATOM     14  C   UNL     1      98.580 -61.073 105.869  1.00  0.00     0.000 C 
BRANCH  14  15
ATOM     15  C   UNL     1      99.626 -60.923 106.987  1.00  0.00     0.000 C 
BRANCH  15  16
ATOM     16  C   UNL     1     100.989 -61.537 106.618  1.00  0.00     0.003 C 
BRANCH  16  17
ATOM     17  C   UNL     1     101.746 -60.818 105.485  1.00  0.00     0.042 C 
BRANCH  17  18
ATOM     18  C   UNL     1     102.816 -61.681 104.809  1.00  0.00     0.233 C 
BRANCH  18  19
ATOM     19  O   UNL     1     102.217 -62.810 104.181  1.00  0.00    -0.466 OA
BRANCH  19  20
ATOM     20  C   UNL     1     101.302 -62.693 103.133  1.00  0.00     0.302 C 
ATOM     21  O   UNL     1     101.573 -61.998 102.115  1.00  0.00    -0.253 OA
ATOM     22  C   UNL     1      99.971 -63.356 103.241  1.00  0.00     0.139 C 
ENDBRANCH  19  20
ENDBRANCH  18  19
ENDBRANCH  17  18
ENDBRANCH  16  17
ENDBRANCH  15  16
ENDBRANCH  14  15
ENDBRANCH  13  14
ENDBRANCH   1  13
TORSDOF 16
ENDMDL
MODEL 9
REMARK VINA RESULT:    -4.582      4.360      7.642
REMARK INTER + INTRA:         -11.535
REMARK INTER:                  -9.336
REMARK INTRA:                  -2.199
REMARK UNBOUND:                -2.668
REMARK SMILES CCCCCC=CCC=CCCCCCCCCOC(C)=O
REMARK SMILES IDX 12 1 11 2 10 3 9 4 8 5 7 6 6 7 5 8 4 9 3 10 2 11 1 12 13 13
REMARK SMILES IDX 14 14 15 15 16 16 17 17 18 18 19 19 20 20 22 21 21 22
REMARK H PARENT
REMARK Flexibility Score: inf
ROOT
ATOM      1  C   UNL     1      95.637 -59.328 104.787  1.00  0.00     0.004 C 
ENDROOT
BRANCH   1   2
ATOM      2  C   UNL     1      94.353 -58.973 104.029  1.00  0.00     0.027 C 
BRANCH   2   3
ATOM      3  C   UNL     1      94.056 -59.987 102.959  1.00  0.00    -0.031 C 
ATOM      4  C   UNL     1      92.808 -60.430 102.739  1.00  0.00    -0.027 C 
BRANCH   4   5
ATOM      5  C   UNL     1      92.515 -61.446 101.673  1.00  0.00     0.054 C 
BRANCH   5   6
ATOM      6  C   UNL     1      92.317 -62.806 102.292  1.00  0.00    -0.027 C 
ATOM      7  C   UNL     1      93.285 -63.727 102.468  1.00  0.00    -0.031 C 
BRANCH   7   8
ATOM      8  C   UNL     1      94.740 -63.528 102.126  1.00  0.00     0.027 C 
BRANCH   8   9
ATOM      9  C   UNL     1      95.673 -64.189 103.153  1.00  0.00     0.004 C 
BRANCH   9  10
ATOM     10  C   UNL     1      94.979 -64.397 104.510  1.00  0.00     0.000 C 
BRANCH  10  11
ATOM     11  C   UNL     1      95.895 -65.073 105.542  1.00  0.00    -0.003 C 
ATOM     12  C   UNL     1      96.178 -64.185 106.753  1.00  0.00     0.004 C 
ENDBRANCH  10  11
ENDBRANCH   9  10
ENDBRANCH   8   9
ENDBRANCH   7   8
ENDBRANCH   5   6
ENDBRANCH   4   5
ENDBRANCH   2   3
ENDBRANCH   1   2
BRANCH   1  13
ATOM     13  C   UNL     1      95.849 -60.849 104.826  1.00  0.00     0.000 C 
BRANCH  13  14
ATOM     14  C   UNL     1      97.329 -61.238 104.972  1.00  0.00     0.000 C 
BRANCH  14  15
ATOM     15  C   UNL     1      98.175 -60.115 105.595  1.00  0.00     0.000 C 
BRANCH  15  16
ATOM     16  C   UNL     1      99.418 -60.643 106.336  1.00  0.00     0.003 C 
BRANCH  16  17
ATOM     17  C   UNL     1      99.751 -62.125 106.081  1.00  0.00     0.042 C 
BRANCH  17  18
ATOM     18  C   UNL     1     101.199 -62.369 105.646  1.00  0.00     0.233 C 
BRANCH  18  19
ATOM     19  O   UNL     1     102.094 -62.053 106.706  1.00  0.00    -0.466 OA
BRANCH  19  20
ATOM     20  C   UNL     1     103.127 -61.122 106.569  1.00  0.00     0.302 C 
ATOM     21  O   UNL     1     104.066 -61.074 107.410  1.00  0.00    -0.253 OA
ATOM     22  C   UNL     1     103.091 -60.143 105.445  1.00  0.00     0.139 C 
ENDBRANCH  19  20
ENDBRANCH  18  19
ENDBRANCH  17  18
ENDBRANCH  16  17
ENDBRANCH  15  16
ENDBRANCH  14  15
ENDBRANCH  13  14
ENDBRANCH   1  13
TORSDOF 16
ENDMDL
