MODEL 1
REMARK VINA RESULT:    -2.236      0.000      0.000
REMARK INTER + INTRA:          -2.236
REMARK INTER:                  -2.236
REMARK INTRA:                   0.000
REMARK UNBOUND:                 0.000
REMARK SMILES CC(=O)[O-]
REMARK SMILES IDX 1 1 2 2 3 3 4 4
REMARK H PARENT
REMARK Flexibility Score: inf
ROOT
ATOM      1  C   UNL     1     -11.065  -4.399 -10.394  1.00  0.00     0.063 C 
ATOM      2  C   UNL     1     -10.667  -4.696  -8.988  1.00  0.00     0.038 C 
ATOM      3  O   UNL     1     -10.631  -3.773  -8.133  1.00  0.00    -0.550 OA
ATOM      4  O   UNL     1     -10.282  -5.982  -8.630  1.00  0.00    -0.550 OA
ENDROOT
TORSDOF 0
ENDMDL
MODEL 2
REMARK VINA RESULT:    -2.190      1.606      1.830
REMARK INTER + INTRA:          -2.190
REMARK INTER:                  -2.190
REMARK INTRA:                   0.000
REMARK UNBOUND:                 0.000
REMARK SMILES CC(=O)[O-]
REMARK SMILES IDX 1 1 2 2 3 3 4 4
REMARK H PARENT
REMARK Flexibility Score: inf
ROOT
ATOM      1  C   UNL     1     -10.534  -5.731  -8.701  1.00  0.00     0.063 C 
ATOM      2  C   UNL     1     -10.805  -4.264  -8.711  1.00  0.00     0.038 C 
ATOM      3  O   UNL     1     -10.726  -3.599  -7.645  1.00  0.00    -0.550 OA
ATOM      4  O   UNL     1     -11.195  -3.637  -9.888  1.00  0.00    -0.550 OA
ENDROOT
TORSDOF 0
ENDMDL
MODEL 3
REMARK VINA RESULT:    -2.131      1.580      2.742
REMARK INTER + INTRA:          -2.131
REMARK INTER:                  -2.131
REMARK INTRA:                   0.000
REMARK UNBOUND:                 0.000
REMARK SMILES CC(=O)[O-]
REMARK SMILES IDX 1 1 2 2 3 3 4 4
REMARK H PARENT
REMARK Flexibility Score: inf
ROOT
ATOM      1  C   UNL     1      -9.605  -5.946  -6.716  1.00  0.00     0.063 C 
ATOM      2  C   UNL     1     -10.308  -5.255  -7.834  1.00  0.00     0.038 C 
ATOM      3  O   UNL     1     -10.561  -5.873  -8.901  1.00  0.00    -0.550 OA
ATOM      4  O   UNL     1     -10.639  -3.910  -7.722  1.00  0.00    -0.550 OA
ENDROOT
TORSDOF 0
ENDMDL
MODEL 4
REMARK VINA RESULT:    -2.113      1.943      2.184
REMARK INTER + INTRA:          -2.113
REMARK INTER:                  -2.113
REMARK INTRA:                   0.000
REMARK UNBOUND:                 0.000
REMARK SMILES CC(=O)[O-]
REMARK SMILES IDX 1 1 2 2 3 3 4 4
REMARK H PARENT
REMARK Flexibility Score: inf
ROOT
ATOM      1  C   UNL     1     -10.977  -3.925  -7.602  1.00  0.00     0.063 C 
ATOM      2  C   UNL     1     -10.319  -5.250  -7.782  1.00  0.00     0.038 C 
ATOM      3  O   UNL     1     -10.514  -5.916  -8.832  1.00  0.00    -0.550 OA
ATOM      4  O   UNL     1      -9.529  -5.779  -6.769  1.00  0.00    -0.550 OA
ENDROOT
TORSDOF 0
ENDMDL
MODEL 5
REMARK VINA RESULT:    -2.090      3.692      4.091
REMARK INTER + INTRA:          -2.090
REMARK INTER:                  -2.090
REMARK INTRA:                   0.000
REMARK UNBOUND:                 0.000
REMARK SMILES CC(=O)[O-]
REMARK SMILES IDX 1 1 2 2 3 3 4 4
REMARK H PARENT
REMARK Flexibility Score: inf
ROOT
ATOM      1  C   UNL     1      -9.509  -6.008  -6.854  1.00  0.00     0.063 C 
ATOM      2  C   UNL     1      -9.964  -6.637  -5.580  1.00  0.00     0.038 C 
ATOM      3  O   UNL     1     -11.073  -6.319  -5.078  1.00  0.00    -0.550 OA
ATOM      4  O   UNL     1      -9.140  -7.538  -4.916  1.00  0.00    -0.550 OA
ENDROOT
TORSDOF 0
ENDMDL
MODEL 6
REMARK VINA RESULT:    -2.067      4.110      4.352
REMARK INTER + INTRA:          -2.067
REMARK INTER:                  -2.067
REMARK INTRA:                   0.000
REMARK UNBOUND:                 0.000
REMARK SMILES CC(=O)[O-]
REMARK SMILES IDX 1 1 2 2 3 3 4 4
REMARK H PARENT
REMARK Flexibility Score: inf
ROOT
ATOM      1  C   UNL     1     -12.626  -4.386  -6.250  1.00  0.00     0.063 C 
ATOM      2  C   UNL     1     -12.335  -5.256  -5.075  1.00  0.00     0.038 C 
ATOM      3  O   UNL     1     -12.997  -5.126  -4.012  1.00  0.00    -0.550 OA
ATOM      4  O   UNL     1     -11.296  -6.177  -5.131  1.00  0.00    -0.550 OA
ENDROOT
TORSDOF 0
ENDMDL
MODEL 7
REMARK VINA RESULT:    -2.067      3.847      4.447
REMARK INTER + INTRA:          -2.067
REMARK INTER:                  -2.067
REMARK INTRA:                   0.000
REMARK UNBOUND:                 0.000
REMARK SMILES CC(=O)[O-]
REMARK SMILES IDX 1 1 2 2 3 3 4 4
REMARK H PARENT
REMARK Flexibility Score: inf
ROOT
ATOM      1  C   UNL     1      -9.173  -7.743  -5.155  1.00  0.00     0.063 C 
ATOM      2  C   UNL     1      -9.728  -6.466  -5.688  1.00  0.00     0.038 C 
ATOM      3  O   UNL     1      -9.233  -5.942  -6.719  1.00  0.00    -0.550 OA
ATOM      4  O   UNL     1     -10.761  -5.823  -5.016  1.00  0.00    -0.550 OA
ENDROOT
TORSDOF 0
ENDMDL
MODEL 8
REMARK VINA RESULT:    -2.019      7.157      7.550
REMARK INTER + INTRA:          -2.019
REMARK INTER:                  -2.019
REMARK INTRA:                   0.000
REMARK UNBOUND:                 0.000
REMARK SMILES CC(=O)[O-]
REMARK SMILES IDX 1 1 2 2 3 3 4 4
REMARK H PARENT
REMARK Flexibility Score: inf
ROOT
ATOM      1  C   UNL     1      -6.016 -10.319  -6.044  1.00  0.00     0.063 C 
ATOM      2  C   UNL     1      -7.379 -10.312  -5.439  1.00  0.00     0.038 C 
ATOM      3  O   UNL     1      -7.872  -9.239  -5.004  1.00  0.00    -0.550 OA
ATOM      4  O   UNL     1      -8.087 -11.499  -5.305  1.00  0.00    -0.550 OA
ENDROOT
TORSDOF 0
ENDMDL
MODEL 9
REMARK VINA RESULT:    -2.017     11.581     12.265
REMARK INTER + INTRA:          -2.017
REMARK INTER:                  -2.017
REMARK INTRA:                   0.000
REMARK UNBOUND:                 0.000
REMARK SMILES CC(=O)[O-]
REMARK SMILES IDX 1 1 2 2 3 3 4 4
REMARK H PARENT
REMARK Flexibility Score: inf
ROOT
ATOM      1  C   UNL     1      -2.451 -12.477  -3.447  1.00  0.00     0.063 C 
ATOM      2  C   UNL     1      -2.015 -12.004  -4.793  1.00  0.00     0.038 C 
ATOM      3  O   UNL     1      -0.862 -12.278  -5.217  1.00  0.00    -0.550 OA
ATOM      4  O   UNL     1      -2.862 -11.214  -5.561  1.00  0.00    -0.550 OA
ENDROOT
TORSDOF 0
ENDMDL
