MODEL 1
REMARK VINA RESULT:    -4.000      0.000      0.000
REMARK INTER + INTRA:          -5.110
REMARK INTER:                  -4.935
REMARK INTRA:                  -0.175
REMARK UNBOUND:                -0.175
REMARK SMILES C=CC[C@H](C)C(=O)CC
REMARK SMILES IDX 4 1 5 2 6 3 7 4 8 5 9 6 3 7 2 8 1 9
REMARK H PARENT
REMARK Flexibility Score: inf
ROOT
ATOM      1  C   UNL     1      -0.248   4.723  63.631  1.00  0.00     0.057 C 
ATOM      2  C   UNL     1       0.468   4.358  64.938  1.00  0.00     0.016 C 
ENDROOT
BRANCH   1   3
ATOM      3  C   UNL     1       0.586   5.676  62.797  1.00  0.00     0.135 C 
ATOM      4  O   UNL     1       0.721   6.838  63.153  1.00  0.00    -0.299 OA
BRANCH   3   5
ATOM      5  C   UNL     1       1.263   5.217  61.533  1.00  0.00     0.072 C 
ATOM      6  C   UNL     1       2.689   4.756  61.821  1.00  0.00     0.012 C 
ENDBRANCH   3   5
ENDBRANCH   1   3
BRANCH   1   7
ATOM      7  C   UNL     1      -1.669   5.274  63.875  1.00  0.00     0.038 C 
BRANCH   7   8
ATOM      8  C   UNL     1      -2.761   4.362  63.376  1.00  0.00    -0.034 C 
ATOM      9  C   UNL     1      -4.031   4.502  63.767  1.00  0.00     0.004 C 
ENDBRANCH   7   8
ENDBRANCH   1   7
TORSDOF 4
ENDMDL
MODEL 2
REMARK VINA RESULT:    -3.940      1.986      3.412
REMARK INTER + INTRA:          -5.037
REMARK INTER:                  -4.841
REMARK INTRA:                  -0.196
REMARK UNBOUND:                -0.175
REMARK SMILES C=CC[C@H](C)C(=O)CC
REMARK SMILES IDX 4 1 5 2 6 3 7 4 8 5 9 6 3 7 2 8 1 9
REMARK H PARENT
REMARK Flexibility Score: inf
ROOT
ATOM      1  C   UNL     1       2.103   5.850  61.947  1.00  0.00     0.057 C 
ATOM      2  C   UNL     1       2.018   6.946  60.877  1.00  0.00     0.016 C 
ENDROOT
BRANCH   1   3
ATOM      3  C   UNL     1       3.377   5.042  61.803  1.00  0.00     0.135 C 
ATOM      4  O   UNL     1       4.399   5.580  61.403  1.00  0.00    -0.299 OA
BRANCH   3   5
ATOM      5  C   UNL     1       3.414   3.578  62.154  1.00  0.00     0.072 C 
ATOM      6  C   UNL     1       4.777   3.193  62.723  1.00  0.00     0.012 C 
ENDBRANCH   3   5
ENDBRANCH   1   3
BRANCH   1   7
ATOM      7  C   UNL     1       0.853   4.943  61.958  1.00  0.00     0.038 C 
BRANCH   7   8
ATOM      8  C   UNL     1       0.081   5.001  63.253  1.00  0.00    -0.034 C 
ATOM      9  C   UNL     1      -1.196   4.617  63.329  1.00  0.00     0.004 C 
ENDBRANCH   7   8
ENDBRANCH   1   7
TORSDOF 4
ENDMDL
MODEL 3
REMARK VINA RESULT:    -3.937      1.165      4.658
REMARK INTER + INTRA:          -5.033
REMARK INTER:                  -4.878
REMARK INTRA:                  -0.154
REMARK UNBOUND:                -0.175
REMARK SMILES C=CC[C@H](C)C(=O)CC
REMARK SMILES IDX 4 1 5 2 6 3 7 4 8 5 9 6 3 7 2 8 1 9
REMARK H PARENT
REMARK Flexibility Score: inf
ROOT
ATOM      1  C   UNL     1       1.198   5.004  62.263  1.00  0.00     0.057 C 
ATOM      2  C   UNL     1       1.561   6.054  61.204  1.00  0.00     0.016 C 
ENDROOT
BRANCH   1   3
ATOM      3  C   UNL     1       0.156   5.535  63.227  1.00  0.00     0.135 C 
ATOM      4  O   UNL     1       0.022   6.741  63.377  1.00  0.00    -0.299 OA
BRANCH   3   5
ATOM      5  C   UNL     1      -0.732   4.601  64.005  1.00  0.00     0.072 C 
ATOM      6  C   UNL     1      -2.139   4.577  63.416  1.00  0.00     0.012 C 
ENDBRANCH   3   5
ENDBRANCH   1   3
BRANCH   1   7
ATOM      7  C   UNL     1       2.441   4.469  63.008  1.00  0.00     0.038 C 
BRANCH   7   8
ATOM      8  C   UNL     1       3.568   4.075  62.087  1.00  0.00    -0.034 C 
ATOM      9  C   UNL     1       4.464   3.144  62.428  1.00  0.00     0.004 C 
ENDBRANCH   7   8
ENDBRANCH   1   7
TORSDOF 4
ENDMDL
MODEL 4
REMARK VINA RESULT:    -3.893      1.154      1.280
REMARK INTER + INTRA:          -4.979
REMARK INTER:                  -4.770
REMARK INTRA:                  -0.209
REMARK UNBOUND:                -0.175
REMARK SMILES C=CC[C@H](C)C(=O)CC
REMARK SMILES IDX 4 1 5 2 6 3 7 4 8 5 9 6 3 7 2 8 1 9
REMARK H PARENT
REMARK Flexibility Score: inf
ROOT
ATOM      1  C   UNL     1       0.288   4.684  63.947  1.00  0.00     0.057 C 
ATOM      2  C   UNL     1       0.213   5.488  65.251  1.00  0.00     0.016 C 
ENDROOT
BRANCH   1   3
ATOM      3  C   UNL     1       1.442   5.151  63.081  1.00  0.00     0.135 C 
ATOM      4  O   UNL     1       2.476   5.544  63.602  1.00  0.00    -0.299 OA
BRANCH   3   5
ATOM      5  C   UNL     1       1.344   5.134  61.578  1.00  0.00     0.072 C 
ATOM      6  C   UNL     1       1.760   6.481  60.995  1.00  0.00     0.012 C 
ENDBRANCH   3   5
ENDBRANCH   1   3
BRANCH   1   7
ATOM      7  C   UNL     1      -1.047   4.699  63.171  1.00  0.00     0.038 C 
BRANCH   7   8
ATOM      8  C   UNL     1      -2.245   4.387  64.033  1.00  0.00    -0.034 C 
ATOM      9  C   UNL     1      -3.474   4.287  63.520  1.00  0.00     0.004 C 
ENDBRANCH   7   8
ENDBRANCH   1   7
TORSDOF 4
ENDMDL
MODEL 5
REMARK VINA RESULT:    -3.701      1.104      4.233
REMARK INTER + INTRA:          -4.741
REMARK INTER:                  -4.559
REMARK INTRA:                  -0.183
REMARK UNBOUND:                -0.175
REMARK SMILES C=CC[C@H](C)C(=O)CC
REMARK SMILES IDX 4 1 5 2 6 3 7 4 8 5 9 6 3 7 2 8 1 9
REMARK H PARENT
REMARK Flexibility Score: inf
ROOT
ATOM      1  C   UNL     1       0.420   5.396  63.575  1.00  0.00     0.057 C 
ATOM      2  C   UNL     1       1.050   4.449  64.607  1.00  0.00     0.016 C 
ENDROOT
BRANCH   1   3
ATOM      3  C   UNL     1      -1.073   5.534  63.798  1.00  0.00     0.135 C 
ATOM      4  O   UNL     1      -1.525   6.562  64.282  1.00  0.00    -0.299 OA
BRANCH   3   5
ATOM      5  C   UNL     1      -2.021   4.425  63.426  1.00  0.00     0.072 C 
ATOM      6  C   UNL     1      -3.456   4.798  63.785  1.00  0.00     0.012 C 
ENDBRANCH   3   5
ENDBRANCH   1   3
BRANCH   1   7
ATOM      7  C   UNL     1       0.743   4.979  62.124  1.00  0.00     0.038 C 
BRANCH   7   8
ATOM      8  C   UNL     1       1.946   5.684  61.550  1.00  0.00    -0.034 C 
ATOM      9  C   UNL     1       3.170   5.152  61.613  1.00  0.00     0.004 C 
ENDBRANCH   7   8
ENDBRANCH   1   7
TORSDOF 4
ENDMDL
MODEL 6
REMARK VINA RESULT:    -3.599      1.628      3.140
REMARK INTER + INTRA:          -4.616
REMARK INTER:                  -4.276
REMARK INTRA:                  -0.340
REMARK UNBOUND:                -0.175
REMARK SMILES C=CC[C@H](C)C(=O)CC
REMARK SMILES IDX 4 1 5 2 6 3 7 4 8 5 9 6 3 7 2 8 1 9
REMARK H PARENT
REMARK Flexibility Score: inf
ROOT
ATOM      1  C   UNL     1      -0.762   5.274  63.764  1.00  0.00     0.057 C 
ATOM      2  C   UNL     1       0.530   5.125  62.950  1.00  0.00     0.016 C 
ENDROOT
BRANCH   1   3
ATOM      3  C   UNL     1      -0.510   5.038  65.241  1.00  0.00     0.135 C 
ATOM      4  O   UNL     1      -0.697   5.941  66.044  1.00  0.00    -0.299 OA
BRANCH   3   5
ATOM      5  C   UNL     1      -0.037   3.700  65.745  1.00  0.00     0.072 C 
ATOM      6  C   UNL     1      -1.009   3.138  66.779  1.00  0.00     0.012 C 
ENDBRANCH   3   5
ENDBRANCH   1   3
BRANCH   1   7
ATOM      7  C   UNL     1      -1.898   4.375  63.230  1.00  0.00     0.038 C 
BRANCH   7   8
ATOM      8  C   UNL     1      -3.241   4.674  63.849  1.00  0.00    -0.034 C 
ATOM      9  C   UNL     1      -4.342   4.002  63.501  1.00  0.00     0.004 C 
ENDBRANCH   7   8
ENDBRANCH   1   7
TORSDOF 4
ENDMDL
MODEL 7
REMARK VINA RESULT:    -3.544      1.567      3.920
REMARK INTER + INTRA:          -4.548
REMARK INTER:                  -4.150
REMARK INTRA:                  -0.399
REMARK UNBOUND:                -0.175
REMARK SMILES C=CC[C@H](C)C(=O)CC
REMARK SMILES IDX 4 1 5 2 6 3 7 4 8 5 9 6 3 7 2 8 1 9
REMARK H PARENT
REMARK Flexibility Score: inf
ROOT
ATOM      1  C   UNL     1       0.422   4.985  63.215  1.00  0.00     0.057 C 
ATOM      2  C   UNL     1      -1.075   4.655  63.298  1.00  0.00     0.016 C 
ENDROOT
BRANCH   1   3
ATOM      3  C   UNL     1       0.741   6.269  63.954  1.00  0.00     0.135 C 
ATOM      4  O   UNL     1       1.555   6.262  64.866  1.00  0.00    -0.299 OA
BRANCH   3   5
ATOM      5  C   UNL     1       0.077   7.568  63.581  1.00  0.00     0.072 C 
ATOM      6  C   UNL     1       1.088   8.538  62.978  1.00  0.00     0.012 C 
ENDBRANCH   3   5
ENDBRANCH   1   3
BRANCH   1   7
ATOM      7  C   UNL     1       0.933   5.025  61.758  1.00  0.00     0.038 C 
BRANCH   7   8
ATOM      8  C   UNL     1       2.435   5.105  61.652  1.00  0.00    -0.034 C 
ATOM      9  C   UNL     1       3.226   4.122  62.094  1.00  0.00     0.004 C 
ENDBRANCH   7   8
ENDBRANCH   1   7
TORSDOF 4
ENDMDL
MODEL 8
REMARK VINA RESULT:    -3.542      1.370      4.209
REMARK INTER + INTRA:          -4.546
REMARK INTER:                  -4.285
REMARK INTRA:                  -0.261
REMARK UNBOUND:                -0.175
REMARK SMILES C=CC[C@H](C)C(=O)CC
REMARK SMILES IDX 4 1 5 2 6 3 7 4 8 5 9 6 3 7 2 8 1 9
REMARK H PARENT
REMARK Flexibility Score: inf
ROOT
ATOM      1  C   UNL     1      -0.126   4.616  63.558  1.00  0.00     0.057 C 
ATOM      2  C   UNL     1      -1.660   4.674  63.540  1.00  0.00     0.016 C 
ENDROOT
BRANCH   1   3
ATOM      3  C   UNL     1       0.401   4.521  64.977  1.00  0.00     0.135 C 
ATOM      4  O   UNL     1       1.316   5.249  65.337  1.00  0.00    -0.299 OA
BRANCH   3   5
ATOM      5  C   UNL     1      -0.187   3.547  65.962  1.00  0.00     0.072 C 
ATOM      6  C   UNL     1      -0.534   4.247  67.273  1.00  0.00     0.012 C 
ENDBRANCH   3   5
ENDBRANCH   1   3
BRANCH   1   7
ATOM      7  C   UNL     1       0.514   5.793  62.791  1.00  0.00     0.038 C 
BRANCH   7   8
ATOM      8  C   UNL     1       1.393   5.356  61.647  1.00  0.00    -0.034 C 
ATOM      9  C   UNL     1       2.528   4.681  61.849  1.00  0.00     0.004 C 
ENDBRANCH   7   8
ENDBRANCH   1   7
TORSDOF 4
ENDMDL
MODEL 9
REMARK VINA RESULT:    -3.371      1.854      3.255
REMARK INTER + INTRA:          -4.334
REMARK INTER:                  -4.078
REMARK INTRA:                  -0.256
REMARK UNBOUND:                -0.175
REMARK SMILES C=CC[C@H](C)C(=O)CC
REMARK SMILES IDX 4 1 5 2 6 3 7 4 8 5 9 6 3 7 2 8 1 9
REMARK H PARENT
REMARK Flexibility Score: inf
ROOT
ATOM      1  C   UNL     1       2.414   4.926  61.635  1.00  0.00     0.057 C 
ATOM      2  C   UNL     1       2.932   4.013  62.754  1.00  0.00     0.016 C 
ENDROOT
BRANCH   1   3
ATOM      3  C   UNL     1       3.150   6.251  61.624  1.00  0.00     0.135 C 
ATOM      4  O   UNL     1       2.650   7.222  61.073  1.00  0.00    -0.299 OA
BRANCH   3   5
ATOM      5  C   UNL     1       4.491   6.402  62.291  1.00  0.00     0.072 C 
ATOM      6  C   UNL     1       5.609   6.444  61.253  1.00  0.00     0.012 C 
ENDBRANCH   3   5
ENDBRANCH   1   3
BRANCH   1   7
ATOM      7  C   UNL     1       0.884   5.124  61.700  1.00  0.00     0.038 C 
BRANCH   7   8
ATOM      8  C   UNL     1       0.363   5.311  63.103  1.00  0.00    -0.034 C 
ATOM      9  C   UNL     1      -0.779   4.750  63.511  1.00  0.00     0.004 C 
ENDBRANCH   7   8
ENDBRANCH   1   7
TORSDOF 4
ENDMDL
