MODEL 1
REMARK VINA RESULT:    -3.173      0.000      0.000
REMARK INTER + INTRA:          -3.732
REMARK INTER:                  -3.729
REMARK INTRA:                  -0.003
REMARK UNBOUND:                -0.003
REMARK SMILES O=C([O-])CCC(=O)[O-]
REMARK SMILES IDX 4 1 2 2 1 3 3 4 5 5 6 6 7 7 8 8
REMARK H PARENT
REMARK Flexibility Score: inf
ROOT
ATOM      1  C   UNL     1     -10.012  10.863 -32.922  1.00  0.00     0.059 C 
ENDROOT
BRANCH   1   2
ATOM      2  C   UNL     1     -11.493  10.997 -32.755  1.00  0.00     0.042 C 
ATOM      3  O   UNL     1     -12.043  12.125 -32.863  1.00  0.00    -0.550 OA
ATOM      4  O   UNL     1     -12.272   9.870 -32.531  1.00  0.00    -0.550 OA
ENDBRANCH   1   2
BRANCH   1   5
ATOM      5  C   UNL     1      -9.685   9.807 -33.980  1.00  0.00     0.059 C 
BRANCH   5   6
ATOM      6  C   UNL     1      -9.531  10.444 -35.325  1.00  0.00     0.042 C 
ATOM      7  O   UNL     1      -8.876   9.863 -36.230  1.00  0.00    -0.550 OA
ATOM      8  O   UNL     1     -10.067  11.703 -35.564  1.00  0.00    -0.550 OA
ENDBRANCH   5   6
ENDBRANCH   1   5
TORSDOF 3
ENDMDL
MODEL 2
REMARK VINA RESULT:    -3.113      1.213      3.572
REMARK INTER + INTRA:          -3.662
REMARK INTER:                  -3.529
REMARK INTRA:                  -0.133
REMARK UNBOUND:                -0.003
REMARK SMILES O=C([O-])CCC(=O)[O-]
REMARK SMILES IDX 4 1 2 2 1 3 3 4 5 5 6 6 7 7 8 8
REMARK H PARENT
REMARK Flexibility Score: inf
ROOT
ATOM      1  C   UNL     1     -10.079  10.064 -34.841  1.00  0.00     0.059 C 
ENDROOT
BRANCH   1   2
ATOM      2  C   UNL     1      -9.872  11.449 -35.368  1.00  0.00     0.042 C 
ATOM      3  O   UNL     1      -8.875  12.124 -34.999  1.00  0.00    -0.550 OA
ATOM      4  O   UNL     1     -10.752  11.975 -36.304  1.00  0.00    -0.550 OA
ENDBRANCH   1   2
BRANCH   1   5
ATOM      5  C   UNL     1      -9.905  10.036 -33.322  1.00  0.00     0.059 C 
BRANCH   5   6
ATOM      6  C   UNL     1     -11.099  10.636 -32.647  1.00  0.00     0.042 C 
ATOM      7  O   UNL     1     -11.026  11.784 -32.134  1.00  0.00    -0.550 OA
ATOM      8  O   UNL     1     -12.276   9.908 -32.542  1.00  0.00    -0.550 OA
ENDBRANCH   5   6
ENDBRANCH   1   5
TORSDOF 3
ENDMDL
MODEL 3
REMARK VINA RESULT:    -3.082      0.143      3.817
REMARK INTER + INTRA:          -3.625
REMARK INTER:                  -3.564
REMARK INTRA:                  -0.060
REMARK UNBOUND:                -0.003
REMARK SMILES O=C([O-])CCC(=O)[O-]
REMARK SMILES IDX 4 1 2 2 1 3 3 4 5 5 6 6 7 7 8 8
REMARK H PARENT
REMARK Flexibility Score: inf
ROOT
ATOM      1  C   UNL     1      -9.670   9.828 -34.032  1.00  0.00     0.059 C 
ENDROOT
BRANCH   1   2
ATOM      2  C   UNL     1      -9.388  10.485 -35.346  1.00  0.00     0.042 C 
ATOM      3  O   UNL     1      -8.875   9.825 -36.288  1.00  0.00    -0.550 OA
ATOM      4  O   UNL     1      -9.738  11.814 -35.548  1.00  0.00    -0.550 OA
ENDBRANCH   1   2
BRANCH   1   5
ATOM      5  C   UNL     1     -10.009  10.877 -32.970  1.00  0.00     0.059 C 
BRANCH   5   6
ATOM      6  C   UNL     1     -11.491  10.999 -32.810  1.00  0.00     0.042 C 
ATOM      7  O   UNL     1     -12.050  12.123 -32.919  1.00  0.00    -0.550 OA
ATOM      8  O   UNL     1     -12.250   9.882 -32.489  1.00  0.00    -0.550 OA
ENDBRANCH   5   6
ENDBRANCH   1   5
TORSDOF 3
ENDMDL
MODEL 4
REMARK VINA RESULT:    -3.063      0.663      1.734
REMARK INTER + INTRA:          -3.602
REMARK INTER:                  -3.484
REMARK INTRA:                  -0.119
REMARK UNBOUND:                -0.003
REMARK SMILES O=C([O-])CCC(=O)[O-]
REMARK SMILES IDX 4 1 2 2 1 3 3 4 5 5 6 6 7 7 8 8
REMARK H PARENT
REMARK Flexibility Score: inf
ROOT
ATOM      1  C   UNL     1     -10.337   9.665 -33.365  1.00  0.00     0.059 C 
ENDROOT
BRANCH   1   2
ATOM      2  C   UNL     1     -11.563  10.357 -32.860  1.00  0.00     0.042 C 
ATOM      3  O   UNL     1     -12.567   9.687 -32.501  1.00  0.00    -0.550 OA
ATOM      4  O   UNL     1     -11.579  11.740 -32.737  1.00  0.00    -0.550 OA
ENDBRANCH   1   2
BRANCH   1   5
ATOM      5  C   UNL     1      -9.341  10.681 -33.927  1.00  0.00     0.059 C 
BRANCH   5   6
ATOM      6  C   UNL     1      -9.501  10.808 -35.409  1.00  0.00     0.042 C 
ATOM      7  O   UNL     1     -10.241  11.706 -35.891  1.00  0.00    -0.550 OA
ATOM      8  O   UNL     1      -8.875   9.904 -36.255  1.00  0.00    -0.550 OA
ENDBRANCH   5   6
ENDBRANCH   1   5
TORSDOF 3
ENDMDL
MODEL 5
REMARK VINA RESULT:    -2.524      1.338      3.682
REMARK INTER + INTRA:          -2.970
REMARK INTER:                  -2.936
REMARK INTRA:                  -0.033
REMARK UNBOUND:                -0.003
REMARK SMILES O=C([O-])CCC(=O)[O-]
REMARK SMILES IDX 4 1 2 2 1 3 3 4 5 5 6 6 7 7 8 8
REMARK H PARENT
REMARK Flexibility Score: inf
ROOT
ATOM      1  C   UNL     1      -9.773  12.122 -34.210  1.00  0.00     0.059 C 
ENDROOT
BRANCH   1   2
ATOM      2  C   UNL     1      -9.863  11.556 -35.591  1.00  0.00     0.042 C 
ATOM      3  O   UNL     1      -9.195  10.534 -35.901  1.00  0.00    -0.550 OA
ATOM      4  O   UNL     1     -10.722  12.125 -36.522  1.00  0.00    -0.550 OA
ENDBRANCH   1   2
BRANCH   1   5
ATOM      5  C   UNL     1     -11.073  11.870 -33.442  1.00  0.00     0.059 C 
BRANCH   5   6
ATOM      6  C   UNL     1     -11.112  10.467 -32.926  1.00  0.00     0.042 C 
ATOM      7  O   UNL     1     -12.195   9.973 -32.515  1.00  0.00    -0.550 OA
ATOM      8  O   UNL     1      -9.943   9.721 -32.850  1.00  0.00    -0.550 OA
ENDBRANCH   5   6
ENDBRANCH   1   5
TORSDOF 3
ENDMDL
MODEL 6
REMARK VINA RESULT:    -2.481      1.303      1.573
REMARK INTER + INTRA:          -2.919
REMARK INTER:                  -2.977
REMARK INTRA:                   0.059
REMARK UNBOUND:                -0.003
REMARK SMILES O=C([O-])CCC(=O)[O-]
REMARK SMILES IDX 4 1 2 2 1 3 3 4 5 5 6 6 7 7 8 8
REMARK H PARENT
REMARK Flexibility Score: inf
ROOT
ATOM      1  C   UNL     1     -10.665  11.644 -32.913  1.00  0.00     0.059 C 
ENDROOT
BRANCH   1   2
ATOM      2  C   UNL     1     -11.076  10.206 -32.879  1.00  0.00     0.042 C 
ATOM      3  O   UNL     1     -12.257   9.892 -32.576  1.00  0.00    -0.550 OA
ATOM      4  O   UNL     1     -10.169   9.215 -33.232  1.00  0.00    -0.550 OA
ENDBRANCH   1   2
BRANCH   1   5
ATOM      5  C   UNL     1      -9.395  11.819 -33.748  1.00  0.00     0.059 C 
BRANCH   5   6
ATOM      6  C   UNL     1      -9.683  11.575 -35.196  1.00  0.00     0.042 C 
ATOM      7  O   UNL     1      -8.878  10.909 -35.899  1.00  0.00    -0.550 OA
ATOM      8  O   UNL     1     -10.815  12.125 -35.782  1.00  0.00    -0.550 OA
ENDBRANCH   5   6
ENDBRANCH   1   5
TORSDOF 3
ENDMDL
MODEL 7
REMARK VINA RESULT:    -1.574      0.373      3.790
REMARK INTER + INTRA:          -1.853
REMARK INTER:                  -1.771
REMARK INTRA:                  -0.082
REMARK UNBOUND:                -0.003
REMARK SMILES O=C([O-])CCC(=O)[O-]
REMARK SMILES IDX 4 1 2 2 1 3 3 4 5 5 6 6 7 7 8 8
REMARK H PARENT
REMARK Flexibility Score: inf
ROOT
ATOM      1  C   UNL     1      -9.929   9.783 -34.315  1.00  0.00     0.059 C 
ENDROOT
BRANCH   1   2
ATOM      2  C   UNL     1      -9.311  10.513 -35.466  1.00  0.00     0.042 C 
ATOM      3  O   UNL     1      -8.875   9.875 -36.460  1.00  0.00    -0.550 OA
ATOM      4  O   UNL     1      -9.261  11.900 -35.462  1.00  0.00    -0.550 OA
ENDBRANCH   1   2
BRANCH   1   5
ATOM      5  C   UNL     1     -10.119  10.724 -33.124  1.00  0.00     0.059 C 
BRANCH   5   6
ATOM      6  C   UNL     1     -11.572  10.876 -32.804  1.00  0.00     0.042 C 
ATOM      7  O   UNL     1     -12.264   9.869 -32.500  1.00  0.00    -0.550 OA
ATOM      8  O   UNL     1     -12.175  12.124 -32.890  1.00  0.00    -0.550 OA
ENDBRANCH   5   6
ENDBRANCH   1   5
TORSDOF 3
ENDMDL
MODEL 8
REMARK VINA RESULT:    -0.862      1.793      2.258
REMARK INTER + INTRA:          -1.016
REMARK INTER:                  -0.987
REMARK INTRA:                  -0.030
REMARK UNBOUND:                -0.003
REMARK SMILES O=C([O-])CCC(=O)[O-]
REMARK SMILES IDX 4 1 2 2 1 3 3 4 5 5 6 6 7 7 8 8
REMARK H PARENT
REMARK Flexibility Score: inf
ROOT
ATOM      1  C   UNL     1     -11.621  10.531 -32.598  1.00  0.00     0.059 C 
ENDROOT
BRANCH   1   2
ATOM      2  C   UNL     1     -12.544   9.355 -32.565  1.00  0.00     0.042 C 
ATOM      3  O   UNL     1     -13.752   9.506 -32.239  1.00  0.00    -0.550 OA
ATOM      4  O   UNL     1     -12.085   8.100 -32.942  1.00  0.00    -0.550 OA
ENDBRANCH   1   2
BRANCH   1   5
ATOM      5  C   UNL     1     -10.491  10.297 -33.603  1.00  0.00     0.059 C 
BRANCH   5   6
ATOM      6  C   UNL     1      -9.753  11.571 -33.867  1.00  0.00     0.042 C 
ATOM      7  O   UNL     1      -9.826  12.124 -34.996  1.00  0.00    -0.550 OA
ATOM      8  O   UNL     1      -8.942  12.122 -32.883  1.00  0.00    -0.550 OA
ENDBRANCH   5   6
ENDBRANCH   1   5
TORSDOF 3
ENDMDL
MODEL 9
REMARK VINA RESULT:    -0.523      1.719      2.339
REMARK INTER + INTRA:          -0.618
REMARK INTER:                  -1.564
REMARK INTRA:                   0.946
REMARK UNBOUND:                -0.003
REMARK SMILES O=C([O-])CCC(=O)[O-]
REMARK SMILES IDX 4 1 2 2 1 3 3 4 5 5 6 6 7 7 8 8
REMARK H PARENT
REMARK Flexibility Score: inf
ROOT
ATOM      1  C   UNL     1     -12.019  10.368 -33.110  1.00  0.00     0.059 C 
ENDROOT
BRANCH   1   2
ATOM      2  C   UNL     1     -11.099  11.546 -33.180  1.00  0.00     0.042 C 
ATOM      3  O   UNL     1     -10.554  11.987 -32.134  1.00  0.00    -0.550 OA
ATOM      4  O   UNL     1     -10.804  12.125 -34.407  1.00  0.00    -0.550 OA
ENDBRANCH   1   2
BRANCH   1   5
ATOM      5  C   UNL     1     -11.264   9.079 -33.440  1.00  0.00     0.059 C 
BRANCH   5   6
ATOM      6  C   UNL     1      -9.812   9.363 -33.660  1.00  0.00     0.042 C 
ATOM      7  O   UNL     1      -9.375   9.564 -34.824  1.00  0.00    -0.550 OA
ATOM      8  O   UNL     1      -8.932   9.357 -32.586  1.00  0.00    -0.550 OA
ENDBRANCH   5   6
ENDBRANCH   1   5
TORSDOF 3
ENDMDL
