MODEL 1
REMARK VINA RESULT:    -4.913      0.000      0.000
REMARK INTER + INTRA:          -5.592
REMARK INTER:                  -5.344
REMARK INTRA:                  -0.248
REMARK UNBOUND:                -0.248
REMARK SMILES O=C([O-])c1ccccc1O
REMARK SMILES IDX 4 1 9 2 5 3 8 4 6 5 7 6 2 7 1 8 3 9 10 10
REMARK H PARENT 10 11
REMARK Flexibility Score: inf
ROOT
ATOM      1  C   UNL     1      -0.009  54.965  -4.749  1.00  0.00     0.039 A 
ATOM      2  C   UNL     1       0.336  54.888  -6.120  1.00  0.00     0.124 A 
ATOM      3  C   UNL     1      -0.348  56.219  -4.204  1.00  0.00     0.014 A 
ATOM      4  C   UNL     1       0.336  56.049  -6.908  1.00  0.00     0.047 A 
ATOM      5  C   UNL     1      -0.343  57.367  -5.000  1.00  0.00     0.001 A 
ATOM      6  C   UNL     1      -0.002  57.282  -6.349  1.00  0.00     0.004 A 
ENDROOT
BRANCH   1   7
ATOM      7  C   UNL     1      -0.023  53.761  -3.879  1.00  0.00     0.075 C 
ATOM      8  O   UNL     1      -0.539  52.686  -4.286  1.00  0.00    -0.545 OA
ATOM      9  O   UNL     1       0.530  53.790  -2.604  1.00  0.00    -0.545 OA
ENDBRANCH   1   7
BRANCH   2  10
ATOM     10  O   UNL     1       0.678  53.668  -6.704  1.00  0.00    -0.507 OA
ATOM     11  H   UNL     1       1.173  52.950  -6.187  1.00  0.00     0.293 HD
ENDBRANCH   2  10
TORSDOF 2
ENDMDL
MODEL 2
REMARK VINA RESULT:    -4.885      2.401      3.351
REMARK INTER + INTRA:          -5.562
REMARK INTER:                  -5.320
REMARK INTRA:                  -0.242
REMARK UNBOUND:                -0.248
REMARK SMILES O=C([O-])c1ccccc1O
REMARK SMILES IDX 4 1 9 2 5 3 8 4 6 5 7 6 2 7 1 8 3 9 10 10
REMARK H PARENT 10 11
REMARK Flexibility Score: inf
ROOT
ATOM      1  C   UNL     1      -0.250  55.867  -4.763  1.00  0.00     0.039 A 
ATOM      2  C   UNL     1      -0.059  55.500  -6.117  1.00  0.00     0.124 A 
ATOM      3  C   UNL     1      -0.246  54.858  -3.780  1.00  0.00     0.014 A 
ATOM      4  C   UNL     1       0.130  54.152  -6.456  1.00  0.00     0.047 A 
ATOM      5  C   UNL     1      -0.057  53.520  -4.132  1.00  0.00     0.001 A 
ATOM      6  C   UNL     1       0.131  53.167  -5.468  1.00  0.00     0.004 A 
ENDROOT
BRANCH   1   7
ATOM      7  C   UNL     1      -0.454  57.282  -4.359  1.00  0.00     0.075 C 
ATOM      8  O   UNL     1       0.214  58.202  -4.903  1.00  0.00    -0.545 OA
ATOM      9  O   UNL     1      -1.378  57.624  -3.379  1.00  0.00    -0.545 OA
ENDBRANCH   1   7
BRANCH   2  10
ATOM     10  O   UNL     1      -0.055  56.464  -7.125  1.00  0.00    -0.507 OA
ATOM     11  H   UNL     1      -0.393  56.261  -8.059  1.00  0.00     0.293 HD
ENDBRANCH   2  10
TORSDOF 2
ENDMDL
MODEL 3
REMARK VINA RESULT:    -4.751     10.369     11.709
REMARK INTER + INTRA:          -5.416
REMARK INTER:                  -5.203
REMARK INTRA:                  -0.213
REMARK UNBOUND:                -0.248
REMARK SMILES O=C([O-])c1ccccc1O
REMARK SMILES IDX 4 1 9 2 5 3 8 4 6 5 7 6 2 7 1 8 3 9 10 10
REMARK H PARENT 10 11
REMARK Flexibility Score: inf
ROOT
ATOM      1  C   UNL     1       4.973  53.845   4.835  1.00  0.00     0.039 A 
ATOM      2  C   UNL     1       3.627  54.245   5.023  1.00  0.00     0.124 A 
ATOM      3  C   UNL     1       5.553  52.958   5.762  1.00  0.00     0.014 A 
ATOM      4  C   UNL     1       2.900  53.756   6.119  1.00  0.00     0.047 A 
ATOM      5  C   UNL     1       4.817  52.479   6.848  1.00  0.00     0.001 A 
ATOM      6  C   UNL     1       3.493  52.878   7.027  1.00  0.00     0.004 A 
ENDROOT
BRANCH   1   7
ATOM      7  C   UNL     1       5.780  54.338   3.688  1.00  0.00     0.075 C 
ATOM      8  O   UNL     1       7.038  54.331   3.746  1.00  0.00    -0.545 OA
ATOM      9  O   UNL     1       5.171  54.815   2.533  1.00  0.00    -0.545 OA
ENDBRANCH   1   7
BRANCH   2  10
ATOM     10  O   UNL     1       3.011  55.122   4.131  1.00  0.00    -0.507 OA
ATOM     11  H   UNL     1       2.428  54.789   3.372  1.00  0.00     0.293 HD
ENDBRANCH   2  10
TORSDOF 2
ENDMDL
MODEL 4
REMARK VINA RESULT:    -4.685      2.235      3.513
REMARK INTER + INTRA:          -5.344
REMARK INTER:                  -5.101
REMARK INTRA:                  -0.243
REMARK UNBOUND:                -0.248
REMARK SMILES O=C([O-])c1ccccc1O
REMARK SMILES IDX 4 1 9 2 5 3 8 4 6 5 7 6 2 7 1 8 3 9 10 10
REMARK H PARENT 10 11
REMARK Flexibility Score: inf
ROOT
ATOM      1  C   UNL     1      -0.264  55.867  -5.093  1.00  0.00     0.039 A 
ATOM      2  C   UNL     1       0.081  54.714  -4.347  1.00  0.00     0.124 A 
ATOM      3  C   UNL     1      -0.425  55.750  -6.487  1.00  0.00     0.014 A 
ATOM      4  C   UNL     1       0.255  53.485  -5.001  1.00  0.00     0.047 A 
ATOM      5  C   UNL     1      -0.248  54.520  -7.125  1.00  0.00     0.001 A 
ATOM      6  C   UNL     1       0.091  53.389  -6.383  1.00  0.00     0.004 A 
ENDROOT
BRANCH   1   7
ATOM      7  C   UNL     1      -0.458  57.189  -4.442  1.00  0.00     0.075 C 
ATOM      8  O   UNL     1       0.203  58.190  -4.824  1.00  0.00    -0.545 OA
ATOM      9  O   UNL     1      -1.367  57.351  -3.403  1.00  0.00    -0.545 OA
ENDBRANCH   1   7
BRANCH   2  10
ATOM     10  O   UNL     1       0.252  54.782  -2.964  1.00  0.00    -0.507 OA
ATOM     11  H   UNL     1       0.864  54.142  -2.470  1.00  0.00     0.293 HD
ENDBRANCH   2  10
TORSDOF 2
ENDMDL
MODEL 5
REMARK VINA RESULT:    -4.586     10.067     11.433
REMARK INTER + INTRA:          -5.236
REMARK INTER:                  -5.017
REMARK INTRA:                  -0.219
REMARK UNBOUND:                -0.248
REMARK SMILES O=C([O-])c1ccccc1O
REMARK SMILES IDX 4 1 9 2 5 3 8 4 6 5 7 6 2 7 1 8 3 9 10 10
REMARK H PARENT 10 11
REMARK Flexibility Score: inf
ROOT
ATOM      1  C   UNL     1       4.698  54.259   4.520  1.00  0.00     0.039 A 
ATOM      2  C   UNL     1       4.883  53.356   5.594  1.00  0.00     0.124 A 
ATOM      3  C   UNL     1       3.477  54.956   4.422  1.00  0.00     0.014 A 
ATOM      4  C   UNL     1       3.860  53.170   6.536  1.00  0.00     0.047 A 
ATOM      5  C   UNL     1       2.467  54.760   5.366  1.00  0.00     0.001 A 
ATOM      6  C   UNL     1       2.657  53.869   6.421  1.00  0.00     0.004 A 
ENDROOT
BRANCH   1   7
ATOM      7  C   UNL     1       5.755  54.488   3.501  1.00  0.00     0.075 C 
ATOM      8  O   UNL     1       5.450  54.891   2.347  1.00  0.00    -0.545 OA
ATOM      9  O   UNL     1       7.095  54.265   3.793  1.00  0.00    -0.545 OA
ENDBRANCH   1   7
BRANCH   2  10
ATOM     10  O   UNL     1       6.075  52.644   5.732  1.00  0.00    -0.507 OA
ATOM     11  H   UNL     1       6.647  52.403   4.931  1.00  0.00     0.293 HD
ENDBRANCH   2  10
TORSDOF 2
ENDMDL
MODEL 6
REMARK VINA RESULT:    -4.525     11.288     12.466
REMARK INTER + INTRA:          -5.170
REMARK INTER:                  -4.918
REMARK INTRA:                  -0.252
REMARK UNBOUND:                -0.248
REMARK SMILES O=C([O-])c1ccccc1O
REMARK SMILES IDX 4 1 9 2 5 3 8 4 6 5 7 6 2 7 1 8 3 9 10 10
REMARK H PARENT 10 11
REMARK Flexibility Score: inf
ROOT
ATOM      1  C   UNL     1       4.781  52.884   6.208  1.00  0.00     0.039 A 
ATOM      2  C   UNL     1       3.454  53.291   6.489  1.00  0.00     0.124 A 
ATOM      3  C   UNL     1       5.461  53.487   5.132  1.00  0.00     0.014 A 
ATOM      4  C   UNL     1       2.843  54.278   5.700  1.00  0.00     0.047 A 
ATOM      5  C   UNL     1       4.841  54.468   4.355  1.00  0.00     0.001 A 
ATOM      6  C   UNL     1       3.534  54.862   4.638  1.00  0.00     0.004 A 
ENDROOT
BRANCH   1   7
ATOM      7  C   UNL     1       5.466  51.843   7.017  1.00  0.00     0.075 C 
ATOM      8  O   UNL     1       6.678  51.978   7.332  1.00  0.00    -0.545 OA
ATOM      9  O   UNL     1       4.792  50.705   7.443  1.00  0.00    -0.545 OA
ENDBRANCH   1   7
BRANCH   2  10
ATOM     10  O   UNL     1       2.740  52.722   7.544  1.00  0.00    -0.507 OA
ATOM     11  H   UNL     1       3.188  52.126   8.230  1.00  0.00     0.293 HD
ENDBRANCH   2  10
TORSDOF 2
ENDMDL
MODEL 7
REMARK VINA RESULT:    -4.461     12.901     14.103
REMARK INTER + INTRA:          -5.100
REMARK INTER:                  -4.845
REMARK INTRA:                  -0.255
REMARK UNBOUND:                -0.248
REMARK SMILES O=C([O-])c1ccccc1O
REMARK SMILES IDX 4 1 9 2 5 3 8 4 6 5 7 6 2 7 1 8 3 9 10 10
REMARK H PARENT 10 11
REMARK Flexibility Score: inf
ROOT
ATOM      1  C   UNL     1      -7.118  62.724   3.765  1.00  0.00     0.039 A 
ATOM      2  C   UNL     1      -8.218  63.465   3.271  1.00  0.00     0.124 A 
ATOM      3  C   UNL     1      -6.094  63.406   4.453  1.00  0.00     0.014 A 
ATOM      4  C   UNL     1      -8.272  64.853   3.470  1.00  0.00     0.047 A 
ATOM      5  C   UNL     1      -6.162  64.788   4.643  1.00  0.00     0.001 A 
ATOM      6  C   UNL     1      -7.248  65.511   4.152  1.00  0.00     0.004 A 
ENDROOT
BRANCH   1   7
ATOM      7  C   UNL     1      -7.019  61.253   3.578  1.00  0.00     0.075 C 
ATOM      8  O   UNL     1      -6.700  60.509   4.543  1.00  0.00    -0.545 OA
ATOM      9  O   UNL     1      -7.275  60.668   2.344  1.00  0.00    -0.545 OA
ENDBRANCH   1   7
BRANCH   2  10
ATOM     10  O   UNL     1      -9.254  62.833   2.584  1.00  0.00    -0.507 OA
ATOM     11  H   UNL     1      -9.086  62.039   1.977  1.00  0.00     0.293 HD
ENDBRANCH   2  10
TORSDOF 2
ENDMDL
MODEL 8
REMARK VINA RESULT:    -4.438     11.602     12.836
REMARK INTER + INTRA:          -5.075
REMARK INTER:                  -4.851
REMARK INTRA:                  -0.224
REMARK UNBOUND:                -0.248
REMARK SMILES O=C([O-])c1ccccc1O
REMARK SMILES IDX 4 1 9 2 5 3 8 4 6 5 7 6 2 7 1 8 3 9 10 10
REMARK H PARENT 10 11
REMARK Flexibility Score: inf
ROOT
ATOM      1  C   UNL     1      -6.412  61.605   3.378  1.00  0.00     0.039 A 
ATOM      2  C   UNL     1      -5.291  62.321   3.862  1.00  0.00     0.124 A 
ATOM      3  C   UNL     1      -7.694  62.169   3.531  1.00  0.00     0.014 A 
ATOM      4  C   UNL     1      -5.471  63.568   4.479  1.00  0.00     0.047 A 
ATOM      5  C   UNL     1      -7.858  63.411   4.148  1.00  0.00     0.001 A 
ATOM      6  C   UNL     1      -6.749  64.110   4.621  1.00  0.00     0.004 A 
ENDROOT
BRANCH   1   7
ATOM      7  C   UNL     1      -6.268  60.282   2.717  1.00  0.00     0.075 C 
ATOM      8  O   UNL     1      -7.122  59.894   1.876  1.00  0.00    -0.545 OA
ATOM      9  O   UNL     1      -5.197  59.446   3.009  1.00  0.00    -0.545 OA
ENDBRANCH   1   7
BRANCH   2  10
ATOM     10  O   UNL     1      -4.002  61.803   3.733  1.00  0.00    -0.507 OA
ATOM     11  H   UNL     1      -3.821  60.944   3.227  1.00  0.00     0.293 HD
ENDBRANCH   2  10
TORSDOF 2
ENDMDL
MODEL 9
REMARK VINA RESULT:    -4.415     10.829     12.592
REMARK INTER + INTRA:          -5.050
REMARK INTER:                  -4.852
REMARK INTRA:                  -0.198
REMARK UNBOUND:                -0.248
REMARK SMILES O=C([O-])c1ccccc1O
REMARK SMILES IDX 4 1 9 2 5 3 8 4 6 5 7 6 2 7 1 8 3 9 10 10
REMARK H PARENT 10 11
REMARK Flexibility Score: inf
ROOT
ATOM      1  C   UNL     1       4.328  53.327   5.786  1.00  0.00     0.039 A 
ATOM      2  C   UNL     1       3.196  52.875   6.506  1.00  0.00     0.124 A 
ATOM      3  C   UNL     1       5.573  52.713   6.025  1.00  0.00     0.014 A 
ATOM      4  C   UNL     1       3.329  51.835   7.438  1.00  0.00     0.047 A 
ATOM      5  C   UNL     1       5.691  51.679   6.956  1.00  0.00     0.001 A 
ATOM      6  C   UNL     1       4.571  51.240   7.661  1.00  0.00     0.004 A 
ENDROOT
BRANCH   1   7
ATOM      7  C   UNL     1       4.233  54.425   4.789  1.00  0.00     0.075 C 
ATOM      8  O   UNL     1       5.121  54.563   3.908  1.00  0.00    -0.545 OA
ATOM      9  O   UNL     1       3.169  55.320   4.806  1.00  0.00    -0.545 OA
ENDBRANCH   1   7
BRANCH   2  10
ATOM     10  O   UNL     1       1.943  53.453   6.303  1.00  0.00    -0.507 OA
ATOM     11  H   UNL     1       1.383  53.239   5.485  1.00  0.00     0.293 HD
ENDBRANCH   2  10
TORSDOF 2
ENDMDL
