MODEL 1
REMARK VINA RESULT:    -6.383      0.000      0.000
REMARK INTER + INTRA:          -7.817
REMARK INTER:                  -7.503
REMARK INTRA:                  -0.314
REMARK UNBOUND:                -0.314
REMARK SMILES Oc1ccc(-c2[o+]c3cc(O)cc(O)c3cc2O)cc1
REMARK SMILES IDX 6 1 7 2 8 3 9 4 10 5 12 6 13 7 15 8 16 9 17 10 5 11 4 12
REMARK SMILES IDX 3 13 2 14 19 15 20 16 1 17 18 19 11 21 14 23
REMARK H PARENT 1 18 18 20 11 22 14 24
REMARK Flexibility Score: inf
ROOT
ATOM      1  C   UNL     1      21.065  13.100  20.950  1.00  0.00     0.401 A 
ATOM      2  O   UNL     1      21.003  12.934  19.630  1.00  0.00    -0.202 OA
ATOM      3  C   UNL     1      22.062  12.640  18.883  1.00  0.00     0.368 A 
ATOM      4  C   UNL     1      21.913  12.488  17.501  1.00  0.00     0.162 A 
ATOM      5  C   UNL     1      23.021  12.180  16.702  1.00  0.00     0.128 A 
ATOM      6  C   UNL     1      24.282  12.025  17.289  1.00  0.00     0.093 A 
ATOM      7  C   UNL     1      24.447  12.173  18.673  1.00  0.00     0.136 A 
ATOM      8  C   UNL     1      23.333  12.482  19.476  1.00  0.00     0.125 A 
ATOM      9  C   UNL     1      23.436  12.634  20.864  1.00  0.00     0.078 A 
ATOM     10  C   UNL     1      22.298  12.934  21.617  1.00  0.00     0.223 A 
ENDROOT
BRANCH   1  11
ATOM     11  C   UNL     1      19.818  13.436  21.675  1.00  0.00     0.084 A 
ATOM     12  C   UNL     1      19.511  14.761  22.031  1.00  0.00     0.022 A 
ATOM     13  C   UNL     1      18.314  15.057  22.693  1.00  0.00     0.047 A 
ATOM     14  C   UNL     1      17.407  14.037  22.996  1.00  0.00     0.115 A 
ATOM     15  C   UNL     1      18.892  12.419  21.963  1.00  0.00     0.022 A 
ATOM     16  C   UNL     1      17.698  12.717  22.627  1.00  0.00     0.047 A 
BRANCH  14  17
ATOM     17  O   UNL     1      16.221  14.345  23.657  1.00  0.00    -0.508 OA
ATOM     18  H   UNL     1      16.053  15.267  24.041  1.00  0.00     0.293 HD
ENDBRANCH  14  17
ENDBRANCH   1  11
BRANCH  10  19
ATOM     19  O   UNL     1      22.384  13.036  23.005  1.00  0.00    -0.500 OA
ATOM     20  H   UNL     1      23.115  12.569  23.528  1.00  0.00     0.294 HD
ENDBRANCH  10  19
BRANCH   5  21
ATOM     21  O   UNL     1      22.882  12.028  15.324  1.00  0.00    -0.507 OA
ATOM     22  H   UNL     1      22.003  12.218  14.856  1.00  0.00     0.293 HD
ENDBRANCH   5  21
BRANCH   7  23
ATOM     23  O   UNL     1      25.710  12.013  19.246  1.00  0.00    -0.507 OA
ATOM     24  H   UNL     1      26.155  11.106  19.304  1.00  0.00     0.293 HD
ENDBRANCH   7  23
TORSDOF 5
ENDMDL
MODEL 2
REMARK VINA RESULT:    -6.187      1.673      7.276
REMARK INTER + INTRA:          -7.586
REMARK INTER:                  -7.371
REMARK INTRA:                  -0.215
REMARK UNBOUND:                -0.314
REMARK SMILES Oc1ccc(-c2[o+]c3cc(O)cc(O)c3cc2O)cc1
REMARK SMILES IDX 6 1 7 2 8 3 9 4 10 5 12 6 13 7 15 8 16 9 17 10 5 11 4 12
REMARK SMILES IDX 3 13 2 14 19 15 20 16 1 17 18 19 11 21 14 23
REMARK H PARENT 1 18 18 20 11 22 14 24
REMARK Flexibility Score: inf
ROOT
ATOM      1  C   UNL     1      20.239  13.122  20.869  1.00  0.00     0.401 A 
ATOM      2  O   UNL     1      20.374  13.774  22.022  1.00  0.00    -0.202 OA
ATOM      3  C   UNL     1      19.359  14.006  22.851  1.00  0.00     0.368 A 
ATOM      4  C   UNL     1      19.584  14.704  24.041  1.00  0.00     0.162 A 
ATOM      5  C   UNL     1      18.524  14.956  24.921  1.00  0.00     0.128 A 
ATOM      6  C   UNL     1      17.235  14.509  24.606  1.00  0.00     0.093 A 
ATOM      7  C   UNL     1      16.995  13.807  23.416  1.00  0.00     0.136 A 
ATOM      8  C   UNL     1      18.061  13.553  22.533  1.00  0.00     0.125 A 
ATOM      9  C   UNL     1      17.882  12.850  21.335  1.00  0.00     0.078 A 
ATOM     10  C   UNL     1      18.975  12.619  20.495  1.00  0.00     0.223 A 
ENDROOT
BRANCH   1  11
ATOM     11  C   UNL     1      21.441  12.934  20.025  1.00  0.00     0.084 A 
ATOM     12  C   UNL     1      22.473  12.055  20.403  1.00  0.00     0.022 A 
ATOM     13  C   UNL     1      23.587  11.875  19.577  1.00  0.00     0.047 A 
ATOM     14  C   UNL     1      23.680  12.559  18.362  1.00  0.00     0.115 A 
ATOM     15  C   UNL     1      21.531  13.601  18.792  1.00  0.00     0.022 A 
ATOM     16  C   UNL     1      22.647  13.422  17.969  1.00  0.00     0.047 A 
BRANCH  14  17
ATOM     17  O   UNL     1      24.796  12.372  17.550  1.00  0.00    -0.508 OA
ATOM     18  H   UNL     1      25.539  13.060  17.504  1.00  0.00     0.293 HD
ENDBRANCH  14  17
ENDBRANCH   1  11
BRANCH  10  19
ATOM     19  O   UNL     1      18.813  11.876  19.326  1.00  0.00    -0.500 OA
ATOM     20  H   UNL     1      19.338  11.027  19.159  1.00  0.00     0.294 HD
ENDBRANCH  10  19
BRANCH   5  21
ATOM     21  O   UNL     1      18.738  15.651  26.108  1.00  0.00    -0.507 OA
ATOM     22  H   UNL     1      18.172  15.481  26.932  1.00  0.00     0.293 HD
ENDBRANCH   5  21
BRANCH   7  23
ATOM     23  O   UNL     1      15.706  13.365  23.116  1.00  0.00    -0.507 OA
ATOM     24  H   UNL     1      15.507  12.847  22.269  1.00  0.00     0.293 HD
ENDBRANCH   7  23
TORSDOF 5
ENDMDL
MODEL 3
REMARK VINA RESULT:    -5.844      1.520      2.754
REMARK INTER + INTRA:          -7.183
REMARK INTER:                  -6.864
REMARK INTRA:                  -0.319
REMARK UNBOUND:                -0.314
REMARK SMILES Oc1ccc(-c2[o+]c3cc(O)cc(O)c3cc2O)cc1
REMARK SMILES IDX 6 1 7 2 8 3 9 4 10 5 12 6 13 7 15 8 16 9 17 10 5 11 4 12
REMARK SMILES IDX 3 13 2 14 19 15 20 16 1 17 18 19 11 21 14 23
REMARK H PARENT 1 18 18 20 11 22 14 24
REMARK Flexibility Score: inf
ROOT
ATOM      1  C   UNL     1      20.369  13.436  21.274  1.00  0.00     0.401 A 
ATOM      2  O   UNL     1      21.650  13.075  21.331  1.00  0.00    -0.202 OA
ATOM      3  C   UNL     1      22.396  12.866  20.250  1.00  0.00     0.368 A 
ATOM      4  C   UNL     1      23.733  12.483  20.396  1.00  0.00     0.162 A 
ATOM      5  C   UNL     1      24.529  12.257  19.266  1.00  0.00     0.128 A 
ATOM      6  C   UNL     1      23.983  12.414  17.987  1.00  0.00     0.093 A 
ATOM      7  C   UNL     1      22.644  12.797  17.825  1.00  0.00     0.136 A 
ATOM      8  C   UNL     1      21.845  13.025  18.961  1.00  0.00     0.125 A 
ATOM      9  C   UNL     1      20.505  13.418  18.860  1.00  0.00     0.078 A 
ATOM     10  C   UNL     1      19.756  13.638  20.019  1.00  0.00     0.223 A 
ENDROOT
BRANCH   1  11
ATOM     11  C   UNL     1      19.638  13.631  22.547  1.00  0.00     0.084 A 
ATOM     12  C   UNL     1      19.589  14.887  23.180  1.00  0.00     0.022 A 
ATOM     13  C   UNL     1      18.871  15.051  24.369  1.00  0.00     0.047 A 
ATOM     14  C   UNL     1      18.186  13.971  24.934  1.00  0.00     0.115 A 
ATOM     15  C   UNL     1      18.930  12.555  23.108  1.00  0.00     0.022 A 
ATOM     16  C   UNL     1      18.215  12.722  24.298  1.00  0.00     0.047 A 
BRANCH  14  17
ATOM     17  O   UNL     1      17.477  14.149  26.119  1.00  0.00    -0.508 OA
ATOM     18  H   UNL     1      17.442  13.427  26.828  1.00  0.00     0.293 HD
ENDBRANCH  14  17
ENDBRANCH   1  11
BRANCH  10  19
ATOM     19  O   UNL     1      18.436  14.078  19.926  1.00  0.00    -0.500 OA
ATOM     20  H   UNL     1      17.708  13.704  20.522  1.00  0.00     0.294 HD
ENDBRANCH  10  19
BRANCH   5  21
ATOM     21  O   UNL     1      25.861  11.875  19.402  1.00  0.00    -0.507 OA
ATOM     22  H   UNL     1      26.498  11.881  18.614  1.00  0.00     0.293 HD
ENDBRANCH   5  21
BRANCH   7  23
ATOM     23  O   UNL     1      22.114  12.952  16.544  1.00  0.00    -0.507 OA
ATOM     24  H   UNL     1      22.710  13.039  15.730  1.00  0.00     0.293 HD
ENDBRANCH   7  23
TORSDOF 5
ENDMDL
MODEL 4
REMARK VINA RESULT:    -5.712      1.681      6.870
REMARK INTER + INTRA:          -7.028
REMARK INTER:                  -6.916
REMARK INTRA:                  -0.112
REMARK UNBOUND:                -0.314
REMARK SMILES Oc1ccc(-c2[o+]c3cc(O)cc(O)c3cc2O)cc1
REMARK SMILES IDX 6 1 7 2 8 3 9 4 10 5 12 6 13 7 15 8 16 9 17 10 5 11 4 12
REMARK SMILES IDX 3 13 2 14 19 15 20 16 1 17 18 19 11 21 14 23
REMARK H PARENT 1 18 18 20 11 22 14 24
REMARK Flexibility Score: inf
ROOT
ATOM      1  C   UNL     1      21.192  13.863  21.556  1.00  0.00     0.401 A 
ATOM      2  O   UNL     1      19.903  13.537  21.481  1.00  0.00    -0.202 OA
ATOM      3  C   UNL     1      19.022  13.825  22.435  1.00  0.00     0.368 A 
ATOM      4  C   UNL     1      17.686  13.443  22.283  1.00  0.00     0.162 A 
ATOM      5  C   UNL     1      16.750  13.738  23.282  1.00  0.00     0.128 A 
ATOM      6  C   UNL     1      17.154  14.418  24.436  1.00  0.00     0.093 A 
ATOM      7  C   UNL     1      18.490  14.808  24.603  1.00  0.00     0.136 A 
ATOM      8  C   UNL     1      19.431  14.512  23.599  1.00  0.00     0.125 A 
ATOM      9  C   UNL     1      20.776  14.884  23.707  1.00  0.00     0.078 A 
ATOM     10  C   UNL     1      21.669  14.571  22.679  1.00  0.00     0.223 A 
ENDROOT
BRANCH   1  11
ATOM     11  C   UNL     1      22.078  13.479  20.433  1.00  0.00     0.084 A 
ATOM     12  C   UNL     1      23.232  12.702  20.641  1.00  0.00     0.022 A 
ATOM     13  C   UNL     1      24.039  12.331  19.561  1.00  0.00     0.047 A 
ATOM     14  C   UNL     1      23.700  12.721  18.262  1.00  0.00     0.115 A 
ATOM     15  C   UNL     1      21.731  13.849  19.123  1.00  0.00     0.022 A 
ATOM     16  C   UNL     1      22.541  13.479  18.045  1.00  0.00     0.047 A 
BRANCH  14  17
ATOM     17  O   UNL     1      24.514  12.347  17.196  1.00  0.00    -0.508 OA
ATOM     18  H   UNL     1      25.428  11.937  17.347  1.00  0.00     0.293 HD
ENDBRANCH  14  17
ENDBRANCH   1  11
BRANCH  10  19
ATOM     19  O   UNL     1      22.999  14.984  22.758  1.00  0.00    -0.500 OA
ATOM     20  H   UNL     1      23.693  14.446  23.261  1.00  0.00     0.294 HD
ENDBRANCH  10  19
BRANCH   5  21
ATOM     21  O   UNL     1      15.417  13.360  23.138  1.00  0.00    -0.507 OA
ATOM     22  H   UNL     1      15.089  12.449  23.438  1.00  0.00     0.293 HD
ENDBRANCH   5  21
BRANCH   7  23
ATOM     23  O   UNL     1      18.879  15.487  25.759  1.00  0.00    -0.507 OA
ATOM     24  H   UNL     1      18.238  15.631  26.530  1.00  0.00     0.293 HD
ENDBRANCH   7  23
TORSDOF 5
ENDMDL
MODEL 5
REMARK VINA RESULT:    -5.620      1.485      6.619
REMARK INTER + INTRA:          -6.920
REMARK INTER:                  -7.169
REMARK INTRA:                   0.249
REMARK UNBOUND:                -0.314
REMARK SMILES Oc1ccc(-c2[o+]c3cc(O)cc(O)c3cc2O)cc1
REMARK SMILES IDX 6 1 7 2 8 3 9 4 10 5 12 6 13 7 15 8 16 9 17 10 5 11 4 12
REMARK SMILES IDX 3 13 2 14 19 15 20 16 1 17 18 19 11 21 14 23
REMARK H PARENT 1 18 18 20 11 22 14 24
REMARK Flexibility Score: inf
ROOT
ATOM      1  C   UNL     1      21.347  12.379  20.799  1.00  0.00     0.401 A 
ATOM      2  O   UNL     1      20.049  12.672  20.773  1.00  0.00    -0.202 OA
ATOM      3  C   UNL     1      19.289  12.713  21.864  1.00  0.00     0.368 A 
ATOM      4  C   UNL     1      17.930  13.024  21.750  1.00  0.00     0.162 A 
ATOM      5  C   UNL     1      17.119  13.067  22.891  1.00  0.00     0.128 A 
ATOM      6  C   UNL     1      17.671  12.798  24.149  1.00  0.00     0.093 A 
ATOM      7  C   UNL     1      19.031  12.486  24.279  1.00  0.00     0.136 A 
ATOM      8  C   UNL     1      19.847  12.443  23.132  1.00  0.00     0.125 A 
ATOM      9  C   UNL     1      21.213  12.145  23.202  1.00  0.00     0.078 A 
ATOM     10  C   UNL     1      21.980  12.121  22.034  1.00  0.00     0.223 A 
ENDROOT
BRANCH   1  11
ATOM     11  C   UNL     1      22.087  12.355  19.517  1.00  0.00     0.084 A 
ATOM     12  C   UNL     1      23.450  12.697  19.449  1.00  0.00     0.022 A 
ATOM     13  C   UNL     1      24.132  12.643  18.229  1.00  0.00     0.047 A 
ATOM     14  C   UNL     1      23.469  12.237  17.068  1.00  0.00     0.115 A 
ATOM     15  C   UNL     1      21.432  11.927  18.350  1.00  0.00     0.022 A 
ATOM     16  C   UNL     1      22.116  11.875  17.132  1.00  0.00     0.047 A 
BRANCH  14  17
ATOM     17  O   UNL     1      24.161  12.189  15.860  1.00  0.00    -0.508 OA
ATOM     18  H   UNL     1      24.782  12.937  15.576  1.00  0.00     0.293 HD
ENDBRANCH  14  17
ENDBRANCH   1  11
BRANCH  10  19
ATOM     19  O   UNL     1      23.351  11.875  22.103  1.00  0.00    -0.500 OA
ATOM     20  H   UNL     1      23.836  11.814  22.989  1.00  0.00     0.294 HD
ENDBRANCH  10  19
BRANCH   5  21
ATOM     21  O   UNL     1      15.765  13.375  22.786  1.00  0.00    -0.507 OA
ATOM     22  H   UNL     1      15.441  14.335  22.758  1.00  0.00     0.293 HD
ENDBRANCH   5  21
BRANCH   7  23
ATOM     23  O   UNL     1      19.569  12.222  25.539  1.00  0.00    -0.507 OA
ATOM     24  H   UNL     1      20.552  12.016  25.664  1.00  0.00     0.293 HD
ENDBRANCH   7  23
TORSDOF 5
ENDMDL
MODEL 6
REMARK VINA RESULT:    -5.569      2.096      6.982
REMARK INTER + INTRA:          -6.859
REMARK INTER:                  -6.712
REMARK INTRA:                  -0.148
REMARK UNBOUND:                -0.314
REMARK SMILES Oc1ccc(-c2[o+]c3cc(O)cc(O)c3cc2O)cc1
REMARK SMILES IDX 6 1 7 2 8 3 9 4 10 5 12 6 13 7 15 8 16 9 17 10 5 11 4 12
REMARK SMILES IDX 3 13 2 14 19 15 20 16 1 17 18 19 11 21 14 23
REMARK H PARENT 1 18 18 20 11 22 14 24
REMARK Flexibility Score: inf
ROOT
ATOM      1  C   UNL     1      21.784  13.309  20.814  1.00  0.00     0.401 A 
ATOM      2  O   UNL     1      22.373  14.088  21.719  1.00  0.00    -0.202 OA
ATOM      3  C   UNL     1      21.768  14.500  22.829  1.00  0.00     0.368 A 
ATOM      4  C   UNL     1      22.456  15.322  23.728  1.00  0.00     0.162 A 
ATOM      5  C   UNL     1      21.829  15.765  24.899  1.00  0.00     0.128 A 
ATOM      6  C   UNL     1      20.510  15.384  25.170  1.00  0.00     0.093 A 
ATOM      7  C   UNL     1      19.808  14.560  24.280  1.00  0.00     0.136 A 
ATOM      8  C   UNL     1      20.439  14.114  23.103  1.00  0.00     0.125 A 
ATOM      9  C   UNL     1      19.790  13.283  22.181  1.00  0.00     0.078 A 
ATOM     10  C   UNL     1      20.463  12.864  21.030  1.00  0.00     0.223 A 
ENDROOT
BRANCH   1  11
ATOM     11  C   UNL     1      22.557  12.922  19.611  1.00  0.00     0.084 A 
ATOM     12  C   UNL     1      22.110  13.243  18.317  1.00  0.00     0.022 A 
ATOM     13  C   UNL     1      22.871  12.889  17.198  1.00  0.00     0.047 A 
ATOM     14  C   UNL     1      24.089  12.223  17.357  1.00  0.00     0.115 A 
ATOM     15  C   UNL     1      23.793  12.272  19.765  1.00  0.00     0.022 A 
ATOM     16  C   UNL     1      24.551  11.918  18.645  1.00  0.00     0.047 A 
BRANCH  14  17
ATOM     17  O   UNL     1      24.835  11.875  16.234  1.00  0.00    -0.508 OA
ATOM     18  H   UNL     1      25.744  12.286  16.054  1.00  0.00     0.293 HD
ENDBRANCH  14  17
ENDBRANCH   1  11
BRANCH  10  19
ATOM     19  O   UNL     1      19.840  11.995  20.134  1.00  0.00    -0.500 OA
ATOM     20  H   UNL     1      19.464  11.103  20.432  1.00  0.00     0.294 HD
ENDBRANCH  10  19
BRANCH   5  21
ATOM     21  O   UNL     1      22.507  16.584  25.799  1.00  0.00    -0.507 OA
ATOM     22  H   UNL     1      23.286  16.239  26.347  1.00  0.00     0.293 HD
ENDBRANCH   5  21
BRANCH   7  23
ATOM     23  O   UNL     1      18.494  14.187  24.564  1.00  0.00    -0.507 OA
ATOM     24  H   UNL     1      18.256  13.692  25.414  1.00  0.00     0.293 HD
ENDBRANCH   7  23
TORSDOF 5
ENDMDL
MODEL 7
REMARK VINA RESULT:    -5.246     10.319     12.347
REMARK INTER + INTRA:          -6.480
REMARK INTER:                  -6.830
REMARK INTRA:                   0.349
REMARK UNBOUND:                -0.314
REMARK SMILES Oc1ccc(-c2[o+]c3cc(O)cc(O)c3cc2O)cc1
REMARK SMILES IDX 6 1 7 2 8 3 9 4 10 5 12 6 13 7 15 8 16 9 17 10 5 11 4 12
REMARK SMILES IDX 3 13 2 14 19 15 20 16 1 17 18 19 11 21 14 23
REMARK H PARENT 1 18 18 20 11 22 14 24
REMARK Flexibility Score: inf
ROOT
ATOM      1  C   UNL     1      14.632  22.941  18.736  1.00  0.00     0.401 A 
ATOM      2  O   UNL     1      14.962  22.929  17.446  1.00  0.00    -0.202 OA
ATOM      3  C   UNL     1      15.011  21.818  16.717  1.00  0.00     0.368 A 
ATOM      4  C   UNL     1      15.373  21.891  15.368  1.00  0.00     0.162 A 
ATOM      5  C   UNL     1      15.431  20.728  14.590  1.00  0.00     0.128 A 
ATOM      6  C   UNL     1      15.127  19.489  15.165  1.00  0.00     0.093 A 
ATOM      7  C   UNL     1      14.762  19.400  16.515  1.00  0.00     0.136 A 
ATOM      8  C   UNL     1      14.703  20.570  17.297  1.00  0.00     0.125 A 
ATOM      9  C   UNL     1      14.338  20.543  18.649  1.00  0.00     0.078 A 
ATOM     10  C   UNL     1      14.288  21.733  19.379  1.00  0.00     0.223 A 
ENDROOT
BRANCH   1  11
ATOM     11  C   UNL     1      14.622  24.241  19.446  1.00  0.00     0.084 A 
ATOM     12  C   UNL     1      13.876  24.427  20.623  1.00  0.00     0.022 A 
ATOM     13  C   UNL     1      13.902  25.657  21.289  1.00  0.00     0.047 A 
ATOM     14  C   UNL     1      14.680  26.709  20.796  1.00  0.00     0.115 A 
ATOM     15  C   UNL     1      15.418  25.294  18.967  1.00  0.00     0.022 A 
ATOM     16  C   UNL     1      15.441  26.524  19.633  1.00  0.00     0.047 A 
BRANCH  14  17
ATOM     17  O   UNL     1      14.695  27.928  21.468  1.00  0.00    -0.508 OA
ATOM     18  H   UNL     1      15.333  28.670  21.206  1.00  0.00     0.293 HD
ENDBRANCH  14  17
ENDBRANCH   1  11
BRANCH  10  19
ATOM     19  O   UNL     1      13.876  21.719  20.711  1.00  0.00    -0.500 OA
ATOM     20  H   UNL     1      14.264  21.067  21.381  1.00  0.00     0.294 HD
ENDBRANCH  10  19
BRANCH   5  21
ATOM     21  O   UNL     1      15.791  20.792  13.246  1.00  0.00    -0.507 OA
ATOM     22  H   UNL     1      16.626  21.280  12.943  1.00  0.00     0.293 HD
ENDBRANCH   5  21
BRANCH   7  23
ATOM     23  O   UNL     1      14.460  18.159  17.075  1.00  0.00    -0.507 OA
ATOM     24  H   UNL     1      13.588  17.995  17.564  1.00  0.00     0.293 HD
ENDBRANCH   7  23
TORSDOF 5
ENDMDL
MODEL 8
REMARK VINA RESULT:    -5.193      3.476      6.584
REMARK INTER + INTRA:          -6.418
REMARK INTER:                  -6.098
REMARK INTRA:                  -0.320
REMARK UNBOUND:                -0.314
REMARK SMILES Oc1ccc(-c2[o+]c3cc(O)cc(O)c3cc2O)cc1
REMARK SMILES IDX 6 1 7 2 8 3 9 4 10 5 12 6 13 7 15 8 16 9 17 10 5 11 4 12
REMARK SMILES IDX 3 13 2 14 19 15 20 16 1 17 18 19 11 21 14 23
REMARK H PARENT 1 18 18 20 11 22 14 24
REMARK Flexibility Score: inf
ROOT
ATOM      1  C   UNL     1      21.209  14.896  24.198  1.00  0.00     0.401 A 
ATOM      2  O   UNL     1      21.153  14.247  23.036  1.00  0.00    -0.202 OA
ATOM      3  C   UNL     1      20.014  13.850  22.478  1.00  0.00     0.368 A 
ATOM      4  C   UNL     1      20.042  13.169  21.257  1.00  0.00     0.162 A 
ATOM      5  C   UNL     1      18.849  12.743  20.660  1.00  0.00     0.128 A 
ATOM      6  C   UNL     1      17.625  13.000  21.287  1.00  0.00     0.093 A 
ATOM      7  C   UNL     1      17.581  13.682  22.511  1.00  0.00     0.136 A 
ATOM      8  C   UNL     1      18.780  14.111  23.111  1.00  0.00     0.125 A 
ATOM      9  C   UNL     1      18.797  14.804  24.328  1.00  0.00     0.078 A 
ATOM     10  C   UNL     1      20.014  15.213  24.878  1.00  0.00     0.223 A 
ENDROOT
BRANCH   1  11
ATOM     11  C   UNL     1      22.539  15.278  24.725  1.00  0.00     0.084 A 
ATOM     12  C   UNL     1      23.229  14.463  25.640  1.00  0.00     0.022 A 
ATOM     13  C   UNL     1      24.495  14.834  26.103  1.00  0.00     0.047 A 
ATOM     14  C   UNL     1      25.092  16.014  25.652  1.00  0.00     0.115 A 
ATOM     15  C   UNL     1      23.154  16.452  24.258  1.00  0.00     0.022 A 
ATOM     16  C   UNL     1      24.419  16.822  24.725  1.00  0.00     0.047 A 
BRANCH  14  17
ATOM     17  O   UNL     1      26.352  16.372  26.123  1.00  0.00    -0.508 OA
ATOM     18  H   UNL     1      26.644  17.341  26.172  1.00  0.00     0.293 HD
ENDBRANCH  14  17
ENDBRANCH   1  11
BRANCH  10  19
ATOM     19  O   UNL     1      20.034  15.947  26.063  1.00  0.00    -0.500 OA
ATOM     20  H   UNL     1      19.215  16.442  26.396  1.00  0.00     0.294 HD
ENDBRANCH  10  19
BRANCH   5  21
ATOM     21  O   UNL     1      18.868  12.063  19.444  1.00  0.00    -0.507 OA
ATOM     22  H   UNL     1      18.461  11.140  19.346  1.00  0.00     0.293 HD
ENDBRANCH   5  21
BRANCH   7  23
ATOM     23  O   UNL     1      16.353  13.934  23.125  1.00  0.00    -0.507 OA
ATOM     24  H   UNL     1      15.585  14.358  22.620  1.00  0.00     0.293 HD
ENDBRANCH   7  23
TORSDOF 5
ENDMDL
