MODEL 1
REMARK VINA RESULT:    -6.692      0.000      0.000
REMARK INTER + INTRA:          -8.165
REMARK INTER:                  -8.062
REMARK INTRA:                  -0.104
REMARK UNBOUND:                -0.104
REMARK SMILES O=c1c(O)c(-c2ccc(O)c(O)c2)oc2cc(O)cc(O)c12
REMARK SMILES IDX 5 1 3 2 2 3 1 4 22 5 20 6 19 7 17 8 16 9 15 10 14 11 6 12
REMARK SMILES IDX 7 13 8 14 9 15 13 16 11 17 10 18 12 20 4 22 21 24 18 26
REMARK H PARENT 10 19 12 21 4 23 21 25 18 27
REMARK Flexibility Score: inf
ROOT
ATOM      1  C   UNL     1      -6.783  25.229  34.531  1.00  0.00     0.180 A 
ATOM      2  C   UNL     1      -7.350  24.668  33.374  1.00  0.00     0.208 A 
ATOM      3  C   UNL     1      -8.205  23.562  33.501  1.00  0.00     0.238 A 
ATOM      4  O   UNL     1      -8.666  23.032  32.456  1.00  0.00    -0.285 OA
ATOM      5  C   UNL     1      -8.497  23.041  34.785  1.00  0.00     0.111 A 
ATOM      6  C   UNL     1      -9.381  21.949  35.034  1.00  0.00     0.134 A 
ATOM      7  C   UNL     1      -9.494  21.433  36.331  1.00  0.00     0.093 A 
ATOM      8  C   UNL     1      -8.804  22.013  37.398  1.00  0.00     0.123 A 
ATOM      9  C   UNL     1      -7.983  23.117  37.175  1.00  0.00     0.094 A 
ATOM     10  C   UNL     1      -7.823  23.630  35.886  1.00  0.00     0.146 A 
ATOM     11  O   UNL     1      -7.024  24.677  35.714  1.00  0.00    -0.452 OA
ENDROOT
BRANCH   1  12
ATOM     12  C   UNL     1      -5.893  26.410  34.480  1.00  0.00     0.025 A 
ATOM     13  C   UNL     1      -6.285  27.600  35.114  1.00  0.00     0.016 A 
ATOM     14  C   UNL     1      -5.471  28.734  35.060  1.00  0.00     0.051 A 
ATOM     15  C   UNL     1      -4.258  28.699  34.358  1.00  0.00     0.157 A 
ATOM     16  C   UNL     1      -4.685  26.387  33.758  1.00  0.00     0.062 A 
ATOM     17  C   UNL     1      -3.868  27.525  33.702  1.00  0.00     0.158 A 
BRANCH  15  18
ATOM     18  O   UNL     1      -3.442  29.827  34.304  1.00  0.00    -0.504 OA
ATOM     19  H   UNL     1      -3.761  30.692  33.885  1.00  0.00     0.293 HD
ENDBRANCH  15  18
BRANCH  17  20
ATOM     20  O   UNL     1      -2.668  27.498  32.993  1.00  0.00    -0.504 OA
ATOM     21  H   UNL     1      -2.213  28.350  32.689  1.00  0.00     0.293 HD
ENDBRANCH  17  20
ENDBRANCH   1  12
BRANCH   2  22
ATOM     22  O   UNL     1      -7.031  25.185  32.114  1.00  0.00    -0.502 OA
ATOM     23  H   UNL     1      -7.485  26.005  31.732  1.00  0.00     0.293 HD
ENDBRANCH   2  22
BRANCH   6  24
ATOM     24  O   UNL     1     -10.186  21.358  34.055  1.00  0.00    -0.507 OA
ATOM     25  H   UNL     1     -10.015  21.409  33.063  1.00  0.00     0.293 HD
ENDBRANCH   6  24
BRANCH   8  26
ATOM     26  O   UNL     1      -8.933  21.504  38.689  1.00  0.00    -0.508 OA
ATOM     27  H   UNL     1      -8.275  21.744  39.422  1.00  0.00     0.293 HD
ENDBRANCH   8  26
TORSDOF 6
ENDMDL
MODEL 2
REMARK VINA RESULT:    -6.037      1.721      7.266
REMARK INTER + INTRA:          -7.376
REMARK INTER:                  -7.182
REMARK INTRA:                  -0.194
REMARK UNBOUND:                -0.104
REMARK SMILES O=c1c(O)c(-c2ccc(O)c(O)c2)oc2cc(O)cc(O)c12
REMARK SMILES IDX 5 1 3 2 2 3 1 4 22 5 20 6 19 7 17 8 16 9 15 10 14 11 6 12
REMARK SMILES IDX 7 13 8 14 9 15 13 16 11 17 10 18 12 20 4 22 21 24 18 26
REMARK H PARENT 10 19 12 21 4 23 21 25 18 27
REMARK Flexibility Score: inf
ROOT
ATOM      1  C   UNL     1      -5.991  25.710  33.946  1.00  0.00     0.180 A 
ATOM      2  C   UNL     1      -6.294  27.024  34.343  1.00  0.00     0.208 A 
ATOM      3  C   UNL     1      -5.271  27.985  34.355  1.00  0.00     0.238 A 
ATOM      4  O   UNL     1      -5.537  29.146  34.763  1.00  0.00    -0.285 OA
ATOM      5  C   UNL     1      -3.961  27.626  33.953  1.00  0.00     0.111 A 
ATOM      6  C   UNL     1      -2.857  28.528  33.888  1.00  0.00     0.134 A 
ATOM      7  C   UNL     1      -1.578  28.035  33.604  1.00  0.00     0.093 A 
ATOM      8  C   UNL     1      -1.376  26.683  33.317  1.00  0.00     0.123 A 
ATOM      9  C   UNL     1      -2.457  25.805  33.320  1.00  0.00     0.094 A 
ATOM     10  C   UNL     1      -3.739  26.261  33.636  1.00  0.00     0.146 A 
ATOM     11  O   UNL     1      -4.740  25.388  33.638  1.00  0.00    -0.452 OA
ENDROOT
BRANCH   1  12
ATOM     12  C   UNL     1      -7.021  24.649  33.883  1.00  0.00     0.025 A 
ATOM     13  C   UNL     1      -7.447  24.172  32.633  1.00  0.00     0.016 A 
ATOM     14  C   UNL     1      -8.434  23.185  32.549  1.00  0.00     0.051 A 
ATOM     15  C   UNL     1      -9.019  22.672  33.715  1.00  0.00     0.157 A 
ATOM     16  C   UNL     1      -7.627  24.145  35.049  1.00  0.00     0.062 A 
ATOM     17  C   UNL     1      -8.618  23.157  34.967  1.00  0.00     0.158 A 
BRANCH  15  18
ATOM     18  O   UNL     1     -10.001  21.688  33.636  1.00  0.00    -0.504 OA
ATOM     19  H   UNL     1     -10.759  21.747  32.967  1.00  0.00     0.293 HD
ENDBRANCH  15  18
BRANCH  17  20
ATOM     20  O   UNL     1      -9.212  22.655  36.123  1.00  0.00    -0.504 OA
ATOM     21  H   UNL     1      -9.074  23.096  37.024  1.00  0.00     0.293 HD
ENDBRANCH  17  20
ENDBRANCH   1  12
BRANCH   2  22
ATOM     22  O   UNL     1      -7.588  27.352  34.757  1.00  0.00    -0.502 OA
ATOM     23  H   UNL     1      -8.276  26.649  35.001  1.00  0.00     0.293 HD
ENDBRANCH   2  22
BRANCH   6  24
ATOM     24  O   UNL     1      -2.969  29.910  34.067  1.00  0.00    -0.507 OA
ATOM     25  H   UNL     1      -2.479  30.441  34.771  1.00  0.00     0.293 HD
ENDBRANCH   6  24
BRANCH   8  26
ATOM     26  O   UNL     1      -0.102  26.203  33.019  1.00  0.00    -0.508 OA
ATOM     27  H   UNL     1       0.716  26.799  33.073  1.00  0.00     0.293 HD
ENDBRANCH   8  26
TORSDOF 6
ENDMDL
MODEL 3
REMARK VINA RESULT:    -5.769      6.340     10.083
REMARK INTER + INTRA:          -7.052
REMARK INTER:                  -6.812
REMARK INTRA:                  -0.240
REMARK UNBOUND:                -0.104
REMARK SMILES O=c1c(O)c(-c2ccc(O)c(O)c2)oc2cc(O)cc(O)c12
REMARK SMILES IDX 5 1 3 2 2 3 1 4 22 5 20 6 19 7 17 8 16 9 15 10 14 11 6 12
REMARK SMILES IDX 7 13 8 14 9 15 13 16 11 17 10 18 12 20 4 22 21 24 18 26
REMARK H PARENT 10 19 12 21 4 23 21 25 18 27
REMARK Flexibility Score: inf
ROOT
ATOM      1  C   UNL     1       0.170  31.905  35.618  1.00  0.00     0.180 A 
ATOM      2  C   UNL     1       1.141  30.891  35.561  1.00  0.00     0.208 A 
ATOM      3  C   UNL     1       0.760  29.606  35.146  1.00  0.00     0.238 A 
ATOM      4  O   UNL     1       1.623  28.689  35.149  1.00  0.00    -0.285 OA
ATOM      5  C   UNL     1      -0.583  29.353  34.778  1.00  0.00     0.111 A 
ATOM      6  C   UNL     1      -1.072  28.098  34.304  1.00  0.00     0.134 A 
ATOM      7  C   UNL     1      -2.445  27.927  34.094  1.00  0.00     0.093 A 
ATOM      8  C   UNL     1      -3.339  28.985  34.276  1.00  0.00     0.123 A 
ATOM      9  C   UNL     1      -2.864  30.230  34.681  1.00  0.00     0.094 A 
ATOM     10  C   UNL     1      -1.504  30.421  34.935  1.00  0.00     0.146 A 
ATOM     11  O   UNL     1      -1.094  31.622  35.329  1.00  0.00    -0.452 OA
ENDROOT
BRANCH   1  12
ATOM     12  C   UNL     1       0.500  33.291  36.021  1.00  0.00     0.025 A 
ATOM     13  C   UNL     1       1.237  34.107  35.148  1.00  0.00     0.016 A 
ATOM     14  C   UNL     1       1.580  35.412  35.516  1.00  0.00     0.051 A 
ATOM     15  C   UNL     1       1.202  35.913  36.769  1.00  0.00     0.157 A 
ATOM     16  C   UNL     1       0.142  33.792  37.286  1.00  0.00     0.062 A 
ATOM     17  C   UNL     1       0.486  35.099  37.657  1.00  0.00     0.158 A 
BRANCH  15  18
ATOM     18  O   UNL     1       1.539  37.213  37.139  1.00  0.00    -0.504 OA
ATOM     19  H   UNL     1       2.375  37.664  36.788  1.00  0.00     0.293 HD
ENDBRANCH  15  18
BRANCH  17  20
ATOM     20  O   UNL     1       0.124  35.597  38.908  1.00  0.00    -0.504 OA
ATOM     21  H   UNL     1      -0.440  35.054  39.551  1.00  0.00     0.293 HD
ENDBRANCH  17  20
ENDBRANCH   1  12
BRANCH   2  22
ATOM     22  O   UNL     1       2.458  31.156  35.951  1.00  0.00    -0.502 OA
ATOM     23  H   UNL     1       3.239  30.588  35.648  1.00  0.00     0.293 HD
ENDBRANCH   2  22
BRANCH   6  24
ATOM     24  O   UNL     1      -0.253  27.007  34.002  1.00  0.00    -0.507 OA
ATOM     25  H   UNL     1       0.156  26.826  33.098  1.00  0.00     0.293 HD
ENDBRANCH   6  24
BRANCH   8  26
ATOM     26  O   UNL     1      -4.703  28.811  34.049  1.00  0.00    -0.508 OA
ATOM     27  H   UNL     1      -5.091  27.902  33.825  1.00  0.00     0.293 HD
ENDBRANCH   8  26
TORSDOF 6
ENDMDL
MODEL 4
REMARK VINA RESULT:    -5.756      3.663      6.249
REMARK INTER + INTRA:          -7.037
REMARK INTER:                  -6.772
REMARK INTRA:                  -0.266
REMARK UNBOUND:                -0.104
REMARK SMILES O=c1c(O)c(-c2ccc(O)c(O)c2)oc2cc(O)cc(O)c12
REMARK SMILES IDX 5 1 3 2 2 3 1 4 22 5 20 6 19 7 17 8 16 9 15 10 14 11 6 12
REMARK SMILES IDX 7 13 8 14 9 15 13 16 11 17 10 18 12 20 4 22 21 24 18 26
REMARK H PARENT 10 19 12 21 4 23 21 25 18 27
REMARK Flexibility Score: inf
ROOT
ATOM      1  C   UNL     1      -4.146  24.927  32.072  1.00  0.00     0.180 A 
ATOM      2  C   UNL     1      -3.489  26.139  32.343  1.00  0.00     0.208 A 
ATOM      3  C   UNL     1      -4.044  27.019  33.285  1.00  0.00     0.238 A 
ATOM      4  O   UNL     1      -3.480  28.127  33.484  1.00  0.00    -0.285 OA
ATOM      5  C   UNL     1      -5.240  26.669  33.958  1.00  0.00     0.111 A 
ATOM      6  C   UNL     1      -5.870  27.466  34.960  1.00  0.00     0.134 A 
ATOM      7  C   UNL     1      -7.119  27.083  35.463  1.00  0.00     0.093 A 
ATOM      8  C   UNL     1      -7.730  25.898  35.047  1.00  0.00     0.123 A 
ATOM      9  C   UNL     1      -7.096  25.083  34.112  1.00  0.00     0.094 A 
ATOM     10  C   UNL     1      -5.866  25.457  33.565  1.00  0.00     0.146 A 
ATOM     11  O   UNL     1      -5.300  24.657  32.669  1.00  0.00    -0.452 OA
ENDROOT
BRANCH   1  12
ATOM     12  C   UNL     1      -3.609  23.938  31.110  1.00  0.00     0.025 A 
ATOM     13  C   UNL     1      -2.501  23.154  31.472  1.00  0.00     0.016 A 
ATOM     14  C   UNL     1      -1.964  22.229  30.572  1.00  0.00     0.051 A 
ATOM     15  C   UNL     1      -2.517  22.086  29.293  1.00  0.00     0.157 A 
ATOM     16  C   UNL     1      -4.147  23.805  29.817  1.00  0.00     0.062 A 
ATOM     17  C   UNL     1      -3.607  22.879  28.913  1.00  0.00     0.158 A 
BRANCH  15  18
ATOM     18  O   UNL     1      -1.986  21.164  28.394  1.00  0.00    -0.504 OA
ATOM     19  H   UNL     1      -1.243  21.416  27.752  1.00  0.00     0.293 HD
ENDBRANCH  15  18
BRANCH  17  20
ATOM     20  O   UNL     1      -4.146  22.744  27.634  1.00  0.00    -0.504 OA
ATOM     21  H   UNL     1      -4.825  23.403  27.273  1.00  0.00     0.293 HD
ENDBRANCH  17  20
ENDBRANCH   1  12
BRANCH   2  22
ATOM     22  O   UNL     1      -2.321  26.476  31.652  1.00  0.00    -0.502 OA
ATOM     23  H   UNL     1      -1.826  25.814  31.067  1.00  0.00     0.293 HD
ENDBRANCH   2  22
BRANCH   6  24
ATOM     24  O   UNL     1      -5.301  28.618  35.511  1.00  0.00    -0.507 OA
ATOM     25  H   UNL     1      -4.734  28.639  36.344  1.00  0.00     0.293 HD
ENDBRANCH   6  24
BRANCH   8  26
ATOM     26  O   UNL     1      -8.966  25.515  35.564  1.00  0.00    -0.508 OA
ATOM     27  H   UNL     1      -9.535  26.156  36.106  1.00  0.00     0.293 HD
ENDBRANCH   8  26
TORSDOF 6
ENDMDL
MODEL 5
REMARK VINA RESULT:    -5.694      2.769      4.510
REMARK INTER + INTRA:          -6.963
REMARK INTER:                  -6.864
REMARK INTRA:                  -0.099
REMARK UNBOUND:                -0.104
REMARK SMILES O=c1c(O)c(-c2ccc(O)c(O)c2)oc2cc(O)cc(O)c12
REMARK SMILES IDX 5 1 3 2 2 3 1 4 22 5 20 6 19 7 17 8 16 9 15 10 14 11 6 12
REMARK SMILES IDX 7 13 8 14 9 15 13 16 11 17 10 18 12 20 4 22 21 24 18 26
REMARK H PARENT 10 19 12 21 4 23 21 25 18 27
REMARK Flexibility Score: inf
ROOT
ATOM      1  C   UNL     1      -3.535  27.656  33.902  1.00  0.00     0.180 A 
ATOM      2  C   UNL     1      -3.323  26.809  32.800  1.00  0.00     0.208 A 
ATOM      3  C   UNL     1      -4.337  25.914  32.424  1.00  0.00     0.238 A 
ATOM      4  O   UNL     1      -4.120  25.121  31.471  1.00  0.00    -0.285 OA
ATOM      5  C   UNL     1      -5.557  25.888  33.143  1.00  0.00     0.111 A 
ATOM      6  C   UNL     1      -6.668  25.051  32.825  1.00  0.00     0.134 A 
ATOM      7  C   UNL     1      -7.773  25.014  33.683  1.00  0.00     0.093 A 
ATOM      8  C   UNL     1      -7.836  25.835  34.812  1.00  0.00     0.123 A 
ATOM      9  C   UNL     1      -6.782  26.700  35.098  1.00  0.00     0.094 A 
ATOM     10  C   UNL     1      -5.649  26.731  34.281  1.00  0.00     0.146 A 
ATOM     11  O   UNL     1      -4.662  27.563  34.595  1.00  0.00    -0.452 OA
ENDROOT
BRANCH   1  12
ATOM     12  C   UNL     1      -2.523  28.643  34.342  1.00  0.00     0.025 A 
ATOM     13  C   UNL     1      -2.834  30.013  34.309  1.00  0.00     0.016 A 
ATOM     14  C   UNL     1      -1.886  30.964  34.700  1.00  0.00     0.051 A 
ATOM     15  C   UNL     1      -0.611  30.559  35.116  1.00  0.00     0.157 A 
ATOM     16  C   UNL     1      -1.234  28.244  34.740  1.00  0.00     0.062 A 
ATOM     17  C   UNL     1      -0.283  29.197  35.131  1.00  0.00     0.158 A 
BRANCH  15  18
ATOM     18  O   UNL     1       0.335  31.503  35.508  1.00  0.00    -0.504 OA
ATOM     19  H   UNL     1       1.328  31.306  35.472  1.00  0.00     0.293 HD
ENDBRANCH  15  18
BRANCH  17  20
ATOM     20  O   UNL     1       0.992  28.800  35.532  1.00  0.00    -0.504 OA
ATOM     21  H   UNL     1       1.466  29.246  36.307  1.00  0.00     0.293 HD
ENDBRANCH  17  20
ENDBRANCH   1  12
BRANCH   2  22
ATOM     22  O   UNL     1      -2.103  26.835  32.118  1.00  0.00    -0.502 OA
ATOM     23  H   UNL     1      -1.232  26.554  32.551  1.00  0.00     0.293 HD
ENDBRANCH   2  22
BRANCH   6  24
ATOM     24  O   UNL     1      -6.744  24.262  31.673  1.00  0.00    -0.507 OA
ATOM     25  H   UNL     1      -6.526  23.278  31.634  1.00  0.00     0.293 HD
ENDBRANCH   6  24
BRANCH   8  26
ATOM     26  O   UNL     1      -8.946  25.805  35.652  1.00  0.00    -0.508 OA
ATOM     27  H   UNL     1      -8.931  25.305  36.534  1.00  0.00     0.293 HD
ENDBRANCH   8  26
TORSDOF 6
ENDMDL
MODEL 6
REMARK VINA RESULT:    -5.588      3.705      7.049
REMARK INTER + INTRA:          -6.835
REMARK INTER:                  -6.601
REMARK INTRA:                  -0.234
REMARK UNBOUND:                -0.104
REMARK SMILES O=c1c(O)c(-c2ccc(O)c(O)c2)oc2cc(O)cc(O)c12
REMARK SMILES IDX 5 1 3 2 2 3 1 4 22 5 20 6 19 7 17 8 16 9 15 10 14 11 6 12
REMARK SMILES IDX 7 13 8 14 9 15 13 16 11 17 10 18 12 20 4 22 21 24 18 26
REMARK H PARENT 10 19 12 21 4 23 21 25 18 27
REMARK Flexibility Score: inf
ROOT
ATOM      1  C   UNL     1      -4.024  25.215  32.187  1.00  0.00     0.180 A 
ATOM      2  C   UNL     1      -5.315  25.238  32.743  1.00  0.00     0.208 A 
ATOM      3  C   UNL     1      -5.638  26.241  33.671  1.00  0.00     0.238 A 
ATOM      4  O   UNL     1      -6.778  26.224  34.206  1.00  0.00    -0.285 OA
ATOM      5  C   UNL     1      -4.673  27.217  34.019  1.00  0.00     0.111 A 
ATOM      6  C   UNL     1      -4.905  28.302  34.917  1.00  0.00     0.134 A 
ATOM      7  C   UNL     1      -3.840  29.130  35.289  1.00  0.00     0.093 A 
ATOM      8  C   UNL     1      -2.566  28.954  34.743  1.00  0.00     0.123 A 
ATOM      9  C   UNL     1      -2.343  27.935  33.820  1.00  0.00     0.094 A 
ATOM     10  C   UNL     1      -3.378  27.069  33.458  1.00  0.00     0.146 A 
ATOM     11  O   UNL     1      -3.121  26.104  32.582  1.00  0.00    -0.452 OA
ENDROOT
BRANCH   1  12
ATOM     12  C   UNL     1      -3.617  24.204  31.184  1.00  0.00     0.025 A 
ATOM     13  C   UNL     1      -2.634  23.258  31.517  1.00  0.00     0.016 A 
ATOM     14  C   UNL     1      -2.219  22.308  30.579  1.00  0.00     0.051 A 
ATOM     15  C   UNL     1      -2.770  22.301  29.291  1.00  0.00     0.157 A 
ATOM     16  C   UNL     1      -4.152  24.206  29.883  1.00  0.00     0.062 A 
ATOM     17  C   UNL     1      -3.734  23.255  28.941  1.00  0.00     0.158 A 
BRANCH  15  18
ATOM     18  O   UNL     1      -2.361  21.355  28.354  1.00  0.00    -0.504 OA
ATOM     19  H   UNL     1      -2.931  21.124  27.549  1.00  0.00     0.293 HD
ENDBRANCH  15  18
BRANCH  17  20
ATOM     20  O   UNL     1      -4.270  23.254  27.654  1.00  0.00    -0.504 OA
ATOM     21  H   UNL     1      -4.359  24.107  27.116  1.00  0.00     0.293 HD
ENDBRANCH  17  20
ENDBRANCH   1  12
BRANCH   2  22
ATOM     22  O   UNL     1      -6.245  24.252  32.402  1.00  0.00    -0.502 OA
ATOM     23  H   UNL     1      -7.109  24.120  32.913  1.00  0.00     0.293 HD
ENDBRANCH   2  22
BRANCH   6  24
ATOM     24  O   UNL     1      -6.159  28.621  35.447  1.00  0.00    -0.507 OA
ATOM     25  H   UNL     1      -6.378  29.477  35.932  1.00  0.00     0.293 HD
ENDBRANCH   6  24
BRANCH   8  26
ATOM     26  O   UNL     1      -1.514  29.793  35.106  1.00  0.00    -0.508 OA
ATOM     27  H   UNL     1      -1.182  29.843  36.062  1.00  0.00     0.293 HD
ENDBRANCH   8  26
TORSDOF 6
ENDMDL
MODEL 7
REMARK VINA RESULT:    -5.583      4.701      7.372
REMARK INTER + INTRA:          -6.828
REMARK INTER:                  -6.529
REMARK INTRA:                  -0.300
REMARK UNBOUND:                -0.104
REMARK SMILES O=c1c(O)c(-c2ccc(O)c(O)c2)oc2cc(O)cc(O)c12
REMARK SMILES IDX 5 1 3 2 2 3 1 4 22 5 20 6 19 7 17 8 16 9 15 10 14 11 6 12
REMARK SMILES IDX 7 13 8 14 9 15 13 16 11 17 10 18 12 20 4 22 21 24 18 26
REMARK H PARENT 10 19 12 21 4 23 21 25 18 27
REMARK Flexibility Score: inf
ROOT
ATOM      1  C   UNL     1      -3.632  24.675  31.575  1.00  0.00     0.180 A 
ATOM      2  C   UNL     1      -2.241  24.766  31.753  1.00  0.00     0.208 A 
ATOM      3  C   UNL     1      -1.395  24.081  30.866  1.00  0.00     0.238 A 
ATOM      4  O   UNL     1      -0.152  24.122  31.063  1.00  0.00    -0.285 OA
ATOM      5  C   UNL     1      -1.950  23.327  29.804  1.00  0.00     0.111 A 
ATOM      6  C   UNL     1      -1.186  22.625  28.823  1.00  0.00     0.134 A 
ATOM      7  C   UNL     1      -1.840  21.805  27.895  1.00  0.00     0.093 A 
ATOM      8  C   UNL     1      -3.234  21.714  27.872  1.00  0.00     0.123 A 
ATOM      9  C   UNL     1      -3.991  22.441  28.788  1.00  0.00     0.094 A 
ATOM     10  C   UNL     1      -3.365  23.239  29.749  1.00  0.00     0.146 A 
ATOM     11  O   UNL     1      -4.123  23.908  30.610  1.00  0.00    -0.452 OA
ENDROOT
BRANCH   1  12
ATOM     12  C   UNL     1      -4.586  25.389  32.453  1.00  0.00     0.025 A 
ATOM     13  C   UNL     1      -5.300  24.671  33.427  1.00  0.00     0.016 A 
ATOM     14  C   UNL     1      -6.222  25.321  34.253  1.00  0.00     0.051 A 
ATOM     15  C   UNL     1      -6.454  26.694  34.107  1.00  0.00     0.157 A 
ATOM     16  C   UNL     1      -4.839  26.764  32.297  1.00  0.00     0.062 A 
ATOM     17  C   UNL     1      -5.765  27.416  33.124  1.00  0.00     0.158 A 
BRANCH  15  18
ATOM     18  O   UNL     1      -7.370  27.346  34.930  1.00  0.00    -0.504 OA
ATOM     19  H   UNL     1      -8.332  27.484  34.647  1.00  0.00     0.293 HD
ENDBRANCH  15  18
BRANCH  17  20
ATOM     20  O   UNL     1      -6.009  28.780  32.972  1.00  0.00    -0.504 OA
ATOM     21  H   UNL     1      -6.367  29.162  32.105  1.00  0.00     0.293 HD
ENDBRANCH  17  20
ENDBRANCH   1  12
BRANCH   2  22
ATOM     22  O   UNL     1      -1.715  25.498  32.822  1.00  0.00    -0.502 OA
ATOM     23  H   UNL     1      -1.800  25.192  33.783  1.00  0.00     0.293 HD
ENDBRANCH   2  22
BRANCH   6  24
ATOM     24  O   UNL     1       0.203  22.721  28.701  1.00  0.00    -0.507 OA
ATOM     25  H   UNL     1       0.735  23.567  28.835  1.00  0.00     0.293 HD
ENDBRANCH   6  24
BRANCH   8  26
ATOM     26  O   UNL     1      -3.878  20.908  26.936  1.00  0.00    -0.508 OA
ATOM     27  H   UNL     1      -4.444  21.305  26.194  1.00  0.00     0.293 HD
ENDBRANCH   8  26
TORSDOF 6
ENDMDL
MODEL 8
REMARK VINA RESULT:    -5.540     13.028     16.616
REMARK INTER + INTRA:          -6.777
REMARK INTER:                  -6.522
REMARK INTRA:                  -0.255
REMARK UNBOUND:                -0.104
REMARK SMILES O=c1c(O)c(-c2ccc(O)c(O)c2)oc2cc(O)cc(O)c12
REMARK SMILES IDX 5 1 3 2 2 3 1 4 22 5 20 6 19 7 17 8 16 9 15 10 14 11 6 12
REMARK SMILES IDX 7 13 8 14 9 15 13 16 11 17 10 18 12 20 4 22 21 24 18 26
REMARK H PARENT 10 19 12 21 4 23 21 25 18 27
REMARK Flexibility Score: inf
ROOT
ATOM      1  C   UNL     1       2.377  36.724  35.908  1.00  0.00     0.180 A 
ATOM      2  C   UNL     1       2.257  38.050  36.358  1.00  0.00     0.208 A 
ATOM      3  C   UNL     1       2.281  39.092  35.418  1.00  0.00     0.238 A 
ATOM      4  O   UNL     1       2.228  40.281  35.831  1.00  0.00    -0.285 OA
ATOM      5  C   UNL     1       2.406  38.796  34.039  1.00  0.00     0.111 A 
ATOM      6  C   UNL     1       2.401  39.770  32.996  1.00  0.00     0.134 A 
ATOM      7  C   UNL     1       2.664  39.374  31.679  1.00  0.00     0.093 A 
ATOM      8  C   UNL     1       2.865  38.030  31.359  1.00  0.00     0.123 A 
ATOM      9  C   UNL     1       2.814  37.064  32.361  1.00  0.00     0.094 A 
ATOM     10  C   UNL     1       2.590  37.433  33.689  1.00  0.00     0.146 A 
ATOM     11  O   UNL     1       2.559  36.482  34.616  1.00  0.00    -0.452 OA
ENDROOT
BRANCH   1  12
ATOM     12  C   UNL     1       2.336  35.571  36.836  1.00  0.00     0.025 A 
ATOM     13  C   UNL     1       3.499  34.814  37.050  1.00  0.00     0.016 A 
ATOM     14  C   UNL     1       3.479  33.709  37.905  1.00  0.00     0.051 A 
ATOM     15  C   UNL     1       2.290  33.336  38.547  1.00  0.00     0.157 A 
ATOM     16  C   UNL     1       1.140  35.180  37.467  1.00  0.00     0.062 A 
ATOM     17  C   UNL     1       1.118  34.070  38.323  1.00  0.00     0.158 A 
BRANCH  15  18
ATOM     18  O   UNL     1       2.266  32.236  39.402  1.00  0.00    -0.504 OA
ATOM     19  H   UNL     1       1.615  32.181  40.176  1.00  0.00     0.293 HD
ENDBRANCH  15  18
BRANCH  17  20
ATOM     20  O   UNL     1      -0.065  33.687  38.953  1.00  0.00    -0.504 OA
ATOM     21  H   UNL     1      -0.270  32.716  39.152  1.00  0.00     0.293 HD
ENDBRANCH  17  20
ENDBRANCH   1  12
BRANCH   2  22
ATOM     22  O   UNL     1       2.157  38.322  37.725  1.00  0.00    -0.502 OA
ATOM     23  H   UNL     1       1.631  37.734  38.359  1.00  0.00     0.293 HD
ENDBRANCH   2  22
BRANCH   6  24
ATOM     24  O   UNL     1       2.118  41.125  33.197  1.00  0.00    -0.507 OA
ATOM     25  H   UNL     1       2.142  41.592  34.090  1.00  0.00     0.293 HD
ENDBRANCH   6  24
BRANCH   8  26
ATOM     26  O   UNL     1       3.110  37.642  30.043  1.00  0.00    -0.508 OA
ATOM     27  H   UNL     1       2.417  37.140  29.500  1.00  0.00     0.293 HD
ENDBRANCH   8  26
TORSDOF 6
ENDMDL
MODEL 9
REMARK VINA RESULT:    -5.537     11.776     12.942
REMARK INTER + INTRA:          -6.773
REMARK INTER:                  -6.450
REMARK INTRA:                  -0.323
REMARK UNBOUND:                -0.104
REMARK SMILES O=c1c(O)c(-c2ccc(O)c(O)c2)oc2cc(O)cc(O)c12
REMARK SMILES IDX 5 1 3 2 2 3 1 4 22 5 20 6 19 7 17 8 16 9 15 10 14 11 6 12
REMARK SMILES IDX 7 13 8 14 9 15 13 16 11 17 10 18 12 20 4 22 21 24 18 26
REMARK H PARENT 10 19 12 21 4 23 21 25 18 27
REMARK Flexibility Score: inf
ROOT
ATOM      1  C   UNL     1       3.012  32.019  38.421  1.00  0.00     0.180 A 
ATOM      2  C   UNL     1       3.311  31.655  37.097  1.00  0.00     0.208 A 
ATOM      3  C   UNL     1       3.548  30.304  36.799  1.00  0.00     0.238 A 
ATOM      4  O   UNL     1       3.869  29.991  35.622  1.00  0.00    -0.285 OA
ATOM      5  C   UNL     1       3.468  29.331  37.825  1.00  0.00     0.111 A 
ATOM      6  C   UNL     1       3.651  27.929  37.629  1.00  0.00     0.134 A 
ATOM      7  C   UNL     1       3.679  27.074  38.737  1.00  0.00     0.093 A 
ATOM      8  C   UNL     1       3.464  27.563  40.028  1.00  0.00     0.123 A 
ATOM      9  C   UNL     1       3.226  28.922  40.224  1.00  0.00     0.094 A 
ATOM     10  C   UNL     1       3.229  29.804  39.141  1.00  0.00     0.146 A 
ATOM     11  O   UNL     1       3.009  31.093  39.372  1.00  0.00    -0.452 OA
ENDROOT
BRANCH   1  12
ATOM     12  C   UNL     1       2.725  33.419  38.807  1.00  0.00     0.025 A 
ATOM     13  C   UNL     1       3.736  34.194  39.398  1.00  0.00     0.016 A 
ATOM     14  C   UNL     1       3.482  35.511  39.791  1.00  0.00     0.051 A 
ATOM     15  C   UNL     1       2.208  36.067  39.610  1.00  0.00     0.157 A 
ATOM     16  C   UNL     1       1.442  33.975  38.648  1.00  0.00     0.062 A 
ATOM     17  C   UNL     1       1.186  35.296  39.043  1.00  0.00     0.158 A 
BRANCH  15  18
ATOM     18  O   UNL     1       1.951  37.380  39.998  1.00  0.00    -0.504 OA
ATOM     19  H   UNL     1       2.699  38.050  40.130  1.00  0.00     0.293 HD
ENDBRANCH  15  18
BRANCH  17  20
ATOM     20  O   UNL     1      -0.084  35.847  38.879  1.00  0.00    -0.504 OA
ATOM     21  H   UNL     1      -0.509  35.935  37.964  1.00  0.00     0.293 HD
ENDBRANCH  17  20
ENDBRANCH   1  12
BRANCH   2  22
ATOM     22  O   UNL     1       3.407  32.634  36.103  1.00  0.00    -0.502 OA
ATOM     23  H   UNL     1       2.913  33.516  36.160  1.00  0.00     0.293 HD
ENDBRANCH   2  22
BRANCH   6  24
ATOM     24  O   UNL     1       3.781  27.328  36.373  1.00  0.00    -0.507 OA
ATOM     25  H   UNL     1       3.060  27.304  35.669  1.00  0.00     0.293 HD
ENDBRANCH   6  24
BRANCH   8  26
ATOM     26  O   UNL     1       3.478  26.704  41.125  1.00  0.00    -0.508 OA
ATOM     27  H   UNL     1       4.107  26.851  41.906  1.00  0.00     0.293 HD
ENDBRANCH   8  26
TORSDOF 6
ENDMDL
