MODEL 1
REMARK VINA RESULT:    -5.014      0.000      0.000
REMARK INTER + INTRA:          -5.325
REMARK INTER:                  -5.307
REMARK INTRA:                  -0.018
REMARK UNBOUND:                -0.018
REMARK SMILES O=C([O-])c1cccnc1
REMARK SMILES IDX 4 1 5 2 9 3 6 4 8 5 7 6 2 7 1 8 3 9
REMARK H PARENT
REMARK Flexibility Score: inf
ROOT
ATOM      1  C   UNL     1      -3.975 -15.634   7.276  1.00  0.00     0.016 A 
ATOM      2  C   UNL     1      -4.466 -16.891   7.664  1.00  0.00     0.013 A 
ATOM      3  C   UNL     1      -2.655 -15.294   7.624  1.00  0.00     0.120 A 
ATOM      4  C   UNL     1      -3.651 -17.771   8.379  1.00  0.00     0.021 A 
ATOM      5  N   UNL     1      -1.883 -16.172   8.321  1.00  0.00    -0.264 NA
ATOM      6  C   UNL     1      -2.348 -17.389   8.700  1.00  0.00     0.111 A 
ENDROOT
BRANCH   1   7
ATOM      7  C   UNL     1      -4.828 -14.692   6.519  1.00  0.00     0.073 C 
ATOM      8  O   UNL     1      -5.038 -13.527   6.954  1.00  0.00    -0.545 OA
ATOM      9  O   UNL     1      -5.411 -15.080   5.319  1.00  0.00    -0.545 OA
ENDBRANCH   1   7
TORSDOF 1
ENDMDL
MODEL 2
REMARK VINA RESULT:    -4.955      0.886      1.602
REMARK INTER + INTRA:          -5.263
REMARK INTER:                  -5.245
REMARK INTRA:                  -0.019
REMARK UNBOUND:                -0.018
REMARK SMILES O=C([O-])c1cccnc1
REMARK SMILES IDX 4 1 5 2 9 3 6 4 8 5 7 6 2 7 1 8 3 9
REMARK H PARENT
REMARK Flexibility Score: inf
ROOT
ATOM      1  C   UNL     1      -3.965 -15.593   7.262  1.00  0.00     0.016 A 
ATOM      2  C   UNL     1      -2.660 -15.196   7.598  1.00  0.00     0.013 A 
ATOM      3  C   UNL     1      -4.407 -16.860   7.683  1.00  0.00     0.120 A 
ATOM      4  C   UNL     1      -1.836 -16.049   8.332  1.00  0.00     0.021 A 
ATOM      5  N   UNL     1      -3.582 -17.671   8.398  1.00  0.00    -0.264 NA
ATOM      6  C   UNL     1      -2.320 -17.296   8.729  1.00  0.00     0.111 A 
ENDROOT
BRANCH   1   7
ATOM      7  C   UNL     1      -4.849 -14.699   6.484  1.00  0.00     0.073 C 
ATOM      8  O   UNL     1      -5.083 -13.525   6.880  1.00  0.00    -0.545 OA
ATOM      9  O   UNL     1      -5.434 -15.141   5.303  1.00  0.00    -0.545 OA
ENDBRANCH   1   7
TORSDOF 1
ENDMDL
MODEL 3
REMARK VINA RESULT:    -4.820      2.851      3.745
REMARK INTER + INTRA:          -5.120
REMARK INTER:                  -5.102
REMARK INTRA:                  -0.018
REMARK UNBOUND:                -0.018
REMARK SMILES O=C([O-])c1cccnc1
REMARK SMILES IDX 4 1 5 2 9 3 6 4 8 5 7 6 2 7 1 8 3 9
REMARK H PARENT
REMARK Flexibility Score: inf
ROOT
ATOM      1  C   UNL     1      -4.059 -16.591   8.218  1.00  0.00     0.016 A 
ATOM      2  C   UNL     1      -4.990 -16.477   7.173  1.00  0.00     0.013 A 
ATOM      3  C   UNL     1      -3.404 -15.427   8.660  1.00  0.00     0.120 A 
ATOM      4  C   UNL     1      -5.248 -15.232   6.598  1.00  0.00     0.021 A 
ATOM      5  N   UNL     1      -3.676 -14.226   8.081  1.00  0.00    -0.264 NA
ATOM      6  C   UNL     1      -4.575 -14.106   7.071  1.00  0.00     0.111 A 
ENDROOT
BRANCH   1   7
ATOM      7  C   UNL     1      -3.775 -17.904   8.836  1.00  0.00     0.073 C 
ATOM      8  O   UNL     1      -3.340 -18.860   8.138  1.00  0.00    -0.545 OA
ATOM      9  O   UNL     1      -3.986 -18.103  10.195  1.00  0.00    -0.545 OA
ENDBRANCH   1   7
TORSDOF 1
ENDMDL
MODEL 4
REMARK VINA RESULT:    -4.780      2.216      2.957
REMARK INTER + INTRA:          -5.078
REMARK INTER:                  -5.060
REMARK INTRA:                  -0.017
REMARK UNBOUND:                -0.018
REMARK SMILES O=C([O-])c1cccnc1
REMARK SMILES IDX 4 1 5 2 9 3 6 4 8 5 7 6 2 7 1 8 3 9
REMARK H PARENT
REMARK Flexibility Score: inf
ROOT
ATOM      1  C   UNL     1      -2.975 -15.501   8.050  1.00  0.00     0.016 A 
ATOM      2  C   UNL     1      -1.691 -15.922   8.433  1.00  0.00     0.013 A 
ATOM      3  C   UNL     1      -3.390 -14.207   8.410  1.00  0.00     0.120 A 
ATOM      4  C   UNL     1      -0.859 -15.064   9.153  1.00  0.00     0.021 A 
ATOM      5  N   UNL     1      -2.558 -13.391   9.112  1.00  0.00    -0.264 NA
ATOM      6  C   UNL     1      -1.315 -13.788   9.487  1.00  0.00     0.111 A 
ENDROOT
BRANCH   1   7
ATOM      7  C   UNL     1      -3.867 -16.402   7.287  1.00  0.00     0.073 C 
ATOM      8  O   UNL     1      -4.231 -16.103   6.117  1.00  0.00    -0.545 OA
ATOM      9  O   UNL     1      -4.316 -17.590   7.850  1.00  0.00    -0.545 OA
ENDBRANCH   1   7
TORSDOF 1
ENDMDL
MODEL 5
REMARK VINA RESULT:    -4.729      2.781      3.452
REMARK INTER + INTRA:          -5.023
REMARK INTER:                  -5.004
REMARK INTRA:                  -0.019
REMARK UNBOUND:                -0.018
REMARK SMILES O=C([O-])c1cccnc1
REMARK SMILES IDX 4 1 5 2 9 3 6 4 8 5 7 6 2 7 1 8 3 9
REMARK H PARENT
REMARK Flexibility Score: inf
ROOT
ATOM      1  C   UNL     1      -3.019 -16.417   8.999  1.00  0.00     0.016 A 
ATOM      2  C   UNL     1      -1.804 -16.212   8.326  1.00  0.00     0.013 A 
ATOM      3  C   UNL     1      -3.329 -15.584  10.088  1.00  0.00     0.120 A 
ATOM      4  C   UNL     1      -0.935 -15.202   8.740  1.00  0.00     0.021 A 
ATOM      5  N   UNL     1      -2.464 -14.606  10.471  1.00  0.00    -0.264 NA
ATOM      6  C   UNL     1      -1.287 -14.399   9.826  1.00  0.00     0.111 A 
ENDROOT
BRANCH   1   7
ATOM      7  C   UNL     1      -3.948 -17.485   8.570  1.00  0.00     0.073 C 
ATOM      8  O   UNL     1      -5.166 -17.231   8.365  1.00  0.00    -0.545 OA
ATOM      9  O   UNL     1      -3.490 -18.784   8.387  1.00  0.00    -0.545 OA
ENDBRANCH   1   7
TORSDOF 1
ENDMDL
MODEL 6
REMARK VINA RESULT:    -4.721      3.043      3.780
REMARK INTER + INTRA:          -5.015
REMARK INTER:                  -4.993
REMARK INTRA:                  -0.022
REMARK UNBOUND:                -0.018
REMARK SMILES O=C([O-])c1cccnc1
REMARK SMILES IDX 4 1 5 2 9 3 6 4 8 5 7 6 2 7 1 8 3 9
REMARK H PARENT
REMARK Flexibility Score: inf
ROOT
ATOM      1  C   UNL     1      -3.022 -15.566   8.576  1.00  0.00     0.016 A 
ATOM      2  C   UNL     1      -3.088 -15.074   7.262  1.00  0.00     0.013 A 
ATOM      3  C   UNL     1      -4.135 -16.257   9.087  1.00  0.00     0.120 A 
ATOM      4  C   UNL     1      -4.237 -15.275   6.495  1.00  0.00     0.021 A 
ATOM      5  N   UNL     1      -5.242 -16.439   8.317  1.00  0.00    -0.264 NA
ATOM      6  C   UNL     1      -5.315 -15.968   7.046  1.00  0.00     0.111 A 
ENDROOT
BRANCH   1   7
ATOM      7  C   UNL     1      -1.811 -15.359   9.399  1.00  0.00     0.073 C 
ATOM      8  O   UNL     1      -1.882 -15.370  10.658  1.00  0.00    -0.545 OA
ATOM      9  O   UNL     1      -0.577 -15.148   8.795  1.00  0.00    -0.545 OA
ENDBRANCH   1   7
TORSDOF 1
ENDMDL
MODEL 7
REMARK VINA RESULT:    -4.697      2.998      3.634
REMARK INTER + INTRA:          -4.989
REMARK INTER:                  -4.968
REMARK INTRA:                  -0.021
REMARK UNBOUND:                -0.018
REMARK SMILES O=C([O-])c1cccnc1
REMARK SMILES IDX 4 1 5 2 9 3 6 4 8 5 7 6 2 7 1 8 3 9
REMARK H PARENT
REMARK Flexibility Score: inf
ROOT
ATOM      1  C   UNL     1      -4.174 -16.046   9.115  1.00  0.00     0.016 A 
ATOM      2  C   UNL     1      -5.271 -16.351   8.293  1.00  0.00     0.013 A 
ATOM      3  C   UNL     1      -3.079 -15.372   8.545  1.00  0.00     0.120 A 
ATOM      4  C   UNL     1      -5.260 -15.988   6.946  1.00  0.00     0.021 A 
ATOM      5  N   UNL     1      -3.095 -15.029   7.228  1.00  0.00    -0.264 NA
ATOM      6  C   UNL     1      -4.151 -15.319   6.426  1.00  0.00     0.111 A 
ENDROOT
BRANCH   1   7
ATOM      7  C   UNL     1      -4.173 -16.427  10.544  1.00  0.00     0.073 C 
ATOM      8  O   UNL     1      -3.100 -16.752  11.119  1.00  0.00    -0.545 OA
ATOM      9  O   UNL     1      -5.357 -16.431  11.272  1.00  0.00    -0.545 OA
ENDBRANCH   1   7
TORSDOF 1
ENDMDL
MODEL 8
REMARK VINA RESULT:    -4.656      3.009      3.640
REMARK INTER + INTRA:          -4.946
REMARK INTER:                  -4.922
REMARK INTRA:                  -0.023
REMARK UNBOUND:                -0.018
REMARK SMILES O=C([O-])c1cccnc1
REMARK SMILES IDX 4 1 5 2 9 3 6 4 8 5 7 6 2 7 1 8 3 9
REMARK H PARENT
REMARK Flexibility Score: inf
ROOT
ATOM      1  C   UNL     1      -3.035 -15.620   8.663  1.00  0.00     0.016 A 
ATOM      2  C   UNL     1      -4.229 -16.218   9.097  1.00  0.00     0.013 A 
ATOM      3  C   UNL     1      -2.947 -15.199   7.324  1.00  0.00     0.120 A 
ATOM      4  C   UNL     1      -5.293 -16.384   8.209  1.00  0.00     0.021 A 
ATOM      5  N   UNL     1      -4.000 -15.373   6.480  1.00  0.00    -0.264 NA
ATOM      6  C   UNL     1      -5.158 -15.949   6.891  1.00  0.00     0.111 A 
ENDROOT
BRANCH   1   7
ATOM      7  C   UNL     1      -1.900 -15.439   9.594  1.00  0.00     0.073 C 
ATOM      8  O   UNL     1      -0.780 -15.047   9.169  1.00  0.00    -0.545 OA
ATOM      9  O   UNL     1      -2.054 -15.700  10.950  1.00  0.00    -0.545 OA
ENDBRANCH   1   7
TORSDOF 1
ENDMDL
MODEL 9
REMARK VINA RESULT:    -4.630      2.894      3.433
REMARK INTER + INTRA:          -4.919
REMARK INTER:                  -4.901
REMARK INTRA:                  -0.018
REMARK UNBOUND:                -0.018
REMARK SMILES O=C([O-])c1cccnc1
REMARK SMILES IDX 4 1 5 2 9 3 6 4 8 5 7 6 2 7 1 8 3 9
REMARK H PARENT
REMARK Flexibility Score: inf
ROOT
ATOM      1  C   UNL     1      -2.497 -15.574   9.384  1.00  0.00     0.016 A 
ATOM      2  C   UNL     1      -2.206 -16.581   8.449  1.00  0.00     0.013 A 
ATOM      3  C   UNL     1      -3.474 -15.833  10.362  1.00  0.00     0.120 A 
ATOM      4  C   UNL     1      -2.878 -17.802   8.502  1.00  0.00     0.021 A 
ATOM      5  N   UNL     1      -4.114 -17.033  10.391  1.00  0.00    -0.264 NA
ATOM      6  C   UNL     1      -3.838 -18.013   9.492  1.00  0.00     0.111 A 
ENDROOT
BRANCH   1   7
ATOM      7  C   UNL     1      -1.792 -14.275   9.338  1.00  0.00     0.073 C 
ATOM      8  O   UNL     1      -0.543 -14.217   9.498  1.00  0.00    -0.545 OA
ATOM      9  O   UNL     1      -2.499 -13.099   9.116  1.00  0.00    -0.545 OA
ENDBRANCH   1   7
TORSDOF 1
ENDMDL
