MODEL 1
REMARK VINA RESULT:    -6.860      0.000      0.000
REMARK INTER + INTRA:         -10.211
REMARK INTER:                  -9.266
REMARK INTRA:                  -0.945
REMARK UNBOUND:                -0.945
REMARK SMILES O=c1c(-c2ccc(O)cc2)coc2c([C@H]3O[C@@H](CO)[C@@H](O)[C@@H](O)[C@H]3O)c(O)ccc12
REMARK SMILES IDX 3 1 11 2 12 3 13 4 30 5 2 6 1 7 29 8 28 9 26 10 14 11 4 12
REMARK SMILES IDX 5 13 6 14 7 15 10 16 9 17 8 18 15 20 24 21 16 22 22 23 17 24
REMARK SMILES IDX 20 25 25 26 23 28 18 30 19 31 21 33 27 35
REMARK H PARENT 8 19 25 27 23 29 19 32 21 34 27 36
REMARK Flexibility Score: inf
ROOT
ATOM      1  C   UNL     1      58.420  -0.876  -1.119  1.00  0.00     0.065 A 
ATOM      2  C   UNL     1      57.200  -1.552  -1.257  1.00  0.00     0.208 A 
ATOM      3  O   UNL     1      56.995  -2.718  -0.656  1.00  0.00    -0.463 OA
ATOM      4  C   UNL     1      57.909  -3.316   0.105  1.00  0.00     0.147 A 
ATOM      5  C   UNL     1      59.165  -2.697   0.308  1.00  0.00     0.066 A 
ATOM      6  C   UNL     1      59.414  -1.459  -0.313  1.00  0.00     0.200 A 
ATOM      7  O   UNL     1      60.513  -0.866  -0.132  1.00  0.00    -0.288 OA
ATOM      8  C   UNL     1      60.119  -3.318   1.127  1.00  0.00     0.020 A 
ATOM      9  C   UNL     1      59.828  -4.531   1.746  1.00  0.00     0.047 A 
ATOM     10  C   UNL     1      58.588  -5.152   1.557  1.00  0.00     0.125 A 
ATOM     11  C   UNL     1      57.620  -4.561   0.710  1.00  0.00     0.069 A 
ENDROOT
BRANCH   1  12
ATOM     12  C   UNL     1      58.629   0.423  -1.808  1.00  0.00    -0.011 A 
ATOM     13  C   UNL     1      57.877   1.551  -1.438  1.00  0.00     0.013 A 
ATOM     14  C   UNL     1      58.066   2.773  -2.091  1.00  0.00     0.047 A 
ATOM     15  C   UNL     1      59.001   2.882  -3.124  1.00  0.00     0.115 A 
ATOM     16  C   UNL     1      59.563   0.537  -2.854  1.00  0.00     0.013 A 
ATOM     17  C   UNL     1      59.749   1.760  -3.506  1.00  0.00     0.047 A 
BRANCH  15  18
ATOM     18  O   UNL     1      59.178   4.106  -3.767  1.00  0.00    -0.508 OA
ATOM     19  H   UNL     1      60.081   4.387  -4.131  1.00  0.00     0.293 HD
ENDBRANCH  15  18
ENDBRANCH   1  12
BRANCH  11  20
ATOM     20  C   UNL     1      56.252  -5.202   0.502  1.00  0.00     0.188 C 
ATOM     21  C   UNL     1      55.317  -4.880   1.692  1.00  0.00     0.179 C 
ATOM     22  O   UNL     1      56.384  -6.606   0.324  1.00  0.00    -0.362 OA
ATOM     23  C   UNL     1      53.951  -5.558   1.455  1.00  0.00     0.177 C 
ATOM     24  C   UNL     1      55.142  -7.189  -0.042  1.00  0.00     0.176 C 
ATOM     25  C   UNL     1      54.119  -7.054   1.111  1.00  0.00     0.177 C 
BRANCH  21  26
ATOM     26  O   UNL     1      55.895  -5.337   2.891  1.00  0.00    -0.387 OA
ATOM     27  H   UNL     1      56.621  -4.703   3.126  1.00  0.00     0.211 HD
ENDBRANCH  21  26
BRANCH  23  28
ATOM     28  O   UNL     1      53.069  -5.360   2.534  1.00  0.00    -0.387 OA
ATOM     29  H   UNL     1      53.602  -5.105   3.331  1.00  0.00     0.211 HD
ENDBRANCH  23  28
BRANCH  24  30
ATOM     30  C   UNL     1      55.383  -8.656  -0.418  1.00  0.00     0.191 C 
BRANCH  30  31
ATOM     31  O   UNL     1      56.562  -9.122   0.180  1.00  0.00    -0.394 OA
ATOM     32  H   UNL     1      57.310  -8.695  -0.315  1.00  0.00     0.210 HD
ENDBRANCH  30  31
ENDBRANCH  24  30
BRANCH  25  33
ATOM     33  O   UNL     1      54.573  -7.772   2.233  1.00  0.00    -0.388 OA
ATOM     34  H   UNL     1      55.533  -7.554   2.352  1.00  0.00     0.211 HD
ENDBRANCH  25  33
ENDBRANCH  11  20
BRANCH  10  35
ATOM     35  O   UNL     1      58.320  -6.352   2.217  1.00  0.00    -0.507 OA
ATOM     36  H   UNL     1      57.441  -6.842   2.097  1.00  0.00     0.293 HD
ENDBRANCH  10  35
TORSDOF 9
ENDMDL
MODEL 2
REMARK VINA RESULT:    -6.752      4.104      8.245
REMARK INTER + INTRA:         -10.065
REMARK INTER:                  -9.069
REMARK INTRA:                  -0.996
REMARK UNBOUND:                -0.945
REMARK SMILES O=c1c(-c2ccc(O)cc2)coc2c([C@H]3O[C@@H](CO)[C@@H](O)[C@@H](O)[C@H]3O)c(O)ccc12
REMARK SMILES IDX 3 1 11 2 12 3 13 4 30 5 2 6 1 7 29 8 28 9 26 10 14 11 4 12
REMARK SMILES IDX 5 13 6 14 7 15 10 16 9 17 8 18 15 20 24 21 16 22 22 23 17 24
REMARK SMILES IDX 20 25 25 26 23 28 18 30 19 31 21 33 27 35
REMARK H PARENT 8 19 25 27 23 29 19 32 21 34 27 36
REMARK Flexibility Score: inf
ROOT
ATOM      1  C   UNL     1      61.514  -3.524   5.019  1.00  0.00     0.065 A 
ATOM      2  C   UNL     1      60.438  -2.662   4.770  1.00  0.00     0.208 A 
ATOM      3  O   UNL     1      60.060  -2.383   3.528  1.00  0.00    -0.463 OA
ATOM      4  C   UNL     1      60.662  -2.889   2.454  1.00  0.00     0.147 A 
ATOM      5  C   UNL     1      61.751  -3.778   2.614  1.00  0.00     0.066 A 
ATOM      6  C   UNL     1      62.174  -4.097   3.917  1.00  0.00     0.200 A 
ATOM      7  O   UNL     1      63.125  -4.907   4.097  1.00  0.00    -0.288 OA
ATOM      8  C   UNL     1      62.369  -4.327   1.481  1.00  0.00     0.020 A 
ATOM      9  C   UNL     1      61.907  -4.008   0.206  1.00  0.00     0.047 A 
ATOM     10  C   UNL     1      60.828  -3.133   0.034  1.00  0.00     0.125 A 
ATOM     11  C   UNL     1      60.207  -2.541   1.160  1.00  0.00     0.069 A 
ENDROOT
BRANCH   1  12
ATOM     12  C   UNL     1      61.923  -3.814   6.417  1.00  0.00    -0.011 A 
ATOM     13  C   UNL     1      62.569  -2.831   7.186  1.00  0.00     0.013 A 
ATOM     14  C   UNL     1      62.962  -3.104   8.499  1.00  0.00     0.047 A 
ATOM     15  C   UNL     1      62.722  -4.363   9.059  1.00  0.00     0.115 A 
ATOM     16  C   UNL     1      61.691  -5.081   6.983  1.00  0.00     0.013 A 
ATOM     17  C   UNL     1      62.086  -5.352   8.296  1.00  0.00     0.047 A 
BRANCH  15  18
ATOM     18  O   UNL     1      63.120  -4.622  10.368  1.00  0.00    -0.508 OA
ATOM     19  H   UNL     1      62.628  -5.290  10.949  1.00  0.00     0.293 HD
ENDBRANCH  15  18
ENDBRANCH   1  12
BRANCH  11  20
ATOM     20  C   UNL     1      59.015  -1.603   1.005  1.00  0.00     0.188 C 
ATOM     21  C   UNL     1      57.690  -2.399   1.052  1.00  0.00     0.179 C 
ATOM     22  O   UNL     1      59.122  -0.861  -0.202  1.00  0.00    -0.362 OA
ATOM     23  C   UNL     1      56.509  -1.419   0.875  1.00  0.00     0.177 C 
ATOM     24  C   UNL     1      58.115   0.137  -0.274  1.00  0.00     0.176 C 
ATOM     25  C   UNL     1      56.712  -0.513  -0.358  1.00  0.00     0.177 C 
BRANCH  21  26
ATOM     26  O   UNL     1      57.681  -3.372   0.035  1.00  0.00    -0.387 OA
ATOM     27  H   UNL     1      58.556  -3.317  -0.429  1.00  0.00     0.211 HD
ENDBRANCH  21  26
BRANCH  23  28
ATOM     28  O   UNL     1      55.270  -2.087   0.842  1.00  0.00    -0.387 OA
ATOM     29  H   UNL     1      54.775  -1.869   1.673  1.00  0.00     0.211 HD
ENDBRANCH  23  28
BRANCH  24  30
ATOM     30  C   UNL     1      58.399   1.032  -1.486  1.00  0.00     0.191 C 
BRANCH  30  31
ATOM     31  O   UNL     1      57.197   1.501  -2.035  1.00  0.00    -0.394 OA
ATOM     32  H   UNL     1      56.589   0.717  -2.077  1.00  0.00     0.210 HD
ENDBRANCH  30  31
ENDBRANCH  24  30
BRANCH  25  33
ATOM     33  O   UNL     1      56.607  -1.260  -1.546  1.00  0.00    -0.388 OA
ATOM     34  H   UNL     1      55.642  -1.339  -1.757  1.00  0.00     0.211 HD
ENDBRANCH  25  33
ENDBRANCH  11  20
BRANCH  10  35
ATOM     35  O   UNL     1      60.372  -2.860  -1.256  1.00  0.00    -0.507 OA
ATOM     36  H   UNL     1      60.901  -3.130  -2.077  1.00  0.00     0.293 HD
ENDBRANCH  10  35
TORSDOF 9
ENDMDL
MODEL 3
REMARK VINA RESULT:    -6.505      4.751      7.620
REMARK INTER + INTRA:          -9.731
REMARK INTER:                  -9.395
REMARK INTRA:                  -0.336
REMARK UNBOUND:                -0.945
REMARK SMILES O=c1c(-c2ccc(O)cc2)coc2c([C@H]3O[C@@H](CO)[C@@H](O)[C@@H](O)[C@H]3O)c(O)ccc12
REMARK SMILES IDX 3 1 11 2 12 3 13 4 30 5 2 6 1 7 29 8 28 9 26 10 14 11 4 12
REMARK SMILES IDX 5 13 6 14 7 15 10 16 9 17 8 18 15 20 24 21 16 22 22 23 17 24
REMARK SMILES IDX 20 25 25 26 23 28 18 30 19 31 21 33 27 35
REMARK H PARENT 8 19 25 27 23 29 19 32 21 34 27 36
REMARK Flexibility Score: inf
ROOT
ATOM      1  C   UNL     1      56.056  -3.657  -5.303  1.00  0.00     0.065 A 
ATOM      2  C   UNL     1      56.090  -2.673  -4.306  1.00  0.00     0.208 A 
ATOM      3  O   UNL     1      57.206  -2.425  -3.631  1.00  0.00    -0.463 OA
ATOM      4  C   UNL     1      58.348  -3.075  -3.847  1.00  0.00     0.147 A 
ATOM      5  C   UNL     1      58.405  -4.076  -4.845  1.00  0.00     0.066 A 
ATOM      6  C   UNL     1      57.240  -4.362  -5.581  1.00  0.00     0.200 A 
ATOM      7  O   UNL     1      57.264  -5.230  -6.497  1.00  0.00    -0.288 OA
ATOM      8  C   UNL     1      59.614  -4.746  -5.086  1.00  0.00     0.020 A 
ATOM      9  C   UNL     1      60.754  -4.419  -4.356  1.00  0.00     0.047 A 
ATOM     10  C   UNL     1      60.711  -3.428  -3.368  1.00  0.00     0.125 A 
ATOM     11  C   UNL     1      59.496  -2.760  -3.084  1.00  0.00     0.069 A 
ENDROOT
BRANCH   1  12
ATOM     12  C   UNL     1      54.793  -3.922  -6.039  1.00  0.00    -0.011 A 
ATOM     13  C   UNL     1      54.712  -3.673  -7.420  1.00  0.00     0.013 A 
ATOM     14  C   UNL     1      53.522  -3.914  -8.114  1.00  0.00     0.047 A 
ATOM     15  C   UNL     1      52.398  -4.398  -7.438  1.00  0.00     0.115 A 
ATOM     16  C   UNL     1      53.657  -4.401  -5.363  1.00  0.00     0.013 A 
ATOM     17  C   UNL     1      52.468  -4.640  -6.059  1.00  0.00     0.047 A 
BRANCH  15  18
ATOM     18  O   UNL     1      51.219  -4.632  -8.141  1.00  0.00    -0.508 OA
ATOM     19  H   UNL     1      51.137  -4.412  -9.126  1.00  0.00     0.293 HD
ENDBRANCH  15  18
ENDBRANCH   1  12
BRANCH  11  20
ATOM     20  C   UNL     1      59.424  -1.660  -2.030  1.00  0.00     0.188 C 
ATOM     21  C   UNL     1      58.850  -2.215  -0.706  1.00  0.00     0.179 C 
ATOM     22  O   UNL     1      58.649  -0.568  -2.505  1.00  0.00    -0.362 OA
ATOM     23  C   UNL     1      58.777  -1.071   0.329  1.00  0.00     0.177 C 
ATOM     24  C   UNL     1      58.718   0.530  -1.609  1.00  0.00     0.176 C 
ATOM     25  C   UNL     1      58.062   0.167  -0.254  1.00  0.00     0.177 C 
BRANCH  21  26
ATOM     26  O   UNL     1      57.572  -2.760  -0.932  1.00  0.00    -0.387 OA
ATOM     27  H   UNL     1      56.910  -2.104  -0.589  1.00  0.00     0.211 HD
ENDBRANCH  21  26
BRANCH  23  28
ATOM     28  O   UNL     1      58.199  -1.492   1.541  1.00  0.00    -0.387 OA
ATOM     29  H   UNL     1      58.357  -2.467   1.641  1.00  0.00     0.211 HD
ENDBRANCH  23  28
BRANCH  24  30
ATOM     30  C   UNL     1      58.036   1.738  -2.263  1.00  0.00     0.191 C 
BRANCH  30  31
ATOM     31  O   UNL     1      57.534   2.602  -1.280  1.00  0.00    -0.394 OA
ATOM     32  H   UNL     1      56.608   2.298  -1.093  1.00  0.00     0.210 HD
ENDBRANCH  30  31
ENDBRANCH  24  30
BRANCH  25  33
ATOM     33  O   UNL     1      56.693  -0.095  -0.446  1.00  0.00    -0.388 OA
ATOM     34  H   UNL     1      56.383   0.492  -1.183  1.00  0.00     0.211 HD
ENDBRANCH  25  33
ENDBRANCH  11  20
BRANCH  10  35
ATOM     35  O   UNL     1      61.880  -3.105  -2.677  1.00  0.00    -0.507 OA
ATOM     36  H   UNL     1      62.021  -2.190  -2.264  1.00  0.00     0.293 HD
ENDBRANCH  10  35
TORSDOF 9
ENDMDL
MODEL 4
REMARK VINA RESULT:    -6.488      1.427      2.526
REMARK INTER + INTRA:          -9.709
REMARK INTER:                  -9.323
REMARK INTRA:                  -0.386
REMARK UNBOUND:                -0.945
REMARK SMILES O=c1c(-c2ccc(O)cc2)coc2c([C@H]3O[C@@H](CO)[C@@H](O)[C@@H](O)[C@H]3O)c(O)ccc12
REMARK SMILES IDX 3 1 11 2 12 3 13 4 30 5 2 6 1 7 29 8 28 9 26 10 14 11 4 12
REMARK SMILES IDX 5 13 6 14 7 15 10 16 9 17 8 18 15 20 24 21 16 22 22 23 17 24
REMARK SMILES IDX 20 25 25 26 23 28 18 30 19 31 21 33 27 35
REMARK H PARENT 8 19 25 27 23 29 19 32 21 34 27 36
REMARK Flexibility Score: inf
ROOT
ATOM      1  C   UNL     1      58.971  -1.160  -1.193  1.00  0.00     0.065 A 
ATOM      2  C   UNL     1      57.850  -1.979  -1.007  1.00  0.00     0.208 A 
ATOM      3  O   UNL     1      57.954  -3.147  -0.384  1.00  0.00    -0.463 OA
ATOM      4  C   UNL     1      59.104  -3.613   0.100  1.00  0.00     0.147 A 
ATOM      5  C   UNL     1      60.283  -2.845  -0.034  1.00  0.00     0.066 A 
ATOM      6  C   UNL     1      60.207  -1.601  -0.687  1.00  0.00     0.200 A 
ATOM      7  O   UNL     1      61.235  -0.877  -0.800  1.00  0.00    -0.288 OA
ATOM      8  C   UNL     1      61.489  -3.328   0.496  1.00  0.00     0.020 A 
ATOM      9  C   UNL     1      61.522  -4.553   1.159  1.00  0.00     0.047 A 
ATOM     10  C   UNL     1      60.361  -5.322   1.301  1.00  0.00     0.125 A 
ATOM     11  C   UNL     1      59.138  -4.870   0.748  1.00  0.00     0.069 A 
ENDROOT
BRANCH   1  12
ATOM     12  C   UNL     1      58.831   0.138  -1.901  1.00  0.00    -0.011 A 
ATOM     13  C   UNL     1      57.951   1.120  -1.414  1.00  0.00     0.013 A 
ATOM     14  C   UNL     1      57.810   2.340  -2.083  1.00  0.00     0.047 A 
ATOM     15  C   UNL     1      58.540   2.592  -3.248  1.00  0.00     0.115 A 
ATOM     16  C   UNL     1      59.556   0.395  -3.079  1.00  0.00     0.013 A 
ATOM     17  C   UNL     1      59.413   1.615  -3.746  1.00  0.00     0.047 A 
BRANCH  15  18
ATOM     18  O   UNL     1      58.389   3.811  -3.906  1.00  0.00    -0.508 OA
ATOM     19  H   UNL     1      57.520   4.329  -3.868  1.00  0.00     0.293 HD
ENDBRANCH  15  18
ENDBRANCH   1  12
BRANCH  11  20
ATOM     20  C   UNL     1      57.853  -5.675   0.908  1.00  0.00     0.188 C 
ATOM     21  C   UNL     1      57.641  -6.603  -0.311  1.00  0.00     0.179 C 
ATOM     22  O   UNL     1      56.743  -4.805   1.086  1.00  0.00    -0.362 OA
ATOM     23  C   UNL     1      56.324  -7.387  -0.122  1.00  0.00     0.177 C 
ATOM     24  C   UNL     1      55.571  -5.539   1.408  1.00  0.00     0.176 C 
ATOM     25  C   UNL     1      55.153  -6.441   0.222  1.00  0.00     0.177 C 
BRANCH  21  26
ATOM     26  O   UNL     1      57.596  -5.839  -1.492  1.00  0.00    -0.387 OA
ATOM     27  H   UNL     1      57.080  -5.016  -1.288  1.00  0.00     0.211 HD
ENDBRANCH  21  26
BRANCH  23  28
ATOM     28  O   UNL     1      56.034  -8.206  -1.229  1.00  0.00    -0.387 OA
ATOM     29  H   UNL     1      55.385  -7.730  -1.809  1.00  0.00     0.211 HD
ENDBRANCH  23  28
BRANCH  24  30
ATOM     30  C   UNL     1      54.463  -4.549   1.786  1.00  0.00     0.191 C 
BRANCH  30  31
ATOM     31  O   UNL     1      54.770  -3.270   1.302  1.00  0.00    -0.394 OA
ATOM     32  H   UNL     1      55.144  -2.767   2.072  1.00  0.00     0.210 HD
ENDBRANCH  30  31
ENDBRANCH  24  30
BRANCH  25  33
ATOM     33  O   UNL     1      54.820  -5.641  -0.887  1.00  0.00    -0.388 OA
ATOM     34  H   UNL     1      53.837  -5.511  -0.870  1.00  0.00     0.211 HD
ENDBRANCH  25  33
ENDBRANCH  11  20
BRANCH  10  35
ATOM     35  O   UNL     1      60.425  -6.529   1.997  1.00  0.00    -0.507 OA
ATOM     36  H   UNL     1      61.270  -7.087   2.021  1.00  0.00     0.293 HD
ENDBRANCH  10  35
TORSDOF 9
ENDMDL
MODEL 5
REMARK VINA RESULT:    -6.333      1.998      3.778
REMARK INTER + INTRA:          -9.500
REMARK INTER:                  -8.985
REMARK INTRA:                  -0.515
REMARK UNBOUND:                -0.945
REMARK SMILES O=c1c(-c2ccc(O)cc2)coc2c([C@H]3O[C@@H](CO)[C@@H](O)[C@@H](O)[C@H]3O)c(O)ccc12
REMARK SMILES IDX 3 1 11 2 12 3 13 4 30 5 2 6 1 7 29 8 28 9 26 10 14 11 4 12
REMARK SMILES IDX 5 13 6 14 7 15 10 16 9 17 8 18 15 20 24 21 16 22 22 23 17 24
REMARK SMILES IDX 20 25 25 26 23 28 18 30 19 31 21 33 27 35
REMARK H PARENT 8 19 25 27 23 29 19 32 21 34 27 36
REMARK Flexibility Score: inf
ROOT
ATOM      1  C   UNL     1      58.383  -1.453  -1.805  1.00  0.00     0.065 A 
ATOM      2  C   UNL     1      58.823  -1.914  -0.557  1.00  0.00     0.208 A 
ATOM      3  O   UNL     1      58.630  -3.175  -0.189  1.00  0.00    -0.463 OA
ATOM      4  C   UNL     1      58.020  -4.073  -0.960  1.00  0.00     0.147 A 
ATOM      5  C   UNL     1      57.553  -3.695  -2.241  1.00  0.00     0.066 A 
ATOM      6  C   UNL     1      57.745  -2.366  -2.663  1.00  0.00     0.200 A 
ATOM      7  O   UNL     1      57.365  -2.003  -3.810  1.00  0.00    -0.288 OA
ATOM      8  C   UNL     1      56.929  -4.648  -3.060  1.00  0.00     0.020 A 
ATOM      9  C   UNL     1      56.780  -5.960  -2.619  1.00  0.00     0.047 A 
ATOM     10  C   UNL     1      57.240  -6.348  -1.355  1.00  0.00     0.125 A 
ATOM     11  C   UNL     1      57.845  -5.398  -0.497  1.00  0.00     0.069 A 
ENDROOT
BRANCH   1  12
ATOM     12  C   UNL     1      58.603  -0.035  -2.191  1.00  0.00    -0.011 A 
ATOM     13  C   UNL     1      57.822   0.985  -1.619  1.00  0.00     0.013 A 
ATOM     14  C   UNL     1      58.022   2.318  -1.987  1.00  0.00     0.047 A 
ATOM     15  C   UNL     1      58.996   2.650  -2.933  1.00  0.00     0.115 A 
ATOM     16  C   UNL     1      59.576   0.304  -3.147  1.00  0.00     0.013 A 
ATOM     17  C   UNL     1      59.773   1.638  -3.514  1.00  0.00     0.047 A 
BRANCH  15  18
ATOM     18  O   UNL     1      59.184   3.984  -3.291  1.00  0.00    -0.508 OA
ATOM     19  H   UNL     1      59.725   4.242  -4.107  1.00  0.00     0.293 HD
ENDBRANCH  15  18
ENDBRANCH   1  12
BRANCH  11  20
ATOM     20  C   UNL     1      58.377  -5.796   0.875  1.00  0.00     0.188 C 
ATOM     21  C   UNL     1      57.260  -5.689   1.940  1.00  0.00     0.179 C 
ATOM     22  O   UNL     1      59.495  -4.993   1.226  1.00  0.00    -0.362 OA
ATOM     23  C   UNL     1      57.840  -6.082   3.317  1.00  0.00     0.177 C 
ATOM     24  C   UNL     1      60.105  -5.466   2.417  1.00  0.00     0.176 C 
ATOM     25  C   UNL     1      59.142  -5.309   3.619  1.00  0.00     0.177 C 
BRANCH  21  26
ATOM     26  O   UNL     1      56.757  -4.374   1.973  1.00  0.00    -0.387 OA
ATOM     27  H   UNL     1      56.264  -4.272   2.829  1.00  0.00     0.211 HD
ENDBRANCH  21  26
BRANCH  23  28
ATOM     28  O   UNL     1      56.891  -5.943   4.347  1.00  0.00    -0.387 OA
ATOM     29  H   UNL     1      56.036  -6.341   4.042  1.00  0.00     0.211 HD
ENDBRANCH  23  28
BRANCH  24  30
ATOM     30  C   UNL     1      61.413  -4.696   2.635  1.00  0.00     0.191 C 
BRANCH  30  31
ATOM     31  O   UNL     1      61.273  -3.371   2.202  1.00  0.00    -0.394 OA
ATOM     32  H   UNL     1      60.642  -3.396   1.436  1.00  0.00     0.210 HD
ENDBRANCH  30  31
ENDBRANCH  24  30
BRANCH  25  33
ATOM     33  O   UNL     1      58.870  -3.945   3.833  1.00  0.00    -0.388 OA
ATOM     34  H   UNL     1      58.211  -3.667   3.146  1.00  0.00     0.211 HD
ENDBRANCH  25  33
ENDBRANCH  11  20
BRANCH  10  35
ATOM     35  O   UNL     1      57.101  -7.679  -0.959  1.00  0.00    -0.507 OA
ATOM     36  H   UNL     1      56.211  -8.054  -0.653  1.00  0.00     0.293 HD
ENDBRANCH  10  35
TORSDOF 9
ENDMDL
MODEL 6
REMARK VINA RESULT:    -6.323      1.773      2.922
REMARK INTER + INTRA:          -9.486
REMARK INTER:                  -8.832
REMARK INTRA:                  -0.654
REMARK UNBOUND:                -0.945
REMARK SMILES O=c1c(-c2ccc(O)cc2)coc2c([C@H]3O[C@@H](CO)[C@@H](O)[C@@H](O)[C@H]3O)c(O)ccc12
REMARK SMILES IDX 3 1 11 2 12 3 13 4 30 5 2 6 1 7 29 8 28 9 26 10 14 11 4 12
REMARK SMILES IDX 5 13 6 14 7 15 10 16 9 17 8 18 15 20 24 21 16 22 22 23 17 24
REMARK SMILES IDX 20 25 25 26 23 28 18 30 19 31 21 33 27 35
REMARK H PARENT 8 19 25 27 23 29 19 32 21 34 27 36
REMARK Flexibility Score: inf
ROOT
ATOM      1  C   UNL     1      58.220  -1.066  -1.922  1.00  0.00     0.065 A 
ATOM      2  C   UNL     1      57.891  -1.341  -0.587  1.00  0.00     0.208 A 
ATOM      3  O   UNL     1      57.615  -2.578  -0.193  1.00  0.00    -0.463 OA
ATOM      4  C   UNL     1      57.631  -3.625  -1.016  1.00  0.00     0.147 A 
ATOM      5  C   UNL     1      57.965  -3.439  -2.379  1.00  0.00     0.066 A 
ATOM      6  C   UNL     1      58.265  -2.140  -2.828  1.00  0.00     0.200 A 
ATOM      7  O   UNL     1      58.593  -1.944  -4.031  1.00  0.00    -0.288 OA
ATOM      8  C   UNL     1      58.002  -4.546  -3.240  1.00  0.00     0.020 A 
ATOM      9  C   UNL     1      57.723  -5.822  -2.754  1.00  0.00     0.047 A 
ATOM     10  C   UNL     1      57.395  -6.019  -1.407  1.00  0.00     0.125 A 
ATOM     11  C   UNL     1      57.320  -4.914  -0.525  1.00  0.00     0.069 A 
ENDROOT
BRANCH   1  12
ATOM     12  C   UNL     1      58.516   0.328  -2.340  1.00  0.00    -0.011 A 
ATOM     13  C   UNL     1      57.661   1.378  -1.964  1.00  0.00     0.013 A 
ATOM     14  C   UNL     1      57.933   2.689  -2.364  1.00  0.00     0.047 A 
ATOM     15  C   UNL     1      59.056   2.968  -3.147  1.00  0.00     0.115 A 
ATOM     16  C   UNL     1      59.641   0.613  -3.135  1.00  0.00     0.013 A 
ATOM     17  C   UNL     1      59.910   1.926  -3.533  1.00  0.00     0.047 A 
BRANCH  15  18
ATOM     18  O   UNL     1      59.315   4.280  -3.539  1.00  0.00    -0.508 OA
ATOM     19  H   UNL     1      60.026   4.839  -3.082  1.00  0.00     0.293 HD
ENDBRANCH  15  18
ENDBRANCH   1  12
BRANCH  11  20
ATOM     20  C   UNL     1      56.989  -5.101   0.951  1.00  0.00     0.188 C 
ATOM     21  C   UNL     1      58.243  -5.555   1.734  1.00  0.00     0.179 C 
ATOM     22  O   UNL     1      55.926  -6.031   1.107  1.00  0.00    -0.362 OA
ATOM     23  C   UNL     1      57.865  -5.749   3.219  1.00  0.00     0.177 C 
ATOM     24  C   UNL     1      55.492  -6.083   2.458  1.00  0.00     0.176 C 
ATOM     25  C   UNL     1      56.614  -6.642   3.367  1.00  0.00     0.177 C 
BRANCH  21  26
ATOM     26  O   UNL     1      58.739  -6.754   1.189  1.00  0.00    -0.387 OA
ATOM     27  H   UNL     1      59.703  -6.614   1.004  1.00  0.00     0.211 HD
ENDBRANCH  21  26
BRANCH  23  28
ATOM     28  O   UNL     1      58.948  -6.227   3.981  1.00  0.00    -0.387 OA
ATOM     29  H   UNL     1      59.512  -5.454   4.242  1.00  0.00     0.211 HD
ENDBRANCH  23  28
BRANCH  24  30
ATOM     30  C   UNL     1      54.223  -6.941   2.531  1.00  0.00     0.191 C 
BRANCH  30  31
ATOM     31  O   UNL     1      54.240  -7.734   3.686  1.00  0.00    -0.394 OA
ATOM     32  H   UNL     1      54.380  -8.668   3.377  1.00  0.00     0.210 HD
ENDBRANCH  30  31
ENDBRANCH  24  30
BRANCH  25  33
ATOM     33  O   UNL     1      56.905  -7.968   2.999  1.00  0.00    -0.388 OA
ATOM     34  H   UNL     1      56.451  -8.560   3.653  1.00  0.00     0.211 HD
ENDBRANCH  25  33
ENDBRANCH  11  20
BRANCH  10  35
ATOM     35  O   UNL     1      57.152  -7.314  -0.949  1.00  0.00    -0.507 OA
ATOM     36  H   UNL     1      57.345  -8.128  -1.520  1.00  0.00     0.293 HD
ENDBRANCH  10  35
TORSDOF 9
ENDMDL
MODEL 7
REMARK VINA RESULT:    -6.293      2.355      4.933
REMARK INTER + INTRA:          -9.446
REMARK INTER:                  -8.925
REMARK INTRA:                  -0.521
REMARK UNBOUND:                -0.945
REMARK SMILES O=c1c(-c2ccc(O)cc2)coc2c([C@H]3O[C@@H](CO)[C@@H](O)[C@@H](O)[C@H]3O)c(O)ccc12
REMARK SMILES IDX 3 1 11 2 12 3 13 4 30 5 2 6 1 7 29 8 28 9 26 10 14 11 4 12
REMARK SMILES IDX 5 13 6 14 7 15 10 16 9 17 8 18 15 20 24 21 16 22 22 23 17 24
REMARK SMILES IDX 20 25 25 26 23 28 18 30 19 31 21 33 27 35
REMARK H PARENT 8 19 25 27 23 29 19 32 21 34 27 36
REMARK Flexibility Score: inf
ROOT
ATOM      1  C   UNL     1      58.542  -0.639  -0.512  1.00  0.00     0.065 A 
ATOM      2  C   UNL     1      59.674  -1.145   0.141  1.00  0.00     0.208 A 
ATOM      3  O   UNL     1      59.581  -2.189   0.957  1.00  0.00    -0.463 OA
ATOM      4  C   UNL     1      58.435  -2.817   1.207  1.00  0.00     0.147 A 
ATOM      5  C   UNL     1      57.245  -2.380   0.580  1.00  0.00     0.066 A 
ATOM      6  C   UNL     1      57.308  -1.277  -0.292  1.00  0.00     0.200 A 
ATOM      7  O   UNL     1      56.271  -0.878  -0.889  1.00  0.00    -0.288 OA
ATOM      8  C   UNL     1      56.041  -3.056   0.829  1.00  0.00     0.020 A 
ATOM      9  C   UNL     1      56.020  -4.160   1.679  1.00  0.00     0.047 A 
ATOM     10  C   UNL     1      57.192  -4.605   2.303  1.00  0.00     0.125 A 
ATOM     11  C   UNL     1      58.413  -3.920   2.093  1.00  0.00     0.069 A 
ENDROOT
BRANCH   1  12
ATOM     12  C   UNL     1      58.669   0.535  -1.413  1.00  0.00    -0.011 A 
ATOM     13  C   UNL     1      58.094   1.767  -1.057  1.00  0.00     0.013 A 
ATOM     14  C   UNL     1      58.205   2.872  -1.907  1.00  0.00     0.047 A 
ATOM     15  C   UNL     1      58.884   2.758  -3.124  1.00  0.00     0.115 A 
ATOM     16  C   UNL     1      59.344   0.425  -2.642  1.00  0.00     0.013 A 
ATOM     17  C   UNL     1      59.453   1.531  -3.490  1.00  0.00     0.047 A 
BRANCH  15  18
ATOM     18  O   UNL     1      58.986   3.867  -3.962  1.00  0.00    -0.508 OA
ATOM     19  H   UNL     1      59.802   4.467  -3.950  1.00  0.00     0.293 HD
ENDBRANCH  15  18
ENDBRANCH   1  12
BRANCH  11  20
ATOM     20  C   UNL     1      59.709  -4.396   2.740  1.00  0.00     0.188 C 
ATOM     21  C   UNL     1      59.914  -3.708   4.110  1.00  0.00     0.179 C 
ATOM     22  O   UNL     1      60.812  -4.153   1.877  1.00  0.00    -0.362 OA
ATOM     23  C   UNL     1      61.242  -4.200   4.725  1.00  0.00     0.177 C 
ATOM     24  C   UNL     1      61.995  -4.746   2.390  1.00  0.00     0.176 C 
ATOM     25  C   UNL     1      62.408  -4.072   3.720  1.00  0.00     0.177 C 
BRANCH  21  26
ATOM     26  O   UNL     1      59.935  -2.310   3.944  1.00  0.00    -0.387 OA
ATOM     27  H   UNL     1      59.074  -2.053   3.522  1.00  0.00     0.211 HD
ENDBRANCH  21  26
BRANCH  23  28
ATOM     28  O   UNL     1      61.526  -3.563   5.947  1.00  0.00    -0.387 OA
ATOM     29  H   UNL     1      62.441  -3.183   5.897  1.00  0.00     0.211 HD
ENDBRANCH  23  28
BRANCH  24  30
ATOM     30  C   UNL     1      63.098  -4.631   1.330  1.00  0.00     0.191 C 
BRANCH  30  31
ATOM     31  O   UNL     1      62.992  -3.409   0.651  1.00  0.00    -0.394 OA
ATOM     32  H   UNL     1      62.673  -2.748   1.321  1.00  0.00     0.210 HD
ENDBRANCH  30  31
ENDBRANCH  24  30
BRANCH  25  33
ATOM     33  O   UNL     1      62.717  -2.719   3.490  1.00  0.00    -0.388 OA
ATOM     34  H   UNL     1      61.915  -2.301   3.082  1.00  0.00     0.211 HD
ENDBRANCH  25  33
ENDBRANCH  11  20
BRANCH  10  35
ATOM     35  O   UNL     1      57.140  -5.732   3.124  1.00  0.00    -0.507 OA
ATOM     36  H   UNL     1      57.662  -6.573   2.910  1.00  0.00     0.293 HD
ENDBRANCH  10  35
TORSDOF 9
ENDMDL
MODEL 8
REMARK VINA RESULT:    -6.232      8.853     11.863
REMARK INTER + INTRA:          -9.363
REMARK INTER:                  -8.979
REMARK INTRA:                  -0.384
REMARK UNBOUND:                -0.945
REMARK SMILES O=c1c(-c2ccc(O)cc2)coc2c([C@H]3O[C@@H](CO)[C@@H](O)[C@@H](O)[C@H]3O)c(O)ccc12
REMARK SMILES IDX 3 1 11 2 12 3 13 4 30 5 2 6 1 7 29 8 28 9 26 10 14 11 4 12
REMARK SMILES IDX 5 13 6 14 7 15 10 16 9 17 8 18 15 20 24 21 16 22 22 23 17 24
REMARK SMILES IDX 20 25 25 26 23 28 18 30 19 31 21 33 27 35
REMARK H PARENT 8 19 25 27 23 29 19 32 21 34 27 36
REMARK Flexibility Score: inf
ROOT
ATOM      1  C   UNL     1      49.308  -7.707  -2.666  1.00  0.00     0.065 A 
ATOM      2  C   UNL     1      49.051  -7.339  -3.993  1.00  0.00     0.208 A 
ATOM      3  O   UNL     1      49.982  -7.470  -4.931  1.00  0.00    -0.463 OA
ATOM      4  C   UNL     1      51.199  -7.951  -4.685  1.00  0.00     0.147 A 
ATOM      5  C   UNL     1      51.540  -8.358  -3.374  1.00  0.00     0.066 A 
ATOM      6  C   UNL     1      50.575  -8.235  -2.358  1.00  0.00     0.200 A 
ATOM      7  O   UNL     1      50.837  -8.614  -1.183  1.00  0.00    -0.288 OA
ATOM      8  C   UNL     1      52.816  -8.884  -3.122  1.00  0.00     0.020 A 
ATOM      9  C   UNL     1      53.737  -9.014  -4.158  1.00  0.00     0.047 A 
ATOM     10  C   UNL     1      53.411  -8.618  -5.460  1.00  0.00     0.125 A 
ATOM     11  C   UNL     1      52.142  -8.056  -5.735  1.00  0.00     0.069 A 
ENDROOT
BRANCH   1  12
ATOM     12  C   UNL     1      48.253  -7.544  -1.634  1.00  0.00    -0.011 A 
ATOM     13  C   UNL     1      47.024  -8.214  -1.764  1.00  0.00     0.013 A 
ATOM     14  C   UNL     1      46.026  -8.055  -0.798  1.00  0.00     0.047 A 
ATOM     15  C   UNL     1      46.238  -7.221   0.304  1.00  0.00     0.115 A 
ATOM     16  C   UNL     1      48.458  -6.700  -0.527  1.00  0.00     0.013 A 
ATOM     17  C   UNL     1      47.457  -6.542   0.437  1.00  0.00     0.047 A 
BRANCH  15  18
ATOM     18  O   UNL     1      45.235  -7.071   1.258  1.00  0.00    -0.508 OA
ATOM     19  H   UNL     1      45.421  -6.652   2.162  1.00  0.00     0.293 HD
ENDBRANCH  15  18
ENDBRANCH   1  12
BRANCH  11  20
ATOM     20  C   UNL     1      51.749  -7.637  -7.148  1.00  0.00     0.188 C 
ATOM     21  C   UNL     1      51.877  -6.105  -7.313  1.00  0.00     0.179 C 
ATOM     22  O   UNL     1      50.431  -8.075  -7.446  1.00  0.00    -0.362 OA
ATOM     23  C   UNL     1      51.456  -5.718  -8.748  1.00  0.00     0.177 C 
ATOM     24  C   UNL     1      50.119  -7.846  -8.812  1.00  0.00     0.176 C 
ATOM     25  C   UNL     1      50.086  -6.328  -9.114  1.00  0.00     0.177 C 
BRANCH  21  26
ATOM     26  O   UNL     1      51.064  -5.453  -6.367  1.00  0.00    -0.387 OA
ATOM     27  H   UNL     1      50.124  -5.694  -6.574  1.00  0.00     0.211 HD
ENDBRANCH  21  26
BRANCH  23  28
ATOM     28  O   UNL     1      51.486  -4.325  -8.949  1.00  0.00    -0.387 OA
ATOM     29  H   UNL     1      51.868  -4.147  -9.846  1.00  0.00     0.211 HD
ENDBRANCH  23  28
BRANCH  24  30
ATOM     30  C   UNL     1      48.775  -8.515  -9.125  1.00  0.00     0.191 C 
BRANCH  30  31
ATOM     31  O   UNL     1      47.887  -8.342  -8.055  1.00  0.00    -0.394 OA
ATOM     32  H   UNL     1      47.827  -7.362  -7.902  1.00  0.00     0.210 HD
ENDBRANCH  30  31
ENDBRANCH  24  30
BRANCH  25  33
ATOM     33  O   UNL     1      49.058  -5.719  -8.371  1.00  0.00    -0.388 OA
ATOM     34  H   UNL     1      48.883  -4.834  -8.784  1.00  0.00     0.211 HD
ENDBRANCH  25  33
ENDBRANCH  11  20
BRANCH  10  35
ATOM     35  O   UNL     1      54.348  -8.792  -6.479  1.00  0.00    -0.507 OA
ATOM     36  H   UNL     1      55.240  -9.243  -6.313  1.00  0.00     0.293 HD
ENDBRANCH  10  35
TORSDOF 9
ENDMDL
MODEL 9
REMARK VINA RESULT:    -6.210      2.307      4.984
REMARK INTER + INTRA:          -9.334
REMARK INTER:                  -8.344
REMARK INTRA:                  -0.990
REMARK UNBOUND:                -0.945
REMARK SMILES O=c1c(-c2ccc(O)cc2)coc2c([C@H]3O[C@@H](CO)[C@@H](O)[C@@H](O)[C@H]3O)c(O)ccc12
REMARK SMILES IDX 3 1 11 2 12 3 13 4 30 5 2 6 1 7 29 8 28 9 26 10 14 11 4 12
REMARK SMILES IDX 5 13 6 14 7 15 10 16 9 17 8 18 15 20 24 21 16 22 22 23 17 24
REMARK SMILES IDX 20 25 25 26 23 28 18 30 19 31 21 33 27 35
REMARK H PARENT 8 19 25 27 23 29 19 32 21 34 27 36
REMARK Flexibility Score: inf
ROOT
ATOM      1  C   UNL     1      58.738  -0.646  -0.601  1.00  0.00     0.065 A 
ATOM      2  C   UNL     1      59.950  -1.083  -0.050  1.00  0.00     0.208 A 
ATOM      3  O   UNL     1      59.994  -2.138   0.754  1.00  0.00    -0.463 OA
ATOM      4  C   UNL     1      58.916  -2.844   1.088  1.00  0.00     0.147 A 
ATOM      5  C   UNL     1      57.652  -2.480   0.568  1.00  0.00     0.066 A 
ATOM      6  C   UNL     1      57.571  -1.368  -0.290  1.00  0.00     0.200 A 
ATOM      7  O   UNL     1      56.464  -1.032  -0.794  1.00  0.00    -0.288 OA
ATOM      8  C   UNL     1      56.520  -3.238   0.903  1.00  0.00     0.020 A 
ATOM      9  C   UNL     1      56.642  -4.348   1.736  1.00  0.00     0.047 A 
ATOM     10  C   UNL     1      57.888  -4.720   2.255  1.00  0.00     0.125 A 
ATOM     11  C   UNL     1      59.040  -3.954   1.956  1.00  0.00     0.069 A 
ENDROOT
BRANCH   1  12
ATOM     12  C   UNL     1      58.713   0.542  -1.491  1.00  0.00    -0.011 A 
ATOM     13  C   UNL     1      59.380   0.514  -2.729  1.00  0.00     0.013 A 
ATOM     14  C   UNL     1      59.365   1.634  -3.565  1.00  0.00     0.047 A 
ATOM     15  C   UNL     1      58.693   2.796  -3.176  1.00  0.00     0.115 A 
ATOM     16  C   UNL     1      58.045   1.716  -1.101  1.00  0.00     0.013 A 
ATOM     17  C   UNL     1      58.033   2.835  -1.940  1.00  0.00     0.047 A 
BRANCH  15  18
ATOM     18  O   UNL     1      58.687   3.905  -4.019  1.00  0.00    -0.508 OA
ATOM     19  H   UNL     1      57.873   4.503  -4.103  1.00  0.00     0.293 HD
ENDBRANCH  15  18
ENDBRANCH   1  12
BRANCH  11  20
ATOM     20  C   UNL     1      60.413  -4.348   2.487  1.00  0.00     0.188 C 
ATOM     21  C   UNL     1      61.063  -5.411   1.571  1.00  0.00     0.179 C 
ATOM     22  O   UNL     1      60.311  -4.821   3.823  1.00  0.00    -0.362 OA
ATOM     23  C   UNL     1      62.442  -5.797   2.149  1.00  0.00     0.177 C 
ATOM     24  C   UNL     1      61.597  -5.026   4.388  1.00  0.00     0.176 C 
ATOM     25  C   UNL     1      62.340  -6.164   3.646  1.00  0.00     0.177 C 
BRANCH  21  26
ATOM     26  O   UNL     1      60.229  -6.542   1.484  1.00  0.00    -0.387 OA
ATOM     27  H   UNL     1      60.327  -6.907   0.567  1.00  0.00     0.211 HD
ENDBRANCH  21  26
BRANCH  23  28
ATOM     28  O   UNL     1      63.064  -6.812   1.398  1.00  0.00    -0.387 OA
ATOM     29  H   UNL     1      62.654  -7.681   1.646  1.00  0.00     0.211 HD
ENDBRANCH  23  28
BRANCH  24  30
ATOM     30  C   UNL     1      61.432  -5.337   5.880  1.00  0.00     0.191 C 
BRANCH  30  31
ATOM     31  O   UNL     1      62.450  -6.199   6.312  1.00  0.00    -0.394 OA
ATOM     32  H   UNL     1      63.042  -5.655   6.895  1.00  0.00     0.210 HD
ENDBRANCH  30  31
ENDBRANCH  24  30
BRANCH  25  33
ATOM     33  O   UNL     1      61.642  -7.374   3.813  1.00  0.00    -0.388 OA
ATOM     34  H   UNL     1      60.979  -7.232   4.537  1.00  0.00     0.211 HD
ENDBRANCH  25  33
ENDBRANCH  11  20
BRANCH  10  35
ATOM     35  O   UNL     1      57.977  -5.856   3.061  1.00  0.00    -0.507 OA
ATOM     36  H   UNL     1      58.870  -6.236   3.350  1.00  0.00     0.293 HD
ENDBRANCH  10  35
TORSDOF 9
ENDMDL
