MODEL 1
REMARK VINA RESULT:    -4.542      0.000      0.000
REMARK INTER + INTRA:          -9.934
REMARK INTER:                  -8.259
REMARK INTRA:                  -1.675
REMARK UNBOUND:                -1.675
REMARK SMILES CCCCCCCCCCCCCC[C@H](C)C(=O)[O-]
REMARK SMILES IDX 9 1 10 2 11 3 12 4 13 5 14 6 15 7 16 8 17 9 18 10 19 11 8 12
REMARK SMILES IDX 7 13 6 14 5 15 4 16 3 17 2 18 1 19
REMARK H PARENT
REMARK Flexibility Score: inf
ROOT
ATOM      1  C   UNL     1       3.829  -2.545  -7.893  1.00  0.00     0.000 C 
ENDROOT
BRANCH   1   2
ATOM      2  C   UNL     1       2.303  -2.745  -7.845  1.00  0.00     0.000 C 
BRANCH   2   3
ATOM      3  C   UNL     1       1.847  -4.158  -7.443  1.00  0.00     0.000 C 
BRANCH   3   4
ATOM      4  C   UNL     1       2.286  -5.239  -8.446  1.00  0.00     0.000 C 
BRANCH   4   5
ATOM      5  C   UNL     1       2.919  -6.458  -7.744  1.00  0.00     0.001 C 
BRANCH   5   6
ATOM      6  C   UNL     1       3.067  -6.301  -6.218  1.00  0.00     0.009 C 
BRANCH   6   7
ATOM      7  C   UNL     1       4.527  -6.386  -5.710  1.00  0.00     0.032 C 
ATOM      8  C   UNL     1       5.507  -6.408  -6.889  1.00  0.00     0.014 C 
BRANCH   7   9
ATOM      9  C   UNL     1       4.762  -7.606  -4.861  1.00  0.00     0.044 C 
ATOM     10  O   UNL     1       4.660  -8.755  -5.365  1.00  0.00    -0.550 OA
ATOM     11  O   UNL     1       5.017  -7.480  -3.500  1.00  0.00    -0.550 OA
ENDBRANCH   7   9
ENDBRANCH   6   7
ENDBRANCH   5   6
ENDBRANCH   4   5
ENDBRANCH   3   4
ENDBRANCH   2   3
ENDBRANCH   1   2
BRANCH   1  12
ATOM     12  C   UNL     1       4.392  -2.589  -9.324  1.00  0.00     0.000 C 
BRANCH  12  13
ATOM     13  C   UNL     1       5.553  -3.587  -9.467  1.00  0.00    -0.000 C 
BRANCH  13  14
ATOM     14  C   UNL     1       6.872  -2.901  -9.866  1.00  0.00    -0.000 C 
BRANCH  14  15
ATOM     15  C   UNL     1       6.731  -1.375 -10.018  1.00  0.00    -0.000 C 
BRANCH  15  16
ATOM     16  C   UNL     1       7.359  -0.542  -8.885  1.00  0.00    -0.000 C 
BRANCH  16  17
ATOM     17  C   UNL     1       6.312   0.197  -8.034  1.00  0.00    -0.000 C 
BRANCH  17  18
ATOM     18  C   UNL     1       6.844   0.569  -6.640  1.00  0.00    -0.003 C 
ATOM     19  C   UNL     1       8.281   0.101  -6.409  1.00  0.00     0.004 C 
ENDBRANCH  17  18
ENDBRANCH  16  17
ENDBRANCH  15  16
ENDBRANCH  14  15
ENDBRANCH  13  14
ENDBRANCH  12  13
ENDBRANCH   1  12
TORSDOF 14
ENDMDL
MODEL 2
REMARK VINA RESULT:    -4.463      1.062      1.805
REMARK INTER + INTRA:          -9.790
REMARK INTER:                  -8.238
REMARK INTRA:                  -1.552
REMARK UNBOUND:                -1.675
REMARK SMILES CCCCCCCCCCCCCC[C@H](C)C(=O)[O-]
REMARK SMILES IDX 9 1 10 2 11 3 12 4 13 5 14 6 15 7 16 8 17 9 18 10 19 11 8 12
REMARK SMILES IDX 7 13 6 14 5 15 4 16 3 17 2 18 1 19
REMARK H PARENT
REMARK Flexibility Score: inf
ROOT
ATOM      1  C   UNL     1       1.500  -3.852  -8.197  1.00  0.00     0.000 C 
ENDROOT
BRANCH   1   2
ATOM      2  C   UNL     1       1.387  -4.862  -9.354  1.00  0.00     0.000 C 
BRANCH   2   3
ATOM      3  C   UNL     1       2.613  -5.771  -9.543  1.00  0.00     0.000 C 
BRANCH   3   4
ATOM      4  C   UNL     1       2.364  -7.218  -9.084  1.00  0.00     0.000 C 
BRANCH   4   5
ATOM      5  C   UNL     1       3.184  -7.576  -7.827  1.00  0.00     0.001 C 
BRANCH   5   6
ATOM      6  C   UNL     1       3.110  -6.523  -6.704  1.00  0.00     0.009 C 
BRANCH   6   7
ATOM      7  C   UNL     1       4.484  -5.947  -6.282  1.00  0.00     0.032 C 
ATOM      8  C   UNL     1       5.545  -6.247  -7.348  1.00  0.00     0.014 C 
BRANCH   7   9
ATOM      9  C   UNL     1       4.951  -6.503  -4.963  1.00  0.00     0.044 C 
ATOM     10  O   UNL     1       4.138  -7.090  -4.202  1.00  0.00    -0.550 OA
ATOM     11  O   UNL     1       6.261  -6.307  -4.539  1.00  0.00    -0.550 OA
ENDBRANCH   7   9
ENDBRANCH   6   7
ENDBRANCH   5   6
ENDBRANCH   4   5
ENDBRANCH   3   4
ENDBRANCH   2   3
ENDBRANCH   1   2
BRANCH   1  12
ATOM     12  C   UNL     1       2.274  -2.581  -8.588  1.00  0.00     0.000 C 
BRANCH  12  13
ATOM     13  C   UNL     1       3.695  -2.556  -8.002  1.00  0.00    -0.000 C 
BRANCH  13  14
ATOM     14  C   UNL     1       4.772  -2.863  -9.058  1.00  0.00    -0.000 C 
BRANCH  14  15
ATOM     15  C   UNL     1       5.658  -1.646  -9.380  1.00  0.00    -0.000 C 
BRANCH  15  16
ATOM     16  C   UNL     1       5.806  -0.622  -8.240  1.00  0.00    -0.000 C 
BRANCH  16  17
ATOM     17  C   UNL     1       7.262  -0.176  -8.019  1.00  0.00    -0.000 C 
BRANCH  17  18
ATOM     18  C   UNL     1       7.473   0.482  -6.646  1.00  0.00    -0.003 C 
ATOM     19  C   UNL     1       8.756   0.018  -5.956  1.00  0.00     0.004 C 
ENDBRANCH  17  18
ENDBRANCH  16  17
ENDBRANCH  15  16
ENDBRANCH  14  15
ENDBRANCH  13  14
ENDBRANCH  12  13
ENDBRANCH   1  12
TORSDOF 14
ENDMDL
MODEL 3
REMARK VINA RESULT:    -4.457      3.264      6.310
REMARK INTER + INTRA:          -9.779
REMARK INTER:                  -7.831
REMARK INTRA:                  -1.948
REMARK UNBOUND:                -1.675
REMARK SMILES CCCCCCCCCCCCCC[C@H](C)C(=O)[O-]
REMARK SMILES IDX 9 1 10 2 11 3 12 4 13 5 14 6 15 7 16 8 17 9 18 10 19 11 8 12
REMARK SMILES IDX 7 13 6 14 5 15 4 16 3 17 2 18 1 19
REMARK H PARENT
REMARK Flexibility Score: inf
ROOT
ATOM      1  C   UNL     1       3.528  -4.690  -6.922  1.00  0.00     0.000 C 
ENDROOT
BRANCH   1   2
ATOM      2  C   UNL     1       2.429  -3.652  -7.218  1.00  0.00     0.000 C 
BRANCH   2   3
ATOM      3  C   UNL     1       2.844  -2.525  -8.178  1.00  0.00     0.000 C 
BRANCH   3   4
ATOM      4  C   UNL     1       3.690  -3.025  -9.362  1.00  0.00     0.000 C 
BRANCH   4   5
ATOM      5  C   UNL     1       5.093  -2.385  -9.382  1.00  0.00     0.001 C 
BRANCH   5   6
ATOM      6  C   UNL     1       5.324  -1.335  -8.278  1.00  0.00     0.009 C 
BRANCH   6   7
ATOM      7  C   UNL     1       6.487  -0.355  -8.567  1.00  0.00     0.032 C 
ATOM      8  C   UNL     1       7.750  -1.123  -8.976  1.00  0.00     0.014 C 
BRANCH   7   9
ATOM      9  C   UNL     1       6.810   0.510  -7.378  1.00  0.00     0.044 C 
ATOM     10  O   UNL     1       6.117   1.533  -7.135  1.00  0.00    -0.550 OA
ATOM     11  O   UNL     1       7.918   0.234  -6.585  1.00  0.00    -0.550 OA
ENDBRANCH   7   9
ENDBRANCH   6   7
ENDBRANCH   5   6
ENDBRANCH   4   5
ENDBRANCH   3   4
ENDBRANCH   2   3
ENDBRANCH   1   2
BRANCH   1  12
ATOM     12  C   UNL     1       3.132  -6.115  -7.344  1.00  0.00     0.000 C 
BRANCH  12  13
ATOM     13  C   UNL     1       4.250  -6.827  -8.123  1.00  0.00    -0.000 C 
BRANCH  13  14
ATOM     14  C   UNL     1       5.545  -5.997  -8.185  1.00  0.00    -0.000 C 
BRANCH  14  15
ATOM     15  C   UNL     1       6.796  -6.812  -7.810  1.00  0.00    -0.000 C 
BRANCH  15  16
ATOM     16  C   UNL     1       6.612  -7.798  -6.641  1.00  0.00    -0.000 C 
BRANCH  16  17
ATOM     17  C   UNL     1       7.012  -7.197  -5.283  1.00  0.00    -0.000 C 
BRANCH  17  18
ATOM     18  C   UNL     1       5.854  -6.441  -4.611  1.00  0.00    -0.003 C 
ATOM     19  C   UNL     1       4.721  -7.365  -4.165  1.00  0.00     0.004 C 
ENDBRANCH  17  18
ENDBRANCH  16  17
ENDBRANCH  15  16
ENDBRANCH  14  15
ENDBRANCH  13  14
ENDBRANCH  12  13
ENDBRANCH   1  12
TORSDOF 14
ENDMDL
MODEL 4
REMARK VINA RESULT:    -4.406      1.138      1.816
REMARK INTER + INTRA:          -9.687
REMARK INTER:                  -8.372
REMARK INTRA:                  -1.316
REMARK UNBOUND:                -1.675
REMARK SMILES CCCCCCCCCCCCCC[C@H](C)C(=O)[O-]
REMARK SMILES IDX 9 1 10 2 11 3 12 4 13 5 14 6 15 7 16 8 17 9 18 10 19 11 8 12
REMARK SMILES IDX 7 13 6 14 5 15 4 16 3 17 2 18 1 19
REMARK H PARENT
REMARK Flexibility Score: inf
ROOT
ATOM      1  C   UNL     1       3.422  -3.478  -7.564  1.00  0.00     0.000 C 
ENDROOT
BRANCH   1   2
ATOM      2  C   UNL     1       2.577  -4.681  -7.104  1.00  0.00     0.000 C 
BRANCH   2   3
ATOM      3  C   UNL     1       3.019  -6.038  -7.676  1.00  0.00     0.000 C 
BRANCH   3   4
ATOM      4  C   UNL     1       4.271  -5.937  -8.565  1.00  0.00     0.000 C 
BRANCH   4   5
ATOM      5  C   UNL     1       5.573  -6.036  -7.745  1.00  0.00     0.001 C 
BRANCH   5   6
ATOM      6  C   UNL     1       5.572  -7.162  -6.692  1.00  0.00     0.009 C 
BRANCH   6   7
ATOM      7  C   UNL     1       5.885  -6.685  -5.252  1.00  0.00     0.032 C 
ATOM      8  C   UNL     1       7.243  -7.226  -4.790  1.00  0.00     0.014 C 
BRANCH   7   9
ATOM      9  C   UNL     1       4.830  -7.118  -4.270  1.00  0.00     0.044 C 
ATOM     10  O   UNL     1       5.107  -7.962  -3.377  1.00  0.00    -0.550 OA
ATOM     11  O   UNL     1       3.525  -6.652  -4.385  1.00  0.00    -0.550 OA
ENDBRANCH   7   9
ENDBRANCH   6   7
ENDBRANCH   5   6
ENDBRANCH   4   5
ENDBRANCH   3   4
ENDBRANCH   2   3
ENDBRANCH   1   2
BRANCH   1  12
ATOM     12  C   UNL     1       2.741  -2.661  -8.676  1.00  0.00     0.000 C 
BRANCH  12  13
ATOM     13  C   UNL     1       3.548  -2.665  -9.985  1.00  0.00    -0.000 C 
BRANCH  13  14
ATOM     14  C   UNL     1       5.065  -2.759  -9.740  1.00  0.00    -0.000 C 
BRANCH  14  15
ATOM     15  C   UNL     1       5.796  -1.428  -9.998  1.00  0.00    -0.000 C 
BRANCH  15  16
ATOM     16  C   UNL     1       6.675  -0.926  -8.838  1.00  0.00    -0.000 C 
BRANCH  16  17
ATOM     17  C   UNL     1       5.865  -0.235  -7.727  1.00  0.00    -0.000 C 
BRANCH  17  18
ATOM     18  C   UNL     1       6.665   0.869  -7.017  1.00  0.00    -0.003 C 
ATOM     19  C   UNL     1       7.986   0.365  -6.436  1.00  0.00     0.004 C 
ENDBRANCH  17  18
ENDBRANCH  16  17
ENDBRANCH  15  16
ENDBRANCH  14  15
ENDBRANCH  13  14
ENDBRANCH  12  13
ENDBRANCH   1  12
TORSDOF 14
ENDMDL
MODEL 5
REMARK VINA RESULT:    -4.363      2.673      4.405
REMARK INTER + INTRA:          -9.609
REMARK INTER:                  -7.230
REMARK INTRA:                  -2.379
REMARK UNBOUND:                -1.675
REMARK SMILES CCCCCCCCCCCCCC[C@H](C)C(=O)[O-]
REMARK SMILES IDX 9 1 10 2 11 3 12 4 13 5 14 6 15 7 16 8 17 9 18 10 19 11 8 12
REMARK SMILES IDX 7 13 6 14 5 15 4 16 3 17 2 18 1 19
REMARK H PARENT
REMARK Flexibility Score: inf
ROOT
ATOM      1  C   UNL     1       5.194  -6.189  -8.476  1.00  0.00     0.000 C 
ENDROOT
BRANCH   1   2
ATOM      2  C   UNL     1       3.681  -6.476  -8.450  1.00  0.00     0.000 C 
BRANCH   2   3
ATOM      3  C   UNL     1       3.071  -6.601  -7.043  1.00  0.00     0.000 C 
BRANCH   3   4
ATOM      4  C   UNL     1       3.713  -5.644  -6.023  1.00  0.00     0.000 C 
BRANCH   4   5
ATOM      5  C   UNL     1       4.218  -6.388  -4.770  1.00  0.00     0.001 C 
BRANCH   5   6
ATOM      6  C   UNL     1       4.441  -7.898  -4.980  1.00  0.00     0.009 C 
BRANCH   6   7
ATOM      7  C   UNL     1       5.930  -8.318  -5.037  1.00  0.00     0.032 C 
ATOM      8  C   UNL     1       6.841  -7.106  -4.812  1.00  0.00     0.014 C 
BRANCH   7   9
ATOM      9  C   UNL     1       6.289  -8.956  -6.353  1.00  0.00     0.044 C 
ATOM     10  O   UNL     1       5.403  -9.534  -7.037  1.00  0.00    -0.550 OA
ATOM     11  O   UNL     1       7.610  -8.983  -6.787  1.00  0.00    -0.550 OA
ENDBRANCH   7   9
ENDBRANCH   6   7
ENDBRANCH   5   6
ENDBRANCH   4   5
ENDBRANCH   3   4
ENDBRANCH   2   3
ENDBRANCH   1   2
BRANCH   1  12
ATOM     12  C   UNL     1       5.527  -4.798  -9.041  1.00  0.00     0.000 C 
BRANCH  12  13
ATOM     13  C   UNL     1       4.422  -4.259  -9.964  1.00  0.00    -0.000 C 
BRANCH  13  14
ATOM     14  C   UNL     1       4.047  -2.801  -9.644  1.00  0.00    -0.000 C 
BRANCH  14  15
ATOM     15  C   UNL     1       3.592  -2.607  -8.186  1.00  0.00    -0.000 C 
BRANCH  15  16
ATOM     16  C   UNL     1       2.081  -2.380  -7.995  1.00  0.00    -0.000 C 
BRANCH  16  17
ATOM     17  C   UNL     1       1.258  -3.672  -8.136  1.00  0.00    -0.000 C 
BRANCH  17  18
ATOM     18  C   UNL     1       0.414  -3.694  -9.421  1.00  0.00    -0.003 C 
ATOM     19  C   UNL     1      -0.343  -2.386  -9.656  1.00  0.00     0.004 C 
ENDBRANCH  17  18
ENDBRANCH  16  17
ENDBRANCH  15  16
ENDBRANCH  14  15
ENDBRANCH  13  14
ENDBRANCH  12  13
ENDBRANCH   1  12
TORSDOF 14
ENDMDL
MODEL 6
REMARK VINA RESULT:    -4.229      1.197      1.889
REMARK INTER + INTRA:          -9.364
REMARK INTER:                  -7.765
REMARK INTRA:                  -1.599
REMARK UNBOUND:                -1.675
REMARK SMILES CCCCCCCCCCCCCC[C@H](C)C(=O)[O-]
REMARK SMILES IDX 9 1 10 2 11 3 12 4 13 5 14 6 15 7 16 8 17 9 18 10 19 11 8 12
REMARK SMILES IDX 7 13 6 14 5 15 4 16 3 17 2 18 1 19
REMARK H PARENT
REMARK Flexibility Score: inf
ROOT
ATOM      1  C   UNL     1       3.358  -2.946  -7.535  1.00  0.00     0.000 C 
ENDROOT
BRANCH   1   2
ATOM      2  C   UNL     1       2.417  -4.144  -7.308  1.00  0.00     0.000 C 
BRANCH   2   3
ATOM      3  C   UNL     1       2.150  -5.003  -8.556  1.00  0.00     0.000 C 
BRANCH   3   4
ATOM      4  C   UNL     1       2.757  -6.413  -8.455  1.00  0.00     0.000 C 
BRANCH   4   5
ATOM      5  C   UNL     1       4.285  -6.403  -8.662  1.00  0.00     0.001 C 
BRANCH   5   6
ATOM      6  C   UNL     1       5.079  -7.093  -7.535  1.00  0.00     0.009 C 
BRANCH   6   7
ATOM      7  C   UNL     1       4.329  -7.165  -6.183  1.00  0.00     0.032 C 
ATOM      8  C   UNL     1       4.850  -6.093  -5.219  1.00  0.00     0.014 C 
BRANCH   7   9
ATOM      9  C   UNL     1       4.468  -8.514  -5.529  1.00  0.00     0.044 C 
ATOM     10  O   UNL     1       4.737  -8.596  -4.301  1.00  0.00    -0.550 OA
ATOM     11  O   UNL     1       4.379  -9.677  -6.285  1.00  0.00    -0.550 OA
ENDBRANCH   7   9
ENDBRANCH   6   7
ENDBRANCH   5   6
ENDBRANCH   4   5
ENDBRANCH   3   4
ENDBRANCH   2   3
ENDBRANCH   1   2
BRANCH   1  12
ATOM     12  C   UNL     1       3.676  -2.710  -9.021  1.00  0.00     0.000 C 
BRANCH  12  13
ATOM     13  C   UNL     1       5.176  -2.852  -9.329  1.00  0.00    -0.000 C 
BRANCH  13  14
ATOM     14  C   UNL     1       5.793  -1.545  -9.858  1.00  0.00    -0.000 C 
BRANCH  14  15
ATOM     15  C   UNL     1       6.702  -0.852  -8.825  1.00  0.00    -0.000 C 
BRANCH  15  16
ATOM     16  C   UNL     1       5.965  -0.163  -7.662  1.00  0.00    -0.000 C 
BRANCH  16  17
ATOM     17  C   UNL     1       6.771   0.993  -7.043  1.00  0.00    -0.000 C 
BRANCH  17  18
ATOM     18  C   UNL     1       7.296   1.976  -8.102  1.00  0.00    -0.003 C 
ATOM     19  C   UNL     1       6.334   3.134  -8.366  1.00  0.00     0.004 C 
ENDBRANCH  17  18
ENDBRANCH  16  17
ENDBRANCH  15  16
ENDBRANCH  14  15
ENDBRANCH  13  14
ENDBRANCH  12  13
ENDBRANCH   1  12
TORSDOF 14
ENDMDL
MODEL 7
REMARK VINA RESULT:    -4.147      3.329      6.983
REMARK INTER + INTRA:          -9.215
REMARK INTER:                  -8.003
REMARK INTRA:                  -1.212
REMARK UNBOUND:                -1.675
REMARK SMILES CCCCCCCCCCCCCC[C@H](C)C(=O)[O-]
REMARK SMILES IDX 9 1 10 2 11 3 12 4 13 5 14 6 15 7 16 8 17 9 18 10 19 11 8 12
REMARK SMILES IDX 7 13 6 14 5 15 4 16 3 17 2 18 1 19
REMARK H PARENT
REMARK Flexibility Score: inf
ROOT
ATOM      1  C   UNL     1       2.852  -3.647  -7.149  1.00  0.00     0.000 C 
ENDROOT
BRANCH   1   2
ATOM      2  C   UNL     1       3.350  -2.578  -8.139  1.00  0.00     0.000 C 
BRANCH   2   3
ATOM      3  C   UNL     1       4.589  -2.979  -8.957  1.00  0.00     0.000 C 
BRANCH   3   4
ATOM      4  C   UNL     1       5.313  -1.773  -9.581  1.00  0.00     0.000 C 
BRANCH   4   5
ATOM      5  C   UNL     1       6.838  -1.833  -9.356  1.00  0.00     0.001 C 
BRANCH   5   6
ATOM      6  C   UNL     1       7.477  -0.476  -9.004  1.00  0.00     0.009 C 
BRANCH   6   7
ATOM      7  C   UNL     1       7.355  -0.085  -7.510  1.00  0.00     0.032 C 
ATOM      8  C   UNL     1       6.414   1.113  -7.341  1.00  0.00     0.014 C 
BRANCH   7   9
ATOM      9  C   UNL     1       8.689   0.256  -6.902  1.00  0.00     0.044 C 
ATOM     10  O   UNL     1       8.988   1.458  -6.671  1.00  0.00    -0.550 OA
ATOM     11  O   UNL     1       9.631  -0.738  -6.664  1.00  0.00    -0.550 OA
ENDBRANCH   7   9
ENDBRANCH   6   7
ENDBRANCH   5   6
ENDBRANCH   4   5
ENDBRANCH   3   4
ENDBRANCH   2   3
ENDBRANCH   1   2
BRANCH   1  12
ATOM     12  C   UNL     1       2.674  -5.029  -7.803  1.00  0.00     0.000 C 
BRANCH  12  13
ATOM     13  C   UNL     1       3.500  -6.120  -7.103  1.00  0.00    -0.000 C 
BRANCH  13  14
ATOM     14  C   UNL     1       4.006  -5.677  -5.719  1.00  0.00    -0.000 C 
BRANCH  14  15
ATOM     15  C   UNL     1       3.825  -6.761  -4.641  1.00  0.00    -0.000 C 
BRANCH  15  16
ATOM     16  C   UNL     1       5.130  -7.378  -4.104  1.00  0.00    -0.000 C 
BRANCH  16  17
ATOM     17  C   UNL     1       6.378  -6.563  -4.484  1.00  0.00    -0.000 C 
BRANCH  17  18
ATOM     18  C   UNL     1       7.428  -7.407  -5.225  1.00  0.00    -0.003 C 
ATOM     19  C   UNL     1       6.835  -8.208  -6.384  1.00  0.00     0.004 C 
ENDBRANCH  17  18
ENDBRANCH  16  17
ENDBRANCH  15  16
ENDBRANCH  14  15
ENDBRANCH  13  14
ENDBRANCH  12  13
ENDBRANCH   1  12
TORSDOF 14
ENDMDL
MODEL 8
REMARK VINA RESULT:    -4.129      2.047      2.922
REMARK INTER + INTRA:          -9.184
REMARK INTER:                  -7.817
REMARK INTRA:                  -1.367
REMARK UNBOUND:                -1.675
REMARK SMILES CCCCCCCCCCCCCC[C@H](C)C(=O)[O-]
REMARK SMILES IDX 9 1 10 2 11 3 12 4 13 5 14 6 15 7 16 8 17 9 18 10 19 11 8 12
REMARK SMILES IDX 7 13 6 14 5 15 4 16 3 17 2 18 1 19
REMARK H PARENT
REMARK Flexibility Score: inf
ROOT
ATOM      1  C   UNL     1       4.964  -2.236  -9.026  1.00  0.00     0.000 C 
ENDROOT
BRANCH   1   2
ATOM      2  C   UNL     1       3.999  -2.721 -10.124  1.00  0.00     0.000 C 
BRANCH   2   3
ATOM      3  C   UNL     1       2.716  -3.394  -9.607  1.00  0.00     0.000 C 
BRANCH   3   4
ATOM      4  C   UNL     1       2.201  -2.776  -8.295  1.00  0.00     0.000 C 
BRANCH   4   5
ATOM      5  C   UNL     1       2.304  -3.760  -7.112  1.00  0.00     0.001 C 
BRANCH   5   6
ATOM      6  C   UNL     1       2.855  -5.148  -7.492  1.00  0.00     0.009 C 
BRANCH   6   7
ATOM      7  C   UNL     1       4.296  -5.418  -6.992  1.00  0.00     0.032 C 
ATOM      8  C   UNL     1       5.060  -6.286  -7.998  1.00  0.00     0.014 C 
BRANCH   7   9
ATOM      9  C   UNL     1       4.313  -6.100  -5.651  1.00  0.00     0.044 C 
ATOM     10  O   UNL     1       3.286  -6.699  -5.233  1.00  0.00    -0.550 OA
ATOM     11  O   UNL     1       5.430  -6.011  -4.828  1.00  0.00    -0.550 OA
ENDBRANCH   7   9
ENDBRANCH   6   7
ENDBRANCH   5   6
ENDBRANCH   4   5
ENDBRANCH   3   4
ENDBRANCH   2   3
ENDBRANCH   1   2
BRANCH   1  12
ATOM     12  C   UNL     1       6.365  -1.903  -9.567  1.00  0.00     0.000 C 
BRANCH  12  13
ATOM     13  C   UNL     1       6.960  -0.642  -8.919  1.00  0.00    -0.000 C 
BRANCH  13  14
ATOM     14  C   UNL     1       6.056  -0.067  -7.815  1.00  0.00    -0.000 C 
BRANCH  14  15
ATOM     15  C   UNL     1       6.412   1.385  -7.445  1.00  0.00    -0.000 C 
BRANCH  15  16
ATOM     16  C   UNL     1       7.330   2.110  -8.447  1.00  0.00    -0.000 C 
BRANCH  16  17
ATOM     17  C   UNL     1       6.564   3.061  -9.382  1.00  0.00    -0.000 C 
BRANCH  17  18
ATOM     18  C   UNL     1       5.755   4.118  -8.613  1.00  0.00    -0.003 C 
ATOM     19  C   UNL     1       6.597   5.324  -8.197  1.00  0.00     0.004 C 
ENDBRANCH  17  18
ENDBRANCH  16  17
ENDBRANCH  15  16
ENDBRANCH  14  15
ENDBRANCH  13  14
ENDBRANCH  12  13
ENDBRANCH   1  12
TORSDOF 14
ENDMDL
MODEL 9
REMARK VINA RESULT:    -4.109      3.308      6.525
REMARK INTER + INTRA:          -9.147
REMARK INTER:                  -7.355
REMARK INTRA:                  -1.792
REMARK UNBOUND:                -1.675
REMARK SMILES CCCCCCCCCCCCCC[C@H](C)C(=O)[O-]
REMARK SMILES IDX 9 1 10 2 11 3 12 4 13 5 14 6 15 7 16 8 17 9 18 10 19 11 8 12
REMARK SMILES IDX 7 13 6 14 5 15 4 16 3 17 2 18 1 19
REMARK H PARENT
REMARK Flexibility Score: inf
ROOT
ATOM      1  C   UNL     1       2.100  -4.132  -7.518  1.00  0.00     0.000 C 
ENDROOT
BRANCH   1   2
ATOM      2  C   UNL     1       3.235  -3.099  -7.394  1.00  0.00     0.000 C 
BRANCH   2   3
ATOM      3  C   UNL     1       3.775  -2.567  -8.733  1.00  0.00     0.000 C 
BRANCH   3   4
ATOM      4  C   UNL     1       5.054  -3.288  -9.194  1.00  0.00     0.000 C 
BRANCH   4   5
ATOM      5  C   UNL     1       6.245  -2.318  -9.340  1.00  0.00     0.001 C 
BRANCH   5   6
ATOM      6  C   UNL     1       5.860  -0.829  -9.248  1.00  0.00     0.009 C 
BRANCH   6   7
ATOM      7  C   UNL     1       7.012   0.097  -8.785  1.00  0.00     0.032 C 
ATOM      8  C   UNL     1       8.239  -0.730  -8.382  1.00  0.00     0.014 C 
BRANCH   7   9
ATOM      9  C   UNL     1       6.611   0.966  -7.624  1.00  0.00     0.044 C 
ATOM     10  O   UNL     1       6.324   2.178  -7.812  1.00  0.00    -0.550 OA
ATOM     11  O   UNL     1       6.627   0.464  -6.328  1.00  0.00    -0.550 OA
ENDBRANCH   7   9
ENDBRANCH   6   7
ENDBRANCH   5   6
ENDBRANCH   4   5
ENDBRANCH   3   4
ENDBRANCH   2   3
ENDBRANCH   1   2
BRANCH   1  12
ATOM     12  C   UNL     1       1.458  -4.148  -8.916  1.00  0.00     0.000 C 
BRANCH  12  13
ATOM     13  C   UNL     1       1.894  -5.366  -9.748  1.00  0.00    -0.000 C 
BRANCH  13  14
ATOM     14  C   UNL     1       2.360  -6.541  -8.869  1.00  0.00    -0.000 C 
BRANCH  14  15
ATOM     15  C   UNL     1       3.864  -6.838  -9.017  1.00  0.00    -0.000 C 
BRANCH  15  16
ATOM     16  C   UNL     1       4.675  -6.788  -7.709  1.00  0.00    -0.000 C 
BRANCH  16  17
ATOM     17  C   UNL     1       3.831  -7.123  -6.468  1.00  0.00    -0.000 C 
BRANCH  17  18
ATOM     18  C   UNL     1       4.251  -6.307  -5.234  1.00  0.00    -0.003 C 
ATOM     19  C   UNL     1       5.746  -6.415  -4.932  1.00  0.00     0.004 C 
ENDBRANCH  17  18
ENDBRANCH  16  17
ENDBRANCH  15  16
ENDBRANCH  14  15
ENDBRANCH  13  14
ENDBRANCH  12  13
ENDBRANCH   1  12
TORSDOF 14
ENDMDL
