MODEL 1
REMARK VINA RESULT:    -6.384      0.000      0.000
REMARK INTER + INTRA:          -6.758
REMARK INTER:                  -6.758
REMARK INTRA:                   0.000
REMARK UNBOUND:                 0.000
REMARK SMILES C[C@@H]1CC[C@H]2[N@H+](C1)C[C@@H]1[C@H]3C[C@H]4[C@H](CC(=O)[C@@H]5C[C@H](O)CC[C@@]54C)[C@H]3CC[C@@H]1[C@]2(C)O
REMARK SMILES IDX 5 1 6 2 8 3 7 4 4 5 29 6 3 7 28 8 30 9 2 10 27 11 9 12 1 13
REMARK SMILES IDX 26 14 10 15 25 16 11 17 13 18 12 19 14 20 23 21 15 22 17 23
REMARK SMILES IDX 22 24 24 25 16 26 18 27 21 28 19 29 31 31 20 33
REMARK H PARENT 6 30 31 32 20 34
REMARK Flexibility Score: inf
ROOT
ATOM      1  C   UNL     1      24.369  -0.328  19.347  1.00  0.00     0.216 C 
ATOM      2  N   UNL     1      25.061  -1.456  18.675  1.00  0.00    -0.330 N 
ATOM      3  C   UNL     1      24.173  -2.009  17.634  1.00  0.00     0.266 C 
ATOM      4  C   UNL     1      26.326  -1.021  18.029  1.00  0.00     0.265 C 
ATOM      5  C   UNL     1      25.308   0.354  20.382  1.00  0.00     0.069 C 
ATOM      6  C   UNL     1      22.922  -0.719  19.910  1.00  0.00     0.117 C 
ATOM      7  C   UNL     1      26.631   0.789  19.751  1.00  0.00     0.015 C 
ATOM      8  C   UNL     1      22.434  -2.190  19.527  1.00  0.00     0.036 C 
ATOM      9  C   UNL     1      22.845  -0.608  21.467  1.00  0.00     0.049 C 
ATOM     10  C   UNL     1      27.313  -0.370  19.016  1.00  0.00     0.041 C 
ATOM     11  C   UNL     1      20.894  -2.338  19.580  1.00  0.00     0.007 C 
ATOM     12  C   UNL     1      23.071  -2.866  18.256  1.00  0.00     0.054 C 
ATOM     13  C   UNL     1      27.937  -1.391  19.982  1.00  0.00     0.013 C 
ATOM     14  C   UNL     1      20.247  -2.044  18.236  1.00  0.00     0.004 C 
ATOM     15  C   UNL     1      22.127  -3.430  17.111  1.00  0.00     0.002 C 
ATOM     16  C   UNL     1      20.616  -3.095  17.190  1.00  0.00    -0.004 C 
ATOM     17  C   UNL     1      22.184  -4.969  17.017  1.00  0.00     0.009 C 
ATOM     18  C   UNL     1      19.868  -4.444  17.384  1.00  0.00     0.003 C 
ATOM     19  C   UNL     1      20.968  -5.443  17.805  1.00  0.00    -0.000 C 
ATOM     20  C   UNL     1      19.164  -4.844  16.064  1.00  0.00     0.080 C 
ATOM     21  C   UNL     1      20.583  -6.970  17.704  1.00  0.00    -0.020 C 
ATOM     22  C   UNL     1      18.822  -6.297  16.035  1.00  0.00     0.136 C 
ATOM     23  C   UNL     1      19.923  -7.295  16.328  1.00  0.00     0.065 C 
ATOM     24  C   UNL     1      19.609  -7.326  18.891  1.00  0.00     0.010 C 
ATOM     25  C   UNL     1      21.877  -7.817  17.865  1.00  0.00     0.012 C 
ATOM     26  O   UNL     1      17.699  -6.650  15.703  1.00  0.00    -0.299 OA
ATOM     27  C   UNL     1      19.444  -8.772  16.232  1.00  0.00     0.043 C 
ATOM     28  C   UNL     1      18.426  -8.239  18.521  1.00  0.00     0.032 C 
ATOM     29  C   UNL     1      18.829  -9.339  17.533  1.00  0.00     0.115 C 
ATOM     30  H   UNL     1      25.285  -2.201  19.377  1.00  0.00     0.348 HD
ENDROOT
BRANCH   6  31
ATOM     31  O   UNL     1      21.998   0.203  19.375  1.00  0.00    -0.384 OA
ATOM     32  H   UNL     1      21.344  -0.295  18.818  1.00  0.00     0.211 HD
ENDBRANCH   6  31
BRANCH  29  33
ATOM     33  O   UNL     1      17.707 -10.122  17.214  1.00  0.00    -0.393 OA
ATOM     34  H   UNL     1      17.926 -10.615  16.380  1.00  0.00     0.210 HD
ENDBRANCH  29  33
TORSDOF 2
ENDMDL
MODEL 2
REMARK VINA RESULT:    -6.285      2.635      8.565
REMARK INTER + INTRA:          -6.652
REMARK INTER:                  -6.652
REMARK INTRA:                   0.000
REMARK UNBOUND:                 0.000
REMARK SMILES C[C@@H]1CC[C@H]2[N@H+](C1)C[C@@H]1[C@H]3C[C@H]4[C@H](CC(=O)[C@@H]5C[C@H](O)CC[C@@]54C)[C@H]3CC[C@@H]1[C@]2(C)O
REMARK SMILES IDX 5 1 6 2 8 3 7 4 4 5 29 6 3 7 28 8 30 9 2 10 27 11 9 12 1 13
REMARK SMILES IDX 26 14 10 15 25 16 11 17 13 18 12 19 14 20 23 21 15 22 17 23
REMARK SMILES IDX 22 24 24 25 16 26 18 27 21 28 19 29 31 31 20 33
REMARK H PARENT 6 30 31 32 20 34
REMARK Flexibility Score: inf
ROOT
ATOM      1  C   UNL     1      18.396  -6.438  17.690  1.00  0.00     0.216 C 
ATOM      2  N   UNL     1      18.225  -5.165  18.434  1.00  0.00    -0.330 N 
ATOM      3  C   UNL     1      19.008  -4.110  17.762  1.00  0.00     0.266 C 
ATOM      4  C   UNL     1      16.802  -4.738  18.474  1.00  0.00     0.265 C 
ATOM      5  C   UNL     1      17.505  -7.556  18.302  1.00  0.00     0.069 C 
ATOM      6  C   UNL     1      19.931  -6.845  17.480  1.00  0.00     0.117 C 
ATOM      7  C   UNL     1      16.038  -7.134  18.381  1.00  0.00     0.015 C 
ATOM      8  C   UNL     1      20.983  -5.751  17.975  1.00  0.00     0.036 C 
ATOM      9  C   UNL     1      20.292  -8.181  18.204  1.00  0.00     0.049 C 
ATOM     10  C   UNL     1      15.875  -5.792  19.106  1.00  0.00     0.041 C 
ATOM     11  C   UNL     1      22.360  -5.894  17.281  1.00  0.00     0.007 C 
ATOM     12  C   UNL     1      20.498  -4.257  18.071  1.00  0.00     0.054 C 
ATOM     13  C   UNL     1      16.076  -5.919  20.625  1.00  0.00     0.013 C 
ATOM     14  C   UNL     1      22.452  -5.048  16.021  1.00  0.00     0.004 C 
ATOM     15  C   UNL     1      21.310  -3.119  17.321  1.00  0.00     0.002 C 
ATOM     16  C   UNL     1      22.429  -3.554  16.340  1.00  0.00    -0.004 C 
ATOM     17  C   UNL     1      22.006  -2.156  18.306  1.00  0.00     0.009 C 
ATOM     18  C   UNL     1      23.769  -3.031  16.929  1.00  0.00     0.003 C 
ATOM     19  C   UNL     1      23.438  -2.670  18.393  1.00  0.00    -0.000 C 
ATOM     20  C   UNL     1      24.259  -1.815  16.104  1.00  0.00     0.080 C 
ATOM     21  C   UNL     1      24.495  -1.761  19.132  1.00  0.00    -0.020 C 
ATOM     22  C   UNL     1      25.261  -1.002  16.857  1.00  0.00     0.136 C 
ATOM     23  C   UNL     1      24.899  -0.537  18.252  1.00  0.00     0.065 C 
ATOM     24  C   UNL     1      25.756  -2.638  19.486  1.00  0.00     0.010 C 
ATOM     25  C   UNL     1      23.867  -1.253  20.461  1.00  0.00     0.012 C 
ATOM     26  O   UNL     1      26.302  -0.664  16.311  1.00  0.00    -0.299 OA
ATOM     27  C   UNL     1      26.012   0.328  18.911  1.00  0.00     0.043 C 
ATOM     28  C   UNL     1      27.118  -1.958  19.253  1.00  0.00     0.032 C 
ATOM     29  C   UNL     1      27.103  -0.478  19.655  1.00  0.00     0.115 C 
ATOM     30  H   UNL     1      18.565  -5.283  19.418  1.00  0.00     0.348 HD
ENDROOT
BRANCH   6  31
ATOM     31  O   UNL     1      20.127  -7.048  16.097  1.00  0.00    -0.384 OA
ATOM     32  H   UNL     1      19.899  -6.207  15.621  1.00  0.00     0.211 HD
ENDBRANCH   6  31
BRANCH  29  33
ATOM     33  O   UNL     1      28.360   0.094  19.397  1.00  0.00    -0.393 OA
ATOM     34  H   UNL     1      28.511   0.786  20.094  1.00  0.00     0.210 HD
ENDBRANCH  29  33
TORSDOF 2
ENDMDL
MODEL 3
REMARK VINA RESULT:    -5.298      2.121      4.095
REMARK INTER + INTRA:          -5.608
REMARK INTER:                  -5.608
REMARK INTRA:                   0.000
REMARK UNBOUND:                 0.000
REMARK SMILES C[C@@H]1CC[C@H]2[N@H+](C1)C[C@@H]1[C@H]3C[C@H]4[C@H](CC(=O)[C@@H]5C[C@H](O)CC[C@@]54C)[C@H]3CC[C@@H]1[C@]2(C)O
REMARK SMILES IDX 5 1 6 2 8 3 7 4 4 5 29 6 3 7 28 8 30 9 2 10 27 11 9 12 1 13
REMARK SMILES IDX 26 14 10 15 25 16 11 17 13 18 12 19 14 20 23 21 15 22 17 23
REMARK SMILES IDX 22 24 24 25 16 26 18 27 21 28 19 29 31 31 20 33
REMARK H PARENT 6 30 31 32 20 34
REMARK Flexibility Score: inf
ROOT
ATOM      1  C   UNL     1      23.667  -1.267  18.955  1.00  0.00     0.216 C 
ATOM      2  N   UNL     1      22.229  -0.973  19.179  1.00  0.00    -0.330 N 
ATOM      3  C   UNL     1      21.477  -2.242  19.182  1.00  0.00     0.266 C 
ATOM      4  C   UNL     1      22.001  -0.291  20.480  1.00  0.00     0.265 C 
ATOM      5  C   UNL     1      24.514   0.034  19.049  1.00  0.00     0.069 C 
ATOM      6  C   UNL     1      23.935  -2.148  17.646  1.00  0.00     0.117 C 
ATOM      7  C   UNL     1      24.280   0.772  20.367  1.00  0.00     0.015 C 
ATOM      8  C   UNL     1      22.616  -2.664  16.909  1.00  0.00     0.036 C 
ATOM      9  C   UNL     1      24.778  -1.379  16.579  1.00  0.00     0.049 C 
ATOM     10  C   UNL     1      22.788   1.026  20.615  1.00  0.00     0.041 C 
ATOM     11  C   UNL     1      22.873  -3.917  16.037  1.00  0.00     0.007 C 
ATOM     12  C   UNL     1      21.295  -2.771  17.759  1.00  0.00     0.054 C 
ATOM     13  C   UNL     1      22.227   2.141  19.718  1.00  0.00     0.013 C 
ATOM     14  C   UNL     1      22.644  -5.206  16.809  1.00  0.00     0.004 C 
ATOM     15  C   UNL     1      20.498  -4.143  17.800  1.00  0.00     0.002 C 
ATOM     16  C   UNL     1      21.172  -5.391  17.175  1.00  0.00    -0.004 C 
ATOM     17  C   UNL     1      19.129  -4.041  17.094  1.00  0.00     0.009 C 
ATOM     18  C   UNL     1      20.289  -5.820  15.970  1.00  0.00     0.003 C 
ATOM     19  C   UNL     1      19.379  -4.602  15.699  1.00  0.00    -0.000 C 
ATOM     20  C   UNL     1      19.493  -7.097  16.338  1.00  0.00     0.080 C 
ATOM     21  C   UNL     1      18.121  -4.874  14.787  1.00  0.00    -0.020 C 
ATOM     22  C   UNL     1      18.321  -7.300  15.434  1.00  0.00     0.136 C 
ATOM     23  C   UNL     1      17.352  -6.150  15.253  1.00  0.00     0.065 C 
ATOM     24  C   UNL     1      18.601  -5.025  13.294  1.00  0.00     0.010 C 
ATOM     25  C   UNL     1      17.173  -3.645  14.872  1.00  0.00     0.012 C 
ATOM     26  O   UNL     1      18.126  -8.397  14.929  1.00  0.00    -0.299 OA
ATOM     27  C   UNL     1      16.161  -6.502  14.318  1.00  0.00     0.043 C 
ATOM     28  C   UNL     1      17.927  -6.155  12.495  1.00  0.00     0.032 C 
ATOM     29  C   UNL     1      16.432  -6.276  12.811  1.00  0.00     0.115 C 
ATOM     30  H   UNL     1      21.872  -0.354  18.412  1.00  0.00     0.348 HD
ENDROOT
BRANCH   6  31
ATOM     31  O   UNL     1      24.685  -3.276  18.044  1.00  0.00    -0.384 OA
ATOM     32  H   UNL     1      25.649  -3.048  17.985  1.00  0.00     0.211 HD
ENDBRANCH   6  31
BRANCH  29  33
ATOM     33  O   UNL     1      15.877  -7.336  12.075  1.00  0.00    -0.393 OA
ATOM     34  H   UNL     1      15.072  -6.978  11.615  1.00  0.00     0.210 HD
ENDBRANCH  29  33
TORSDOF 2
ENDMDL
MODEL 4
REMARK VINA RESULT:    -5.298      2.776      8.349
REMARK INTER + INTRA:          -5.607
REMARK INTER:                  -5.607
REMARK INTRA:                   0.000
REMARK UNBOUND:                 0.000
REMARK SMILES C[C@@H]1CC[C@H]2[N@H+](C1)C[C@@H]1[C@H]3C[C@H]4[C@H](CC(=O)[C@@H]5C[C@H](O)CC[C@@]54C)[C@H]3CC[C@@H]1[C@]2(C)O
REMARK SMILES IDX 5 1 6 2 8 3 7 4 4 5 29 6 3 7 28 8 30 9 2 10 27 11 9 12 1 13
REMARK SMILES IDX 26 14 10 15 25 16 11 17 13 18 12 19 14 20 23 21 15 22 17 23
REMARK SMILES IDX 22 24 24 25 16 26 18 27 21 28 19 29 31 31 20 33
REMARK H PARENT 6 30 31 32 20 34
REMARK Flexibility Score: inf
ROOT
ATOM      1  C   UNL     1      18.465  -6.503  14.845  1.00  0.00     0.216 C 
ATOM      2  N   UNL     1      19.843  -6.825  15.293  1.00  0.00    -0.330 N 
ATOM      3  C   UNL     1      19.946  -6.573  16.743  1.00  0.00     0.266 C 
ATOM      4  C   UNL     1      20.186  -8.249  15.041  1.00  0.00     0.265 C 
ATOM      5  C   UNL     1      18.280  -6.854  13.341  1.00  0.00     0.069 C 
ATOM      6  C   UNL     1      17.999  -5.025  15.250  1.00  0.00     0.117 C 
ATOM      7  C   UNL     1      18.652  -8.307  13.046  1.00  0.00     0.015 C 
ATOM      8  C   UNL     1      19.032  -4.231  16.173  1.00  0.00     0.036 C 
ATOM      9  C   UNL     1      17.727  -4.128  14.000  1.00  0.00     0.049 C 
ATOM     10  C   UNL     1      20.056  -8.646  13.558  1.00  0.00     0.041 C 
ATOM     11  C   UNL     1      18.355  -3.100  16.985  1.00  0.00     0.007 C 
ATOM     12  C   UNL     1      20.049  -5.074  17.029  1.00  0.00     0.054 C 
ATOM     13  C   UNL     1      21.163  -8.029  12.686  1.00  0.00     0.013 C 
ATOM     14  C   UNL     1      17.889  -3.579  18.350  1.00  0.00     0.004 C 
ATOM     15  C   UNL     1      20.141  -4.839  18.595  1.00  0.00     0.002 C 
ATOM     16  C   UNL     1      19.066  -3.938  19.256  1.00  0.00    -0.004 C 
ATOM     17  C   UNL     1      21.488  -4.210  19.010  1.00  0.00     0.009 C 
ATOM     18  C   UNL     1      19.809  -2.693  19.818  1.00  0.00     0.003 C 
ATOM     19  C   UNL     1      21.191  -2.720  19.131  1.00  0.00    -0.000 C 
ATOM     20  C   UNL     1      19.901  -2.796  21.361  1.00  0.00     0.080 C 
ATOM     21  C   UNL     1      22.300  -1.806  19.783  1.00  0.00    -0.020 C 
ATOM     22  C   UNL     1      20.963  -1.903  21.914  1.00  0.00     0.136 C 
ATOM     23  C   UNL     1      22.356  -2.005  21.330  1.00  0.00     0.065 C 
ATOM     24  C   UNL     1      21.993  -0.303  19.422  1.00  0.00     0.010 C 
ATOM     25  C   UNL     1      23.677  -2.183  19.167  1.00  0.00     0.012 C 
ATOM     26  O   UNL     1      20.711  -1.177  22.866  1.00  0.00    -0.299 OA
ATOM     27  C   UNL     1      23.373  -1.049  22.016  1.00  0.00     0.043 C 
ATOM     28  C   UNL     1      22.189   0.704  20.570  1.00  0.00     0.032 C 
ATOM     29  C   UNL     1      23.422   0.379  21.422  1.00  0.00     0.115 C 
ATOM     30  H   UNL     1      20.531  -6.222  14.781  1.00  0.00     0.348 HD
ENDROOT
BRANCH   6  31
ATOM     31  O   UNL     1      16.783  -5.147  15.956  1.00  0.00    -0.384 OA
ATOM     32  H   UNL     1      16.035  -5.018  15.316  1.00  0.00     0.211 HD
ENDBRANCH   6  31
BRANCH  29  33
ATOM     33  O   UNL     1      23.534   1.313  22.466  1.00  0.00    -0.393 OA
ATOM     34  H   UNL     1      22.692   1.263  22.990  1.00  0.00     0.210 HD
ENDBRANCH  29  33
TORSDOF 2
ENDMDL
MODEL 5
REMARK VINA RESULT:    -5.220      5.792      8.659
REMARK INTER + INTRA:          -5.525
REMARK INTER:                  -5.525
REMARK INTRA:                   0.000
REMARK UNBOUND:                 0.000
REMARK SMILES C[C@@H]1CC[C@H]2[N@H+](C1)C[C@@H]1[C@H]3C[C@H]4[C@H](CC(=O)[C@@H]5C[C@H](O)CC[C@@]54C)[C@H]3CC[C@@H]1[C@]2(C)O
REMARK SMILES IDX 5 1 6 2 8 3 7 4 4 5 29 6 3 7 28 8 30 9 2 10 27 11 9 12 1 13
REMARK SMILES IDX 26 14 10 15 25 16 11 17 13 18 12 19 14 20 23 21 15 22 17 23
REMARK SMILES IDX 22 24 24 25 16 26 18 27 21 28 19 29 31 31 20 33
REMARK H PARENT 6 30 31 32 20 34
REMARK Flexibility Score: inf
ROOT
ATOM      1  C   UNL     1      20.956  -8.869  17.600  1.00  0.00     0.216 C 
ATOM      2  N   UNL     1      19.572  -8.335  17.651  1.00  0.00    -0.330 N 
ATOM      3  C   UNL     1      18.882  -8.676  16.393  1.00  0.00     0.266 C 
ATOM      4  C   UNL     1      18.799  -8.914  18.780  1.00  0.00     0.265 C 
ATOM      5  C   UNL     1      21.690  -8.625  18.950  1.00  0.00     0.069 C 
ATOM      6  C   UNL     1      21.767  -8.399  16.302  1.00  0.00     0.117 C 
ATOM      7  C   UNL     1      20.904  -9.186  20.134  1.00  0.00     0.015 C 
ATOM      8  C   UNL     1      20.906  -7.570  15.243  1.00  0.00     0.036 C 
ATOM      9  C   UNL     1      23.006  -7.518  16.666  1.00  0.00     0.049 C 
ATOM     10  C   UNL     1      19.461  -8.670  20.150  1.00  0.00     0.041 C 
ATOM     11  C   UNL     1      21.509  -7.619  13.818  1.00  0.00     0.007 C 
ATOM     12  C   UNL     1      19.344  -7.767  15.254  1.00  0.00     0.054 C 
ATOM     13  C   UNL     1      19.369  -7.200  20.594  1.00  0.00     0.013 C 
ATOM     14  C   UNL     1      20.945  -8.770  13.000  1.00  0.00     0.004 C 
ATOM     15  C   UNL     1      18.595  -8.171  13.915  1.00  0.00     0.002 C 
ATOM     16  C   UNL     1      19.462  -8.571  12.693  1.00  0.00    -0.004 C 
ATOM     17  C   UNL     1      17.684  -7.039  13.395  1.00  0.00     0.009 C 
ATOM     18  C   UNL     1      19.200  -7.507  11.590  1.00  0.00     0.003 C 
ATOM     19  C   UNL     1      18.520  -6.336  12.332  1.00  0.00    -0.000 C 
ATOM     20  C   UNL     1      18.308  -8.117  10.481  1.00  0.00     0.080 C 
ATOM     21  C   UNL     1      17.794  -5.274  11.418  1.00  0.00    -0.020 C 
ATOM     22  C   UNL     1      17.658  -7.061   9.649  1.00  0.00     0.136 C 
ATOM     23  C   UNL     1      16.883  -5.970  10.359  1.00  0.00     0.065 C 
ATOM     24  C   UNL     1      18.886  -4.380  10.715  1.00  0.00     0.010 C 
ATOM     25  C   UNL     1      16.922  -4.357  12.322  1.00  0.00     0.012 C 
ATOM     26  O   UNL     1      17.694  -7.141   8.429  1.00  0.00    -0.299 OA
ATOM     27  C   UNL     1      16.227  -4.956   9.380  1.00  0.00     0.043 C 
ATOM     28  C   UNL     1      18.622  -4.061   9.233  1.00  0.00     0.032 C 
ATOM     29  C   UNL     1      17.141  -3.783   8.954  1.00  0.00     0.115 C 
ATOM     30  H   UNL     1      19.600  -7.293  17.767  1.00  0.00     0.348 HD
ENDROOT
BRANCH   6  31
ATOM     31  O   UNL     1      22.249  -9.561  15.663  1.00  0.00    -0.384 OA
ATOM     32  H   UNL     1      22.353 -10.275  16.345  1.00  0.00     0.211 HD
ENDBRANCH   6  31
BRANCH  29  33
ATOM     33  O   UNL     1      16.958  -3.524   7.585  1.00  0.00    -0.393 OA
ATOM     34  H   UNL     1      17.756  -3.881   7.114  1.00  0.00     0.210 HD
ENDBRANCH  29  33
TORSDOF 2
ENDMDL
MODEL 6
REMARK VINA RESULT:    -5.176      1.569      1.978
REMARK INTER + INTRA:          -5.478
REMARK INTER:                  -5.478
REMARK INTRA:                   0.000
REMARK UNBOUND:                 0.000
REMARK SMILES C[C@@H]1CC[C@H]2[N@H+](C1)C[C@@H]1[C@H]3C[C@H]4[C@H](CC(=O)[C@@H]5C[C@H](O)CC[C@@]54C)[C@H]3CC[C@@H]1[C@]2(C)O
REMARK SMILES IDX 5 1 6 2 8 3 7 4 4 5 29 6 3 7 28 8 30 9 2 10 27 11 9 12 1 13
REMARK SMILES IDX 26 14 10 15 25 16 11 17 13 18 12 19 14 20 23 21 15 22 17 23
REMARK SMILES IDX 22 24 24 25 16 26 18 27 21 28 19 29 31 31 20 33
REMARK H PARENT 6 30 31 32 20 34
REMARK Flexibility Score: inf
ROOT
ATOM      1  C   UNL     1      23.633  -0.817  18.856  1.00  0.00     0.216 C 
ATOM      2  N   UNL     1      24.157  -2.151  18.468  1.00  0.00    -0.330 N 
ATOM      3  C   UNL     1      23.104  -2.886  17.742  1.00  0.00     0.266 C 
ATOM      4  C   UNL     1      25.346  -2.040  17.584  1.00  0.00     0.265 C 
ATOM      5  C   UNL     1      24.744   0.035  19.533  1.00  0.00     0.069 C 
ATOM      6  C   UNL     1      22.256  -0.892  19.670  1.00  0.00     0.117 C 
ATOM      7  C   UNL     1      25.991   0.143  18.656  1.00  0.00     0.015 C 
ATOM      8  C   UNL     1      21.633  -2.357  19.791  1.00  0.00     0.036 C 
ATOM      9  C   UNL     1      22.400  -0.339  21.124  1.00  0.00     0.049 C 
ATOM     10  C   UNL     1      26.496  -1.237  18.219  1.00  0.00     0.041 C 
ATOM     11  C   UNL     1      20.109  -2.334  20.060  1.00  0.00     0.007 C 
ATOM     12  C   UNL     1      22.048  -3.422  18.709  1.00  0.00     0.054 C 
ATOM     13  C   UNL     1      27.185  -1.999  19.363  1.00  0.00     0.013 C 
ATOM     14  C   UNL     1      19.303  -2.370  18.771  1.00  0.00     0.004 C 
ATOM     15  C   UNL     1      20.925  -4.192  17.894  1.00  0.00     0.002 C 
ATOM     16  C   UNL     1      19.461  -3.703  18.043  1.00  0.00    -0.004 C 
ATOM     17  C   UNL     1      20.876  -5.693  18.249  1.00  0.00     0.009 C 
ATOM     18  C   UNL     1      18.667  -4.864  18.707  1.00  0.00     0.003 C 
ATOM     19  C   UNL     1      19.752  -5.805  19.273  1.00  0.00    -0.000 C 
ATOM     20  C   UNL     1      17.767  -5.550  17.650  1.00  0.00     0.080 C 
ATOM     21  C   UNL     1      19.267  -7.254  19.668  1.00  0.00    -0.020 C 
ATOM     22  C   UNL     1      17.337  -6.912  18.087  1.00  0.00     0.136 C 
ATOM     23  C   UNL     1      18.406  -7.888  18.531  1.00  0.00     0.065 C 
ATOM     24  C   UNL     1      18.446  -7.165  21.009  1.00  0.00     0.010 C 
ATOM     25  C   UNL     1      20.518  -8.142  19.921  1.00  0.00     0.012 C 
ATOM     26  O   UNL     1      16.160  -7.234  18.002  1.00  0.00    -0.299 OA
ATOM     27  C   UNL     1      17.832  -9.279  18.926  1.00  0.00     0.043 C 
ATOM     28  C   UNL     1      17.170  -8.025  21.060  1.00  0.00     0.032 C 
ATOM     29  C   UNL     1      17.368  -9.394  20.397  1.00  0.00     0.115 C 
ATOM     30  H   UNL     1      24.431  -2.685  19.328  1.00  0.00     0.348 HD
ENDROOT
BRANCH   6  31
ATOM     31  O   UNL     1      21.324  -0.073  18.997  1.00  0.00    -0.384 OA
ATOM     32  H   UNL     1      21.393   0.847  19.363  1.00  0.00     0.211 HD
ENDBRANCH   6  31
BRANCH  29  33
ATOM     33  O   UNL     1      16.167 -10.122  20.450  1.00  0.00    -0.393 OA
ATOM     34  H   UNL     1      16.362 -10.964  20.941  1.00  0.00     0.210 HD
ENDBRANCH  29  33
TORSDOF 2
ENDMDL
MODEL 7
REMARK VINA RESULT:    -5.162      4.634      7.461
REMARK INTER + INTRA:          -5.464
REMARK INTER:                  -5.464
REMARK INTRA:                   0.000
REMARK UNBOUND:                 0.000
REMARK SMILES C[C@@H]1CC[C@H]2[N@H+](C1)C[C@@H]1[C@H]3C[C@H]4[C@H](CC(=O)[C@@H]5C[C@H](O)CC[C@@]54C)[C@H]3CC[C@@H]1[C@]2(C)O
REMARK SMILES IDX 5 1 6 2 8 3 7 4 4 5 29 6 3 7 28 8 30 9 2 10 27 11 9 12 1 13
REMARK SMILES IDX 26 14 10 15 25 16 11 17 13 18 12 19 14 20 23 21 15 22 17 23
REMARK SMILES IDX 22 24 24 25 16 26 18 27 21 28 19 29 31 31 20 33
REMARK H PARENT 6 30 31 32 20 34
REMARK Flexibility Score: inf
ROOT
ATOM      1  C   UNL     1      20.638  -5.392  18.220  1.00  0.00     0.216 C 
ATOM      2  N   UNL     1      19.191  -5.566  17.934  1.00  0.00    -0.330 N 
ATOM      3  C   UNL     1      19.013  -6.752  17.076  1.00  0.00     0.266 C 
ATOM      4  C   UNL     1      18.404  -5.765  19.178  1.00  0.00     0.265 C 
ATOM      5  C   UNL     1      20.865  -4.213  19.209  1.00  0.00     0.069 C 
ATOM      6  C   UNL     1      21.541  -5.342  16.899  1.00  0.00     0.117 C 
ATOM      7  C   UNL     1      20.045  -4.378  20.488  1.00  0.00     0.015 C 
ATOM      8  C   UNL     1      20.751  -5.628  15.541  1.00  0.00     0.036 C 
ATOM      9  C   UNL     1      22.257  -3.964  16.725  1.00  0.00     0.049 C 
ATOM     10  C   UNL     1      18.560  -4.608  20.182  1.00  0.00     0.041 C 
ATOM     11  C   UNL     1      21.681  -6.120  14.405  1.00  0.00     0.007 C 
ATOM     12  C   UNL     1      19.409  -6.445  15.632  1.00  0.00     0.054 C 
ATOM     13  C   UNL     1      17.852  -3.324  19.715  1.00  0.00     0.013 C 
ATOM     14  C   UNL     1      21.784  -7.636  14.371  1.00  0.00     0.004 C 
ATOM     15  C   UNL     1      19.221  -7.745  14.742  1.00  0.00     0.002 C 
ATOM     16  C   UNL     1      20.457  -8.284  13.977  1.00  0.00    -0.004 C 
ATOM     17  C   UNL     1      18.141  -7.554  13.656  1.00  0.00     0.009 C 
ATOM     18  C   UNL     1      20.137  -8.156  12.461  1.00  0.00     0.003 C 
ATOM     19  C   UNL     1      18.925  -7.201  12.398  1.00  0.00    -0.000 C 
ATOM     20  C   UNL     1      19.832  -9.556  11.875  1.00  0.00     0.080 C 
ATOM     21  C   UNL     1      18.139  -7.180  11.030  1.00  0.00    -0.020 C 
ATOM     22  C   UNL     1      19.094  -9.466  10.579  1.00  0.00     0.136 C 
ATOM     23  C   UNL     1      17.833  -8.628  10.534  1.00  0.00     0.065 C 
ATOM     24  C   UNL     1      18.994  -6.393   9.966  1.00  0.00     0.010 C 
ATOM     25  C   UNL     1      16.800  -6.417  11.240  1.00  0.00     0.012 C 
ATOM     26  O   UNL     1      19.470 -10.124   9.619  1.00  0.00    -0.299 OA
ATOM     27  C   UNL     1      17.143  -8.646   9.140  1.00  0.00     0.043 C 
ATOM     28  C   UNL     1      19.029  -7.014   8.558  1.00  0.00     0.032 C 
ATOM     29  C   UNL     1      17.669  -7.587   8.143  1.00  0.00     0.115 C 
ATOM     30  H   UNL     1      18.825  -4.716  17.441  1.00  0.00     0.348 HD
ENDROOT
BRANCH   6  31
ATOM     31  O   UNL     1      22.545  -6.325  17.038  1.00  0.00    -0.384 OA
ATOM     32  H   UNL     1      22.115  -7.174  17.321  1.00  0.00     0.211 HD
ENDBRANCH   6  31
BRANCH  29  33
ATOM     33  O   UNL     1      17.769  -8.161   6.864  1.00  0.00    -0.393 OA
ATOM     34  H   UNL     1      17.681  -9.144   6.981  1.00  0.00     0.210 HD
ENDBRANCH  29  33
TORSDOF 2
ENDMDL
MODEL 8
REMARK VINA RESULT:    -4.794      3.534      5.653
REMARK INTER + INTRA:          -5.074
REMARK INTER:                  -5.074
REMARK INTRA:                   0.000
REMARK UNBOUND:                 0.000
REMARK SMILES C[C@@H]1CC[C@H]2[N@H+](C1)C[C@@H]1[C@H]3C[C@H]4[C@H](CC(=O)[C@@H]5C[C@H](O)CC[C@@]54C)[C@H]3CC[C@@H]1[C@]2(C)O
REMARK SMILES IDX 5 1 6 2 8 3 7 4 4 5 29 6 3 7 28 8 30 9 2 10 27 11 9 12 1 13
REMARK SMILES IDX 26 14 10 15 25 16 11 17 13 18 12 19 14 20 23 21 15 22 17 23
REMARK SMILES IDX 22 24 24 25 16 26 18 27 21 28 19 29 31 31 20 33
REMARK H PARENT 6 30 31 32 20 34
REMARK Flexibility Score: inf
ROOT
ATOM      1  C   UNL     1      20.512  -3.168  20.824  1.00  0.00     0.216 C 
ATOM      2  N   UNL     1      19.413  -4.150  20.643  1.00  0.00    -0.330 N 
ATOM      3  C   UNL     1      19.900  -5.263  19.806  1.00  0.00     0.266 C 
ATOM      4  C   UNL     1      18.952  -4.707  21.941  1.00  0.00     0.265 C 
ATOM      5  C   UNL     1      20.076  -2.028  21.788  1.00  0.00     0.069 C 
ATOM      6  C   UNL     1      21.149  -2.671  19.442  1.00  0.00     0.117 C 
ATOM      7  C   UNL     1      19.571  -2.573  23.123  1.00  0.00     0.015 C 
ATOM      8  C   UNL     1      20.592  -3.417  18.145  1.00  0.00     0.036 C 
ATOM      9  C   UNL     1      20.935  -1.140  19.210  1.00  0.00     0.049 C 
ATOM     10  C   UNL     1      18.472  -3.624  22.924  1.00  0.00     0.041 C 
ATOM     11  C   UNL     1      21.571  -3.341  16.949  1.00  0.00     0.007 C 
ATOM     12  C   UNL     1      19.968  -4.850  18.335  1.00  0.00     0.054 C 
ATOM     13  C   UNL     1      17.132  -2.998  22.502  1.00  0.00     0.013 C 
ATOM     14  C   UNL     1      22.522  -4.526  16.915  1.00  0.00     0.004 C 
ATOM     15  C   UNL     1      20.510  -6.063  17.468  1.00  0.00     0.002 C 
ATOM     16  C   UNL     1      21.788  -5.833  16.621  1.00  0.00    -0.004 C 
ATOM     17  C   UNL     1      19.458  -6.573  16.461  1.00  0.00     0.009 C 
ATOM     18  C   UNL     1      21.369  -5.979  15.130  1.00  0.00     0.003 C 
ATOM     19  C   UNL     1      19.827  -5.893  15.148  1.00  0.00    -0.000 C 
ATOM     20  C   UNL     1      21.890  -7.327  14.575  1.00  0.00     0.080 C 
ATOM     21  C   UNL     1      19.097  -6.387  13.839  1.00  0.00    -0.020 C 
ATOM     22  C   UNL     1      21.163  -7.734  13.334  1.00  0.00     0.136 C 
ATOM     23  C   UNL     1      19.650  -7.770  13.374  1.00  0.00     0.065 C 
ATOM     24  C   UNL     1      19.286  -5.301  12.713  1.00  0.00     0.010 C 
ATOM     25  C   UNL     1      17.577  -6.517  14.141  1.00  0.00     0.012 C 
ATOM     26  O   UNL     1      21.795  -8.102  12.353  1.00  0.00    -0.299 OA
ATOM     27  C   UNL     1      19.018  -8.243  12.033  1.00  0.00     0.043 C 
ATOM     28  C   UNL     1      19.592  -5.853  11.310  1.00  0.00     0.032 C 
ATOM     29  C   UNL     1      18.787  -7.119  10.996  1.00  0.00     0.115 C 
ATOM     30  H   UNL     1      18.599  -3.686  20.172  1.00  0.00     0.348 HD
ENDROOT
BRANCH   6  31
ATOM     31  O   UNL     1      22.540  -2.896  19.514  1.00  0.00    -0.384 OA
ATOM     32  H   UNL     1      22.895  -2.972  18.590  1.00  0.00     0.211 HD
ENDBRANCH   6  31
BRANCH  29  33
ATOM     33  O   UNL     1      19.126  -7.590   9.716  1.00  0.00    -0.393 OA
ATOM     34  H   UNL     1      19.407  -8.537   9.823  1.00  0.00     0.210 HD
ENDBRANCH  29  33
TORSDOF 2
ENDMDL
MODEL 9
REMARK VINA RESULT:    -4.646      2.561      8.505
REMARK INTER + INTRA:          -4.917
REMARK INTER:                  -4.917
REMARK INTRA:                   0.000
REMARK UNBOUND:                 0.000
REMARK SMILES C[C@@H]1CC[C@H]2[N@H+](C1)C[C@@H]1[C@H]3C[C@H]4[C@H](CC(=O)[C@@H]5C[C@H](O)CC[C@@]54C)[C@H]3CC[C@@H]1[C@]2(C)O
REMARK SMILES IDX 5 1 6 2 8 3 7 4 4 5 29 6 3 7 28 8 30 9 2 10 27 11 9 12 1 13
REMARK SMILES IDX 26 14 10 15 25 16 11 17 13 18 12 19 14 20 23 21 15 22 17 23
REMARK SMILES IDX 22 24 24 25 16 26 18 27 21 28 19 29 31 31 20 33
REMARK H PARENT 6 30 31 32 20 34
REMARK Flexibility Score: inf
ROOT
ATOM      1  C   UNL     1      17.809  -5.583  15.361  1.00  0.00     0.216 C 
ATOM      2  N   UNL     1      19.176  -6.159  15.297  1.00  0.00    -0.330 N 
ATOM      3  C   UNL     1      19.842  -5.953  16.597  1.00  0.00     0.266 C 
ATOM      4  C   UNL     1      19.147  -7.616  15.011  1.00  0.00     0.265 C 
ATOM      5  C   UNL     1      17.030  -5.870  14.045  1.00  0.00     0.069 C 
ATOM      6  C   UNL     1      17.789  -4.053  15.831  1.00  0.00     0.117 C 
ATOM      7  C   UNL     1      17.008  -7.361  13.711  1.00  0.00     0.015 C 
ATOM      8  C   UNL     1      19.209  -3.475  16.278  1.00  0.00     0.036 C 
ATOM      9  C   UNL     1      17.242  -3.100  14.720  1.00  0.00     0.049 C 
ATOM     10  C   UNL     1      18.420  -7.958  13.698  1.00  0.00     0.041 C 
ATOM     11  C   UNL     1      19.084  -2.254  17.220  1.00  0.00     0.007 C 
ATOM     12  C   UNL     1      20.303  -4.504  16.750  1.00  0.00     0.054 C 
ATOM     13  C   UNL     1      19.222  -7.539  12.454  1.00  0.00     0.013 C 
ATOM     14  C   UNL     1      19.071  -2.663  18.684  1.00  0.00     0.004 C 
ATOM     15  C   UNL     1      20.999  -4.314  18.164  1.00  0.00     0.002 C 
ATOM     16  C   UNL     1      20.414  -3.244  19.120  1.00  0.00    -0.004 C 
ATOM     17  C   UNL     1      22.493  -3.949  18.032  1.00  0.00     0.009 C 
ATOM     18  C   UNL     1      21.518  -2.165  19.313  1.00  0.00     0.003 C 
ATOM     19  C   UNL     1      22.526  -2.431  18.175  1.00  0.00    -0.000 C 
ATOM     20  C   UNL     1      22.145  -2.309  20.721  1.00  0.00     0.080 C 
ATOM     21  C   UNL     1      23.939  -1.745  18.335  1.00  0.00    -0.020 C 
ATOM     22  C   UNL     1      23.474  -1.633  20.807  1.00  0.00     0.136 C 
ATOM     23  C   UNL     1      24.518  -1.977  19.765  1.00  0.00     0.065 C 
ATOM     24  C   UNL     1      23.790  -0.206  18.033  1.00  0.00     0.010 C 
ATOM     25  C   UNL     1      24.907  -2.357  17.284  1.00  0.00     0.012 C 
ATOM     26  O   UNL     1      23.718  -0.890  21.748  1.00  0.00    -0.299 OA
ATOM     27  C   UNL     1      25.866  -1.233  19.988  1.00  0.00     0.043 C 
ATOM     28  C   UNL     1      24.564   0.729  18.980  1.00  0.00     0.032 C 
ATOM     29  C   UNL     1      25.945   0.171  19.345  1.00  0.00     0.115 C 
ATOM     30  H   UNL     1      19.724  -5.682  14.541  1.00  0.00     0.348 HD
ENDROOT
BRANCH   6  31
ATOM     31  O   UNL     1      16.912  -3.963  16.933  1.00  0.00    -0.384 OA
ATOM     32  H   UNL     1      15.993  -4.170  16.621  1.00  0.00     0.211 HD
ENDBRANCH   6  31
BRANCH  29  33
ATOM     33  O   UNL     1      26.592   1.052  20.229  1.00  0.00    -0.393 OA
ATOM     34  H   UNL     1      26.147   0.954  21.111  1.00  0.00     0.210 HD
ENDBRANCH  29  33
TORSDOF 2
ENDMDL
