MODEL 1
REMARK VINA RESULT:    -4.648      0.000      0.000
REMARK INTER + INTRA:          -5.155
REMARK INTER:                  -5.056
REMARK INTRA:                  -0.100
REMARK UNBOUND:                -0.100
REMARK SMILES Cc1ccc(C(C)C)cc1O
REMARK SMILES IDX 1 1 2 2 10 3 9 4 5 5 4 6 3 7 11 8 6 10 7 11 8 12
REMARK H PARENT 11 9
REMARK Flexibility Score: inf
ROOT
ATOM      1  C   UNL     1     175.495 178.296 175.467  1.00  0.00     0.048 C 
ATOM      2  C   UNL     1     175.688 178.531 176.939  1.00  0.00    -0.009 A 
ATOM      3  C   UNL     1     176.869 178.112 177.575  1.00  0.00     0.118 A 
ATOM      4  C   UNL     1     177.042 178.336 178.949  1.00  0.00     0.050 A 
ATOM      5  C   UNL     1     176.044 178.977 179.703  1.00  0.00    -0.042 A 
ATOM      6  C   UNL     1     174.866 179.392 179.057  1.00  0.00     0.004 A 
ATOM      7  C   UNL     1     174.690 179.171 177.690  1.00  0.00     0.007 A 
ENDROOT
BRANCH   3   8
ATOM      8  O   UNL     1     177.869 177.475 176.841  1.00  0.00    -0.508 OA
ATOM      9  H   UNL     1     178.483 177.990 176.222  1.00  0.00     0.293 HD
ENDBRANCH   3   8
BRANCH   5  10
ATOM     10  C   UNL     1     176.248 179.210 181.189  1.00  0.00     0.013 C 
ATOM     11  C   UNL     1     176.385 177.882 181.943  1.00  0.00     0.012 C 
ATOM     12  C   UNL     1     177.457 180.117 181.445  1.00  0.00     0.012 C 
ENDBRANCH   5  10
TORSDOF 2
ENDMDL
MODEL 2
REMARK VINA RESULT:    -4.600     12.506     13.381
REMARK INTER + INTRA:          -5.103
REMARK INTER:                  -5.002
REMARK INTRA:                  -0.101
REMARK UNBOUND:                -0.100
REMARK SMILES Cc1ccc(C(C)C)cc1O
REMARK SMILES IDX 1 1 2 2 10 3 9 4 5 5 4 6 3 7 11 8 6 10 7 11 8 12
REMARK H PARENT 11 9
REMARK Flexibility Score: inf
ROOT
ATOM      1  C   UNL     1     163.039 178.039 175.549  1.00  0.00     0.048 C 
ATOM      2  C   UNL     1     162.887 178.231 177.032  1.00  0.00    -0.009 A 
ATOM      3  C   UNL     1     163.748 179.100 177.726  1.00  0.00     0.118 A 
ATOM      4  C   UNL     1     163.598 179.275 179.110  1.00  0.00     0.050 A 
ATOM      5  C   UNL     1     162.597 178.589 179.816  1.00  0.00    -0.042 A 
ATOM      6  C   UNL     1     161.741 177.722 179.113  1.00  0.00     0.004 A 
ATOM      7  C   UNL     1     161.886 177.545 177.735  1.00  0.00     0.007 A 
ENDROOT
BRANCH   3   8
ATOM      8  O   UNL     1     164.747 179.788 177.039  1.00  0.00    -0.508 OA
ATOM      9  H   UNL     1     164.668 179.993 176.050  1.00  0.00     0.293 HD
ENDBRANCH   3   8
BRANCH   5  10
ATOM     10  C   UNL     1     162.451 178.790 181.313  1.00  0.00     0.013 C 
ATOM     11  C   UNL     1     163.808 178.684 182.019  1.00  0.00     0.012 C 
ATOM     12  C   UNL     1     161.767 180.125 181.628  1.00  0.00     0.012 C 
ENDBRANCH   5  10
TORSDOF 2
ENDMDL
MODEL 3
REMARK VINA RESULT:    -4.542      3.309      4.396
REMARK INTER + INTRA:          -5.040
REMARK INTER:                  -4.931
REMARK INTRA:                  -0.109
REMARK UNBOUND:                -0.100
REMARK SMILES Cc1ccc(C(C)C)cc1O
REMARK SMILES IDX 1 1 2 2 10 3 9 4 5 5 4 6 3 7 11 8 6 10 7 11 8 12
REMARK H PARENT 11 9
REMARK Flexibility Score: inf
ROOT
ATOM      1  C   UNL     1     170.969 177.624 180.981  1.00  0.00     0.048 C 
ATOM      2  C   UNL     1     172.459 177.795 181.080  1.00  0.00    -0.009 A 
ATOM      3  C   UNL     1     173.049 179.040 180.804  1.00  0.00     0.118 A 
ATOM      4  C   UNL     1     174.441 179.192 180.899  1.00  0.00     0.050 A 
ATOM      5  C   UNL     1     175.257 178.109 181.267  1.00  0.00    -0.042 A 
ATOM      6  C   UNL     1     174.657 176.867 181.540  1.00  0.00     0.004 A 
ATOM      7  C   UNL     1     173.272 176.712 181.447  1.00  0.00     0.007 A 
ENDROOT
BRANCH   3   8
ATOM      8  O   UNL     1     172.252 180.125 180.438  1.00  0.00    -0.508 OA
ATOM      9  H   UNL     1     171.344 180.282 180.857  1.00  0.00     0.293 HD
ENDBRANCH   3   8
BRANCH   5  10
ATOM     10  C   UNL     1     176.761 178.291 181.364  1.00  0.00     0.013 C 
ATOM     11  C   UNL     1     177.468 177.706 180.135  1.00  0.00     0.012 C 
ATOM     12  C   UNL     1     177.127 179.766 181.561  1.00  0.00     0.012 C 
ENDBRANCH   5  10
TORSDOF 2
ENDMDL
MODEL 4
REMARK VINA RESULT:    -4.511     13.144     14.281
REMARK INTER + INTRA:          -5.006
REMARK INTER:                  -4.882
REMARK INTRA:                  -0.124
REMARK UNBOUND:                -0.100
REMARK SMILES Cc1ccc(C(C)C)cc1O
REMARK SMILES IDX 1 1 2 2 10 3 9 4 5 5 4 6 3 7 11 8 6 10 7 11 8 12
REMARK H PARENT 11 9
REMARK Flexibility Score: inf
ROOT
ATOM      1  C   UNL     1     162.287 173.614 181.111  1.00  0.00     0.048 C 
ATOM      2  C   UNL     1     162.536 175.096 181.125  1.00  0.00    -0.009 A 
ATOM      3  C   UNL     1     161.509 175.991 180.775  1.00  0.00     0.118 A 
ATOM      4  C   UNL     1     161.749 177.373 180.791  1.00  0.00     0.050 A 
ATOM      5  C   UNL     1     163.008 177.878 181.152  1.00  0.00    -0.042 A 
ATOM      6  C   UNL     1     164.029 176.975 181.500  1.00  0.00     0.004 A 
ATOM      7  C   UNL     1     163.794 175.599 181.486  1.00  0.00     0.007 A 
ENDROOT
BRANCH   3   8
ATOM      8  O   UNL     1     160.252 175.504 180.414  1.00  0.00    -0.508 OA
ATOM      9  H   UNL     1     159.450 175.601 181.025  1.00  0.00     0.293 HD
ENDBRANCH   3   8
BRANCH   5  10
ATOM     10  C   UNL     1     163.250 179.377 181.163  1.00  0.00     0.013 C 
ATOM     11  C   UNL     1     164.618 179.719 180.560  1.00  0.00     0.012 C 
ATOM     12  C   UNL     1     162.125 180.123 180.439  1.00  0.00     0.012 C 
ENDBRANCH   5  10
TORSDOF 2
ENDMDL
MODEL 5
REMARK VINA RESULT:    -4.397     12.844     13.941
REMARK INTER + INTRA:          -4.882
REMARK INTER:                  -4.756
REMARK INTRA:                  -0.125
REMARK UNBOUND:                -0.100
REMARK SMILES Cc1ccc(C(C)C)cc1O
REMARK SMILES IDX 1 1 2 2 10 3 9 4 5 5 4 6 3 7 11 8 6 10 7 11 8 12
REMARK H PARENT 11 9
REMARK Flexibility Score: inf
ROOT
ATOM      1  C   UNL     1     162.206 173.571 181.110  1.00  0.00     0.048 C 
ATOM      2  C   UNL     1     162.467 175.051 181.151  1.00  0.00    -0.009 A 
ATOM      3  C   UNL     1     163.738 175.536 181.505  1.00  0.00     0.118 A 
ATOM      4  C   UNL     1     163.975 176.918 181.540  1.00  0.00     0.050 A 
ATOM      5  C   UNL     1     162.952 177.829 181.228  1.00  0.00    -0.042 A 
ATOM      6  C   UNL     1     161.684 177.334 180.876  1.00  0.00     0.004 A 
ATOM      7  C   UNL     1     161.445 175.959 180.839  1.00  0.00     0.007 A 
ENDROOT
BRANCH   3   8
ATOM      8  O   UNL     1     164.764 174.644 181.818  1.00  0.00    -0.508 OA
ATOM      9  H   UNL     1     164.880 173.771 181.318  1.00  0.00     0.293 HD
ENDBRANCH   3   8
BRANCH   5  10
ATOM     10  C   UNL     1     163.226 179.322 181.273  1.00  0.00     0.013 C 
ATOM     11  C   UNL     1     163.971 179.784 180.015  1.00  0.00     0.012 C 
ATOM     12  C   UNL     1     161.929 180.115 181.469  1.00  0.00     0.012 C 
ENDBRANCH   5  10
TORSDOF 2
ENDMDL
MODEL 6
REMARK VINA RESULT:    -4.383      3.609      4.316
REMARK INTER + INTRA:          -4.867
REMARK INTER:                  -4.740
REMARK INTRA:                  -0.127
REMARK UNBOUND:                -0.100
REMARK SMILES Cc1ccc(C(C)C)cc1O
REMARK SMILES IDX 1 1 2 2 10 3 9 4 5 5 4 6 3 7 11 8 6 10 7 11 8 12
REMARK H PARENT 11 9
REMARK Flexibility Score: inf
ROOT
ATOM      1  C   UNL     1     171.007 177.607 181.048  1.00  0.00     0.048 C 
ATOM      2  C   UNL     1     172.493 177.801 181.173  1.00  0.00    -0.009 A 
ATOM      3  C   UNL     1     173.325 176.715 181.494  1.00  0.00     0.118 A 
ATOM      4  C   UNL     1     174.710 176.905 181.608  1.00  0.00     0.050 A 
ATOM      5  C   UNL     1     175.280 178.173 181.406  1.00  0.00    -0.042 A 
ATOM      6  C   UNL     1     174.438 179.254 181.085  1.00  0.00     0.004 A 
ATOM      7  C   UNL     1     173.059 179.068 180.970  1.00  0.00     0.007 A 
ENDROOT
BRANCH   3   8
ATOM      8  O   UNL     1     172.775 175.450 181.698  1.00  0.00    -0.508 OA
ATOM      9  H   UNL     1     173.299 174.605 181.504  1.00  0.00     0.293 HD
ENDBRANCH   3   8
BRANCH   5  10
ATOM     10  C   UNL     1     176.781 178.361 181.534  1.00  0.00     0.013 C 
ATOM     11  C   UNL     1     177.540 177.294 180.735  1.00  0.00     0.012 C 
ATOM     12  C   UNL     1     177.200 179.772 181.107  1.00  0.00     0.012 C 
ENDBRANCH   5  10
TORSDOF 2
ENDMDL
MODEL 7
REMARK VINA RESULT:    -4.372      2.567      3.651
REMARK INTER + INTRA:          -4.855
REMARK INTER:                  -4.729
REMARK INTRA:                  -0.126
REMARK UNBOUND:                -0.100
REMARK SMILES Cc1ccc(C(C)C)cc1O
REMARK SMILES IDX 1 1 2 2 10 3 9 4 5 5 4 6 3 7 11 8 6 10 7 11 8 12
REMARK H PARENT 11 9
REMARK Flexibility Score: inf
ROOT
ATOM      1  C   UNL     1     175.796 173.693 180.395  1.00  0.00     0.048 C 
ATOM      2  C   UNL     1     176.228 175.132 180.369  1.00  0.00    -0.009 A 
ATOM      3  C   UNL     1     177.492 175.484 179.865  1.00  0.00     0.118 A 
ATOM      4  C   UNL     1     177.887 176.830 179.844  1.00  0.00     0.050 A 
ATOM      5  C   UNL     1     177.034 177.836 180.325  1.00  0.00    -0.042 A 
ATOM      6  C   UNL     1     175.771 177.474 180.828  1.00  0.00     0.004 A 
ATOM      7  C   UNL     1     175.374 176.136 180.850  1.00  0.00     0.007 A 
ENDROOT
BRANCH   3   8
ATOM      8  O   UNL     1     178.352 174.497 179.384  1.00  0.00    -0.508 OA
ATOM      9  H   UNL     1     178.690 173.751 179.979  1.00  0.00     0.293 HD
ENDBRANCH   3   8
BRANCH   5  10
ATOM     10  C   UNL     1     177.478 179.287 180.295  1.00  0.00     0.013 C 
ATOM     11  C   UNL     1     176.926 180.009 179.060  1.00  0.00     0.012 C 
ATOM     12  C   UNL     1     177.078 180.014 181.584  1.00  0.00     0.012 C 
ENDBRANCH   5  10
TORSDOF 2
ENDMDL
MODEL 8
REMARK VINA RESULT:    -4.331     10.790     12.083
REMARK INTER + INTRA:          -4.811
REMARK INTER:                  -4.685
REMARK INTRA:                  -0.126
REMARK UNBOUND:                -0.100
REMARK SMILES Cc1ccc(C(C)C)cc1O
REMARK SMILES IDX 1 1 2 2 10 3 9 4 5 5 4 6 3 7 11 8 6 10 7 11 8 12
REMARK H PARENT 11 9
REMARK Flexibility Score: inf
ROOT
ATOM      1  C   UNL     1     167.433 176.692 180.303  1.00  0.00     0.048 C 
ATOM      2  C   UNL     1     166.218 177.574 180.365  1.00  0.00    -0.009 A 
ATOM      3  C   UNL     1     166.282 178.901 179.906  1.00  0.00     0.118 A 
ATOM      4  C   UNL     1     165.143 179.718 179.966  1.00  0.00     0.050 A 
ATOM      5  C   UNL     1     163.934 179.226 180.484  1.00  0.00    -0.042 A 
ATOM      6  C   UNL     1     163.880 177.897 180.941  1.00  0.00     0.004 A 
ATOM      7  C   UNL     1     165.011 177.081 180.882  1.00  0.00     0.007 A 
ENDROOT
BRANCH   3   8
ATOM      8  O   UNL     1     167.475 179.405 179.389  1.00  0.00    -0.508 OA
ATOM      9  H   UNL     1     167.492 180.219 178.786  1.00  0.00     0.293 HD
ENDBRANCH   3   8
BRANCH   5  10
ATOM     10  C   UNL     1     162.711 180.125 180.542  1.00  0.00     0.013 C 
ATOM     11  C   UNL     1     161.854 179.973 179.280  1.00  0.00     0.012 C 
ATOM     12  C   UNL     1     161.886 179.854 181.805  1.00  0.00     0.012 C 
ENDBRANCH   5  10
TORSDOF 2
ENDMDL
MODEL 9
REMARK VINA RESULT:    -4.202      3.085      3.826
REMARK INTER + INTRA:          -4.670
REMARK INTER:                  -4.544
REMARK INTRA:                  -0.125
REMARK UNBOUND:                -0.100
REMARK SMILES Cc1ccc(C(C)C)cc1O
REMARK SMILES IDX 1 1 2 2 10 3 9 4 5 5 4 6 3 7 11 8 6 10 7 11 8 12
REMARK H PARENT 11 9
REMARK Flexibility Score: inf
ROOT
ATOM      1  C   UNL     1     171.144 178.872 178.248  1.00  0.00     0.048 C 
ATOM      2  C   UNL     1     172.420 178.991 179.034  1.00  0.00    -0.009 A 
ATOM      3  C   UNL     1     172.380 179.203 180.423  1.00  0.00     0.118 A 
ATOM      4  C   UNL     1     173.575 179.313 181.149  1.00  0.00     0.050 A 
ATOM      5  C   UNL     1     174.818 179.215 180.503  1.00  0.00    -0.042 A 
ATOM      6  C   UNL     1     174.848 179.003 179.112  1.00  0.00     0.004 A 
ATOM      7  C   UNL     1     173.660 178.893 178.386  1.00  0.00     0.007 A 
ENDROOT
BRANCH   3   8
ATOM      8  O   UNL     1     171.153 179.302 181.079  1.00  0.00    -0.508 OA
ATOM      9  H   UNL     1     170.280 179.097 180.607  1.00  0.00     0.293 HD
ENDBRANCH   3   8
BRANCH   5  10
ATOM     10  C   UNL     1     176.102 179.337 181.304  1.00  0.00     0.013 C 
ATOM     11  C   UNL     1     176.553 177.970 181.834  1.00  0.00     0.012 C 
ATOM     12  C   UNL     1     177.209 180.001 180.478  1.00  0.00     0.012 C 
ENDBRANCH   5  10
TORSDOF 2
ENDMDL
