MODEL 1
REMARK VINA RESULT:    -4.434      0.000      0.000
REMARK INTER + INTRA:          -7.503
REMARK INTER:                  -6.767
REMARK INTRA:                  -0.736
REMARK UNBOUND:                -0.736
REMARK SMILES O=C([O-])CCCCCCCCC(=O)[O-]
REMARK SMILES IDX 7 1 6 2 5 3 4 4 2 5 1 6 3 7 8 8 9 9 10 10 11 11 12 12 13 13
REMARK SMILES IDX 14 14
REMARK H PARENT
REMARK Flexibility Score: inf
ROOT
ATOM      1  C   UNL     1     -35.765  18.653 -27.945  1.00  0.00     0.000 C 
ENDROOT
BRANCH   1   2
ATOM      2  C   UNL     1     -34.586  18.596 -28.924  1.00  0.00     0.000 C 
BRANCH   2   3
ATOM      3  C   UNL     1     -35.076  18.376 -30.363  1.00  0.00     0.006 C 
BRANCH   3   4
ATOM      4  C   UNL     1     -35.074  16.894 -30.757  1.00  0.00     0.053 C 
BRANCH   4   5
ATOM      5  C   UNL     1     -36.443  16.293 -30.663  1.00  0.00     0.041 C 
ATOM      6  O   UNL     1     -37.445  16.928 -31.089  1.00  0.00    -0.550 OA
ATOM      7  O   UNL     1     -36.618  15.047 -30.074  1.00  0.00    -0.550 OA
ENDBRANCH   4   5
ENDBRANCH   3   4
ENDBRANCH   2   3
ENDBRANCH   1   2
BRANCH   1   8
ATOM      8  C   UNL     1     -36.986  19.319 -28.594  1.00  0.00     0.000 C 
BRANCH   8   9
ATOM      9  C   UNL     1     -38.274  18.566 -28.241  1.00  0.00     0.000 C 
BRANCH   9  10
ATOM     10  C   UNL     1     -39.494  19.226 -28.900  1.00  0.00     0.006 C 
BRANCH  10  11
ATOM     11  C   UNL     1     -39.094  20.238 -29.982  1.00  0.00     0.053 C 
BRANCH  11  12
ATOM     12  C   UNL     1     -39.600  21.613 -29.670  1.00  0.00     0.041 C 
ATOM     13  O   UNL     1     -40.693  22.011 -30.156  1.00  0.00    -0.550 OA
ATOM     14  O   UNL     1     -38.884  22.442 -28.817  1.00  0.00    -0.550 OA
ENDBRANCH  11  12
ENDBRANCH  10  11
ENDBRANCH   9  10
ENDBRANCH   8   9
ENDBRANCH   1   8
TORSDOF 9
ENDMDL
MODEL 2
REMARK VINA RESULT:    -4.387      1.709      2.164
REMARK INTER + INTRA:          -7.431
REMARK INTER:                  -6.449
REMARK INTRA:                  -0.982
REMARK UNBOUND:                -0.736
REMARK SMILES O=C([O-])CCCCCCCCC(=O)[O-]
REMARK SMILES IDX 7 1 6 2 5 3 4 4 2 5 1 6 3 7 8 8 9 9 10 10 11 11 12 12 13 13
REMARK SMILES IDX 14 14
REMARK H PARENT
REMARK Flexibility Score: inf
ROOT
ATOM      1  C   UNL     1     -35.054  20.447 -28.734  1.00  0.00     0.000 C 
ENDROOT
BRANCH   1   2
ATOM      2  C   UNL     1     -34.763  18.980 -29.072  1.00  0.00     0.000 C 
BRANCH   2   3
ATOM      3  C   UNL     1     -35.269  18.629 -30.479  1.00  0.00     0.006 C 
BRANCH   3   4
ATOM      4  C   UNL     1     -35.200  17.123 -30.762  1.00  0.00     0.053 C 
BRANCH   4   5
ATOM      5  C   UNL     1     -36.535  16.465 -30.589  1.00  0.00     0.041 C 
ATOM      6  O   UNL     1     -37.554  16.940 -31.158  1.00  0.00    -0.550 OA
ATOM      7  O   UNL     1     -36.659  15.347 -29.774  1.00  0.00    -0.550 OA
ENDBRANCH   4   5
ENDBRANCH   3   4
ENDBRANCH   2   3
ENDBRANCH   1   2
BRANCH   1   8
ATOM      8  C   UNL     1     -36.098  21.036 -29.691  1.00  0.00     0.000 C 
BRANCH   8   9
ATOM      9  C   UNL     1     -37.175  21.809 -28.922  1.00  0.00     0.000 C 
BRANCH   9  10
ATOM     10  C   UNL     1     -38.577  21.479 -29.456  1.00  0.00     0.006 C 
BRANCH  10  11
ATOM     11  C   UNL     1     -38.699  20.017 -29.903  1.00  0.00     0.053 C 
BRANCH  11  12
ATOM     12  C   UNL     1     -39.083  19.119 -28.768  1.00  0.00     0.041 C 
ATOM     13  O   UNL     1     -40.294  18.993 -28.441  1.00  0.00    -0.550 OA
ATOM     14  O   UNL     1     -38.109  18.396 -28.091  1.00  0.00    -0.550 OA
ENDBRANCH  11  12
ENDBRANCH  10  11
ENDBRANCH   9  10
ENDBRANCH   8   9
ENDBRANCH   1   8
TORSDOF 9
ENDMDL
MODEL 3
REMARK VINA RESULT:    -4.385      2.083      6.044
REMARK INTER + INTRA:          -7.427
REMARK INTER:                  -6.734
REMARK INTRA:                  -0.693
REMARK UNBOUND:                -0.736
REMARK SMILES O=C([O-])CCCCCCCCC(=O)[O-]
REMARK SMILES IDX 7 1 6 2 5 3 4 4 2 5 1 6 3 7 8 8 9 9 10 10 11 11 12 12 13 13
REMARK SMILES IDX 14 14
REMARK H PARENT
REMARK Flexibility Score: inf
ROOT
ATOM      1  C   UNL     1     -35.842  18.157 -29.941  1.00  0.00     0.000 C 
ENDROOT
BRANCH   1   2
ATOM      2  C   UNL     1     -36.198  19.342 -30.846  1.00  0.00     0.000 C 
BRANCH   2   3
ATOM      3  C   UNL     1     -37.709  19.397 -31.112  1.00  0.00     0.006 C 
BRANCH   3   4
ATOM      4  C   UNL     1     -38.511  18.595 -30.079  1.00  0.00     0.053 C 
BRANCH   4   5
ATOM      5  C   UNL     1     -39.305  19.489 -29.177  1.00  0.00     0.041 C 
ATOM      6  O   UNL     1     -40.105  18.995 -28.338  1.00  0.00    -0.550 OA
ATOM      7  O   UNL     1     -39.189  20.869 -29.287  1.00  0.00    -0.550 OA
ENDBRANCH   4   5
ENDBRANCH   3   4
ENDBRANCH   2   3
ENDBRANCH   1   2
BRANCH   1   8
ATOM      8  C   UNL     1     -34.796  17.253 -30.605  1.00  0.00     0.000 C 
BRANCH   8   9
ATOM      9  C   UNL     1     -35.433  15.954 -31.113  1.00  0.00     0.000 C 
BRANCH   9  10
ATOM     10  C   UNL     1     -36.620  15.542 -30.229  1.00  0.00     0.006 C 
BRANCH  10  11
ATOM     11  C   UNL     1     -36.388  14.191 -29.540  1.00  0.00     0.053 C 
BRANCH  11  12
ATOM     12  C   UNL     1     -36.788  13.044 -30.417  1.00  0.00     0.041 C 
ATOM     13  O   UNL     1     -38.003  12.731 -30.537  1.00  0.00    -0.550 OA
ATOM     14  O   UNL     1     -35.823  12.342 -31.128  1.00  0.00    -0.550 OA
ENDBRANCH  11  12
ENDBRANCH  10  11
ENDBRANCH   9  10
ENDBRANCH   8   9
ENDBRANCH   1   8
TORSDOF 9
ENDMDL
MODEL 4
REMARK VINA RESULT:    -4.376      1.987      4.775
REMARK INTER + INTRA:          -7.415
REMARK INTER:                  -6.396
REMARK INTRA:                  -1.019
REMARK UNBOUND:                -0.736
REMARK SMILES O=C([O-])CCCCCCCCC(=O)[O-]
REMARK SMILES IDX 7 1 6 2 5 3 4 4 2 5 1 6 3 7 8 8 9 9 10 10 11 11 12 12 13 13
REMARK SMILES IDX 14 14
REMARK H PARENT
REMARK Flexibility Score: inf
ROOT
ATOM      1  C   UNL     1     -36.576  22.004 -30.165  1.00  0.00     0.000 C 
ENDROOT
BRANCH   1   2
ATOM      2  C   UNL     1     -37.425  22.002 -28.888  1.00  0.00     0.000 C 
BRANCH   2   3
ATOM      3  C   UNL     1     -38.894  21.685 -29.205  1.00  0.00     0.006 C 
BRANCH   3   4
ATOM      4  C   UNL     1     -39.075  20.267 -29.762  1.00  0.00     0.053 C 
BRANCH   4   5
ATOM      5  C   UNL     1     -39.451  19.293 -28.688  1.00  0.00     0.041 C 
ATOM      6  O   UNL     1     -38.559  18.638 -28.085  1.00  0.00    -0.550 OA
ATOM      7  O   UNL     1     -40.788  19.082 -28.376  1.00  0.00    -0.550 OA
ENDBRANCH   4   5
ENDBRANCH   3   4
ENDBRANCH   2   3
ENDBRANCH   1   2
BRANCH   1   8
ATOM      8  C   UNL     1     -35.357  21.085 -30.017  1.00  0.00     0.000 C 
BRANCH   8   9
ATOM      9  C   UNL     1     -35.557  20.086 -28.872  1.00  0.00     0.000 C 
BRANCH   9  10
ATOM     10  C   UNL     1     -35.332  18.645 -29.354  1.00  0.00     0.006 C 
BRANCH  10  11
ATOM     11  C   UNL     1     -35.955  18.389 -30.732  1.00  0.00     0.053 C 
BRANCH  11  12
ATOM     12  C   UNL     1     -36.900  17.227 -30.706  1.00  0.00     0.041 C 
ATOM     13  O   UNL     1     -38.021  17.309 -31.276  1.00  0.00    -0.550 OA
ATOM     14  O   UNL     1     -36.530  16.042 -30.083  1.00  0.00    -0.550 OA
ENDBRANCH  11  12
ENDBRANCH  10  11
ENDBRANCH   9  10
ENDBRANCH   8   9
ENDBRANCH   1   8
TORSDOF 9
ENDMDL
MODEL 5
REMARK VINA RESULT:    -4.338      2.195      5.369
REMARK INTER + INTRA:          -7.355
REMARK INTER:                  -6.475
REMARK INTRA:                  -0.881
REMARK UNBOUND:                -0.736
REMARK SMILES O=C([O-])CCCCCCCCC(=O)[O-]
REMARK SMILES IDX 7 1 6 2 5 3 4 4 2 5 1 6 3 7 8 8 9 9 10 10 11 11 12 12 13 13
REMARK SMILES IDX 14 14
REMARK H PARENT
REMARK Flexibility Score: inf
ROOT
ATOM      1  C   UNL     1     -39.523  20.095 -28.988  1.00  0.00     0.000 C 
ENDROOT
BRANCH   1   2
ATOM      2  C   UNL     1     -38.920  21.100 -29.976  1.00  0.00     0.000 C 
BRANCH   2   3
ATOM      3  C   UNL     1     -37.972  22.074 -29.260  1.00  0.00     0.006 C 
BRANCH   3   4
ATOM      4  C   UNL     1     -36.521  21.574 -29.256  1.00  0.00     0.053 C 
BRANCH   4   5
ATOM      5  C   UNL     1     -35.906  21.644 -30.619  1.00  0.00     0.041 C 
ATOM      6  O   UNL     1     -35.732  20.592 -31.291  1.00  0.00    -0.550 OA
ATOM      7  O   UNL     1     -35.494  22.866 -31.135  1.00  0.00    -0.550 OA
ENDBRANCH   4   5
ENDBRANCH   3   4
ENDBRANCH   2   3
ENDBRANCH   1   2
BRANCH   1   8
ATOM      8  C   UNL     1     -38.984  18.682 -29.243  1.00  0.00     0.000 C 
BRANCH   8   9
ATOM      9  C   UNL     1     -37.916  18.305 -28.210  1.00  0.00     0.000 C 
BRANCH   9  10
ATOM     10  C   UNL     1     -36.597  17.919 -28.897  1.00  0.00     0.006 C 
BRANCH  10  11
ATOM     11  C   UNL     1     -36.812  17.440 -30.338  1.00  0.00     0.053 C 
BRANCH  11  12
ATOM     12  C   UNL     1     -36.130  16.131 -30.596  1.00  0.00     0.041 C 
ATOM     13  O   UNL     1     -35.066  16.093 -31.269  1.00  0.00    -0.550 OA
ATOM     14  O   UNL     1     -36.650  14.958 -30.063  1.00  0.00    -0.550 OA
ENDBRANCH  11  12
ENDBRANCH  10  11
ENDBRANCH   9  10
ENDBRANCH   8   9
ENDBRANCH   1   8
TORSDOF 9
ENDMDL
MODEL 6
REMARK VINA RESULT:    -4.326      1.748      2.666
REMARK INTER + INTRA:          -7.338
REMARK INTER:                  -6.423
REMARK INTRA:                  -0.914
REMARK UNBOUND:                -0.736
REMARK SMILES O=C([O-])CCCCCCCCC(=O)[O-]
REMARK SMILES IDX 7 1 6 2 5 3 4 4 2 5 1 6 3 7 8 8 9 9 10 10 11 11 12 12 13 13
REMARK SMILES IDX 14 14
REMARK H PARENT
REMARK Flexibility Score: inf
ROOT
ATOM      1  C   UNL     1     -34.870  18.789 -29.810  1.00  0.00     0.000 C 
ENDROOT
BRANCH   1   2
ATOM      2  C   UNL     1     -34.739  17.578 -30.741  1.00  0.00     0.000 C 
BRANCH   2   3
ATOM      3  C   UNL     1     -35.983  16.682 -30.657  1.00  0.00     0.006 C 
BRANCH   3   4
ATOM      4  C   UNL     1     -37.236  17.465 -30.243  1.00  0.00     0.053 C 
BRANCH   4   5
ATOM      5  C   UNL     1     -38.125  17.749 -31.414  1.00  0.00     0.041 C 
ATOM      6  O   UNL     1     -38.776  16.816 -31.957  1.00  0.00    -0.550 OA
ATOM      7  O   UNL     1     -38.210  19.036 -31.928  1.00  0.00    -0.550 OA
ENDBRANCH   4   5
ENDBRANCH   3   4
ENDBRANCH   2   3
ENDBRANCH   1   2
BRANCH   1   8
ATOM      8  C   UNL     1     -34.621  20.097 -30.571  1.00  0.00     0.000 C 
BRANCH   8   9
ATOM      9  C   UNL     1     -35.871  20.986 -30.560  1.00  0.00     0.000 C 
BRANCH   9  10
ATOM     10  C   UNL     1     -36.544  20.971 -29.180  1.00  0.00     0.006 C 
BRANCH  10  11
ATOM     11  C   UNL     1     -37.751  21.917 -29.113  1.00  0.00     0.053 C 
BRANCH  11  12
ATOM     12  C   UNL     1     -39.030  21.208 -29.439  1.00  0.00     0.041 C 
ATOM     13  O   UNL     1     -39.817  21.686 -30.299  1.00  0.00    -0.550 OA
ATOM     14  O   UNL     1     -39.336  20.005 -28.818  1.00  0.00    -0.550 OA
ENDBRANCH  11  12
ENDBRANCH  10  11
ENDBRANCH   9  10
ENDBRANCH   8   9
ENDBRANCH   1   8
TORSDOF 9
ENDMDL
MODEL 7
REMARK VINA RESULT:    -4.307      1.978      6.036
REMARK INTER + INTRA:          -7.309
REMARK INTER:                  -6.603
REMARK INTRA:                  -0.707
REMARK UNBOUND:                -0.736
REMARK SMILES O=C([O-])CCCCCCCCC(=O)[O-]
REMARK SMILES IDX 7 1 6 2 5 3 4 4 2 5 1 6 3 7 8 8 9 9 10 10 11 11 12 12 13 13
REMARK SMILES IDX 14 14
REMARK H PARENT
REMARK Flexibility Score: inf
ROOT
ATOM      1  C   UNL     1     -37.310  21.350 -30.928  1.00  0.00     0.000 C 
ENDROOT
BRANCH   1   2
ATOM      2  C   UNL     1     -37.344  21.630 -29.421  1.00  0.00     0.000 C 
BRANCH   2   3
ATOM      3  C   UNL     1     -38.723  22.148 -28.989  1.00  0.00     0.006 C 
BRANCH   3   4
ATOM      4  C   UNL     1     -39.846  21.645 -29.906  1.00  0.00     0.053 C 
BRANCH   4   5
ATOM      5  C   UNL     1     -40.934  22.663 -30.061  1.00  0.00     0.041 C 
ATOM      6  O   UNL     1     -41.712  22.613 -31.051  1.00  0.00    -0.550 OA
ATOM      7  O   UNL     1     -41.067  23.687 -29.133  1.00  0.00    -0.550 OA
ENDBRANCH   4   5
ENDBRANCH   3   4
ENDBRANCH   2   3
ENDBRANCH   1   2
BRANCH   1   8
ATOM      8  C   UNL     1     -36.837  19.918 -31.212  1.00  0.00     0.000 C 
BRANCH   8   9
ATOM      9  C   UNL     1     -37.973  19.068 -31.791  1.00  0.00     0.000 C 
BRANCH   9  10
ATOM     10  C   UNL     1     -38.265  17.855 -30.895  1.00  0.00     0.006 C 
BRANCH  10  11
ATOM     11  C   UNL     1     -37.119  17.567 -29.917  1.00  0.00     0.053 C 
BRANCH  11  12
ATOM     12  C   UNL     1     -36.272  16.420 -30.377  1.00  0.00     0.041 C 
ATOM     13  O   UNL     1     -36.687  15.237 -30.255  1.00  0.00    -0.550 OA
ATOM     14  O   UNL     1     -35.040  16.660 -30.971  1.00  0.00    -0.550 OA
ENDBRANCH  11  12
ENDBRANCH  10  11
ENDBRANCH   9  10
ENDBRANCH   8   9
ENDBRANCH   1   8
TORSDOF 9
ENDMDL
MODEL 8
REMARK VINA RESULT:    -4.242      2.589      3.320
REMARK INTER + INTRA:          -7.209
REMARK INTER:                  -6.426
REMARK INTRA:                  -0.783
REMARK UNBOUND:                -0.736
REMARK SMILES O=C([O-])CCCCCCCCC(=O)[O-]
REMARK SMILES IDX 7 1 6 2 5 3 4 4 2 5 1 6 3 7 8 8 9 9 10 10 11 11 12 12 13 13
REMARK SMILES IDX 14 14
REMARK H PARENT
REMARK Flexibility Score: inf
ROOT
ATOM      1  C   UNL     1     -37.621  18.327 -28.284  1.00  0.00     0.000 C 
ENDROOT
BRANCH   1   2
ATOM      2  C   UNL     1     -36.270  18.826 -28.808  1.00  0.00     0.000 C 
BRANCH   2   3
ATOM      3  C   UNL     1     -36.291  18.967 -30.338  1.00  0.00     0.006 C 
BRANCH   3   4
ATOM      4  C   UNL     1     -35.385  20.103 -30.829  1.00  0.00     0.053 C 
BRANCH   4   5
ATOM      5  C   UNL     1     -36.180  21.268 -31.334  1.00  0.00     0.041 C 
ATOM      6  O   UNL     1     -36.184  22.356 -30.699  1.00  0.00    -0.550 OA
ATOM      7  O   UNL     1     -36.942  21.142 -32.488  1.00  0.00    -0.550 OA
ENDBRANCH   4   5
ENDBRANCH   3   4
ENDBRANCH   2   3
ENDBRANCH   1   2
BRANCH   1   8
ATOM      8  C   UNL     1     -38.743  18.618 -29.289  1.00  0.00     0.000 C 
BRANCH   8   9
ATOM      9  C   UNL     1     -39.674  19.719 -28.770  1.00  0.00     0.000 C 
BRANCH   9  10
ATOM     10  C   UNL     1     -39.211  21.103 -29.250  1.00  0.00     0.006 C 
BRANCH  10  11
ATOM     11  C   UNL     1     -40.113  21.665 -30.356  1.00  0.00     0.053 C 
BRANCH  11  12
ATOM     12  C   UNL     1     -41.109  22.644 -29.816  1.00  0.00     0.041 C 
ATOM     13  O   UNL     1     -40.720  23.658 -29.178  1.00  0.00    -0.550 OA
ATOM     14  O   UNL     1     -42.466  22.456 -30.047  1.00  0.00    -0.550 OA
ENDBRANCH  11  12
ENDBRANCH  10  11
ENDBRANCH   9  10
ENDBRANCH   8   9
ENDBRANCH   1   8
TORSDOF 9
ENDMDL
MODEL 9
REMARK VINA RESULT:    -4.162      2.338      3.199
REMARK INTER + INTRA:          -7.087
REMARK INTER:                  -6.241
REMARK INTRA:                  -0.846
REMARK UNBOUND:                -0.736
REMARK SMILES O=C([O-])CCCCCCCCC(=O)[O-]
REMARK SMILES IDX 7 1 6 2 5 3 4 4 2 5 1 6 3 7 8 8 9 9 10 10 11 11 12 12 13 13
REMARK SMILES IDX 14 14
REMARK H PARENT
REMARK Flexibility Score: inf
ROOT
ATOM      1  C   UNL     1     -36.177  17.851 -29.792  1.00  0.00     0.000 C 
ENDROOT
BRANCH   1   2
ATOM      2  C   UNL     1     -35.095  18.382 -30.740  1.00  0.00     0.000 C 
BRANCH   2   3
ATOM      3  C   UNL     1     -34.589  19.758 -30.280  1.00  0.00     0.006 C 
BRANCH   3   4
ATOM      4  C   UNL     1     -34.505  20.761 -31.437  1.00  0.00     0.053 C 
BRANCH   4   5
ATOM      5  C   UNL     1     -35.796  21.498 -31.628  1.00  0.00     0.041 C 
ATOM      6  O   UNL     1     -36.565  21.193 -32.578  1.00  0.00    -0.550 OA
ATOM      7  O   UNL     1     -36.133  22.543 -30.778  1.00  0.00    -0.550 OA
ENDBRANCH   4   5
ENDBRANCH   3   4
ENDBRANCH   2   3
ENDBRANCH   1   2
BRANCH   1   8
ATOM      8  C   UNL     1     -36.748  18.978 -28.922  1.00  0.00     0.000 C 
BRANCH   8   9
ATOM      9  C   UNL     1     -38.071  18.554 -28.272  1.00  0.00     0.000 C 
BRANCH   9  10
ATOM     10  C   UNL     1     -39.269  19.167 -29.013  1.00  0.00     0.006 C 
BRANCH  10  11
ATOM     11  C   UNL     1     -38.846  20.283 -29.977  1.00  0.00     0.053 C 
BRANCH  11  12
ATOM     12  C   UNL     1     -39.431  21.605 -29.586  1.00  0.00     0.041 C 
ATOM     13  O   UNL     1     -38.815  22.359 -28.786  1.00  0.00    -0.550 OA
ATOM     14  O   UNL     1     -40.639  22.020 -30.131  1.00  0.00    -0.550 OA
ENDBRANCH  11  12
ENDBRANCH  10  11
ENDBRANCH   9  10
ENDBRANCH   8   9
ENDBRANCH   1   8
TORSDOF 9
ENDMDL
