MODEL 1
REMARK VINA RESULT:    -4.251      0.000      0.000
REMARK INTER + INTRA:          -6.720
REMARK INTER:                  -6.239
REMARK INTRA:                  -0.481
REMARK UNBOUND:                -0.481
REMARK SMILES O=C([O-])CCCCCCCC(=O)[O-]
REMARK SMILES IDX 7 1 6 2 5 3 4 4 2 5 1 6 3 7 8 8 9 9 10 10 11 11 12 12 13 13
REMARK H PARENT
REMARK Flexibility Score: inf
ROOT
ATOM      1  C   UNL     1     -19.472  11.593  18.837  1.00  0.00     0.000 C 
ENDROOT
BRANCH   1   2
ATOM      2  C   UNL     1     -19.953  10.548  17.814  1.00  0.00     0.000 C 
BRANCH   2   3
ATOM      3  C   UNL     1     -18.980   9.377  17.570  1.00  0.00     0.006 C 
BRANCH   3   4
ATOM      4  C   UNL     1     -19.296   8.106  18.374  1.00  0.00     0.053 C 
BRANCH   4   5
ATOM      5  C   UNL     1     -18.061   7.490  18.955  1.00  0.00     0.041 C 
ATOM      6  O   UNL     1     -18.127   6.822  20.021  1.00  0.00    -0.550 OA
ATOM      7  O   UNL     1     -16.842   7.626  18.302  1.00  0.00    -0.550 OA
ENDBRANCH   4   5
ENDBRANCH   3   4
ENDBRANCH   2   3
ENDBRANCH   1   2
BRANCH   1   8
ATOM      8  C   UNL     1     -18.937  12.873  18.179  1.00  0.00     0.000 C 
BRANCH   8   9
ATOM      9  C   UNL     1     -19.583  13.094  16.803  1.00  0.00     0.006 C 
BRANCH   9  10
ATOM     10  C   UNL     1     -18.548  13.443  15.724  1.00  0.00     0.053 C 
BRANCH  10  11
ATOM     11  C   UNL     1     -18.634  12.515  14.551  1.00  0.00     0.041 C 
ATOM     12  O   UNL     1     -18.203  11.336  14.643  1.00  0.00    -0.550 OA
ATOM     13  O   UNL     1     -19.159  12.964  13.346  1.00  0.00    -0.550 OA
ENDBRANCH  10  11
ENDBRANCH   9  10
ENDBRANCH   8   9
ENDBRANCH   1   8
TORSDOF 8
ENDMDL
MODEL 2
REMARK VINA RESULT:    -4.202      5.824      7.934
REMARK INTER + INTRA:          -6.648
REMARK INTER:                  -6.411
REMARK INTRA:                  -0.237
REMARK UNBOUND:                -0.481
REMARK SMILES O=C([O-])CCCCCCCC(=O)[O-]
REMARK SMILES IDX 7 1 6 2 5 3 4 4 2 5 1 6 3 7 8 8 9 9 10 10 11 11 12 12 13 13
REMARK H PARENT
REMARK Flexibility Score: inf
ROOT
ATOM      1  C   UNL     1     -14.937   3.982  16.214  1.00  0.00     0.000 C 
ENDROOT
BRANCH   1   2
ATOM      2  C   UNL     1     -14.992   4.485  17.668  1.00  0.00     0.000 C 
BRANCH   2   3
ATOM      3  C   UNL     1     -16.396   4.491  18.303  1.00  0.00     0.006 C 
BRANCH   3   4
ATOM      4  C   UNL     1     -16.525   5.367  19.559  1.00  0.00     0.053 C 
BRANCH   4   5
ATOM      5  C   UNL     1     -17.324   6.606  19.298  1.00  0.00     0.041 C 
ATOM      6  O   UNL     1     -18.378   6.831  19.949  1.00  0.00    -0.550 OA
ATOM      7  O   UNL     1     -16.885   7.532  18.359  1.00  0.00    -0.550 OA
ENDBRANCH   4   5
ENDBRANCH   3   4
ENDBRANCH   2   3
ENDBRANCH   1   2
BRANCH   1   8
ATOM      8  C   UNL     1     -13.523   4.035  15.615  1.00  0.00     0.000 C 
BRANCH   8   9
ATOM      9  C   UNL     1     -13.407   5.165  14.582  1.00  0.00     0.006 C 
BRANCH   9  10
ATOM     10  C   UNL     1     -14.089   4.811  13.253  1.00  0.00     0.053 C 
BRANCH  10  11
ATOM     11  C   UNL     1     -13.091   4.598  12.155  1.00  0.00     0.041 C 
ATOM     12  O   UNL     1     -11.874   4.854  12.348  1.00  0.00    -0.550 OA
ATOM     13  O   UNL     1     -13.512   4.151  10.910  1.00  0.00    -0.550 OA
ENDBRANCH  10  11
ENDBRANCH   9  10
ENDBRANCH   8   9
ENDBRANCH   1   8
TORSDOF 8
ENDMDL
MODEL 3
REMARK VINA RESULT:    -4.173      1.323      5.984
REMARK INTER + INTRA:          -6.605
REMARK INTER:                  -6.158
REMARK INTRA:                  -0.447
REMARK UNBOUND:                -0.481
REMARK SMILES O=C([O-])CCCCCCCC(=O)[O-]
REMARK SMILES IDX 7 1 6 2 5 3 4 4 2 5 1 6 3 7 8 8 9 9 10 10 11 11 12 12 13 13
REMARK H PARENT
REMARK Flexibility Score: inf
ROOT
ATOM      1  C   UNL     1     -20.415   9.715  18.009  1.00  0.00     0.000 C 
ENDROOT
BRANCH   1   2
ATOM      2  C   UNL     1     -20.455  11.110  18.659  1.00  0.00     0.000 C 
BRANCH   2   3
ATOM      3  C   UNL     1     -19.205  11.979  18.417  1.00  0.00     0.006 C 
BRANCH   3   4
ATOM      4  C   UNL     1     -19.385  13.074  17.354  1.00  0.00     0.053 C 
BRANCH   4   5
ATOM      5  C   UNL     1     -18.768  12.690  16.045  1.00  0.00     0.041 C 
ATOM      6  O   UNL     1     -19.259  11.752  15.363  1.00  0.00    -0.550 OA
ATOM      7  O   UNL     1     -17.671  13.392  15.560  1.00  0.00    -0.550 OA
ENDBRANCH   4   5
ENDBRANCH   3   4
ENDBRANCH   2   3
ENDBRANCH   1   2
BRANCH   1   8
ATOM      8  C   UNL     1     -18.986   9.207  17.768  1.00  0.00     0.000 C 
BRANCH   8   9
ATOM      9  C   UNL     1     -18.693   7.964  18.621  1.00  0.00     0.006 C 
BRANCH   9  10
ATOM     10  C   UNL     1     -17.198   7.620  18.654  1.00  0.00     0.053 C 
BRANCH  10  11
ATOM     11  C   UNL     1     -16.967   6.177  18.988  1.00  0.00     0.041 C 
ATOM     12  O   UNL     1     -17.165   5.759  20.158  1.00  0.00    -0.550 OA
ATOM     13  O   UNL     1     -16.500   5.305  18.014  1.00  0.00    -0.550 OA
ENDBRANCH  10  11
ENDBRANCH   9  10
ENDBRANCH   8   9
ENDBRANCH   1   8
TORSDOF 8
ENDMDL
MODEL 4
REMARK VINA RESULT:    -4.163      5.775      8.305
REMARK INTER + INTRA:          -6.590
REMARK INTER:                  -6.137
REMARK INTRA:                  -0.454
REMARK UNBOUND:                -0.481
REMARK SMILES O=C([O-])CCCCCCCC(=O)[O-]
REMARK SMILES IDX 7 1 6 2 5 3 4 4 2 5 1 6 3 7 8 8 9 9 10 10 11 11 12 12 13 13
REMARK H PARENT
REMARK Flexibility Score: inf
ROOT
ATOM      1  C   UNL     1     -16.084   2.956  18.236  1.00  0.00     0.000 C 
ENDROOT
BRANCH   1   2
ATOM      2  C   UNL     1     -16.041   3.332  16.743  1.00  0.00     0.000 C 
BRANCH   2   3
ATOM      3  C   UNL     1     -14.825   4.178  16.318  1.00  0.00     0.006 C 
BRANCH   3   4
ATOM      4  C   UNL     1     -14.186   3.753  14.987  1.00  0.00     0.053 C 
BRANCH   4   5
ATOM      5  C   UNL     1     -12.866   4.423  14.760  1.00  0.00     0.041 C 
ATOM      6  O   UNL     1     -12.593   4.923  13.637  1.00  0.00    -0.550 OA
ATOM      7  O   UNL     1     -11.950   4.526  15.801  1.00  0.00    -0.550 OA
ENDBRANCH   4   5
ENDBRANCH   3   4
ENDBRANCH   2   3
ENDBRANCH   1   2
BRANCH   1   8
ATOM      8  C   UNL     1     -15.107   3.780  19.089  1.00  0.00     0.000 C 
BRANCH   8   9
ATOM      9  C   UNL     1     -15.841   4.482  20.241  1.00  0.00     0.006 C 
BRANCH   9  10
ATOM     10  C   UNL     1     -17.282   4.859  19.868  1.00  0.00     0.053 C 
BRANCH  10  11
ATOM     11  C   UNL     1     -17.369   6.256  19.332  1.00  0.00     0.041 C 
ATOM     12  O   UNL     1     -16.629   6.616  18.380  1.00  0.00    -0.550 OA
ATOM     13  O   UNL     1     -18.243   7.168  19.908  1.00  0.00    -0.550 OA
ENDBRANCH  10  11
ENDBRANCH   9  10
ENDBRANCH   8   9
ENDBRANCH   1   8
TORSDOF 8
ENDMDL
MODEL 5
REMARK VINA RESULT:    -4.113      0.789      5.868
REMARK INTER + INTRA:          -6.518
REMARK INTER:                  -6.122
REMARK INTRA:                  -0.395
REMARK UNBOUND:                -0.481
REMARK SMILES O=C([O-])CCCCCCCC(=O)[O-]
REMARK SMILES IDX 7 1 6 2 5 3 4 4 2 5 1 6 3 7 8 8 9 9 10 10 11 11 12 12 13 13
REMARK H PARENT
REMARK Flexibility Score: inf
ROOT
ATOM      1  C   UNL     1     -20.259  11.920  17.495  1.00  0.00     0.000 C 
ENDROOT
BRANCH   1   2
ATOM      2  C   UNL     1     -19.080  12.909  17.556  1.00  0.00     0.000 C 
BRANCH   2   3
ATOM      3  C   UNL     1     -18.633  13.476  16.194  1.00  0.00     0.006 C 
BRANCH   3   4
ATOM      4  C   UNL     1     -18.251  12.412  15.154  1.00  0.00     0.053 C 
BRANCH   4   5
ATOM      5  C   UNL     1     -19.147  12.454  13.955  1.00  0.00     0.041 C 
ATOM      6  O   UNL     1     -19.681  11.398  13.524  1.00  0.00    -0.550 OA
ATOM      7  O   UNL     1     -19.421  13.667  13.333  1.00  0.00    -0.550 OA
ENDBRANCH   4   5
ENDBRANCH   3   4
ENDBRANCH   2   3
ENDBRANCH   1   2
BRANCH   1   8
ATOM      8  C   UNL     1     -20.077  10.714  18.428  1.00  0.00     0.000 C 
BRANCH   8   9
ATOM      9  C   UNL     1     -19.113   9.686  17.816  1.00  0.00     0.006 C 
BRANCH   9  10
ATOM     10  C   UNL     1     -19.404   8.258  18.296  1.00  0.00     0.053 C 
BRANCH  10  11
ATOM     11  C   UNL     1     -18.171   7.586  18.820  1.00  0.00     0.041 C 
ATOM     12  O   UNL     1     -17.088   7.668  18.186  1.00  0.00    -0.550 OA
ATOM     13  O   UNL     1     -18.230   6.841  19.991  1.00  0.00    -0.550 OA
ENDBRANCH  10  11
ENDBRANCH   9  10
ENDBRANCH   8   9
ENDBRANCH   1   8
TORSDOF 8
ENDMDL
MODEL 6
REMARK VINA RESULT:    -4.110      6.018      8.805
REMARK INTER + INTRA:          -6.513
REMARK INTER:                  -6.018
REMARK INTRA:                  -0.494
REMARK UNBOUND:                -0.481
REMARK SMILES O=C([O-])CCCCCCCC(=O)[O-]
REMARK SMILES IDX 7 1 6 2 5 3 4 4 2 5 1 6 3 7 8 8 9 9 10 10 11 11 12 12 13 13
REMARK H PARENT
REMARK Flexibility Score: inf
ROOT
ATOM      1  C   UNL     1     -15.344   3.465  16.236  1.00  0.00     0.000 C 
ENDROOT
BRANCH   1   2
ATOM      2  C   UNL     1     -14.221   4.517  16.282  1.00  0.00     0.000 C 
BRANCH   2   3
ATOM      3  C   UNL     1     -12.927   4.124  15.543  1.00  0.00     0.006 C 
BRANCH   3   4
ATOM      4  C   UNL     1     -13.150   3.464  14.173  1.00  0.00     0.053 C 
BRANCH   4   5
ATOM      5  C   UNL     1     -13.159   4.468  13.063  1.00  0.00     0.041 C 
ATOM      6  O   UNL     1     -14.217   5.091  12.779  1.00  0.00    -0.550 OA
ATOM      7  O   UNL     1     -11.991   4.742  12.362  1.00  0.00    -0.550 OA
ENDBRANCH   4   5
ENDBRANCH   3   4
ENDBRANCH   2   3
ENDBRANCH   1   2
BRANCH   1   8
ATOM      8  C   UNL     1     -15.938   3.161  17.620  1.00  0.00     0.000 C 
BRANCH   8   9
ATOM      9  C   UNL     1     -15.379   4.122  18.680  1.00  0.00     0.006 C 
BRANCH   9  10
ATOM     10  C   UNL     1     -16.458   4.596  19.662  1.00  0.00     0.053 C 
BRANCH  10  11
ATOM     11  C   UNL     1     -16.955   5.968  19.323  1.00  0.00     0.041 C 
ATOM     12  O   UNL     1     -17.837   6.516  20.034  1.00  0.00    -0.550 OA
ATOM     13  O   UNL     1     -16.469   6.626  18.201  1.00  0.00    -0.550 OA
ENDBRANCH  10  11
ENDBRANCH   9  10
ENDBRANCH   8   9
ENDBRANCH   1   8
TORSDOF 8
ENDMDL
MODEL 7
REMARK VINA RESULT:    -4.045      5.766      8.618
REMARK INTER + INTRA:          -6.417
REMARK INTER:                  -6.186
REMARK INTRA:                  -0.231
REMARK UNBOUND:                -0.481
REMARK SMILES O=C([O-])CCCCCCCC(=O)[O-]
REMARK SMILES IDX 7 1 6 2 5 3 4 4 2 5 1 6 3 7 8 8 9 9 10 10 11 11 12 12 13 13
REMARK H PARENT
REMARK Flexibility Score: inf
ROOT
ATOM      1  C   UNL     1     -14.962   4.544  16.753  1.00  0.00     0.000 C 
ENDROOT
BRANCH   1   2
ATOM      2  C   UNL     1     -14.334   3.904  15.501  1.00  0.00     0.000 C 
BRANCH   2   3
ATOM      3  C   UNL     1     -13.698   4.897  14.509  1.00  0.00     0.006 C 
BRANCH   3   4
ATOM      4  C   UNL     1     -14.230   4.792  13.071  1.00  0.00     0.053 C 
BRANCH   4   5
ATOM      5  C   UNL     1     -13.124   4.612  12.077  1.00  0.00     0.041 C 
ATOM      6  O   UNL     1     -11.927   4.797  12.420  1.00  0.00    -0.550 OA
ATOM      7  O   UNL     1     -13.414   4.204  10.781  1.00  0.00    -0.550 OA
ENDBRANCH   4   5
ENDBRANCH   3   4
ENDBRANCH   2   3
ENDBRANCH   1   2
BRANCH   1   8
ATOM      8  C   UNL     1     -15.891   3.586  17.513  1.00  0.00     0.000 C 
BRANCH   8   9
ATOM      9  C   UNL     1     -16.965   4.363  18.289  1.00  0.00     0.006 C 
BRANCH   9  10
ATOM     10  C   UNL     1     -16.377   5.545  19.071  1.00  0.00     0.053 C 
BRANCH  10  11
ATOM     11  C   UNL     1     -17.317   6.712  19.105  1.00  0.00     0.041 C 
ATOM     12  O   UNL     1     -17.156   7.677  18.313  1.00  0.00    -0.550 OA
ATOM     13  O   UNL     1     -18.348   6.748  20.034  1.00  0.00    -0.550 OA
ENDBRANCH  10  11
ENDBRANCH   9  10
ENDBRANCH   8   9
ENDBRANCH   1   8
TORSDOF 8
ENDMDL
MODEL 8
REMARK VINA RESULT:    -4.027      9.960     11.880
REMARK INTER + INTRA:          -6.391
REMARK INTER:                  -5.922
REMARK INTRA:                  -0.470
REMARK UNBOUND:                -0.481
REMARK SMILES O=C([O-])CCCCCCCC(=O)[O-]
REMARK SMILES IDX 7 1 6 2 5 3 4 4 2 5 1 6 3 7 8 8 9 9 10 10 11 11 12 12 13 13
REMARK H PARENT
REMARK Flexibility Score: inf
ROOT
ATOM      1  C   UNL     1     -14.044   1.491  12.878  1.00  0.00     0.000 C 
ENDROOT
BRANCH   1   2
ATOM      2  C   UNL     1     -14.146   2.839  12.142  1.00  0.00     0.000 C 
BRANCH   2   3
ATOM      3  C   UNL     1     -14.651   4.015  13.001  1.00  0.00     0.006 C 
BRANCH   3   4
ATOM      4  C   UNL     1     -13.575   5.054  13.356  1.00  0.00     0.053 C 
BRANCH   4   5
ATOM      5  C   UNL     1     -13.344   5.138  14.833  1.00  0.00     0.041 C 
ATOM      6  O   UNL     1     -14.270   5.514  15.600  1.00  0.00    -0.550 OA
ATOM      7  O   UNL     1     -12.116   4.768  15.367  1.00  0.00    -0.550 OA
ENDBRANCH   4   5
ENDBRANCH   3   4
ENDBRANCH   2   3
ENDBRANCH   1   2
BRANCH   1   8
ATOM      8  C   UNL     1     -12.864   0.633  12.396  1.00  0.00     0.000 C 
BRANCH   8   9
ATOM      9  C   UNL     1     -11.719   1.516  11.878  1.00  0.00     0.006 C 
BRANCH   9  10
ATOM     10  C   UNL     1     -10.913   0.830  10.766  1.00  0.00     0.053 C 
BRANCH  10  11
ATOM     11  C   UNL     1     -11.611   0.909   9.443  1.00  0.00     0.041 C 
ATOM     12  O   UNL     1     -11.738  -0.121   8.732  1.00  0.00    -0.550 OA
ATOM     13  O   UNL     1     -12.090   2.128   8.982  1.00  0.00    -0.550 OA
ENDBRANCH  10  11
ENDBRANCH   9  10
ENDBRANCH   8   9
ENDBRANCH   1   8
TORSDOF 8
ENDMDL
MODEL 9
REMARK VINA RESULT:    -3.987      1.858      4.947
REMARK INTER + INTRA:          -6.333
REMARK INTER:                  -5.707
REMARK INTRA:                  -0.626
REMARK UNBOUND:                -0.481
REMARK SMILES O=C([O-])CCCCCCCC(=O)[O-]
REMARK SMILES IDX 7 1 6 2 5 3 4 4 2 5 1 6 3 7 8 8 9 9 10 10 11 11 12 12 13 13
REMARK H PARENT
REMARK Flexibility Score: inf
ROOT
ATOM      1  C   UNL     1     -19.777  13.004  17.031  1.00  0.00     0.000 C 
ENDROOT
BRANCH   1   2
ATOM      2  C   UNL     1     -18.749  13.697  16.119  1.00  0.00     0.000 C 
BRANCH   2   3
ATOM      3  C   UNL     1     -18.004  12.762  15.147  1.00  0.00     0.006 C 
BRANCH   3   4
ATOM      4  C   UNL     1     -18.918  11.848  14.315  1.00  0.00     0.053 C 
BRANCH   4   5
ATOM      5  C   UNL     1     -18.146  11.046  13.314  1.00  0.00     0.041 C 
ATOM      6  O   UNL     1     -18.641  10.795  12.183  1.00  0.00    -0.550 OA
ATOM      7  O   UNL     1     -16.863  10.603  13.616  1.00  0.00    -0.550 OA
ENDBRANCH   4   5
ENDBRANCH   3   4
ENDBRANCH   2   3
ENDBRANCH   1   2
BRANCH   1   8
ATOM      8  C   UNL     1     -19.144  12.390  18.289  1.00  0.00     0.000 C 
BRANCH   8   9
ATOM      9  C   UNL     1     -19.977  11.205  18.800  1.00  0.00     0.006 C 
BRANCH   9  10
ATOM     10  C   UNL     1     -20.655  10.435  17.659  1.00  0.00     0.053 C 
BRANCH  10  11
ATOM     11  C   UNL     1     -19.942   9.152  17.354  1.00  0.00     0.041 C 
ATOM     12  O   UNL     1     -20.398   8.059  17.778  1.00  0.00    -0.550 OA
ATOM     13  O   UNL     1     -18.757   9.171  16.631  1.00  0.00    -0.550 OA
ENDBRANCH  10  11
ENDBRANCH   9  10
ENDBRANCH   8   9
ENDBRANCH   1   8
TORSDOF 8
ENDMDL
