MODEL 1
REMARK VINA RESULT:    -2.486      0.000      0.000
REMARK INTER + INTRA:          -3.795
REMARK INTER:                  -3.794
REMARK INTRA:                  -0.001
REMARK UNBOUND:                -0.001
REMARK SMILES CC1=CCC[C@@H](C)C(=O)C[C@@H](C(C)C)C(=O)C1
REMARK SMILES IDX 8 1 9 2 6 3 7 4 5 5 4 6 3 7 2 8 1 9 10 11 11 12 15 13 16 14
REMARK SMILES IDX 17 15 12 17 13 18 14 19
REMARK H PARENT
REMARK Flexibility Score: 70.00
ROOT
ATOM      1  C   UNL     1      28.316  41.099  21.750  1.00  0.00     0.136 C 
ATOM      2  O   UNL     1      28.747  41.047  22.894  1.00  0.00    -0.299 OA
ENDROOT
BRANCH   1   3
ATOM      3  C   UNL     1      27.010  41.822  21.465  1.00  0.00     0.053 C 
ATOM      4  C   UNL     1      27.009  43.256  22.017  1.00  0.00     0.016 C 
BRANCH   3   5
ATOM      5  C   UNL     1      25.757  41.029  21.910  1.00  0.00     0.015 C 
BRANCH   5   6
ATOM      6  C   UNL     1      25.113  40.051  20.903  1.00  0.00     0.028 C 
BRANCH   6   7
ATOM      7  C   UNL     1      25.509  38.595  20.991  1.00  0.00    -0.028 C 
ATOM      8  C   UNL     1      26.072  37.847  20.012  1.00  0.00    -0.070 CG0
ATOM      9  C   UNL     1      26.216  36.365  20.258  1.00  0.00     0.039 C 
ATOM     10  G   UNL     1      26.632  38.418  18.724  1.00  0.00     0.000 G0
ENDBRANCH   6   7
ENDBRANCH   5   6
ENDBRANCH   3   5
ENDBRANCH   1   3
BRANCH   1  11
ATOM     11  C   UNL     1      29.125  40.450  20.645  1.00  0.00     0.087 C 
BRANCH  11  12
ATOM     12  C   UNL     1      28.360  40.351  19.298  1.00  0.00     0.066 C 
BRANCH  12  13
ATOM     13  C   UNL     1      28.048  38.907  18.944  1.00  0.00     0.140 C 
ATOM     14  O   UNL     1      28.955  38.091  18.875  1.00  0.00    -0.299 OA
BRANCH  13  15
ATOM     15  C   UNL     1      26.625  38.440  18.721  1.00  0.00     0.106 CG0
ATOM     16  G   UNL     1      26.062  37.855  20.001  1.00  0.00     0.000 G0
ENDBRANCH  13  15
ENDBRANCH  12  13
BRANCH  12  17
ATOM     17  C   UNL     1      29.054  41.105  18.117  1.00  0.00    -0.006 C 
ATOM     18  C   UNL     1      28.537  42.536  17.877  1.00  0.00     0.008 C 
ATOM     19  C   UNL     1      28.964  40.303  16.809  1.00  0.00     0.008 C 
ENDBRANCH  12  17
ENDBRANCH  11  12
ENDBRANCH   1  11
TORSDOF 1
ENDMDL
MODEL 2
REMARK VINA RESULT:    -2.187     12.260     14.949
REMARK INTER + INTRA:          -3.339
REMARK INTER:                  -3.718
REMARK INTRA:                   0.379
REMARK UNBOUND:                -0.001
REMARK SMILES CC1=CCC[C@@H](C)C(=O)C[C@@H](C(C)C)C(=O)C1
REMARK SMILES IDX 8 1 9 2 6 3 7 4 5 5 4 6 3 7 2 8 1 9 10 11 11 12 15 13 16 14
REMARK SMILES IDX 17 15 12 17 13 18 14 19
REMARK H PARENT
REMARK Flexibility Score: 70.00
ROOT
ATOM      1  C   UNL     1      24.822  28.111  27.400  1.00  0.00     0.136 C 
ATOM      2  O   UNL     1      24.139  29.122  27.306  1.00  0.00    -0.299 OA
ENDROOT
BRANCH   1   3
ATOM      3  C   UNL     1      24.155  26.767  27.642  1.00  0.00     0.053 C 
ATOM      4  C   UNL     1      22.743  26.918  28.228  1.00  0.00     0.016 C 
BRANCH   3   5
ATOM      5  C   UNL     1      25.024  25.789  28.470  1.00  0.00     0.015 C 
BRANCH   5   6
ATOM      6  C   UNL     1      25.005  24.291  28.091  1.00  0.00     0.028 C 
BRANCH   6   7
ATOM      7  C   UNL     1      25.640  23.895  26.778  1.00  0.00    -0.028 C 
ATOM      8  C   UNL     1      26.691  24.497  26.171  1.00  0.00    -0.070 CG0
ATOM      9  C   UNL     1      27.044  24.049  24.774  1.00  0.00     0.039 C 
ATOM     10  G   UNL     1      27.574  25.534  26.836  1.00  0.00     0.000 G0
ENDBRANCH   6   7
ENDBRANCH   5   6
ENDBRANCH   3   5
ENDBRANCH   1   3
BRANCH   1  11
ATOM     11  C   UNL     1      26.324  28.239  27.246  1.00  0.00     0.087 C 
BRANCH  11  12
ATOM     12  C   UNL     1      26.833  27.865  25.828  1.00  0.00     0.066 C 
BRANCH  12  13
ATOM     13  C   UNL     1      27.808  26.700  25.881  1.00  0.00     0.140 C 
ATOM     14  O   UNL     1      28.809  26.717  25.180  1.00  0.00    -0.299 OA
BRANCH  13  15
ATOM     15  C   UNL     1      27.593  25.534  26.822  1.00  0.00     0.106 CG0
ATOM     16  G   UNL     1      26.684  24.506  26.177  1.00  0.00     0.000 G0
ENDBRANCH  13  15
ENDBRANCH  12  13
BRANCH  12  17
ATOM     17  C   UNL     1      27.409  29.074  25.021  1.00  0.00    -0.006 C 
ATOM     18  C   UNL     1      28.389  29.963  25.810  1.00  0.00     0.008 C 
ATOM     19  C   UNL     1      26.286  29.945  24.437  1.00  0.00     0.008 C 
ENDBRANCH  12  17
ENDBRANCH  11  12
ENDBRANCH   1  11
TORSDOF 1
ENDMDL
MODEL 3
REMARK VINA RESULT:    -1.833      2.123      4.119
REMARK INTER + INTRA:          -2.799
REMARK INTER:                  -3.592
REMARK INTRA:                   0.794
REMARK UNBOUND:                -0.001
REMARK SMILES CC1=CCC[C@@H](C)C(=O)C[C@@H](C(C)C)C(=O)C1
REMARK SMILES IDX 8 1 9 2 6 3 7 4 5 5 4 6 3 7 2 8 1 9 10 11 11 12 15 13 16 14
REMARK SMILES IDX 17 15 12 17 13 18 14 19
REMARK H PARENT
REMARK Flexibility Score: 70.00
ROOT
ATOM      1  C   UNL     1      26.732  37.150  18.622  1.00  0.00     0.136 C 
ATOM      2  O   UNL     1      25.584  36.882  18.295  1.00  0.00    -0.299 OA
ENDROOT
BRANCH   1   3
ATOM      3  C   UNL     1      27.568  36.119  19.362  1.00  0.00     0.053 C 
ATOM      4  C   UNL     1      26.906  34.733  19.369  1.00  0.00     0.016 C 
BRANCH   3   5
ATOM      5  C   UNL     1      27.984  36.569  20.784  1.00  0.00     0.015 C 
BRANCH   5   6
ATOM      6  C   UNL     1      26.922  36.528  21.906  1.00  0.00     0.028 C 
BRANCH   6   7
ATOM      7  C   UNL     1      25.599  37.209  21.639  1.00  0.00    -0.028 C 
ATOM      8  C   UNL     1      25.357  38.542  21.642  1.00  0.00    -0.070 CG0
ATOM      9  C   UNL     1      23.922  38.994  21.532  1.00  0.00     0.039 C 
ATOM     10  G   UNL     1      26.441  39.600  21.672  1.00  0.00     0.000 G0
ENDBRANCH   6   7
ENDBRANCH   5   6
ENDBRANCH   3   5
ENDBRANCH   1   3
BRANCH   1  11
ATOM     11  C   UNL     1      27.289  38.510  18.252  1.00  0.00     0.087 C 
BRANCH  11  12
ATOM     12  C   UNL     1      27.875  39.286  19.462  1.00  0.00     0.066 C 
BRANCH  12  13
ATOM     13  C   UNL     1      26.785  40.009  20.236  1.00  0.00     0.140 C 
ATOM     14  O   UNL     1      26.146  40.898  19.693  1.00  0.00    -0.299 OA
BRANCH  13  15
ATOM     15  C   UNL     1      26.435  39.619  21.656  1.00  0.00     0.106 CG0
ATOM     16  G   UNL     1      25.355  38.555  21.652  1.00  0.00     0.000 G0
ENDBRANCH  13  15
ENDBRANCH  12  13
BRANCH  12  17
ATOM     17  C   UNL     1      29.059  40.238  19.093  1.00  0.00    -0.006 C 
ATOM     18  C   UNL     1      29.053  41.588  19.836  1.00  0.00     0.008 C 
ATOM     19  C   UNL     1      29.125  40.489  17.577  1.00  0.00     0.008 C 
ENDBRANCH  12  17
ENDBRANCH  11  12
ENDBRANCH   1  11
TORSDOF 1
ENDMDL
MODEL 4
REMARK VINA RESULT:    -1.757      1.888      3.642
REMARK INTER + INTRA:          -2.682
REMARK INTER:                  -4.329
REMARK INTRA:                   1.647
REMARK UNBOUND:                -0.001
REMARK SMILES CC1=CCC[C@@H](C)C(=O)C[C@@H](C(C)C)C(=O)C1
REMARK SMILES IDX 8 1 9 2 6 3 7 4 5 5 4 6 3 7 2 8 1 9 10 11 11 12 15 13 16 14
REMARK SMILES IDX 17 15 12 17 13 18 14 19
REMARK H PARENT
REMARK Flexibility Score: 70.00
ROOT
ATOM      1  C   UNL     1      25.650  38.343  21.212  1.00  0.00     0.136 C 
ATOM      2  O   UNL     1      26.525  38.199  22.054  1.00  0.00    -0.299 OA
ENDROOT
BRANCH   1   3
ATOM      3  C   UNL     1      24.413  37.461  21.248  1.00  0.00     0.053 C 
ATOM      4  C   UNL     1      24.342  36.613  22.527  1.00  0.00     0.016 C 
BRANCH   3   5
ATOM      5  C   UNL     1      24.233  36.601  19.972  1.00  0.00     0.015 C 
BRANCH   5   6
ATOM      6  C   UNL     1      25.385  36.566  18.944  1.00  0.00     0.028 C 
BRANCH   6   7
ATOM      7  C   UNL     1      26.668  35.879  19.355  1.00  0.00    -0.028 C 
ATOM      8  C   UNL     1      27.929  36.341  19.173  1.00  0.00    -0.070 CG0
ATOM      9  C   UNL     1      29.069  35.407  19.495  1.00  0.00     0.039 C 
ATOM     10  G   UNL     1      28.261  37.755  18.740  1.00  0.00     0.000 G0
ENDBRANCH   6   7
ENDBRANCH   5   6
ENDBRANCH   3   5
ENDBRANCH   1   3
BRANCH   1  11
ATOM     11  C   UNL     1      25.826  39.426  20.166  1.00  0.00     0.087 C 
BRANCH  11  12
ATOM     12  C   UNL     1      27.297  39.893  20.004  1.00  0.00     0.066 C 
BRANCH  12  13
ATOM     13  C   UNL     1      28.248  38.710  19.935  1.00  0.00     0.140 C 
ATOM     14  O   UNL     1      28.994  38.477  20.875  1.00  0.00    -0.299 OA
BRANCH  13  15
ATOM     15  C   UNL     1      28.260  37.777  18.743  1.00  0.00     0.106 CG0
ATOM     16  G   UNL     1      27.919  36.367  19.182  1.00  0.00     0.000 G0
ENDBRANCH  13  15
ENDBRANCH  12  13
BRANCH  12  17
ATOM     17  C   UNL     1      27.749  40.946  21.068  1.00  0.00    -0.006 C 
ATOM     18  C   UNL     1      26.609  41.808  21.642  1.00  0.00     0.008 C 
ATOM     19  C   UNL     1      28.856  41.861  20.518  1.00  0.00     0.008 C 
ENDBRANCH  12  17
ENDBRANCH  11  12
ENDBRANCH   1  11
TORSDOF 1
ENDMDL
MODEL 5
REMARK VINA RESULT:    -0.960      3.576      5.669
REMARK INTER + INTRA:          -1.467
REMARK INTER:                  -3.702
REMARK INTRA:                   2.235
REMARK UNBOUND:                -0.001
REMARK SMILES CC1=CCC[C@@H](C)C(=O)C[C@@H](C(C)C)C(=O)C1
REMARK SMILES IDX 8 1 9 2 6 3 7 4 5 5 4 6 3 7 2 8 1 9 10 11 11 12 15 13 16 14
REMARK SMILES IDX 17 15 12 17 13 18 14 19
REMARK H PARENT
REMARK Flexibility Score: 70.00
ROOT
ATOM      1  C   UNL     1      27.687  35.446  19.394  1.00  0.00     0.136 C 
ATOM      2  O   UNL     1      26.882  34.623  18.982  1.00  0.00    -0.299 OA
ENDROOT
BRANCH   1   3
ATOM      3  C   UNL     1      28.899  34.988  20.188  1.00  0.00     0.053 C 
ATOM      4  C   UNL     1      28.941  33.462  20.353  1.00  0.00     0.016 C 
BRANCH   3   5
ATOM      5  C   UNL     1      29.061  35.722  21.542  1.00  0.00     0.015 C 
BRANCH   5   6
ATOM      6  C   UNL     1      28.410  35.097  22.796  1.00  0.00     0.028 C 
BRANCH   6   7
ATOM      7  C   UNL     1      26.939  35.357  23.022  1.00  0.00    -0.028 C 
ATOM      8  C   UNL     1      26.258  36.488  22.716  1.00  0.00    -0.070 CG0
ATOM      9  C   UNL     1      24.833  36.601  23.198  1.00  0.00     0.039 C 
ATOM     10  G   UNL     1      26.816  37.607  21.858  1.00  0.00     0.000 G0
ENDBRANCH   6   7
ENDBRANCH   5   6
ENDBRANCH   3   5
ENDBRANCH   1   3
BRANCH   1  11
ATOM     11  C   UNL     1      27.452  36.909  19.072  1.00  0.00     0.087 C 
BRANCH  11  12
ATOM     12  C   UNL     1      25.996  37.373  19.342  1.00  0.00     0.066 C 
BRANCH  12  13
ATOM     13  C   UNL     1      25.858  37.980  20.728  1.00  0.00     0.140 C 
ATOM     14  O   UNL     1      24.936  38.747  20.964  1.00  0.00    -0.299 OA
BRANCH  13  15
ATOM     15  C   UNL     1      26.813  37.619  21.846  1.00  0.00     0.106 CG0
ATOM     16  G   UNL     1      26.230  36.502  22.688  1.00  0.00     0.000 G0
ENDBRANCH  13  15
ENDBRANCH  12  13
BRANCH  12  17
ATOM     17  C   UNL     1      24.919  36.271  19.077  1.00  0.00    -0.006 C 
ATOM     18  C   UNL     1      24.444  36.176  17.615  1.00  0.00     0.008 C 
ATOM     19  C   UNL     1      23.701  36.442  20.000  1.00  0.00     0.008 C 
ENDBRANCH  12  17
ENDBRANCH  11  12
ENDBRANCH   1  11
TORSDOF 1
ENDMDL
MODEL 6
REMARK VINA RESULT:    -0.545      1.762      2.520
REMARK INTER + INTRA:          -0.834
REMARK INTER:                  -0.650
REMARK INTRA:                  -0.184
REMARK UNBOUND:                -0.001
REMARK SMILES CC1=CCC[C@@H](C)C(=O)C[C@@H](C(C)C)C(=O)C1
REMARK SMILES IDX 8 1 9 2 6 3 7 4 5 5 4 6 3 7 2 8 1 9 10 11 11 12 15 13 16 14
REMARK SMILES IDX 17 15 12 17 13 18 14 19
REMARK H PARENT
REMARK Flexibility Score: 70.00
ROOT
ATOM      1  C   UNL     1      27.248  40.359  21.657  1.00  0.00     0.136 C 
ATOM      2  O   UNL     1      27.757  40.633  22.735  1.00  0.00    -0.299 OA
ENDROOT
BRANCH   1   3
ATOM      3  C   UNL     1      26.019  41.117  21.184  1.00  0.00     0.053 C 
ATOM      4  C   UNL     1      26.249  42.636  21.160  1.00  0.00     0.016 C 
BRANCH   3   5
ATOM      5  C   UNL     1      24.729  40.740  21.953  1.00  0.00     0.015 C 
BRANCH   5   6
ATOM      6  C   UNL     1      23.948  39.485  21.502  1.00  0.00     0.028 C 
BRANCH   6   7
ATOM      7  C   UNL     1      24.040  38.254  22.375  1.00  0.00    -0.028 C 
ATOM      8  C   UNL     1      24.414  37.011  21.987  1.00  0.00    -0.070 CG0
ATOM      9  C   UNL     1      24.256  35.890  22.985  1.00  0.00     0.039 C 
ATOM     10  G   UNL     1      25.049  36.695  20.648  1.00  0.00     0.000 G0
ENDBRANCH   6   7
ENDBRANCH   5   6
ENDBRANCH   3   5
ENDBRANCH   1   3
BRANCH   1  11
ATOM     11  C   UNL     1      27.886  39.272  20.814  1.00  0.00     0.087 C 
BRANCH  11  12
ATOM     12  C   UNL     1      26.865  38.478  19.957  1.00  0.00     0.066 C 
BRANCH  12  13
ATOM     13  C   UNL     1      26.498  37.158  20.617  1.00  0.00     0.140 C 
ATOM     14  O   UNL     1      27.366  36.491  21.159  1.00  0.00    -0.299 OA
BRANCH  13  15
ATOM     15  C   UNL     1      25.065  36.670  20.660  1.00  0.00     0.106 CG0
ATOM     16  G   UNL     1      24.440  37.013  21.997  1.00  0.00     0.000 G0
ENDBRANCH  13  15
ENDBRANCH  12  13
BRANCH  12  17
ATOM     17  C   UNL     1      27.300  38.285  18.467  1.00  0.00    -0.006 C 
ATOM     18  C   UNL     1      28.198  39.406  17.911  1.00  0.00     0.008 C 
ATOM     19  C   UNL     1      26.083  38.100  17.546  1.00  0.00     0.008 C 
ENDBRANCH  12  17
ENDBRANCH  11  12
ENDBRANCH   1  11
TORSDOF 1
ENDMDL
MODEL 7
REMARK VINA RESULT:    -0.538      2.804      5.328
REMARK INTER + INTRA:          -0.823
REMARK INTER:                  -2.391
REMARK INTRA:                   1.569
REMARK UNBOUND:                -0.001
REMARK SMILES CC1=CCC[C@@H](C)C(=O)C[C@@H](C(C)C)C(=O)C1
REMARK SMILES IDX 8 1 9 2 6 3 7 4 5 5 4 6 3 7 2 8 1 9 10 11 11 12 15 13 16 14
REMARK SMILES IDX 17 15 12 17 13 18 14 19
REMARK H PARENT
REMARK Flexibility Score: 70.00
ROOT
ATOM      1  C   UNL     1      28.656  34.738  20.023  1.00  0.00     0.136 C 
ATOM      2  O   UNL     1      28.494  33.627  19.536  1.00  0.00    -0.299 OA
ENDROOT
BRANCH   1   3
ATOM      3  C   UNL     1      28.848  34.887  21.523  1.00  0.00     0.053 C 
ATOM      4  C   UNL     1      28.361  33.651  22.295  1.00  0.00     0.016 C 
BRANCH   3   5
ATOM      5  C   UNL     1      28.252  36.197  22.093  1.00  0.00     0.015 C 
BRANCH   5   6
ATOM      6  C   UNL     1      26.736  36.245  22.389  1.00  0.00     0.028 C 
BRANCH   6   7
ATOM      7  C   UNL     1      26.014  37.548  22.131  1.00  0.00    -0.028 C 
ATOM      8  C   UNL     1      26.419  38.551  21.314  1.00  0.00    -0.070 CG0
ATOM      9  C   UNL     1      25.636  39.840  21.349  1.00  0.00     0.039 C 
ATOM     10  G   UNL     1      27.557  38.430  20.321  1.00  0.00     0.000 G0
ENDBRANCH   6   7
ENDBRANCH   5   6
ENDBRANCH   3   5
ENDBRANCH   1   3
BRANCH   1  11
ATOM     11  C   UNL     1      28.681  35.936  19.094  1.00  0.00     0.087 C 
BRANCH  11  12
ATOM     12  C   UNL     1      27.269  36.399  18.647  1.00  0.00     0.066 C 
BRANCH  12  13
ATOM     13  C   UNL     1      27.026  37.855  19.007  1.00  0.00     0.140 C 
ATOM     14  O   UNL     1      26.373  38.564  18.255  1.00  0.00    -0.299 OA
BRANCH  13  15
ATOM     15  C   UNL     1      27.535  38.441  20.307  1.00  0.00     0.106 CG0
ATOM     16  G   UNL     1      26.402  38.547  21.308  1.00  0.00     0.000 G0
ENDBRANCH  13  15
ENDBRANCH  12  13
BRANCH  12  17
ATOM     17  C   UNL     1      26.110  35.473  19.144  1.00  0.00    -0.006 C 
ATOM     18  C   UNL     1      25.846  34.244  18.254  1.00  0.00     0.008 C 
ATOM     19  C   UNL     1      24.803  36.260  19.331  1.00  0.00     0.008 C 
ENDBRANCH  12  17
ENDBRANCH  11  12
ENDBRANCH   1  11
TORSDOF 1
ENDMDL
MODEL 8
REMARK VINA RESULT:    -0.328      2.555      4.833
REMARK INTER + INTRA:          -0.502
REMARK INTER:                  -2.164
REMARK INTRA:                   1.662
REMARK UNBOUND:                -0.001
REMARK SMILES CC1=CCC[C@@H](C)C(=O)C[C@@H](C(C)C)C(=O)C1
REMARK SMILES IDX 8 1 9 2 6 3 7 4 5 5 4 6 3 7 2 8 1 9 10 11 11 12 15 13 16 14
REMARK SMILES IDX 17 15 12 17 13 18 14 19
REMARK H PARENT
REMARK Flexibility Score: 70.00
ROOT
ATOM      1  C   UNL     1      27.377  36.681  19.007  1.00  0.00     0.136 C 
ATOM      2  O   UNL     1      26.335  36.072  18.805  1.00  0.00    -0.299 OA
ENDROOT
BRANCH   1   3
ATOM      3  C   UNL     1      28.632  35.922  19.404  1.00  0.00     0.053 C 
ATOM      4  C   UNL     1      28.541  34.428  19.055  1.00  0.00     0.016 C 
BRANCH   3   5
ATOM      5  C   UNL     1      29.048  36.147  20.878  1.00  0.00     0.015 C 
BRANCH   5   6
ATOM      6  C   UNL     1      28.635  35.090  21.926  1.00  0.00     0.028 C 
BRANCH   6   7
ATOM      7  C   UNL     1      27.211  35.129  22.433  1.00  0.00    -0.028 C 
ATOM      8  C   UNL     1      26.495  36.234  22.753  1.00  0.00    -0.070 CG0
ATOM      9  C   UNL     1      25.154  36.031  23.415  1.00  0.00     0.039 C 
ATOM     10  G   UNL     1      26.922  37.649  22.419  1.00  0.00     0.000 G0
ENDBRANCH   6   7
ENDBRANCH   5   6
ENDBRANCH   3   5
ENDBRANCH   1   3
BRANCH   1  11
ATOM     11  C   UNL     1      27.379  38.186  18.830  1.00  0.00     0.087 C 
BRANCH  11  12
ATOM     12  C   UNL     1      27.117  38.962  20.148  1.00  0.00     0.066 C 
BRANCH  12  13
ATOM     13  C   UNL     1      26.306  38.130  21.127  1.00  0.00     0.140 C 
ATOM     14  O   UNL     1      25.170  37.788  20.835  1.00  0.00    -0.299 OA
BRANCH  13  15
ATOM     15  C   UNL     1      26.892  37.670  22.445  1.00  0.00     0.106 CG0
ATOM     16  G   UNL     1      26.469  36.243  22.733  1.00  0.00     0.000 G0
ENDBRANCH  13  15
ENDBRANCH  12  13
BRANCH  12  17
ATOM     17  C   UNL     1      26.498  40.383  19.936  1.00  0.00    -0.006 C 
ATOM     18  C   UNL     1      27.460  41.416  19.318  1.00  0.00     0.008 C 
ATOM     19  C   UNL     1      25.917  40.943  21.244  1.00  0.00     0.008 C 
ENDBRANCH  12  17
ENDBRANCH  11  12
ENDBRANCH   1  11
TORSDOF 1
ENDMDL
MODEL 9
REMARK VINA RESULT:    -0.150      2.361      4.470
REMARK INTER + INTRA:          -0.230
REMARK INTER:                  -3.036
REMARK INTRA:                   2.806
REMARK UNBOUND:                -0.001
REMARK SMILES CC1=CCC[C@@H](C)C(=O)C[C@@H](C(C)C)C(=O)C1
REMARK SMILES IDX 8 1 9 2 6 3 7 4 5 5 4 6 3 7 2 8 1 9 10 11 11 12 15 13 16 14
REMARK SMILES IDX 17 15 12 17 13 18 14 19
REMARK H PARENT
REMARK Flexibility Score: 70.00
ROOT
ATOM      1  C   UNL     1      28.400  35.888  20.525  1.00  0.00     0.136 C 
ATOM      2  O   UNL     1      27.870  35.517  19.487  1.00  0.00    -0.299 OA
ENDROOT
BRANCH   1   3
ATOM      3  C   UNL     1      28.343  35.008  21.762  1.00  0.00     0.053 C 
ATOM      4  C   UNL     1      28.963  33.624  21.518  1.00  0.00     0.016 C 
BRANCH   3   5
ATOM      5  C   UNL     1      26.927  34.906  22.381  1.00  0.00     0.015 C 
BRANCH   5   6
ATOM      6  C   UNL     1      26.410  36.091  23.227  1.00  0.00     0.028 C 
BRANCH   6   7
ATOM      7  C   UNL     1      25.088  36.708  22.832  1.00  0.00    -0.028 C 
ATOM      8  C   UNL     1      24.832  37.430  21.714  1.00  0.00    -0.070 CG0
ATOM      9  C   UNL     1      23.488  38.107  21.610  1.00  0.00     0.039 C 
ATOM     10  G   UNL     1      25.780  37.534  20.536  1.00  0.00     0.000 G0
ENDBRANCH   6   7
ENDBRANCH   5   6
ENDBRANCH   3   5
ENDBRANCH   1   3
BRANCH   1  11
ATOM     11  C   UNL     1      29.123  37.221  20.529  1.00  0.00     0.087 C 
BRANCH  11  12
ATOM     12  C   UNL     1      28.230  38.407  20.075  1.00  0.00     0.066 C 
BRANCH  12  13
ATOM     13  C   UNL     1      26.933  38.456  20.865  1.00  0.00     0.140 C 
ATOM     14  O   UNL     1      26.801  39.274  21.763  1.00  0.00    -0.299 OA
BRANCH  13  15
ATOM     15  C   UNL     1      25.773  37.541  20.533  1.00  0.00     0.106 CG0
ATOM     16  G   UNL     1      24.833  37.443  21.717  1.00  0.00     0.000 G0
ENDBRANCH  13  15
ENDBRANCH  12  13
BRANCH  12  17
ATOM     17  C   UNL     1      27.978  38.458  18.533  1.00  0.00    -0.006 C 
ATOM     18  C   UNL     1      28.424  39.766  17.853  1.00  0.00     0.008 C 
ATOM     19  C   UNL     1      26.503  38.184  18.196  1.00  0.00     0.008 C 
ENDBRANCH  12  17
ENDBRANCH  11  12
ENDBRANCH   1  11
TORSDOF 1
ENDMDL
