MODEL 1
REMARK VINA RESULT:    -6.343      0.000      0.000
REMARK INTER + INTRA:         -10.647
REMARK INTER:                  -8.569
REMARK INTRA:                  -2.078
REMARK UNBOUND:                -2.078
REMARK SMILES CC[C@@H](CC[C@H](C)[C@H]1CC[C@@H]2[C@H]3CC(=O)C4=CC(=O)CC[C@]4(C)[C@H]3CC[C@@]21C)C(C)C
REMARK SMILES IDX 4 1 3 2 2 3 1 4 29 5 30 6 31 7 5 8 6 9 7 10 8 11 9 12 27 13
REMARK SMILES IDX 10 14 11 15 26 16 28 17 12 18 25 19 24 20 13 21 22 22 14 23
REMARK SMILES IDX 16 24 21 25 23 26 15 27 17 28 20 29 18 30 19 31
REMARK H PARENT
REMARK Flexibility Score: inf
ROOT
ATOM      1  C   UNL     1     -10.933  17.241 -21.631  1.00  0.00     0.004 C 
ENDROOT
BRANCH   1   2
ATOM      2  C   UNL     1     -11.690  16.502 -22.779  1.00  0.00    -0.009 C 
BRANCH   2   3
ATOM      3  C   UNL     1     -13.183  16.272 -22.418  1.00  0.00     0.000 C 
ATOM      4  C   UNL     1     -14.124  17.258 -23.113  1.00  0.00     0.004 C 
ENDBRANCH   2   3
BRANCH   2   5
ATOM      5  C   UNL     1     -11.017  15.159 -23.220  1.00  0.00    -0.014 C 
ATOM      6  C   UNL     1      -9.566  15.041 -22.730  1.00  0.00     0.007 C 
ATOM      7  C   UNL     1     -11.811  13.895 -22.838  1.00  0.00     0.007 C 
ENDBRANCH   2   5
ENDBRANCH   1   2
BRANCH   1   8
ATOM      8  C   UNL     1     -11.722  17.317 -20.304  1.00  0.00     0.004 C 
BRANCH   8   9
ATOM      9  C   UNL     1     -11.124  16.443 -19.155  1.00  0.00    -0.011 C 
ATOM     10  C   UNL     1      -9.656  16.809 -18.844  1.00  0.00     0.008 C 
BRANCH   9  11
ATOM     11  C   UNL     1     -11.352  14.891 -19.302  1.00  0.00    -0.002 C 
ATOM     12  C   UNL     1     -10.021  14.126 -19.146  1.00  0.00     0.005 C 
ATOM     13  C   UNL     1     -12.403  14.125 -18.403  1.00  0.00    -0.026 C 
ATOM     14  C   UNL     1     -10.256  12.992 -18.162  1.00  0.00     0.005 C 
ATOM     15  C   UNL     1     -11.533  13.335 -17.393  1.00  0.00    -0.001 C 
ATOM     16  C   UNL     1     -13.189  13.135 -19.317  1.00  0.00     0.007 C 
ATOM     17  C   UNL     1     -13.410  15.053 -17.678  1.00  0.00     0.012 C 
ATOM     18  C   UNL     1     -12.162  12.062 -16.731  1.00  0.00     0.004 C 
ATOM     19  C   UNL     1     -13.974  12.076 -18.543  1.00  0.00     0.005 C 
ATOM     20  C   UNL     1     -13.047  11.194 -17.675  1.00  0.00     0.003 C 
ATOM     21  C   UNL     1     -12.891  12.359 -15.409  1.00  0.00     0.085 C 
ATOM     22  C   UNL     1     -13.794   9.980 -16.935  1.00  0.00    -0.000 C 
ATOM     23  C   UNL     1     -13.110  11.067 -14.687  1.00  0.00     0.159 C 
ATOM     24  C   UNL     1     -13.338   9.833 -15.475  1.00  0.00     0.005 C 
ATOM     25  C   UNL     1     -13.478   8.668 -17.722  1.00  0.00     0.020 C 
ATOM     26  C   UNL     1     -15.336  10.172 -16.874  1.00  0.00     0.017 C 
ATOM     27  O   UNL     1     -13.120  11.049 -13.425  1.00  0.00    -0.295 OA
ATOM     28  C   UNL     1     -13.266   8.631 -14.872  1.00  0.00     0.055 C 
ATOM     29  C   UNL     1     -13.980   7.399 -17.025  1.00  0.00     0.081 C 
ATOM     30  C   UNL     1     -13.550   7.380 -15.592  1.00  0.00     0.156 C 
ATOM     31  O   UNL     1     -13.472   6.282 -14.981  1.00  0.00    -0.295 OA
ENDBRANCH   9  11
ENDBRANCH   8   9
ENDBRANCH   1   8
TORSDOF 6
ENDMDL
MODEL 2
REMARK VINA RESULT:    -6.192      4.238      6.063
REMARK INTER + INTRA:         -10.443
REMARK INTER:                  -9.407
REMARK INTRA:                  -1.035
REMARK UNBOUND:                -2.078
REMARK SMILES CC[C@@H](CC[C@H](C)[C@H]1CC[C@@H]2[C@H]3CC(=O)C4=CC(=O)CC[C@]4(C)[C@H]3CC[C@@]21C)C(C)C
REMARK SMILES IDX 4 1 3 2 2 3 1 4 29 5 30 6 31 7 5 8 6 9 7 10 8 11 9 12 27 13
REMARK SMILES IDX 10 14 11 15 26 16 28 17 12 18 25 19 24 20 13 21 22 22 14 23
REMARK SMILES IDX 16 24 21 25 23 26 15 27 17 28 20 29 18 30 19 31
REMARK H PARENT
REMARK Flexibility Score: inf
ROOT
ATOM      1  C   UNL     1     -11.895  14.596 -22.728  1.00  0.00     0.004 C 
ENDROOT
BRANCH   1   2
ATOM      2  C   UNL     1     -12.143  16.138 -22.724  1.00  0.00    -0.009 C 
BRANCH   2   3
ATOM      3  C   UNL     1     -11.980  16.736 -21.300  1.00  0.00     0.000 C 
ATOM      4  C   UNL     1     -10.744  17.626 -21.163  1.00  0.00     0.004 C 
ENDBRANCH   2   3
BRANCH   2   5
ATOM      5  C   UNL     1     -13.517  16.560 -23.346  1.00  0.00    -0.014 C 
ATOM      6  C   UNL     1     -14.158  17.741 -22.604  1.00  0.00     0.007 C 
ATOM      7  C   UNL     1     -13.468  16.844 -24.859  1.00  0.00     0.007 C 
ENDBRANCH   2   5
ENDBRANCH   1   2
BRANCH   1   8
ATOM      8  C   UNL     1     -10.411  14.197 -22.557  1.00  0.00     0.004 C 
BRANCH   8   9
ATOM      9  C   UNL     1     -10.093  12.728 -22.981  1.00  0.00    -0.011 C 
ATOM     10  C   UNL     1      -9.330  12.657 -24.322  1.00  0.00     0.008 C 
BRANCH   9  11
ATOM     11  C   UNL     1     -11.309  11.729 -22.912  1.00  0.00    -0.002 C 
ATOM     12  C   UNL     1     -11.681  11.222 -24.322  1.00  0.00     0.005 C 
ATOM     13  C   UNL     1     -11.271  10.449 -21.985  1.00  0.00    -0.026 C 
ATOM     14  C   UNL     1     -11.806   9.709 -24.248  1.00  0.00     0.005 C 
ATOM     15  C   UNL     1     -11.083   9.270 -22.973  1.00  0.00    -0.001 C 
ATOM     16  C   UNL     1     -12.653  10.329 -21.273  1.00  0.00     0.007 C 
ATOM     17  C   UNL     1     -10.151  10.476 -20.916  1.00  0.00     0.012 C 
ATOM     18  C   UNL     1     -11.552   7.849 -22.509  1.00  0.00     0.004 C 
ATOM     19  C   UNL     1     -12.900   8.961 -20.635  1.00  0.00     0.005 C 
ATOM     20  C   UNL     1     -12.873   7.826 -21.684  1.00  0.00     0.003 C 
ATOM     21  C   UNL     1     -10.447   7.041 -21.807  1.00  0.00     0.085 C 
ATOM     22  C   UNL     1     -13.251   6.378 -21.100  1.00  0.00    -0.000 C 
ATOM     23  C   UNL     1     -10.869   5.607 -21.756  1.00  0.00     0.159 C 
ATOM     24  C   UNL     1     -12.309   5.285 -21.628  1.00  0.00     0.005 C 
ATOM     25  C   UNL     1     -14.721   6.058 -21.521  1.00  0.00     0.020 C 
ATOM     26  C   UNL     1     -13.145   6.310 -19.550  1.00  0.00     0.017 C 
ATOM     27  O   UNL     1      -9.996   4.696 -21.798  1.00  0.00    -0.295 OA
ATOM     28  C   UNL     1     -12.736   4.027 -21.850  1.00  0.00     0.055 C 
ATOM     29  C   UNL     1     -15.157   4.628 -21.184  1.00  0.00     0.081 C 
ATOM     30  C   UNL     1     -14.144   3.640 -21.671  1.00  0.00     0.156 C 
ATOM     31  O   UNL     1     -14.491   2.449 -21.889  1.00  0.00    -0.295 OA
ENDBRANCH   9  11
ENDBRANCH   8   9
ENDBRANCH   1   8
TORSDOF 6
ENDMDL
MODEL 3
REMARK VINA RESULT:    -6.101      4.564      9.799
REMARK INTER + INTRA:         -10.319
REMARK INTER:                  -8.454
REMARK INTRA:                  -1.864
REMARK UNBOUND:                -2.078
REMARK SMILES CC[C@@H](CC[C@H](C)[C@H]1CC[C@@H]2[C@H]3CC(=O)C4=CC(=O)CC[C@]4(C)[C@H]3CC[C@@]21C)C(C)C
REMARK SMILES IDX 4 1 3 2 2 3 1 4 29 5 30 6 31 7 5 8 6 9 7 10 8 11 9 12 27 13
REMARK SMILES IDX 10 14 11 15 26 16 28 17 12 18 25 19 24 20 13 21 22 22 14 23
REMARK SMILES IDX 16 24 21 25 23 26 15 27 17 28 20 29 18 30 19 31
REMARK H PARENT
REMARK Flexibility Score: inf
ROOT
ATOM      1  C   UNL     1      -9.257   6.278 -11.079  1.00  0.00     0.004 C 
ENDROOT
BRANCH   1   2
ATOM      2  C   UNL     1      -7.835   6.796 -10.696  1.00  0.00    -0.009 C 
BRANCH   2   3
ATOM      3  C   UNL     1      -7.754   8.345 -10.778  1.00  0.00     0.000 C 
ATOM      4  C   UNL     1      -9.126   9.010 -10.901  1.00  0.00     0.004 C 
ENDBRANCH   2   3
BRANCH   2   5
ATOM      5  C   UNL     1      -6.678   6.139 -11.522  1.00  0.00    -0.014 C 
ATOM      6  C   UNL     1      -5.563   7.137 -11.867  1.00  0.00     0.007 C 
ATOM      7  C   UNL     1      -6.079   4.873 -10.879  1.00  0.00     0.007 C 
ENDBRANCH   2   5
ENDBRANCH   1   2
BRANCH   1   8
ATOM      8  C   UNL     1      -9.248   5.036 -11.998  1.00  0.00     0.004 C 
BRANCH   8   9
ATOM      9  C   UNL     1      -9.647   5.336 -13.479  1.00  0.00    -0.011 C 
ATOM     10  C   UNL     1      -8.618   4.777 -14.487  1.00  0.00     0.008 C 
BRANCH   9  11
ATOM     11  C   UNL     1     -10.052   6.828 -13.778  1.00  0.00    -0.002 C 
ATOM     12  C   UNL     1      -8.859   7.612 -14.366  1.00  0.00     0.005 C 
ATOM     13  C   UNL     1     -11.294   7.176 -14.692  1.00  0.00    -0.026 C 
ATOM     14  C   UNL     1      -9.355   8.348 -15.599  1.00  0.00     0.005 C 
ATOM     15  C   UNL     1     -10.663   7.672 -16.017  1.00  0.00    -0.001 C 
ATOM     16  C   UNL     1     -12.083   8.338 -14.013  1.00  0.00     0.007 C 
ATOM     17  C   UNL     1     -12.254   5.985 -14.934  1.00  0.00     0.012 C 
ATOM     18  C   UNL     1     -11.525   8.609 -16.929  1.00  0.00     0.004 C 
ATOM     19  C   UNL     1     -13.086   9.025 -14.940  1.00  0.00     0.005 C 
ATOM     20  C   UNL     1     -12.392   9.656 -16.169  1.00  0.00     0.003 C 
ATOM     21  C   UNL     1     -12.366   7.846 -17.968  1.00  0.00     0.085 C 
ATOM     22  C   UNL     1     -13.373  10.504 -17.117  1.00  0.00    -0.000 C 
ATOM     23  C   UNL     1     -12.834   8.816 -19.005  1.00  0.00     0.159 C 
ATOM     24  C   UNL     1     -13.121  10.214 -18.605  1.00  0.00     0.005 C 
ATOM     25  C   UNL     1     -13.133  12.020 -16.826  1.00  0.00     0.020 C 
ATOM     26  C   UNL     1     -14.874  10.175 -16.875  1.00  0.00     0.017 C 
ATOM     27  O   UNL     1     -13.000   8.429 -20.194  1.00  0.00    -0.295 OA
ATOM     28  C   UNL     1     -13.278  11.161 -19.549  1.00  0.00     0.055 C 
ATOM     29  C   UNL     1     -13.876  12.953 -17.789  1.00  0.00     0.081 C 
ATOM     30  C   UNL     1     -13.629  12.548 -19.209  1.00  0.00     0.156 C 
ATOM     31  O   UNL     1     -13.768  13.396 -20.130  1.00  0.00    -0.295 OA
ENDBRANCH   9  11
ENDBRANCH   8   9
ENDBRANCH   1   8
TORSDOF 6
ENDMDL
MODEL 4
REMARK VINA RESULT:    -6.080     10.871     14.807
REMARK INTER + INTRA:         -10.290
REMARK INTER:                  -9.095
REMARK INTRA:                  -1.195
REMARK UNBOUND:                -2.078
REMARK SMILES CC[C@@H](CC[C@H](C)[C@H]1CC[C@@H]2[C@H]3CC(=O)C4=CC(=O)CC[C@]4(C)[C@H]3CC[C@@]21C)C(C)C
REMARK SMILES IDX 4 1 3 2 2 3 1 4 29 5 30 6 31 7 5 8 6 9 7 10 8 11 9 12 27 13
REMARK SMILES IDX 10 14 11 15 26 16 28 17 12 18 25 19 24 20 13 21 22 22 14 23
REMARK SMILES IDX 16 24 21 25 23 26 15 27 17 28 20 29 18 30 19 31
REMARK H PARENT
REMARK Flexibility Score: inf
ROOT
ATOM      1  C   UNL     1      -4.617   3.676 -13.046  1.00  0.00     0.004 C 
ENDROOT
BRANCH   1   2
ATOM      2  C   UNL     1      -5.125   2.842 -11.828  1.00  0.00    -0.009 C 
BRANCH   2   3
ATOM      3  C   UNL     1      -5.785   3.749 -10.754  1.00  0.00     0.000 C 
ATOM      4  C   UNL     1      -6.272   5.085 -11.318  1.00  0.00     0.004 C 
ENDBRANCH   2   3
BRANCH   2   5
ATOM      5  C   UNL     1      -4.026   1.933 -11.181  1.00  0.00    -0.014 C 
ATOM      6  C   UNL     1      -4.181   1.818  -9.657  1.00  0.00     0.007 C 
ATOM      7  C   UNL     1      -3.909   0.532 -11.811  1.00  0.00     0.007 C 
ENDBRANCH   2   5
ENDBRANCH   1   2
BRANCH   1   8
ATOM      8  C   UNL     1      -3.082   3.845 -13.098  1.00  0.00     0.004 C 
BRANCH   8   9
ATOM      9  C   UNL     1      -2.595   4.955 -14.083  1.00  0.00    -0.011 C 
ATOM     10  C   UNL     1      -1.881   4.368 -15.320  1.00  0.00     0.008 C 
BRANCH   9  11
ATOM     11  C   UNL     1      -1.798   6.141 -13.418  1.00  0.00    -0.002 C 
ATOM     12  C   UNL     1      -0.581   6.534 -14.284  1.00  0.00     0.005 C 
ATOM     13  C   UNL     1      -2.512   7.497 -13.030  1.00  0.00    -0.026 C 
ATOM     14  C   UNL     1      -0.601   8.046 -14.445  1.00  0.00     0.005 C 
ATOM     15  C   UNL     1      -2.018   8.506 -14.097  1.00  0.00    -0.001 C 
ATOM     16  C   UNL     1      -2.001   7.924 -11.620  1.00  0.00     0.007 C 
ATOM     17  C   UNL     1      -4.058   7.412 -13.004  1.00  0.00     0.012 C 
ATOM     18  C   UNL     1      -2.053  10.028 -13.731  1.00  0.00     0.004 C 
ATOM     19  C   UNL     1      -2.314   9.378 -11.267  1.00  0.00     0.005 C 
ATOM     20  C   UNL     1      -1.660  10.364 -12.262  1.00  0.00     0.003 C 
ATOM     21  C   UNL     1      -3.369  10.721 -14.123  1.00  0.00     0.085 C 
ATOM     22  C   UNL     1      -1.843  11.912 -11.875  1.00  0.00    -0.000 C 
ATOM     23  C   UNL     1      -3.156  12.201 -14.087  1.00  0.00     0.159 C 
ATOM     24  C   UNL     1      -2.210  12.767 -13.098  1.00  0.00     0.005 C 
ATOM     25  C   UNL     1      -0.498  12.417 -11.260  1.00  0.00     0.020 C 
ATOM     26  C   UNL     1      -2.986  12.141 -10.845  1.00  0.00     0.017 C 
ATOM     27  O   UNL     1      -3.797  12.945 -14.879  1.00  0.00    -0.295 OA
ATOM     28  C   UNL     1      -1.797  14.043 -13.220  1.00  0.00     0.055 C 
ATOM     29  C   UNL     1      -0.470  13.929 -11.009  1.00  0.00     0.081 C 
ATOM     30  C   UNL     1      -0.912  14.674 -12.229  1.00  0.00     0.156 C 
ATOM     31  O   UNL     1      -0.558  15.872 -12.388  1.00  0.00    -0.295 OA
ENDBRANCH   9  11
ENDBRANCH   8   9
ENDBRANCH   1   8
TORSDOF 6
ENDMDL
MODEL 5
REMARK VINA RESULT:    -6.077     10.778     12.557
REMARK INTER + INTRA:         -10.287
REMARK INTER:                  -8.616
REMARK INTRA:                  -1.671
REMARK UNBOUND:                -2.078
REMARK SMILES CC[C@@H](CC[C@H](C)[C@H]1CC[C@@H]2[C@H]3CC(=O)C4=CC(=O)CC[C@]4(C)[C@H]3CC[C@@]21C)C(C)C
REMARK SMILES IDX 4 1 3 2 2 3 1 4 29 5 30 6 31 7 5 8 6 9 7 10 8 11 9 12 27 13
REMARK SMILES IDX 10 14 11 15 26 16 28 17 12 18 25 19 24 20 13 21 22 22 14 23
REMARK SMILES IDX 16 24 21 25 23 26 15 27 17 28 20 29 18 30 19 31
REMARK H PARENT
REMARK Flexibility Score: inf
ROOT
ATOM      1  C   UNL     1       0.905   8.280 -19.880  1.00  0.00     0.004 C 
ENDROOT
BRANCH   1   2
ATOM      2  C   UNL     1       0.546   9.043 -21.194  1.00  0.00    -0.009 C 
BRANCH   2   3
ATOM      3  C   UNL     1       0.150  10.517 -20.905  1.00  0.00     0.000 C 
ATOM      4  C   UNL     1       0.782  11.066 -19.626  1.00  0.00     0.004 C 
ENDBRANCH   2   3
BRANCH   2   5
ATOM      5  C   UNL     1      -0.552   8.336 -22.058  1.00  0.00    -0.014 C 
ATOM      6  C   UNL     1      -1.653   9.304 -22.515  1.00  0.00     0.007 C 
ATOM      7  C   UNL     1      -0.003   7.548 -23.262  1.00  0.00     0.007 C 
ENDBRANCH   2   5
ENDBRANCH   1   2
BRANCH   1   8
ATOM      8  C   UNL     1       0.480   6.795 -19.880  1.00  0.00     0.004 C 
BRANCH   8   9
ATOM      9  C   UNL     1      -0.629   6.448 -18.835  1.00  0.00    -0.011 C 
ATOM     10  C   UNL     1      -1.880   5.827 -19.494  1.00  0.00     0.008 C 
BRANCH   9  11
ATOM     11  C   UNL     1      -0.977   7.598 -17.816  1.00  0.00    -0.002 C 
ATOM     12  C   UNL     1      -2.235   8.368 -18.270  1.00  0.00     0.005 C 
ATOM     13  C   UNL     1      -1.180   7.300 -16.277  1.00  0.00    -0.026 C 
ATOM     14  C   UNL     1      -3.164   8.476 -17.072  1.00  0.00     0.005 C 
ATOM     15  C   UNL     1      -2.711   7.416 -16.068  1.00  0.00    -0.001 C 
ATOM     16  C   UNL     1      -0.448   8.414 -15.470  1.00  0.00     0.007 C 
ATOM     17  C   UNL     1      -0.651   5.916 -15.826  1.00  0.00     0.012 C 
ATOM     18  C   UNL     1      -3.226   7.738 -14.623  1.00  0.00     0.004 C 
ATOM     19  C   UNL     1      -0.852   8.473 -13.996  1.00  0.00     0.005 C 
ATOM     20  C   UNL     1      -2.362   8.761 -13.827  1.00  0.00     0.003 C 
ATOM     21  C   UNL     1      -3.510   6.482 -13.782  1.00  0.00     0.085 C 
ATOM     22  C   UNL     1      -2.829   8.962 -12.303  1.00  0.00    -0.000 C 
ATOM     23  C   UNL     1      -4.337   6.880 -12.601  1.00  0.00     0.159 C 
ATOM     24  C   UNL     1      -4.142   8.222 -12.005  1.00  0.00     0.005 C 
ATOM     25  C   UNL     1      -3.016  10.493 -12.055  1.00  0.00     0.020 C 
ATOM     26  C   UNL     1      -1.795   8.408 -11.281  1.00  0.00     0.017 C 
ATOM     27  O   UNL     1      -5.169   6.063 -12.116  1.00  0.00    -0.295 OA
ATOM     28  C   UNL     1      -5.045   8.704 -11.130  1.00  0.00     0.055 C 
ATOM     29  C   UNL     1      -3.635  10.821 -10.691  1.00  0.00     0.081 C 
ATOM     30  C   UNL     1      -4.865  10.001 -10.460  1.00  0.00     0.156 C 
ATOM     31  O   UNL     1      -5.737  10.404  -9.646  1.00  0.00    -0.295 OA
ENDBRANCH   9  11
ENDBRANCH   8   9
ENDBRANCH   1   8
TORSDOF 6
ENDMDL
MODEL 6
REMARK VINA RESULT:    -5.959      3.711      7.949
REMARK INTER + INTRA:         -10.127
REMARK INTER:                  -8.154
REMARK INTRA:                  -1.974
REMARK UNBOUND:                -2.078
REMARK SMILES CC[C@@H](CC[C@H](C)[C@H]1CC[C@@H]2[C@H]3CC(=O)C4=CC(=O)CC[C@]4(C)[C@H]3CC[C@@]21C)C(C)C
REMARK SMILES IDX 4 1 3 2 2 3 1 4 29 5 30 6 31 7 5 8 6 9 7 10 8 11 9 12 27 13
REMARK SMILES IDX 10 14 11 15 26 16 28 17 12 18 25 19 24 20 13 21 22 22 14 23
REMARK SMILES IDX 16 24 21 25 23 26 15 27 17 28 20 29 18 30 19 31
REMARK H PARENT
REMARK Flexibility Score: inf
ROOT
ATOM      1  C   UNL     1     -13.108  12.839 -14.514  1.00  0.00     0.004 C 
ENDROOT
BRANCH   1   2
ATOM      2  C   UNL     1     -13.657  14.287 -14.312  1.00  0.00    -0.009 C 
BRANCH   2   3
ATOM      3  C   UNL     1     -15.207  14.300 -14.223  1.00  0.00     0.000 C 
ATOM      4  C   UNL     1     -15.734  15.190 -13.097  1.00  0.00     0.004 C 
ENDBRANCH   2   3
BRANCH   2   5
ATOM      5  C   UNL     1     -13.159  15.309 -15.389  1.00  0.00    -0.014 C 
ATOM      6  C   UNL     1     -14.191  15.538 -16.503  1.00  0.00     0.007 C 
ATOM      7  C   UNL     1     -12.689  16.659 -14.814  1.00  0.00     0.007 C 
ENDBRANCH   2   5
ENDBRANCH   1   2
BRANCH   1   8
ATOM      8  C   UNL     1     -14.147  11.847 -15.082  1.00  0.00     0.004 C 
BRANCH   8   9
ATOM      9  C   UNL     1     -13.992  11.565 -16.611  1.00  0.00    -0.011 C 
ATOM     10  C   UNL     1     -14.310  10.097 -16.971  1.00  0.00     0.008 C 
BRANCH   9  11
ATOM     11  C   UNL     1     -12.650  12.080 -17.257  1.00  0.00    -0.002 C 
ATOM     12  C   UNL     1     -11.575  10.972 -17.240  1.00  0.00     0.005 C 
ATOM     13  C   UNL     1     -12.620  12.693 -18.713  1.00  0.00    -0.026 C 
ATOM     14  C   UNL     1     -10.973  10.895 -18.633  1.00  0.00     0.005 C 
ATOM     15  C   UNL     1     -11.956  11.590 -19.576  1.00  0.00    -0.001 C 
ATOM     16  C   UNL     1     -11.714  13.962 -18.684  1.00  0.00     0.007 C 
ATOM     17  C   UNL     1     -14.015  13.080 -19.264  1.00  0.00     0.012 C 
ATOM     18  C   UNL     1     -11.260  12.029 -20.909  1.00  0.00     0.004 C 
ATOM     19  C   UNL     1     -11.295  14.450 -20.071  1.00  0.00     0.005 C 
ATOM     20  C   UNL     1     -10.485  13.379 -20.836  1.00  0.00     0.003 C 
ATOM     21  C   UNL     1     -12.198  11.995 -22.128  1.00  0.00     0.085 C 
ATOM     22  C   UNL     1      -9.905  13.874 -22.250  1.00  0.00    -0.000 C 
ATOM     23  C   UNL     1     -11.365  12.053 -23.369  1.00  0.00     0.159 C 
ATOM     24  C   UNL     1     -10.096  12.817 -23.348  1.00  0.00     0.005 C 
ATOM     25  C   UNL     1      -8.383  14.178 -22.066  1.00  0.00     0.020 C 
ATOM     26  C   UNL     1     -10.615  15.155 -22.774  1.00  0.00     0.017 C 
ATOM     27  O   UNL     1     -11.762  11.473 -24.417  1.00  0.00    -0.295 OA
ATOM     28  C   UNL     1      -9.206  12.664 -24.347  1.00  0.00     0.055 C 
ATOM     29  C   UNL     1      -7.658  14.490 -23.380  1.00  0.00     0.081 C 
ATOM     30  C   UNL     1      -7.962  13.447 -24.410  1.00  0.00     0.156 C 
ATOM     31  O   UNL     1      -7.165  13.268 -25.367  1.00  0.00    -0.295 OA
ENDBRANCH   9  11
ENDBRANCH   8   9
ENDBRANCH   1   8
TORSDOF 6
ENDMDL
MODEL 7
REMARK VINA RESULT:    -5.944      5.841      8.679
REMARK INTER + INTRA:         -10.107
REMARK INTER:                  -7.997
REMARK INTRA:                  -2.110
REMARK UNBOUND:                -2.078
REMARK SMILES CC[C@@H](CC[C@H](C)[C@H]1CC[C@@H]2[C@H]3CC(=O)C4=CC(=O)CC[C@]4(C)[C@H]3CC[C@@]21C)C(C)C
REMARK SMILES IDX 4 1 3 2 2 3 1 4 29 5 30 6 31 7 5 8 6 9 7 10 8 11 9 12 27 13
REMARK SMILES IDX 10 14 11 15 26 16 28 17 12 18 25 19 24 20 13 21 22 22 14 23
REMARK SMILES IDX 16 24 21 25 23 26 15 27 17 28 20 29 18 30 19 31
REMARK H PARENT
REMARK Flexibility Score: inf
ROOT
ATOM      1  C   UNL     1      -9.741  13.203  -9.481  1.00  0.00     0.004 C 
ENDROOT
BRANCH   1   2
ATOM      2  C   UNL     1      -9.004  14.555  -9.742  1.00  0.00    -0.009 C 
BRANCH   2   3
ATOM      3  C   UNL     1      -9.015  14.926 -11.250  1.00  0.00     0.000 C 
ATOM      4  C   UNL     1     -10.386  14.738 -11.901  1.00  0.00     0.004 C 
ENDBRANCH   2   3
BRANCH   2   5
ATOM      5  C   UNL     1      -7.545  14.601  -9.174  1.00  0.00    -0.014 C 
ATOM      6  C   UNL     1      -6.514  15.010 -10.236  1.00  0.00     0.007 C 
ATOM      7  C   UNL     1      -7.383  15.471  -7.912  1.00  0.00     0.007 C 
ENDBRANCH   2   5
ENDBRANCH   1   2
BRANCH   1   8
ATOM      8  C   UNL     1      -8.823  12.079  -8.950  1.00  0.00     0.004 C 
BRANCH   8   9
ATOM      9  C   UNL     1      -8.399  11.036 -10.032  1.00  0.00    -0.011 C 
ATOM     10  C   UNL     1      -6.865  10.926 -10.171  1.00  0.00     0.008 C 
BRANCH   9  11
ATOM     11  C   UNL     1      -9.133  11.169 -11.420  1.00  0.00    -0.002 C 
ATOM     12  C   UNL     1      -8.120  11.455 -12.549  1.00  0.00     0.005 C 
ATOM     13  C   UNL     1     -10.080  10.026 -11.963  1.00  0.00    -0.026 C 
ATOM     14  C   UNL     1      -8.418  10.492 -13.687  1.00  0.00     0.005 C 
ATOM     15  C   UNL     1      -9.259   9.360 -13.096  1.00  0.00    -0.001 C 
ATOM     16  C   UNL     1     -11.356  10.698 -12.556  1.00  0.00     0.007 C 
ATOM     17  C   UNL     1     -10.504   8.993 -10.890  1.00  0.00     0.012 C 
ATOM     18  C   UNL     1     -10.047   8.590 -14.210  1.00  0.00     0.004 C 
ATOM     19  C   UNL     1     -12.189   9.766 -13.438  1.00  0.00     0.005 C 
ATOM     20  C   UNL     1     -11.383   9.256 -14.655  1.00  0.00     0.003 C 
ATOM     21  C   UNL     1     -10.251   7.099 -13.894  1.00  0.00     0.085 C 
ATOM     22  C   UNL     1     -12.238   8.375 -15.690  1.00  0.00    -0.000 C 
ATOM     23  C   UNL     1     -10.656   6.398 -15.152  1.00  0.00     0.159 C 
ATOM     24  C   UNL     1     -11.467   7.129 -16.153  1.00  0.00     0.005 C 
ATOM     25  C   UNL     1     -12.579   9.274 -16.921  1.00  0.00     0.020 C 
ATOM     26  C   UNL     1     -13.563   7.842 -15.072  1.00  0.00     0.017 C 
ATOM     27  O   UNL     1     -10.323   5.194 -15.332  1.00  0.00    -0.295 OA
ATOM     28  C   UNL     1     -11.613   6.625 -17.393  1.00  0.00     0.055 C 
ATOM     29  C   UNL     1     -13.242   8.509 -18.073  1.00  0.00     0.081 C 
ATOM     30  C   UNL     1     -12.461   7.275 -18.404  1.00  0.00     0.156 C 
ATOM     31  O   UNL     1     -12.566   6.761 -19.548  1.00  0.00    -0.295 OA
ENDBRANCH   9  11
ENDBRANCH   8   9
ENDBRANCH   1   8
TORSDOF 6
ENDMDL
MODEL 8
REMARK VINA RESULT:    -5.938      3.503      6.340
REMARK INTER + INTRA:         -10.099
REMARK INTER:                  -7.979
REMARK INTRA:                  -2.120
REMARK UNBOUND:                -2.078
REMARK SMILES CC[C@@H](CC[C@H](C)[C@H]1CC[C@@H]2[C@H]3CC(=O)C4=CC(=O)CC[C@]4(C)[C@H]3CC[C@@]21C)C(C)C
REMARK SMILES IDX 4 1 3 2 2 3 1 4 29 5 30 6 31 7 5 8 6 9 7 10 8 11 9 12 27 13
REMARK SMILES IDX 10 14 11 15 26 16 28 17 12 18 25 19 24 20 13 21 22 22 14 23
REMARK SMILES IDX 16 24 21 25 23 26 15 27 17 28 20 29 18 30 19 31
REMARK H PARENT
REMARK Flexibility Score: inf
ROOT
ATOM      1  C   UNL     1     -14.618  14.945 -15.852  1.00  0.00     0.004 C 
ENDROOT
BRANCH   1   2
ATOM      2  C   UNL     1     -13.812  16.128 -15.228  1.00  0.00    -0.009 C 
BRANCH   2   3
ATOM      3  C   UNL     1     -12.648  16.573 -16.155  1.00  0.00     0.000 C 
ATOM      4  C   UNL     1     -12.700  15.919 -17.537  1.00  0.00     0.004 C 
ENDBRANCH   2   3
BRANCH   2   5
ATOM      5  C   UNL     1     -13.286  15.843 -13.781  1.00  0.00    -0.014 C 
ATOM      6  C   UNL     1     -11.774  15.575 -13.748  1.00  0.00     0.007 C 
ATOM      7  C   UNL     1     -13.658  16.922 -12.746  1.00  0.00     0.007 C 
ENDBRANCH   2   5
ENDBRANCH   1   2
BRANCH   1   8
ATOM      8  C   UNL     1     -14.979  13.830 -14.846  1.00  0.00     0.004 C 
BRANCH   8   9
ATOM      9  C   UNL     1     -14.183  12.502 -15.050  1.00  0.00    -0.011 C 
ATOM     10  C   UNL     1     -13.364  12.112 -13.801  1.00  0.00     0.008 C 
BRANCH   9  11
ATOM     11  C   UNL     1     -13.347  12.418 -16.383  1.00  0.00    -0.002 C 
ATOM     12  C   UNL     1     -11.833  12.409 -16.080  1.00  0.00     0.005 C 
ATOM     13  C   UNL     1     -13.587  11.261 -17.433  1.00  0.00    -0.026 C 
ATOM     14  C   UNL     1     -11.213  11.269 -16.871  1.00  0.00     0.005 C 
ATOM     15  C   UNL     1     -12.358  10.333 -17.264  1.00  0.00    -0.001 C 
ATOM     16  C   UNL     1     -13.583  11.894 -18.858  1.00  0.00     0.007 C 
ATOM     17  C   UNL     1     -14.913  10.487 -17.228  1.00  0.00     0.012 C 
ATOM     18  C   UNL     1     -11.962   9.421 -18.475  1.00  0.00     0.004 C 
ATOM     19  C   UNL     1     -13.439  10.871 -19.986  1.00  0.00     0.005 C 
ATOM     20  C   UNL     1     -12.114  10.081 -19.877  1.00  0.00     0.003 C 
ATOM     21  C   UNL     1     -12.632   8.036 -18.441  1.00  0.00     0.085 C 
ATOM     22  C   UNL     1     -11.841   9.080 -21.103  1.00  0.00    -0.000 C 
ATOM     23  C   UNL     1     -11.911   7.137 -19.394  1.00  0.00     0.159 C 
ATOM     24  C   UNL     1     -11.319   7.717 -20.622  1.00  0.00     0.005 C 
ATOM     25  C   UNL     1     -10.788   9.747 -22.045  1.00  0.00     0.020 C 
ATOM     26  C   UNL     1     -13.126   8.770 -21.923  1.00  0.00     0.017 C 
ATOM     27  O   UNL     1     -11.836   5.901 -19.152  1.00  0.00    -0.295 OA
ATOM     28  C   UNL     1     -10.445   6.995 -21.349  1.00  0.00     0.055 C 
ATOM     29  C   UNL     1     -10.297   8.823 -23.166  1.00  0.00     0.081 C 
ATOM     30  C   UNL     1      -9.880   7.497 -22.611  1.00  0.00     0.156 C 
ATOM     31  O   UNL     1      -9.069   6.781 -23.254  1.00  0.00    -0.295 OA
ENDBRANCH   9  11
ENDBRANCH   8   9
ENDBRANCH   1   8
TORSDOF 6
ENDMDL
