MODEL 1
REMARK VINA RESULT:    -4.080      0.000      0.000
REMARK INTER + INTRA:          -4.965
REMARK INTER:                  -4.676
REMARK INTRA:                  -0.288
REMARK UNBOUND:                -0.288
REMARK SMILES COc1ccc(C(C)=O)c(O)c1
REMARK SMILES IDX 6 1 10 2 12 3 3 4 4 5 5 6 7 7 8 8 9 9 11 10 2 12 1 13
REMARK H PARENT 11 11
REMARK Flexibility Score: inf
ROOT
ATOM      1  C   UNL     1      27.253  40.527  19.704  1.00  0.00     0.059 A 
ATOM      2  C   UNL     1      26.134  40.714  20.548  1.00  0.00     0.130 A 
ATOM      3  C   UNL     1      26.117  41.780  21.459  1.00  0.00     0.093 A 
ATOM      4  C   UNL     1      27.199  42.658  21.562  1.00  0.00     0.122 A 
ATOM      5  C   UNL     1      28.319  42.463  20.736  1.00  0.00     0.047 A 
ATOM      6  C   UNL     1      28.344  41.408  19.821  1.00  0.00     0.019 A 
ENDROOT
BRANCH   1   7
ATOM      7  C   UNL     1      27.326  39.427  18.703  1.00  0.00     0.163 C 
ATOM      8  C   UNL     1      28.629  38.913  18.167  1.00  0.00     0.093 C 
ATOM      9  O   UNL     1      26.260  38.901  18.284  1.00  0.00    -0.294 OA
ENDBRANCH   1   7
BRANCH   2  10
ATOM     10  O   UNL     1      25.051  39.837  20.505  1.00  0.00    -0.507 OA
ATOM     11  H   UNL     1      24.111  40.138  20.735  1.00  0.00     0.293 HD
ENDBRANCH   2  10
BRANCH   4  12
ATOM     12  O   UNL     1      27.125  43.704  22.493  1.00  0.00    -0.497 OA
ATOM     13  C   UNL     1      27.181  43.530  23.904  1.00  0.00     0.278 C 
ENDBRANCH   4  12
TORSDOF 3
ENDMDL
MODEL 2
REMARK VINA RESULT:    -3.933      1.210      4.611
REMARK INTER + INTRA:          -4.796
REMARK INTER:                  -4.467
REMARK INTRA:                  -0.329
REMARK UNBOUND:                -0.288
REMARK SMILES COc1ccc(C(C)=O)c(O)c1
REMARK SMILES IDX 6 1 10 2 12 3 3 4 4 5 5 6 7 7 8 8 9 9 11 10 2 12 1 13
REMARK H PARENT 11 11
REMARK Flexibility Score: inf
ROOT
ATOM      1  C   UNL     1      27.642  41.556  21.431  1.00  0.00     0.059 A 
ATOM      2  C   UNL     1      26.448  41.101  20.825  1.00  0.00     0.130 A 
ATOM      3  C   UNL     1      26.509  40.255  19.707  1.00  0.00     0.093 A 
ATOM      4  C   UNL     1      27.738  39.865  19.166  1.00  0.00     0.122 A 
ATOM      5  C   UNL     1      28.924  40.331  19.756  1.00  0.00     0.047 A 
ATOM      6  C   UNL     1      28.874  41.169  20.873  1.00  0.00     0.019 A 
ENDROOT
BRANCH   1   7
ATOM      7  C   UNL     1      27.645  42.439  22.629  1.00  0.00     0.163 C 
ATOM      8  C   UNL     1      28.292  42.039  23.921  1.00  0.00     0.093 C 
ATOM      9  O   UNL     1      27.086  43.568  22.567  1.00  0.00    -0.294 OA
ENDBRANCH   1   7
BRANCH   2  10
ATOM     10  O   UNL     1      25.203  41.499  21.310  1.00  0.00    -0.507 OA
ATOM     11  H   UNL     1      25.081  41.831  22.259  1.00  0.00     0.293 HD
ENDBRANCH   2  10
BRANCH   4  12
ATOM     12  O   UNL     1      27.736  39.020  18.047  1.00  0.00    -0.497 OA
ATOM     13  C   UNL     1      28.810  38.910  17.120  1.00  0.00     0.278 C 
ENDBRANCH   4  12
TORSDOF 3
ENDMDL
MODEL 3
REMARK VINA RESULT:    -3.753      2.104      4.336
REMARK INTER + INTRA:          -4.590
REMARK INTER:                  -4.425
REMARK INTRA:                  -0.165
REMARK UNBOUND:                -0.288
REMARK SMILES COc1ccc(C(C)=O)c(O)c1
REMARK SMILES IDX 6 1 10 2 12 3 3 4 4 5 5 6 7 7 8 8 9 9 11 10 2 12 1 13
REMARK H PARENT 11 11
REMARK Flexibility Score: inf
ROOT
ATOM      1  C   UNL     1      26.992  41.685  19.636  1.00  0.00     0.059 A 
ATOM      2  C   UNL     1      26.177  41.326  20.734  1.00  0.00     0.130 A 
ATOM      3  C   UNL     1      25.749  39.998  20.882  1.00  0.00     0.093 A 
ATOM      4  C   UNL     1      26.101  39.019  19.948  1.00  0.00     0.122 A 
ATOM      5  C   UNL     1      26.896  39.379  18.848  1.00  0.00     0.047 A 
ATOM      6  C   UNL     1      27.333  40.697  18.694  1.00  0.00     0.019 A 
ENDROOT
BRANCH   1   7
ATOM      7  C   UNL     1      27.494  43.071  19.432  1.00  0.00     0.163 C 
ATOM      8  C   UNL     1      26.686  44.125  18.735  1.00  0.00     0.093 C 
ATOM      9  O   UNL     1      28.640  43.382  19.856  1.00  0.00    -0.294 OA
ENDBRANCH   1   7
BRANCH   2  10
ATOM     10  O   UNL     1      25.770  42.279  21.666  1.00  0.00    -0.507 OA
ATOM     11  H   UNL     1      26.295  43.132  21.821  1.00  0.00     0.293 HD
ENDBRANCH   2  10
BRANCH   4  12
ATOM     12  O   UNL     1      25.642  37.709  20.148  1.00  0.00    -0.497 OA
ATOM     13  C   UNL     1      24.269  37.340  20.217  1.00  0.00     0.278 C 
ENDBRANCH   4  12
TORSDOF 3
ENDMDL
MODEL 4
REMARK VINA RESULT:    -3.663      1.417      1.620
REMARK INTER + INTRA:          -4.487
REMARK INTER:                  -4.185
REMARK INTRA:                  -0.302
REMARK UNBOUND:                -0.288
REMARK SMILES COc1ccc(C(C)=O)c(O)c1
REMARK SMILES IDX 6 1 10 2 12 3 3 4 4 5 5 6 7 7 8 8 9 9 11 10 2 12 1 13
REMARK H PARENT 11 11
REMARK Flexibility Score: inf
ROOT
ATOM      1  C   UNL     1      27.497  40.858  20.096  1.00  0.00     0.059 A 
ATOM      2  C   UNL     1      27.100  42.166  19.734  1.00  0.00     0.130 A 
ATOM      3  C   UNL     1      27.001  43.163  20.716  1.00  0.00     0.093 A 
ATOM      4  C   UNL     1      27.273  42.882  22.058  1.00  0.00     0.122 A 
ATOM      5  C   UNL     1      27.649  41.578  22.421  1.00  0.00     0.047 A 
ATOM      6  C   UNL     1      27.756  40.580  21.450  1.00  0.00     0.019 A 
ENDROOT
BRANCH   1   7
ATOM      7  C   UNL     1      27.639  39.760  19.100  1.00  0.00     0.163 C 
ATOM      8  C   UNL     1      28.966  39.154  18.755  1.00  0.00     0.093 C 
ATOM      9  O   UNL     1      26.611  39.316  18.519  1.00  0.00    -0.294 OA
ENDBRANCH   1   7
BRANCH   2  10
ATOM     10  O   UNL     1      26.782  42.478  18.413  1.00  0.00    -0.507 OA
ATOM     11  H   UNL     1      26.679  41.760  17.705  1.00  0.00     0.293 HD
ENDBRANCH   2  10
BRANCH   4  12
ATOM     12  O   UNL     1      27.155  43.919  22.994  1.00  0.00    -0.497 OA
ATOM     13  C   UNL     1      27.122  43.730  24.405  1.00  0.00     0.278 C 
ENDBRANCH   4  12
TORSDOF 3
ENDMDL
MODEL 5
REMARK VINA RESULT:    -3.643      2.071      4.465
REMARK INTER + INTRA:          -4.464
REMARK INTER:                  -4.125
REMARK INTRA:                  -0.339
REMARK UNBOUND:                -0.288
REMARK SMILES COc1ccc(C(C)=O)c(O)c1
REMARK SMILES IDX 6 1 10 2 12 3 3 4 4 5 5 6 7 7 8 8 9 9 11 10 2 12 1 13
REMARK H PARENT 11 11
REMARK Flexibility Score: inf
ROOT
ATOM      1  C   UNL     1      27.187  40.695  20.064  1.00  0.00     0.059 A 
ATOM      2  C   UNL     1      26.400  39.530  20.212  1.00  0.00     0.130 A 
ATOM      3  C   UNL     1      26.990  38.265  20.064  1.00  0.00     0.093 A 
ATOM      4  C   UNL     1      28.346  38.134  19.754  1.00  0.00     0.122 A 
ATOM      5  C   UNL     1      29.125  39.292  19.590  1.00  0.00     0.047 A 
ATOM      6  C   UNL     1      28.549  40.556  19.740  1.00  0.00     0.019 A 
ENDROOT
BRANCH   1   7
ATOM      7  C   UNL     1      26.627  42.065  20.226  1.00  0.00     0.163 C 
ATOM      8  C   UNL     1      26.865  43.154  19.223  1.00  0.00     0.093 C 
ATOM      9  O   UNL     1      25.926  42.330  21.239  1.00  0.00    -0.294 OA
ENDBRANCH   1   7
BRANCH   2  10
ATOM     10  O   UNL     1      25.035  39.617  20.482  1.00  0.00    -0.507 OA
ATOM     11  H   UNL     1      24.623  39.178  21.297  1.00  0.00     0.293 HD
ENDBRANCH   2  10
BRANCH   4  12
ATOM     12  O   UNL     1      28.878  36.844  19.618  1.00  0.00    -0.497 OA
ATOM     13  C   UNL     1      28.657  35.781  20.538  1.00  0.00     0.278 C 
ENDBRANCH   4  12
TORSDOF 3
ENDMDL
MODEL 6
REMARK VINA RESULT:    -3.536     14.838     15.865
REMARK INTER + INTRA:          -4.342
REMARK INTER:                  -4.009
REMARK INTRA:                  -0.332
REMARK UNBOUND:                -0.288
REMARK SMILES COc1ccc(C(C)=O)c(O)c1
REMARK SMILES IDX 6 1 10 2 12 3 3 4 4 5 5 6 7 7 8 8 9 9 11 10 2 12 1 13
REMARK H PARENT 11 11
REMARK Flexibility Score: inf
ROOT
ATOM      1  C   UNL     1      27.904  28.045  26.459  1.00  0.00     0.059 A 
ATOM      2  C   UNL     1      27.830  27.981  27.870  1.00  0.00     0.130 A 
ATOM      3  C   UNL     1      27.638  26.745  28.504  1.00  0.00     0.093 A 
ATOM      4  C   UNL     1      27.500  25.568  27.763  1.00  0.00     0.122 A 
ATOM      5  C   UNL     1      27.555  25.634  26.361  1.00  0.00     0.047 A 
ATOM      6  C   UNL     1      27.751  26.859  25.719  1.00  0.00     0.019 A 
ENDROOT
BRANCH   1   7
ATOM      7  C   UNL     1      28.124  29.322  25.727  1.00  0.00     0.163 C 
ATOM      8  C   UNL     1      27.450  29.628  24.423  1.00  0.00     0.093 C 
ATOM      9  O   UNL     1      28.904  30.186  26.211  1.00  0.00    -0.294 OA
ENDBRANCH   1   7
BRANCH   2  10
ATOM     10  O   UNL     1      27.924  29.136  28.645  1.00  0.00    -0.507 OA
ATOM     11  H   UNL     1      28.811  29.594  28.817  1.00  0.00     0.293 HD
ENDBRANCH   2  10
BRANCH   4  12
ATOM     12  O   UNL     1      27.308  24.363  28.453  1.00  0.00    -0.497 OA
ATOM     13  C   UNL     1      26.662  24.253  29.716  1.00  0.00     0.278 C 
ENDBRANCH   4  12
TORSDOF 3
ENDMDL
MODEL 7
REMARK VINA RESULT:    -3.495     16.030     16.771
REMARK INTER + INTRA:          -4.294
REMARK INTER:                  -3.958
REMARK INTRA:                  -0.337
REMARK UNBOUND:                -0.288
REMARK SMILES COc1ccc(C(C)=O)c(O)c1
REMARK SMILES IDX 6 1 10 2 12 3 3 4 4 5 5 6 7 7 8 8 9 9 11 10 2 12 1 13
REMARK H PARENT 11 11
REMARK Flexibility Score: inf
ROOT
ATOM      1  C   UNL     1      27.687  25.916  29.083  1.00  0.00     0.059 A 
ATOM      2  C   UNL     1      26.614  26.809  28.858  1.00  0.00     0.130 A 
ATOM      3  C   UNL     1      26.780  27.897  27.989  1.00  0.00     0.093 A 
ATOM      4  C   UNL     1      28.001  28.128  27.349  1.00  0.00     0.122 A 
ATOM      5  C   UNL     1      29.073  27.252  27.586  1.00  0.00     0.047 A 
ATOM      6  C   UNL     1      28.917  26.162  28.445  1.00  0.00     0.019 A 
ENDROOT
BRANCH   1   7
ATOM      7  C   UNL     1      27.570  24.733  29.978  1.00  0.00     0.163 C 
ATOM      8  C   UNL     1      28.615  24.387  30.996  1.00  0.00     0.093 C 
ATOM      9  O   UNL     1      26.558  23.986  29.886  1.00  0.00    -0.294 OA
ENDBRANCH   1   7
BRANCH   2  10
ATOM     10  O   UNL     1      25.392  26.637  29.507  1.00  0.00    -0.507 OA
ATOM     11  H   UNL     1      25.332  26.227  30.432  1.00  0.00     0.293 HD
ENDBRANCH   2  10
BRANCH   4  12
ATOM     12  O   UNL     1      28.108  29.234  26.493  1.00  0.00    -0.497 OA
ATOM     13  C   UNL     1      29.036  30.299  26.667  1.00  0.00     0.278 C 
ENDBRANCH   4  12
TORSDOF 3
ENDMDL
MODEL 8
REMARK VINA RESULT:    -3.416      1.528      2.316
REMARK INTER + INTRA:          -4.204
REMARK INTER:                  -3.877
REMARK INTRA:                  -0.327
REMARK UNBOUND:                -0.288
REMARK SMILES COc1ccc(C(C)=O)c(O)c1
REMARK SMILES IDX 6 1 10 2 12 3 3 4 4 5 5 6 7 7 8 8 9 9 11 10 2 12 1 13
REMARK H PARENT 11 11
REMARK Flexibility Score: inf
ROOT
ATOM      1  C   UNL     1      26.923  40.360  20.130  1.00  0.00     0.059 A 
ATOM      2  C   UNL     1      28.277  40.723  19.939  1.00  0.00     0.130 A 
ATOM      3  C   UNL     1      28.774  41.898  20.523  1.00  0.00     0.093 A 
ATOM      4  C   UNL     1      27.948  42.732  21.281  1.00  0.00     0.122 A 
ATOM      5  C   UNL     1      26.599  42.382  21.455  1.00  0.00     0.047 A 
ATOM      6  C   UNL     1      26.094  41.212  20.883  1.00  0.00     0.019 A 
ENDROOT
BRANCH   1   7
ATOM      7  C   UNL     1      26.338  39.119  19.553  1.00  0.00     0.163 C 
ATOM      8  C   UNL     1      25.693  38.064  20.402  1.00  0.00     0.093 C 
ATOM      9  O   UNL     1      26.381  38.937  18.306  1.00  0.00    -0.294 OA
ENDBRANCH   1   7
BRANCH   2  10
ATOM     10  O   UNL     1      29.125  39.939  19.158  1.00  0.00    -0.507 OA
ATOM     11  H   UNL     1      29.396  40.217  18.222  1.00  0.00     0.293 HD
ENDBRANCH   2  10
BRANCH   4  12
ATOM     12  O   UNL     1      28.501  43.893  21.838  1.00  0.00    -0.497 OA
ATOM     13  C   UNL     1      28.945  44.007  23.186  1.00  0.00     0.278 C 
ENDBRANCH   4  12
TORSDOF 3
ENDMDL
MODEL 9
REMARK VINA RESULT:    -2.613      1.854      2.222
REMARK INTER + INTRA:          -3.283
REMARK INTER:                  -2.996
REMARK INTRA:                  -0.288
REMARK UNBOUND:                -0.288
REMARK SMILES COc1ccc(C(C)=O)c(O)c1
REMARK SMILES IDX 6 1 10 2 12 3 3 4 4 5 5 6 7 7 8 8 9 9 11 10 2 12 1 13
REMARK H PARENT 11 11
REMARK Flexibility Score: inf
ROOT
ATOM      1  C   UNL     1      27.093  39.366  20.384  1.00  0.00     0.059 A 
ATOM      2  C   UNL     1      26.273  40.504  20.558  1.00  0.00     0.130 A 
ATOM      3  C   UNL     1      26.823  41.788  20.429  1.00  0.00     0.093 A 
ATOM      4  C   UNL     1      28.181  41.965  20.147  1.00  0.00     0.122 A 
ATOM      5  C   UNL     1      29.000  40.835  19.993  1.00  0.00     0.047 A 
ATOM      6  C   UNL     1      28.461  39.552  20.113  1.00  0.00     0.019 A 
ENDROOT
BRANCH   1   7
ATOM      7  C   UNL     1      26.568  37.977  20.490  1.00  0.00     0.163 C 
ATOM      8  C   UNL     1      27.450  36.804  20.794  1.00  0.00     0.093 C 
ATOM      9  O   UNL     1      25.336  37.768  20.319  1.00  0.00    -0.294 OA
ENDBRANCH   1   7
BRANCH   2  10
ATOM     10  O   UNL     1      24.923  40.372  20.879  1.00  0.00    -0.507 OA
ATOM     11  H   UNL     1      24.415  39.512  20.705  1.00  0.00     0.293 HD
ENDBRANCH   2  10
BRANCH   4  12
ATOM     12  O   UNL     1      28.673  43.273  20.032  1.00  0.00    -0.497 OA
ATOM     13  C   UNL     1      28.960  44.125  21.136  1.00  0.00     0.278 C 
ENDBRANCH   4  12
TORSDOF 3
ENDMDL
