MODEL 1
REMARK VINA RESULT:    -2.484      0.000      0.000
REMARK INTER + INTRA:          -2.484
REMARK INTER:                  -2.484
REMARK INTRA:                   0.000
REMARK UNBOUND:                 0.000
REMARK SMILES CC(=O)[O-]
REMARK SMILES IDX 1 1 2 2 3 3 4 4
REMARK H PARENT
REMARK Flexibility Score: inf
ROOT
ATOM      1  C   UNL     1     -28.631  17.237  57.522  1.00  0.00     0.063 C 
ATOM      2  C   UNL     1     -27.206  17.223  57.083  1.00  0.00     0.038 C 
ATOM      3  O   UNL     1     -26.298  16.908  57.894  1.00  0.00    -0.550 OA
ATOM      4  O   UNL     1     -26.873  17.611  55.791  1.00  0.00    -0.550 OA
ENDROOT
TORSDOF 0
ENDMDL
MODEL 2
REMARK VINA RESULT:    -2.441      3.766      4.239
REMARK INTER + INTRA:          -2.441
REMARK INTER:                  -2.441
REMARK INTRA:                   0.000
REMARK UNBOUND:                 0.000
REMARK SMILES CC(=O)[O-]
REMARK SMILES IDX 1 1 2 2 3 3 4 4
REMARK H PARENT
REMARK Flexibility Score: inf
ROOT
ATOM      1  C   UNL     1     -26.149  21.946  56.992  1.00  0.00     0.063 C 
ATOM      2  C   UNL     1     -27.097  20.797  56.898  1.00  0.00     0.038 C 
ATOM      3  O   UNL     1     -27.484  20.389  55.773  1.00  0.00    -0.550 OA
ATOM      4  O   UNL     1     -27.596  20.211  58.054  1.00  0.00    -0.550 OA
ENDROOT
TORSDOF 0
ENDMDL
MODEL 3
REMARK VINA RESULT:    -2.439      4.293      4.703
REMARK INTER + INTRA:          -2.439
REMARK INTER:                  -2.439
REMARK INTRA:                   0.000
REMARK UNBOUND:                 0.000
REMARK SMILES CC(=O)[O-]
REMARK SMILES IDX 1 1 2 2 3 3 4 4
REMARK H PARENT
REMARK Flexibility Score: inf
ROOT
ATOM      1  C   UNL     1     -29.820  18.573  55.405  1.00  0.00     0.063 C 
ATOM      2  C   UNL     1     -29.814  19.876  54.680  1.00  0.00     0.038 C 
ATOM      3  O   UNL     1     -29.352  19.947  53.512  1.00  0.00    -0.550 OA
ATOM      4  O   UNL     1     -30.269  21.026  55.312  1.00  0.00    -0.550 OA
ENDROOT
TORSDOF 0
ENDMDL
MODEL 4
REMARK VINA RESULT:    -2.423      3.720      3.903
REMARK INTER + INTRA:          -2.423
REMARK INTER:                  -2.423
REMARK INTRA:                   0.000
REMARK UNBOUND:                 0.000
REMARK SMILES CC(=O)[O-]
REMARK SMILES IDX 1 1 2 2 3 3 4 4
REMARK H PARENT
REMARK Flexibility Score: inf
ROOT
ATOM      1  C   UNL     1     -26.217  21.828  57.014  1.00  0.00     0.063 C 
ATOM      2  C   UNL     1     -27.263  20.767  56.956  1.00  0.00     0.038 C 
ATOM      3  O   UNL     1     -27.722  20.273  58.018  1.00  0.00    -0.550 OA
ATOM      4  O   UNL     1     -27.695  20.282  55.728  1.00  0.00    -0.550 OA
ENDROOT
TORSDOF 0
ENDMDL
MODEL 5
REMARK VINA RESULT:    -2.421      1.178      2.007
REMARK INTER + INTRA:          -2.421
REMARK INTER:                  -2.421
REMARK INTRA:                   0.000
REMARK UNBOUND:                 0.000
REMARK SMILES CC(=O)[O-]
REMARK SMILES IDX 1 1 2 2 3 3 4 4
REMARK H PARENT
REMARK Flexibility Score: inf
ROOT
ATOM      1  C   UNL     1     -27.388  18.966  57.321  1.00  0.00     0.063 C 
ATOM      2  C   UNL     1     -27.130  17.703  56.571  1.00  0.00     0.038 C 
ATOM      3  O   UNL     1     -26.892  17.739  55.336  1.00  0.00    -0.550 OA
ATOM      4  O   UNL     1     -27.205  16.479  57.224  1.00  0.00    -0.550 OA
ENDROOT
TORSDOF 0
ENDMDL
MODEL 6
REMARK VINA RESULT:    -2.411      2.272      2.433
REMARK INTER + INTRA:          -2.411
REMARK INTER:                  -2.411
REMARK INTRA:                   0.000
REMARK UNBOUND:                 0.000
REMARK SMILES CC(=O)[O-]
REMARK SMILES IDX 1 1 2 2 3 3 4 4
REMARK H PARENT
REMARK Flexibility Score: inf
ROOT
ATOM      1  C   UNL     1     -26.945  17.010  57.514  1.00  0.00     0.063 C 
ATOM      2  C   UNL     1     -26.784  17.828  58.750  1.00  0.00     0.038 C 
ATOM      3  O   UNL     1     -25.669  17.881  59.332  1.00  0.00    -0.550 OA
ATOM      4  O   UNL     1     -27.877  18.490  59.293  1.00  0.00    -0.550 OA
ENDROOT
TORSDOF 0
ENDMDL
MODEL 7
REMARK VINA RESULT:    -2.410      1.676      2.042
REMARK INTER + INTRA:          -2.410
REMARK INTER:                  -2.410
REMARK INTRA:                   0.000
REMARK UNBOUND:                 0.000
REMARK SMILES CC(=O)[O-]
REMARK SMILES IDX 1 1 2 2 3 3 4 4
REMARK H PARENT
REMARK Flexibility Score: inf
ROOT
ATOM      1  C   UNL     1     -27.056  16.868  57.356  1.00  0.00     0.063 C 
ATOM      2  C   UNL     1     -27.156  17.995  56.384  1.00  0.00     0.038 C 
ATOM      3  O   UNL     1     -27.007  17.783  55.153  1.00  0.00    -0.550 OA
ATOM      4  O   UNL     1     -27.359  19.291  56.841  1.00  0.00    -0.550 OA
ENDROOT
TORSDOF 0
ENDMDL
MODEL 8
REMARK VINA RESULT:    -2.400      4.242      4.630
REMARK INTER + INTRA:          -2.400
REMARK INTER:                  -2.400
REMARK INTRA:                   0.000
REMARK UNBOUND:                 0.000
REMARK SMILES CC(=O)[O-]
REMARK SMILES IDX 1 1 2 2 3 3 4 4
REMARK H PARENT
REMARK Flexibility Score: inf
ROOT
ATOM      1  C   UNL     1     -30.463  19.171  58.027  1.00  0.00     0.063 C 
ATOM      2  C   UNL     1     -29.870  19.986  59.127  1.00  0.00     0.038 C 
ATOM      3  O   UNL     1     -30.406  21.073  59.466  1.00  0.00    -0.550 OA
ATOM      4  O   UNL     1     -28.695  19.574  59.742  1.00  0.00    -0.550 OA
ENDROOT
TORSDOF 0
ENDMDL
MODEL 9
REMARK VINA RESULT:    -2.363      3.515      3.664
REMARK INTER + INTRA:          -2.363
REMARK INTER:                  -2.363
REMARK INTRA:                   0.000
REMARK UNBOUND:                 0.000
REMARK SMILES CC(=O)[O-]
REMARK SMILES IDX 1 1 2 2 3 3 4 4
REMARK H PARENT
REMARK Flexibility Score: inf
ROOT
ATOM      1  C   UNL     1     -30.314  20.231  59.239  1.00  0.00     0.063 C 
ATOM      2  C   UNL     1     -28.904  19.869  58.915  1.00  0.00     0.038 C 
ATOM      3  O   UNL     1     -28.251  19.119  59.686  1.00  0.00    -0.550 OA
ATOM      4  O   UNL     1     -28.290  20.404  57.790  1.00  0.00    -0.550 OA
ENDROOT
TORSDOF 0
ENDMDL
