MODEL 1
REMARK VINA RESULT:    -5.648      0.000      0.000
REMARK INTER + INTRA:          -6.909
REMARK INTER:                  -6.638
REMARK INTRA:                  -0.270
REMARK UNBOUND:                -0.270
REMARK SMILES O=c1cc(-c2ccc(O)c(O)c2)oc2cc(O)cc(O)c12
REMARK SMILES IDX 4 1 3 2 2 3 1 4 21 5 19 6 18 7 16 8 15 9 14 10 13 11 5 12
REMARK SMILES IDX 6 13 7 14 8 15 12 16 10 17 9 18 11 20 20 22 17 24
REMARK H PARENT 9 19 11 21 20 23 17 25
REMARK Flexibility Score: inf
ROOT
ATOM      1  C   UNL     1     -11.348  -1.080  -9.617  1.00  0.00     0.138 A 
ATOM      2  C   UNL     1     -12.669  -1.047 -10.086  1.00  0.00     0.100 A 
ATOM      3  C   UNL     1     -13.361   0.164 -10.117  1.00  0.00     0.197 A 
ATOM      4  O   UNL     1     -14.562   0.152 -10.491  1.00  0.00    -0.289 OA
ATOM      5  C   UNL     1     -12.714   1.355  -9.708  1.00  0.00     0.107 A 
ATOM      6  C   UNL     1     -13.308   2.653  -9.727  1.00  0.00     0.134 A 
ATOM      7  C   UNL     1     -12.602   3.744  -9.204  1.00  0.00     0.093 A 
ATOM      8  C   UNL     1     -11.303   3.596  -8.718  1.00  0.00     0.123 A 
ATOM      9  C   UNL     1     -10.694   2.341  -8.740  1.00  0.00     0.094 A 
ATOM     10  C   UNL     1     -11.384   1.227  -9.223  1.00  0.00     0.146 A 
ATOM     11  O   UNL     1     -10.774   0.047  -9.210  1.00  0.00    -0.456 OA
ENDROOT
BRANCH   1  12
ATOM     12  C   UNL     1     -10.564  -2.340  -9.567  1.00  0.00     0.021 A 
ATOM     13  C   UNL     1     -10.179  -2.962 -10.768  1.00  0.00     0.016 A 
ATOM     14  C   UNL     1      -9.434  -4.144 -10.749  1.00  0.00     0.051 A 
ATOM     15  C   UNL     1      -9.052  -4.718  -9.531  1.00  0.00     0.157 A 
ATOM     16  C   UNL     1     -10.165  -2.916  -8.345  1.00  0.00     0.062 A 
ATOM     17  C   UNL     1      -9.415  -4.102  -8.327  1.00  0.00     0.158 A 
BRANCH  15  18
ATOM     18  O   UNL     1      -8.311  -5.897  -9.507  1.00  0.00    -0.504 OA
ATOM     19  H   UNL     1      -8.556  -6.690 -10.090  1.00  0.00     0.293 HD
ENDBRANCH  15  18
BRANCH  17  20
ATOM     20  O   UNL     1      -9.024  -4.670  -7.116  1.00  0.00    -0.504 OA
ATOM     21  H   UNL     1      -8.116  -4.480  -6.709  1.00  0.00     0.293 HD
ENDBRANCH  17  20
ENDBRANCH   1  12
BRANCH   6  22
ATOM     22  O   UNL     1     -14.569   2.930 -10.264  1.00  0.00    -0.507 OA
ATOM     23  H   UNL     1     -15.114   3.756 -10.068  1.00  0.00     0.293 HD
ENDBRANCH   6  22
BRANCH   8  24
ATOM     24  O   UNL     1     -10.626   4.706  -8.220  1.00  0.00    -0.508 OA
ATOM     25  H   UNL     1     -10.232   4.712  -7.285  1.00  0.00     0.293 HD
ENDBRANCH   8  24
TORSDOF 5
ENDMDL
MODEL 2
REMARK VINA RESULT:    -5.326     16.793     18.614
REMARK INTER + INTRA:          -6.531
REMARK INTER:                  -6.234
REMARK INTRA:                  -0.296
REMARK UNBOUND:                -0.270
REMARK SMILES O=c1cc(-c2ccc(O)c(O)c2)oc2cc(O)cc(O)c12
REMARK SMILES IDX 4 1 3 2 2 3 1 4 21 5 19 6 18 7 16 8 15 9 14 10 13 11 5 12
REMARK SMILES IDX 6 13 7 14 8 15 12 16 10 17 9 18 11 20 20 22 17 24
REMARK H PARENT 9 19 11 21 20 23 17 25
REMARK Flexibility Score: inf
ROOT
ATOM      1  C   UNL     1      -9.331   7.797   6.273  1.00  0.00     0.138 A 
ATOM      2  C   UNL     1      -8.976   6.662   7.014  1.00  0.00     0.100 A 
ATOM      3  C   UNL     1      -9.908   5.640   7.201  1.00  0.00     0.197 A 
ATOM      4  O   UNL     1      -9.578   4.661   7.917  1.00  0.00    -0.289 OA
ATOM      5  C   UNL     1     -11.192   5.741   6.613  1.00  0.00     0.107 A 
ATOM      6  C   UNL     1     -12.212   4.747   6.708  1.00  0.00     0.134 A 
ATOM      7  C   UNL     1     -13.478   5.004   6.166  1.00  0.00     0.093 A 
ATOM      8  C   UNL     1     -13.744   6.190   5.483  1.00  0.00     0.123 A 
ATOM      9  C   UNL     1     -12.739   7.148   5.341  1.00  0.00     0.094 A 
ATOM     10  C   UNL     1     -11.476   6.937   5.900  1.00  0.00     0.146 A 
ATOM     11  O   UNL     1     -10.553   7.882   5.756  1.00  0.00    -0.456 OA
ENDROOT
BRANCH   1  12
ATOM     12  C   UNL     1      -8.378   8.911   6.038  1.00  0.00     0.021 A 
ATOM     13  C   UNL     1      -8.762   9.987   5.217  1.00  0.00     0.016 A 
ATOM     14  C   UNL     1      -7.887  11.051   4.986  1.00  0.00     0.051 A 
ATOM     15  C   UNL     1      -6.620  11.066   5.580  1.00  0.00     0.157 A 
ATOM     16  C   UNL     1      -7.106   8.939   6.643  1.00  0.00     0.062 A 
ATOM     17  C   UNL     1      -6.230  10.010   6.413  1.00  0.00     0.158 A 
BRANCH  15  18
ATOM     18  O   UNL     1      -5.744  12.125   5.351  1.00  0.00    -0.504 OA
ATOM     19  H   UNL     1      -4.998  12.058   4.667  1.00  0.00     0.293 HD
ENDBRANCH  15  18
BRANCH  17  20
ATOM     20  O   UNL     1      -4.972  10.032   7.012  1.00  0.00    -0.504 OA
ATOM     21  H   UNL     1      -4.196  10.535   6.597  1.00  0.00     0.293 HD
ENDBRANCH  17  20
ENDBRANCH   1  12
BRANCH   6  22
ATOM     22  O   UNL     1     -12.032   3.493   7.299  1.00  0.00    -0.507 OA
ATOM     23  H   UNL     1     -11.606   3.332   8.199  1.00  0.00     0.293 HD
ENDBRANCH   6  22
BRANCH   8  24
ATOM     24  O   UNL     1     -15.010   6.404   4.944  1.00  0.00    -0.508 OA
ATOM     25  H   UNL     1     -15.757   6.816   5.492  1.00  0.00     0.293 HD
ENDBRANCH   8  24
TORSDOF 5
ENDMDL
MODEL 3
REMARK VINA RESULT:    -4.459     16.368     18.890
REMARK INTER + INTRA:          -5.512
REMARK INTER:                  -5.247
REMARK INTRA:                  -0.264
REMARK UNBOUND:                -0.270
REMARK SMILES O=c1cc(-c2ccc(O)c(O)c2)oc2cc(O)cc(O)c12
REMARK SMILES IDX 4 1 3 2 2 3 1 4 21 5 19 6 18 7 16 8 15 9 14 10 13 11 5 12
REMARK SMILES IDX 6 13 7 14 8 15 12 16 10 17 9 18 11 20 20 22 17 24
REMARK H PARENT 9 19 11 21 20 23 17 25
REMARK Flexibility Score: inf
ROOT
ATOM      1  C   UNL     1      -8.732   9.333   5.919  1.00  0.00     0.138 A 
ATOM      2  C   UNL     1      -9.960   9.996   5.795  1.00  0.00     0.100 A 
ATOM      3  C   UNL     1     -11.137   9.256   5.681  1.00  0.00     0.197 A 
ATOM      4  O   UNL     1     -12.216   9.879   5.514  1.00  0.00    -0.289 OA
ATOM      5  C   UNL     1     -11.086   7.841   5.727  1.00  0.00     0.107 A 
ATOM      6  C   UNL     1     -12.224   6.983   5.654  1.00  0.00     0.134 A 
ATOM      7  C   UNL     1     -12.040   5.595   5.611  1.00  0.00     0.093 A 
ATOM      8  C   UNL     1     -10.767   5.033   5.697  1.00  0.00     0.123 A 
ATOM      9  C   UNL     1      -9.650   5.862   5.819  1.00  0.00     0.094 A 
ATOM     10  C   UNL     1      -9.798   7.251   5.830  1.00  0.00     0.146 A 
ATOM     11  O   UNL     1      -8.708   8.004   5.930  1.00  0.00    -0.456 OA
ENDROOT
BRANCH   1  12
ATOM     12  C   UNL     1      -7.450  10.071   6.048  1.00  0.00     0.021 A 
ATOM     13  C   UNL     1      -6.888  10.261   7.323  1.00  0.00     0.016 A 
ATOM     14  C   UNL     1      -5.678  10.945   7.472  1.00  0.00     0.051 A 
ATOM     15  C   UNL     1      -5.005  11.441   6.349  1.00  0.00     0.157 A 
ATOM     16  C   UNL     1      -6.760  10.561   4.922  1.00  0.00     0.062 A 
ATOM     17  C   UNL     1      -5.545  11.246   5.072  1.00  0.00     0.158 A 
BRANCH  15  18
ATOM     18  O   UNL     1      -3.800  12.125   6.493  1.00  0.00    -0.504 OA
ATOM     19  H   UNL     1      -3.126  11.867   7.205  1.00  0.00     0.293 HD
ENDBRANCH  15  18
BRANCH  17  20
ATOM     20  O   UNL     1      -4.867  11.731   3.956  1.00  0.00    -0.504 OA
ATOM     21  H   UNL     1      -4.367  11.113   3.327  1.00  0.00     0.293 HD
ENDBRANCH  17  20
ENDBRANCH   1  12
BRANCH   6  22
ATOM     22  O   UNL     1     -13.548   7.434   5.645  1.00  0.00    -0.507 OA
ATOM     23  H   UNL     1     -13.836   8.380   5.448  1.00  0.00     0.293 HD
ENDBRANCH   6  22
BRANCH   8  24
ATOM     24  O   UNL     1     -10.623   3.648   5.666  1.00  0.00    -0.508 OA
ATOM     25  H   UNL     1     -11.347   3.048   5.288  1.00  0.00     0.293 HD
ENDBRANCH   8  24
TORSDOF 5
ENDMDL
MODEL 4
REMARK VINA RESULT:    -4.267      1.651      6.813
REMARK INTER + INTRA:          -5.286
REMARK INTER:                  -4.969
REMARK INTRA:                  -0.316
REMARK UNBOUND:                -0.270
REMARK SMILES O=c1cc(-c2ccc(O)c(O)c2)oc2cc(O)cc(O)c12
REMARK SMILES IDX 4 1 3 2 2 3 1 4 21 5 19 6 18 7 16 8 15 9 14 10 13 11 5 12
REMARK SMILES IDX 6 13 7 14 8 15 12 16 10 17 9 18 11 20 20 22 17 24
REMARK H PARENT 9 19 11 21 20 23 17 25
REMARK Flexibility Score: inf
ROOT
ATOM      1  C   UNL     1     -12.061   0.134  -9.615  1.00  0.00     0.138 A 
ATOM      2  C   UNL     1     -12.919  -0.769 -10.258  1.00  0.00     0.100 A 
ATOM      3  C   UNL     1     -12.497  -2.078 -10.490  1.00  0.00     0.197 A 
ATOM      4  O   UNL     1     -13.268  -2.847 -11.119  1.00  0.00    -0.289 OA
ATOM      5  C   UNL     1     -11.219  -2.495 -10.045  1.00  0.00     0.107 A 
ATOM      6  C   UNL     1     -10.694  -3.814 -10.196  1.00  0.00     0.134 A 
ATOM      7  C   UNL     1      -9.376  -4.082  -9.803  1.00  0.00     0.093 A 
ATOM      8  C   UNL     1      -8.586  -3.096  -9.211  1.00  0.00     0.123 A 
ATOM      9  C   UNL     1      -9.106  -1.817  -9.013  1.00  0.00     0.094 A 
ATOM     10  C   UNL     1     -10.404  -1.509  -9.426  1.00  0.00     0.146 A 
ATOM     11  O   UNL     1     -10.855  -0.273  -9.234  1.00  0.00    -0.456 OA
ENDROOT
BRANCH   1  12
ATOM     12  C   UNL     1     -12.461   1.537  -9.339  1.00  0.00     0.021 A 
ATOM     13  C   UNL     1     -13.803   1.920  -9.513  1.00  0.00     0.016 A 
ATOM     14  C   UNL     1     -14.207   3.232  -9.253  1.00  0.00     0.051 A 
ATOM     15  C   UNL     1     -13.281   4.180  -8.803  1.00  0.00     0.157 A 
ATOM     16  C   UNL     1     -11.537   2.493  -8.873  1.00  0.00     0.062 A 
ATOM     17  C   UNL     1     -11.944   3.809  -8.610  1.00  0.00     0.158 A 
BRANCH  15  18
ATOM     18  O   UNL     1     -13.679   5.489  -8.544  1.00  0.00    -0.504 OA
ATOM     19  H   UNL     1     -13.526   5.921  -7.639  1.00  0.00     0.293 HD
ENDBRANCH  15  18
BRANCH  17  20
ATOM     20  O   UNL     1     -11.027   4.753  -8.152  1.00  0.00    -0.504 OA
ATOM     21  H   UNL     1     -10.484   4.601  -7.310  1.00  0.00     0.293 HD
ENDBRANCH  17  20
ENDBRANCH   1  12
BRANCH   6  22
ATOM     22  O   UNL     1     -11.422  -4.894 -10.702  1.00  0.00    -0.507 OA
ATOM     23  H   UNL     1     -11.040  -5.639 -11.264  1.00  0.00     0.293 HD
ENDBRANCH   6  22
BRANCH   8  24
ATOM     24  O   UNL     1      -7.286  -3.403  -8.818  1.00  0.00    -0.508 OA
ATOM     25  H   UNL     1      -7.024  -4.341  -8.536  1.00  0.00     0.293 HD
ENDBRANCH   8  24
TORSDOF 5
ENDMDL
MODEL 5
REMARK VINA RESULT:    -4.072     17.313     19.124
REMARK INTER + INTRA:          -5.056
REMARK INTER:                  -4.794
REMARK INTRA:                  -0.263
REMARK UNBOUND:                -0.270
REMARK SMILES O=c1cc(-c2ccc(O)c(O)c2)oc2cc(O)cc(O)c12
REMARK SMILES IDX 4 1 3 2 2 3 1 4 21 5 19 6 18 7 16 8 15 9 14 10 13 11 5 12
REMARK SMILES IDX 6 13 7 14 8 15 12 16 10 17 9 18 11 20 20 22 17 24
REMARK H PARENT 9 19 11 21 20 23 17 25
REMARK Flexibility Score: inf
ROOT
ATOM      1  C   UNL     1      -9.638  10.255   5.742  1.00  0.00     0.138 A 
ATOM      2  C   UNL     1     -10.468  11.315   5.352  1.00  0.00     0.100 A 
ATOM      3  C   UNL     1     -11.827  11.084   5.136  1.00  0.00     0.197 A 
ATOM      4  O   UNL     1     -12.535  12.042   4.732  1.00  0.00    -0.289 OA
ATOM      5  C   UNL     1     -12.364   9.791   5.347  1.00  0.00     0.107 A 
ATOM      6  C   UNL     1     -13.740   9.445   5.191  1.00  0.00     0.134 A 
ATOM      7  C   UNL     1     -14.137   8.109   5.332  1.00  0.00     0.093 A 
ATOM      8  C   UNL     1     -13.220   7.118   5.681  1.00  0.00     0.123 A 
ATOM      9  C   UNL     1     -11.880   7.453   5.885  1.00  0.00     0.094 A 
ATOM     10  C   UNL     1     -11.447   8.770   5.718  1.00  0.00     0.146 A 
ATOM     11  O   UNL     1     -10.161   9.044   5.904  1.00  0.00    -0.456 OA
ENDROOT
BRANCH   1  12
ATOM     12  C   UNL     1      -8.186  10.445   5.990  1.00  0.00     0.021 A 
ATOM     13  C   UNL     1      -7.268  10.170   4.961  1.00  0.00     0.016 A 
ATOM     14  C   UNL     1      -5.898  10.347   5.165  1.00  0.00     0.051 A 
ATOM     15  C   UNL     1      -5.422  10.812   6.396  1.00  0.00     0.157 A 
ATOM     16  C   UNL     1      -7.701  10.925   7.222  1.00  0.00     0.062 A 
ATOM     17  C   UNL     1      -6.325  11.105   7.425  1.00  0.00     0.158 A 
BRANCH  15  18
ATOM     18  O   UNL     1      -4.055  10.989   6.604  1.00  0.00    -0.504 OA
ATOM     19  H   UNL     1      -3.504  11.603   6.015  1.00  0.00     0.293 HD
ENDBRANCH  15  18
BRANCH  17  20
ATOM     20  O   UNL     1      -5.848  11.578   8.646  1.00  0.00    -0.504 OA
ATOM     21  H   UNL     1      -4.893  11.414   8.944  1.00  0.00     0.293 HD
ENDBRANCH  17  20
ENDBRANCH   1  12
BRANCH   6  22
ATOM     22  O   UNL     1     -14.755  10.368   4.922  1.00  0.00    -0.507 OA
ATOM     23  H   UNL     1     -15.523  10.216   4.285  1.00  0.00     0.293 HD
ENDBRANCH   6  22
BRANCH   8  24
ATOM     24  O   UNL     1     -13.653   5.802   5.828  1.00  0.00    -0.508 OA
ATOM     25  H   UNL     1     -14.299   5.380   5.171  1.00  0.00     0.293 HD
ENDBRANCH   8  24
TORSDOF 5
ENDMDL
MODEL 6
REMARK VINA RESULT:    -3.677      2.066      7.260
REMARK INTER + INTRA:          -4.593
REMARK INTER:                  -4.297
REMARK INTRA:                  -0.295
REMARK UNBOUND:                -0.270
REMARK SMILES O=c1cc(-c2ccc(O)c(O)c2)oc2cc(O)cc(O)c12
REMARK SMILES IDX 4 1 3 2 2 3 1 4 21 5 19 6 18 7 16 8 15 9 14 10 13 11 5 12
REMARK SMILES IDX 6 13 7 14 8 15 12 16 10 17 9 18 11 20 20 22 17 24
REMARK H PARENT 9 19 11 21 20 23 17 25
REMARK Flexibility Score: inf
ROOT
ATOM      1  C   UNL     1     -12.230   0.310  -9.673  1.00  0.00     0.138 A 
ATOM      2  C   UNL     1     -10.909  -0.157  -9.687  1.00  0.00     0.100 A 
ATOM      3  C   UNL     1     -10.655  -1.502  -9.958  1.00  0.00     0.197 A 
ATOM      4  O   UNL     1      -9.464  -1.902  -9.908  1.00  0.00    -0.289 OA
ATOM      5  C   UNL     1     -11.729  -2.376 -10.253  1.00  0.00     0.107 A 
ATOM      6  C   UNL     1     -11.588  -3.759 -10.578  1.00  0.00     0.134 A 
ATOM      7  C   UNL     1     -12.733  -4.547 -10.754  1.00  0.00     0.093 A 
ATOM      8  C   UNL     1     -14.010  -3.991 -10.675  1.00  0.00     0.123 A 
ATOM      9  C   UNL     1     -14.158  -2.630 -10.407  1.00  0.00     0.094 A 
ATOM     10  C   UNL     1     -13.037  -1.825 -10.193  1.00  0.00     0.146 A 
ATOM     11  O   UNL     1     -13.223  -0.537  -9.923  1.00  0.00    -0.456 OA
ENDROOT
BRANCH   1  12
ATOM     12  C   UNL     1     -12.558   1.731  -9.394  1.00  0.00     0.021 A 
ATOM     13  C   UNL     1     -13.869   2.193  -9.608  1.00  0.00     0.016 A 
ATOM     14  C   UNL     1     -14.205   3.524  -9.347  1.00  0.00     0.051 A 
ATOM     15  C   UNL     1     -13.241   4.412  -8.857  1.00  0.00     0.157 A 
ATOM     16  C   UNL     1     -11.596   2.628  -8.888  1.00  0.00     0.062 A 
ATOM     17  C   UNL     1     -11.936   3.963  -8.624  1.00  0.00     0.158 A 
BRANCH  15  18
ATOM     18  O   UNL     1     -13.572   5.740  -8.596  1.00  0.00    -0.504 OA
ATOM     19  H   UNL     1     -14.357   6.191  -9.054  1.00  0.00     0.293 HD
ENDBRANCH  15  18
BRANCH  17  20
ATOM     20  O   UNL     1     -10.981   4.848  -8.126  1.00  0.00    -0.504 OA
ATOM     21  H   UNL     1     -11.120   5.852  -8.157  1.00  0.00     0.293 HD
ENDBRANCH  17  20
ENDBRANCH   1  12
BRANCH   6  22
ATOM     22  O   UNL     1     -10.359  -4.400 -10.761  1.00  0.00    -0.507 OA
ATOM     23  H   UNL     1      -9.708  -4.203 -11.505  1.00  0.00     0.293 HD
ENDBRANCH   6  22
BRANCH   8  24
ATOM     24  O   UNL     1     -15.125  -4.802 -10.871  1.00  0.00    -0.508 OA
ATOM     25  H   UNL     1     -15.831  -4.575 -11.562  1.00  0.00     0.293 HD
ENDBRANCH   8  24
TORSDOF 5
ENDMDL
MODEL 7
REMARK VINA RESULT:    -3.627     15.104     17.267
REMARK INTER + INTRA:          -4.534
REMARK INTER:                  -4.254
REMARK INTRA:                  -0.280
REMARK UNBOUND:                -0.270
REMARK SMILES O=c1cc(-c2ccc(O)c(O)c2)oc2cc(O)cc(O)c12
REMARK SMILES IDX 4 1 3 2 2 3 1 4 21 5 19 6 18 7 16 8 15 9 14 10 13 11 5 12
REMARK SMILES IDX 6 13 7 14 8 15 12 16 10 17 9 18 11 20 20 22 17 24
REMARK H PARENT 9 19 11 21 20 23 17 25
REMARK Flexibility Score: inf
ROOT
ATOM      1  C   UNL     1     -12.645   7.710   5.765  1.00  0.00     0.138 A 
ATOM      2  C   UNL     1     -12.874   8.933   6.410  1.00  0.00     0.100 A 
ATOM      3  C   UNL     1     -13.382  10.011   5.685  1.00  0.00     0.197 A 
ATOM      4  O   UNL     1     -13.524  11.111   6.279  1.00  0.00    -0.289 OA
ATOM      5  C   UNL     1     -13.695   9.853   4.313  1.00  0.00     0.107 A 
ATOM      6  C   UNL     1     -14.249  10.872   3.482  1.00  0.00     0.134 A 
ATOM      7  C   UNL     1     -14.425  10.627   2.113  1.00  0.00     0.093 A 
ATOM      8  C   UNL     1     -14.123   9.384   1.559  1.00  0.00     0.123 A 
ATOM      9  C   UNL     1     -13.627   8.364   2.372  1.00  0.00     0.094 A 
ATOM     10  C   UNL     1     -13.408   8.588   3.734  1.00  0.00     0.146 A 
ATOM     11  O   UNL     1     -12.919   7.596   4.469  1.00  0.00    -0.456 OA
ENDROOT
BRANCH   1  12
ATOM     12  C   UNL     1     -12.110   6.529   6.488  1.00  0.00     0.021 A 
ATOM     13  C   UNL     1     -12.650   5.256   6.227  1.00  0.00     0.016 A 
ATOM     14  C   UNL     1     -12.160   4.127   6.889  1.00  0.00     0.051 A 
ATOM     15  C   UNL     1     -11.116   4.248   7.813  1.00  0.00     0.157 A 
ATOM     16  C   UNL     1     -11.051   6.641   7.410  1.00  0.00     0.062 A 
ATOM     17  C   UNL     1     -10.558   5.506   8.071  1.00  0.00     0.158 A 
BRANCH  15  18
ATOM     18  O   UNL     1     -10.625   3.125   8.476  1.00  0.00    -0.504 OA
ATOM     19  H   UNL     1     -10.905   2.906   9.425  1.00  0.00     0.293 HD
ENDBRANCH  15  18
BRANCH  17  20
ATOM     20  O   UNL     1      -9.511   5.621   8.984  1.00  0.00    -0.504 OA
ATOM     21  H   UNL     1      -9.677   5.852   9.957  1.00  0.00     0.293 HD
ENDBRANCH  17  20
ENDBRANCH   1  12
BRANCH   6  22
ATOM     22  O   UNL     1     -14.662  12.125   3.945  1.00  0.00    -0.507 OA
ATOM     23  H   UNL     1     -15.569  12.534   3.780  1.00  0.00     0.293 HD
ENDBRANCH   6  22
BRANCH   8  24
ATOM     24  O   UNL     1     -14.325   9.172   0.197  1.00  0.00    -0.508 OA
ATOM     25  H   UNL     1     -13.862   8.417  -0.296  1.00  0.00     0.293 HD
ENDBRANCH   8  24
TORSDOF 5
ENDMDL
MODEL 8
REMARK VINA RESULT:    -2.970     17.217     18.591
REMARK INTER + INTRA:          -3.761
REMARK INTER:                  -3.471
REMARK INTRA:                  -0.290
REMARK UNBOUND:                -0.270
REMARK SMILES O=c1cc(-c2ccc(O)c(O)c2)oc2cc(O)cc(O)c12
REMARK SMILES IDX 4 1 3 2 2 3 1 4 21 5 19 6 18 7 16 8 15 9 14 10 13 11 5 12
REMARK SMILES IDX 6 13 7 14 8 15 12 16 10 17 9 18 11 20 20 22 17 24
REMARK H PARENT 9 19 11 21 20 23 17 25
REMARK Flexibility Score: inf
ROOT
ATOM      1  C   UNL     1      -9.640   7.788   6.527  1.00  0.00     0.138 A 
ATOM      2  C   UNL     1     -10.272   8.765   5.746  1.00  0.00     0.100 A 
ATOM      3  C   UNL     1      -9.556   9.890   5.335  1.00  0.00     0.197 A 
ATOM      4  O   UNL     1     -10.166  10.776   4.683  1.00  0.00    -0.289 OA
ATOM      5  C   UNL     1      -8.189  10.019   5.679  1.00  0.00     0.107 A 
ATOM      6  C   UNL     1      -7.349  11.105   5.287  1.00  0.00     0.134 A 
ATOM      7  C   UNL     1      -6.036  11.173   5.772  1.00  0.00     0.093 A 
ATOM      8  C   UNL     1      -5.515  10.166   6.584  1.00  0.00     0.123 A 
ATOM      9  C   UNL     1      -6.311   9.074   6.933  1.00  0.00     0.094 A 
ATOM     10  C   UNL     1      -7.635   8.995   6.494  1.00  0.00     0.146 A 
ATOM     11  O   UNL     1      -8.364   7.947   6.863  1.00  0.00    -0.456 OA
ENDROOT
BRANCH   1  12
ATOM     12  C   UNL     1     -10.352   6.570   6.989  1.00  0.00     0.021 A 
ATOM     13  C   UNL     1      -9.911   5.909   8.149  1.00  0.00     0.016 A 
ATOM     14  C   UNL     1     -10.568   4.765   8.609  1.00  0.00     0.051 A 
ATOM     15  C   UNL     1     -11.683   4.268   7.924  1.00  0.00     0.157 A 
ATOM     16  C   UNL     1     -11.483   6.071   6.312  1.00  0.00     0.062 A 
ATOM     17  C   UNL     1     -12.144   4.924   6.776  1.00  0.00     0.158 A 
BRANCH  15  18
ATOM     18  O   UNL     1     -12.340   3.127   8.379  1.00  0.00    -0.504 OA
ATOM     19  H   UNL     1     -13.330   3.138   8.600  1.00  0.00     0.293 HD
ENDBRANCH  15  18
BRANCH  17  20
ATOM     20  O   UNL     1     -13.261   4.433   6.103  1.00  0.00    -0.504 OA
ATOM     21  H   UNL     1     -13.584   3.481   6.234  1.00  0.00     0.293 HD
ENDBRANCH  17  20
ENDBRANCH   1  12
BRANCH   6  22
ATOM     22  O   UNL     1      -7.742  12.125   4.415  1.00  0.00    -0.507 OA
ATOM     23  H   UNL     1      -7.579  13.109   4.563  1.00  0.00     0.293 HD
ENDBRANCH   6  22
BRANCH   8  24
ATOM     24  O   UNL     1      -4.200  10.259   7.035  1.00  0.00    -0.508 OA
ATOM     25  H   UNL     1      -3.450   9.740   6.592  1.00  0.00     0.293 HD
ENDBRANCH   8  24
TORSDOF 5
ENDMDL
