MODEL 1
REMARK VINA RESULT:    -5.820      0.000      0.000
REMARK INTER + INTRA:         -10.378
REMARK INTER:                  -8.882
REMARK INTRA:                  -1.496
REMARK UNBOUND:                -1.496
REMARK SMILES CC(=O)CCC=C(C)CCC=C(C)CCC=C(C)C
REMARK SMILES IDX 10 1 11 2 12 3 13 4 14 5 15 6 16 7 18 8 17 9 19 10 9 11 7 12
REMARK SMILES IDX 6 13 8 14 5 15 4 16 2 17 3 18 1 19
REMARK H PARENT
REMARK Flexibility Score: inf
ROOT
ATOM      1  C   UNL     1       3.547   2.445  15.577  1.00  0.00     0.032 C 
ENDROOT
BRANCH   1   2
ATOM      2  C   UNL     1       2.421   2.681  16.553  1.00  0.00    -0.028 C 
ATOM      3  C   UNL     1       1.229   2.042  16.511  1.00  0.00    -0.077 C 
ATOM      4  C   UNL     1       0.897   1.041  15.430  1.00  0.00     0.039 C 
BRANCH   3   5
ATOM      5  C   UNL     1       0.183   2.370  17.557  1.00  0.00     0.034 C 
BRANCH   5   6
ATOM      6  C   UNL     1       0.681   3.429  18.546  1.00  0.00     0.032 C 
BRANCH   6   7
ATOM      7  C   UNL     1       0.108   4.789  18.221  1.00  0.00    -0.028 C 
ATOM      8  C   UNL     1       2.348   5.903  18.065  1.00  0.00     0.039 C 
ATOM      9  C   UNL     1       0.842   5.900  17.985  1.00  0.00    -0.080 C 
ATOM     10  C   UNL     1       0.153   7.185  17.603  1.00  0.00     0.039 C 
ENDBRANCH   6   7
ENDBRANCH   5   6
ENDBRANCH   3   5
ENDBRANCH   1   2
BRANCH   1  11
ATOM     11  C   UNL     1       3.906   3.739  14.837  1.00  0.00     0.034 C 
BRANCH  11  12
ATOM     12  C   UNL     1       3.900   3.522  13.340  1.00  0.00    -0.077 C 
ATOM     13  C   UNL     1       3.993   4.596  12.523  1.00  0.00    -0.028 C 
ATOM     14  C   UNL     1       3.795   2.115  12.799  1.00  0.00     0.039 C 
BRANCH  13  15
ATOM     15  C   UNL     1       3.954   4.529  11.016  1.00  0.00     0.035 C 
BRANCH  15  16
ATOM     16  C   UNL     1       2.657   5.143  10.479  1.00  0.00     0.079 C 
BRANCH  16  17
ATOM     17  C   UNL     1       1.572   4.103  10.390  1.00  0.00     0.130 C 
ATOM     18  O   UNL     1       1.863   2.955  10.093  1.00  0.00    -0.300 OA
ATOM     19  C   UNL     1       0.136   4.448  10.652  1.00  0.00     0.087 C 
ENDBRANCH  16  17
ENDBRANCH  15  16
ENDBRANCH  13  15
ENDBRANCH  11  12
ENDBRANCH   1  11
TORSDOF 9
ENDMDL
MODEL 2
REMARK VINA RESULT:    -5.812      1.346      2.181
REMARK INTER + INTRA:         -10.366
REMARK INTER:                  -9.183
REMARK INTRA:                  -1.183
REMARK UNBOUND:                -1.496
REMARK SMILES CC(=O)CCC=C(C)CCC=C(C)CCC=C(C)C
REMARK SMILES IDX 10 1 11 2 12 3 13 4 14 5 15 6 16 7 18 8 17 9 19 10 9 11 7 12
REMARK SMILES IDX 6 13 8 14 5 15 4 16 2 17 3 18 1 19
REMARK H PARENT
REMARK Flexibility Score: inf
ROOT
ATOM      1  C   UNL     1       3.407   4.088  15.531  1.00  0.00     0.032 C 
ENDROOT
BRANCH   1   2
ATOM      2  C   UNL     1       2.437   3.607  16.581  1.00  0.00    -0.028 C 
ATOM      3  C   UNL     1       2.016   4.351  17.629  1.00  0.00    -0.077 C 
ATOM      4  C   UNL     1       2.526   5.753  17.869  1.00  0.00     0.039 C 
BRANCH   3   5
ATOM      5  C   UNL     1       1.034   3.748  18.612  1.00  0.00     0.034 C 
BRANCH   5   6
ATOM      6  C   UNL     1      -0.417   3.960  18.168  1.00  0.00     0.032 C 
BRANCH   6   7
ATOM      7  C   UNL     1      -1.257   4.511  19.297  1.00  0.00    -0.028 C 
ATOM      8  C   UNL     1      -0.946   6.901  18.609  1.00  0.00     0.039 C 
ATOM      9  C   UNL     1      -1.517   5.824  19.496  1.00  0.00    -0.080 C 
ATOM     10  C   UNL     1      -2.427   6.245  20.622  1.00  0.00     0.039 C 
ENDBRANCH   6   7
ENDBRANCH   5   6
ENDBRANCH   3   5
ENDBRANCH   1   2
BRANCH   1  11
ATOM     11  C   UNL     1       4.057   2.903  14.806  1.00  0.00     0.034 C 
BRANCH  11  12
ATOM     12  C   UNL     1       4.165   3.174  13.322  1.00  0.00    -0.077 C 
ATOM     13  C   UNL     1       4.193   4.457  12.891  1.00  0.00    -0.028 C 
ATOM     14  C   UNL     1       4.245   2.010  12.363  1.00  0.00     0.039 C 
BRANCH  13  15
ATOM     15  C   UNL     1       4.254   4.870  11.442  1.00  0.00     0.035 C 
BRANCH  15  16
ATOM     16  C   UNL     1       2.911   5.451  10.986  1.00  0.00     0.079 C 
BRANCH  16  17
ATOM     17  C   UNL     1       2.032   4.372  10.411  1.00  0.00     0.130 C 
ATOM     18  O   UNL     1       2.530   3.495   9.722  1.00  0.00    -0.300 OA
ATOM     19  C   UNL     1       0.553   4.354  10.660  1.00  0.00     0.087 C 
ENDBRANCH  16  17
ENDBRANCH  15  16
ENDBRANCH  13  15
ENDBRANCH  11  12
ENDBRANCH   1  11
TORSDOF 9
ENDMDL
MODEL 3
REMARK VINA RESULT:    -5.809      1.954      4.041
REMARK INTER + INTRA:         -10.362
REMARK INTER:                  -9.157
REMARK INTRA:                  -1.206
REMARK UNBOUND:                -1.496
REMARK SMILES CC(=O)CCC=C(C)CCC=C(C)CCC=C(C)C
REMARK SMILES IDX 10 1 11 2 12 3 13 4 14 5 15 6 16 7 18 8 17 9 19 10 9 11 7 12
REMARK SMILES IDX 6 13 8 14 5 15 4 16 2 17 3 18 1 19
REMARK H PARENT
REMARK Flexibility Score: inf
ROOT
ATOM      1  C   UNL     1       2.002   4.949  17.558  1.00  0.00     0.032 C 
ENDROOT
BRANCH   1   2
ATOM      2  C   UNL     1       0.892   5.286  18.522  1.00  0.00    -0.028 C 
ATOM      3  C   UNL     1       0.090   6.370  18.414  1.00  0.00    -0.077 C 
ATOM      4  C   UNL     1       0.269   7.389  17.313  1.00  0.00     0.039 C 
BRANCH   3   5
ATOM      5  C   UNL     1      -0.993   6.589  19.450  1.00  0.00     0.034 C 
BRANCH   5   6
ATOM      6  C   UNL     1      -2.279   5.835  19.096  1.00  0.00     0.032 C 
BRANCH   6   7
ATOM      7  C   UNL     1      -2.315   4.478  19.761  1.00  0.00    -0.028 C 
ATOM      8  C   UNL     1      -1.767   3.227  17.659  1.00  0.00     0.039 C 
ATOM      9  C   UNL     1      -2.069   3.305  19.135  1.00  0.00    -0.080 C 
ATOM     10  C   UNL     1      -2.068   2.021  19.924  1.00  0.00     0.039 C 
ENDBRANCH   6   7
ENDBRANCH   5   6
ENDBRANCH   3   5
ENDBRANCH   1   2
BRANCH   1  11
ATOM     11  C   UNL     1       2.229   3.434  17.497  1.00  0.00     0.034 C 
BRANCH  11  12
ATOM     12  C   UNL     1       2.665   3.011  16.111  1.00  0.00    -0.077 C 
ATOM     13  C   UNL     1       3.505   3.813  15.416  1.00  0.00    -0.028 C 
ATOM     14  C   UNL     1       2.157   1.706  15.544  1.00  0.00     0.039 C 
BRANCH  13  15
ATOM     15  C   UNL     1       3.984   3.536  14.012  1.00  0.00     0.035 C 
BRANCH  15  16
ATOM     16  C   UNL     1       3.062   4.201  12.985  1.00  0.00     0.079 C 
BRANCH  16  17
ATOM     17  C   UNL     1       3.866   4.812  11.867  1.00  0.00     0.130 C 
ATOM     18  O   UNL     1       5.034   5.109  12.059  1.00  0.00    -0.300 OA
ATOM     19  C   UNL     1       3.257   5.073  10.521  1.00  0.00     0.087 C 
ENDBRANCH  16  17
ENDBRANCH  15  16
ENDBRANCH  13  15
ENDBRANCH  11  12
ENDBRANCH   1  11
TORSDOF 9
ENDMDL
MODEL 4
REMARK VINA RESULT:    -5.760      2.701      6.919
REMARK INTER + INTRA:         -10.286
REMARK INTER:                  -8.854
REMARK INTRA:                  -1.433
REMARK UNBOUND:                -1.496
REMARK SMILES CC(=O)CCC=C(C)CCC=C(C)CCC=C(C)C
REMARK SMILES IDX 10 1 11 2 12 3 13 4 14 5 15 6 16 7 18 8 17 9 19 10 9 11 7 12
REMARK SMILES IDX 6 13 8 14 5 15 4 16 2 17 3 18 1 19
REMARK H PARENT
REMARK Flexibility Score: inf
ROOT
ATOM      1  C   UNL     1       3.903   3.062  14.987  1.00  0.00     0.032 C 
ENDROOT
BRANCH   1   2
ATOM      2  C   UNL     1       3.906   4.044  13.843  1.00  0.00    -0.028 C 
ATOM      3  C   UNL     1       4.129   3.712  12.551  1.00  0.00    -0.077 C 
ATOM      4  C   UNL     1       4.445   2.294  12.135  1.00  0.00     0.039 C 
BRANCH   3   5
ATOM      5  C   UNL     1       4.099   4.798  11.497  1.00  0.00     0.034 C 
BRANCH   5   6
ATOM      6  C   UNL     1       3.352   4.347  10.237  1.00  0.00     0.032 C 
BRANCH   6   7
ATOM      7  C   UNL     1       1.905   4.785  10.277  1.00  0.00    -0.028 C 
ATOM      8  C   UNL     1       1.021   2.468  10.639  1.00  0.00     0.039 C 
ATOM      9  C   UNL     1       0.854   3.957  10.476  1.00  0.00    -0.080 C 
ATOM     10  C   UNL     1      -0.540   4.525  10.563  1.00  0.00     0.039 C 
ENDBRANCH   6   7
ENDBRANCH   5   6
ENDBRANCH   3   5
ENDBRANCH   1   2
BRANCH   1  11
ATOM     11  C   UNL     1       2.469   2.697  15.389  1.00  0.00     0.034 C 
BRANCH  11  12
ATOM     12  C   UNL     1       2.190   3.108  16.817  1.00  0.00    -0.077 C 
ATOM     13  C   UNL     1       2.259   4.419  17.146  1.00  0.00    -0.028 C 
ATOM     14  C   UNL     1       1.836   2.049  17.835  1.00  0.00     0.039 C 
BRANCH  13  15
ATOM     15  C   UNL     1       2.048   4.963  18.538  1.00  0.00     0.035 C 
BRANCH  15  16
ATOM     16  C   UNL     1       0.684   5.653  18.649  1.00  0.00     0.079 C 
BRANCH  16  17
ATOM     17  C   UNL     1      -0.353   4.698  19.178  1.00  0.00     0.130 C 
ATOM     18  O   UNL     1      -0.374   4.432  20.370  1.00  0.00    -0.300 OA
ATOM     19  C   UNL     1      -1.361   4.058  18.269  1.00  0.00     0.087 C 
ENDBRANCH  16  17
ENDBRANCH  15  16
ENDBRANCH  13  15
ENDBRANCH  11  12
ENDBRANCH   1  11
TORSDOF 9
ENDMDL
MODEL 5
REMARK VINA RESULT:    -5.661      1.604      3.016
REMARK INTER + INTRA:         -10.135
REMARK INTER:                  -8.913
REMARK INTRA:                  -1.222
REMARK UNBOUND:                -1.496
REMARK SMILES CC(=O)CCC=C(C)CCC=C(C)CCC=C(C)C
REMARK SMILES IDX 10 1 11 2 12 3 13 4 14 5 15 6 16 7 18 8 17 9 19 10 9 11 7 12
REMARK SMILES IDX 6 13 8 14 5 15 4 16 2 17 3 18 1 19
REMARK H PARENT
REMARK Flexibility Score: inf
ROOT
ATOM      1  C   UNL     1       3.078   4.014  15.937  1.00  0.00     0.032 C 
ENDROOT
BRANCH   1   2
ATOM      2  C   UNL     1       2.382   3.800  17.258  1.00  0.00    -0.028 C 
ATOM      3  C   UNL     1       2.121   4.782  18.151  1.00  0.00    -0.077 C 
ATOM      4  C   UNL     1       2.554   6.211  17.916  1.00  0.00     0.039 C 
BRANCH   3   5
ATOM      5  C   UNL     1       1.409   4.433  19.440  1.00  0.00     0.034 C 
BRANCH   5   6
ATOM      6  C   UNL     1      -0.077   4.805  19.388  1.00  0.00     0.032 C 
BRANCH   6   7
ATOM      7  C   UNL     1      -0.941   3.665  19.877  1.00  0.00    -0.028 C 
ATOM      8  C   UNL     1      -1.342   2.740  17.582  1.00  0.00     0.039 C 
ATOM      9  C   UNL     1      -1.498   2.723  19.082  1.00  0.00    -0.080 C 
ATOM     10  C   UNL     1      -2.285   1.594  19.697  1.00  0.00     0.039 C 
ENDBRANCH   6   7
ENDBRANCH   5   6
ENDBRANCH   3   5
ENDBRANCH   1   2
BRANCH   1  11
ATOM     11  C   UNL     1       3.026   2.742  15.082  1.00  0.00     0.034 C 
BRANCH  11  12
ATOM     12  C   UNL     1       3.741   2.950  13.765  1.00  0.00    -0.077 C 
ATOM     13  C   UNL     1       4.001   4.213  13.354  1.00  0.00    -0.028 C 
ATOM     14  C   UNL     1       4.148   1.746  12.948  1.00  0.00     0.039 C 
BRANCH  13  15
ATOM     15  C   UNL     1       4.665   4.565  12.046  1.00  0.00     0.035 C 
BRANCH  15  16
ATOM     16  C   UNL     1       3.761   5.473  11.206  1.00  0.00     0.079 C 
BRANCH  16  17
ATOM     17  C   UNL     1       2.504   4.747  10.806  1.00  0.00     0.130 C 
ATOM     18  O   UNL     1       1.422   5.158  11.196  1.00  0.00    -0.300 OA
ATOM     19  C   UNL     1       2.551   3.521   9.942  1.00  0.00     0.087 C 
ENDBRANCH  16  17
ENDBRANCH  15  16
ENDBRANCH  13  15
ENDBRANCH  11  12
ENDBRANCH   1  11
TORSDOF 9
ENDMDL
MODEL 6
REMARK VINA RESULT:    -5.623      2.613      6.967
REMARK INTER + INTRA:         -10.078
REMARK INTER:                  -8.572
REMARK INTRA:                  -1.506
REMARK UNBOUND:                -1.496
REMARK SMILES CC(=O)CCC=C(C)CCC=C(C)CCC=C(C)C
REMARK SMILES IDX 10 1 11 2 12 3 13 4 14 5 15 6 16 7 18 8 17 9 19 10 9 11 7 12
REMARK SMILES IDX 6 13 8 14 5 15 4 16 2 17 3 18 1 19
REMARK H PARENT
REMARK Flexibility Score: inf
ROOT
ATOM      1  C   UNL     1       3.406   1.210  16.152  1.00  0.00     0.032 C 
ENDROOT
BRANCH   1   2
ATOM      2  C   UNL     1       3.398   2.554  15.470  1.00  0.00    -0.028 C 
ATOM      3  C   UNL     1       3.649   2.744  14.154  1.00  0.00    -0.077 C 
ATOM      4  C   UNL     1       4.009   1.599  13.236  1.00  0.00     0.039 C 
BRANCH   3   5
ATOM      5  C   UNL     1       3.605   4.150  13.593  1.00  0.00     0.034 C 
BRANCH   5   6
ATOM      6  C   UNL     1       4.540   4.311  12.390  1.00  0.00     0.032 C 
BRANCH   6   7
ATOM      7  C   UNL     1       3.986   5.310  11.400  1.00  0.00    -0.028 C 
ATOM      8  C   UNL     1       2.796   3.578  10.034  1.00  0.00     0.039 C 
ATOM      9  C   UNL     1       3.189   4.998  10.353  1.00  0.00    -0.080 C 
ATOM     10  C   UNL     1       2.643   6.095   9.474  1.00  0.00     0.039 C 
ENDBRANCH   6   7
ENDBRANCH   5   6
ENDBRANCH   3   5
ENDBRANCH   1   2
BRANCH   1  11
ATOM     11  C   UNL     1       1.976   0.728  16.423  1.00  0.00     0.034 C 
BRANCH  11  12
ATOM     12  C   UNL     1       1.327   1.554  17.511  1.00  0.00    -0.077 C 
ATOM     13  C   UNL     1       1.995   1.748  18.672  1.00  0.00    -0.028 C 
ATOM     14  C   UNL     1      -0.044   2.143  17.273  1.00  0.00     0.039 C 
BRANCH  13  15
ATOM     15  C   UNL     1       1.450   2.511  19.854  1.00  0.00     0.035 C 
BRANCH  15  16
ATOM     16  C   UNL     1       2.175   3.850  20.016  1.00  0.00     0.079 C 
BRANCH  16  17
ATOM     17  C   UNL     1       1.580   4.891  19.106  1.00  0.00     0.130 C 
ATOM     18  O   UNL     1       0.456   5.314  19.330  1.00  0.00    -0.300 OA
ATOM     19  C   UNL     1       2.335   5.417  17.921  1.00  0.00     0.087 C 
ENDBRANCH  16  17
ENDBRANCH  15  16
ENDBRANCH  13  15
ENDBRANCH  11  12
ENDBRANCH   1  11
TORSDOF 9
ENDMDL
MODEL 7
REMARK VINA RESULT:    -5.602     12.960     14.934
REMARK INTER + INTRA:         -10.046
REMARK INTER:                  -9.225
REMARK INTRA:                  -0.821
REMARK UNBOUND:                -1.496
REMARK SMILES CC(=O)CCC=C(C)CCC=C(C)CCC=C(C)C
REMARK SMILES IDX 10 1 11 2 12 3 13 4 14 5 15 6 16 7 18 8 17 9 19 10 9 11 7 12
REMARK SMILES IDX 6 13 8 14 5 15 4 16 2 17 3 18 1 19
REMARK H PARENT
REMARK Flexibility Score: inf
ROOT
ATOM      1  C   UNL     1      -4.210  -8.483  12.130  1.00  0.00     0.032 C 
ENDROOT
BRANCH   1   2
ATOM      2  C   UNL     1      -5.488  -7.682  12.105  1.00  0.00    -0.028 C 
ATOM      3  C   UNL     1      -6.502  -7.889  11.235  1.00  0.00    -0.077 C 
ATOM      4  C   UNL     1      -6.425  -8.942  10.154  1.00  0.00     0.039 C 
BRANCH   3   5
ATOM      5  C   UNL     1      -7.735  -7.013  11.322  1.00  0.00     0.034 C 
BRANCH   5   6
ATOM      6  C   UNL     1      -8.411  -7.118  12.693  1.00  0.00     0.032 C 
BRANCH   6   7
ATOM      7  C   UNL     1      -9.126  -8.441  12.848  1.00  0.00    -0.028 C 
ATOM      8  C   UNL     1     -10.505  -7.679  14.797  1.00  0.00     0.039 C 
ATOM      9  C   UNL     1     -10.078  -8.700  13.772  1.00  0.00    -0.080 C 
ATOM     10  C   UNL     1     -10.767 -10.041  13.782  1.00  0.00     0.039 C 
ENDBRANCH   6   7
ENDBRANCH   5   6
ENDBRANCH   3   5
ENDBRANCH   1   2
BRANCH   1  11
ATOM     11  C   UNL     1      -2.987  -7.558  12.156  1.00  0.00     0.034 C 
BRANCH  11  12
ATOM     12  C   UNL     1      -1.720  -8.349  12.395  1.00  0.00    -0.077 C 
ATOM     13  C   UNL     1      -0.608  -8.032  11.690  1.00  0.00    -0.028 C 
ATOM     14  C   UNL     1      -1.727  -9.465  13.413  1.00  0.00     0.039 C 
BRANCH  13  15
ATOM     15  C   UNL     1       0.707  -8.764  11.795  1.00  0.00     0.035 C 
BRANCH  15  16
ATOM     16  C   UNL     1       0.851  -9.785  10.663  1.00  0.00     0.079 C 
BRANCH  16  17
ATOM     17  C   UNL     1       1.834  -9.300   9.631  1.00  0.00     0.130 C 
ATOM     18  O   UNL     1       2.534  -8.330   9.876  1.00  0.00    -0.300 OA
ATOM     19  C   UNL     1       1.966  -9.978   8.299  1.00  0.00     0.087 C 
ENDBRANCH  16  17
ENDBRANCH  15  16
ENDBRANCH  13  15
ENDBRANCH  11  12
ENDBRANCH   1  11
TORSDOF 9
ENDMDL
MODEL 8
REMARK VINA RESULT:    -5.540     12.849     16.173
REMARK INTER + INTRA:          -9.951
REMARK INTER:                  -8.952
REMARK INTRA:                  -0.999
REMARK UNBOUND:                -1.496
REMARK SMILES CC(=O)CCC=C(C)CCC=C(C)CCC=C(C)C
REMARK SMILES IDX 10 1 11 2 12 3 13 4 14 5 15 6 16 7 18 8 17 9 19 10 9 11 7 12
REMARK SMILES IDX 6 13 8 14 5 15 4 16 2 17 3 18 1 19
REMARK H PARENT
REMARK Flexibility Score: inf
ROOT
ATOM      1  C   UNL     1      -1.653  -7.022   4.587  1.00  0.00     0.032 C 
ENDROOT
BRANCH   1   2
ATOM      2  C   UNL     1      -2.136  -6.687   3.198  1.00  0.00    -0.028 C 
ATOM      3  C   UNL     1      -3.062  -7.401   2.518  1.00  0.00    -0.077 C 
ATOM      4  C   UNL     1      -3.681  -8.655   3.090  1.00  0.00     0.039 C 
BRANCH   3   5
ATOM      5  C   UNL     1      -3.463  -6.951   1.129  1.00  0.00     0.034 C 
BRANCH   5   6
ATOM      6  C   UNL     1      -4.317  -5.679   1.167  1.00  0.00     0.032 C 
BRANCH   6   7
ATOM      7  C   UNL     1      -5.787  -6.014   1.274  1.00  0.00    -0.028 C 
ATOM      8  C   UNL     1      -6.205  -4.415   3.158  1.00  0.00     0.039 C 
ATOM      9  C   UNL     1      -6.648  -5.443   2.147  1.00  0.00    -0.080 C 
ATOM     10  C   UNL     1      -8.108  -5.814   2.110  1.00  0.00     0.039 C 
ENDBRANCH   6   7
ENDBRANCH   5   6
ENDBRANCH   3   5
ENDBRANCH   1   2
BRANCH   1  11
ATOM     11  C   UNL     1      -0.318  -6.328   4.882  1.00  0.00     0.034 C 
BRANCH  11  12
ATOM     12  C   UNL     1      -0.245  -5.897   6.330  1.00  0.00    -0.077 C 
ATOM     13  C   UNL     1       0.335  -6.724   7.231  1.00  0.00    -0.028 C 
ATOM     14  C   UNL     1      -0.815  -4.556   6.730  1.00  0.00     0.039 C 
BRANCH  13  15
ATOM     15  C   UNL     1       0.436  -6.440   8.709  1.00  0.00     0.035 C 
BRANCH  15  16
ATOM     16  C   UNL     1       1.888  -6.160   9.109  1.00  0.00     0.079 C 
BRANCH  16  17
ATOM     17  C   UNL     1       2.693  -7.432   9.114  1.00  0.00     0.130 C 
ATOM     18  O   UNL     1       3.741  -7.483   8.489  1.00  0.00    -0.300 OA
ATOM     19  C   UNL     1       2.232  -8.646   9.865  1.00  0.00     0.087 C 
ENDBRANCH  16  17
ENDBRANCH  15  16
ENDBRANCH  13  15
ENDBRANCH  11  12
ENDBRANCH   1  11
TORSDOF 9
ENDMDL
MODEL 9
REMARK VINA RESULT:    -5.480      3.374      5.679
REMARK INTER + INTRA:          -9.860
REMARK INTER:                  -7.733
REMARK INTRA:                  -2.127
REMARK UNBOUND:                -1.496
REMARK SMILES CC(=O)CCC=C(C)CCC=C(C)CCC=C(C)C
REMARK SMILES IDX 10 1 11 2 12 3 13 4 14 5 15 6 16 7 18 8 17 9 19 10 9 11 7 12
REMARK SMILES IDX 6 13 8 14 5 15 4 16 2 17 3 18 1 19
REMARK H PARENT
REMARK Flexibility Score: inf
ROOT
ATOM      1  C   UNL     1      -1.451   1.723  20.189  1.00  0.00     0.032 C 
ENDROOT
BRANCH   1   2
ATOM      2  C   UNL     1      -1.893   3.159  20.051  1.00  0.00    -0.028 C 
ATOM      3  C   UNL     1      -2.044   3.801  18.870  1.00  0.00    -0.077 C 
ATOM      4  C   UNL     1      -1.735   3.131  17.551  1.00  0.00     0.039 C 
BRANCH   3   5
ATOM      5  C   UNL     1      -2.500   5.245  18.872  1.00  0.00     0.034 C 
BRANCH   5   6
ATOM      6  C   UNL     1      -1.506   6.154  19.603  1.00  0.00     0.032 C 
BRANCH   6   7
ATOM      7  C   UNL     1      -0.080   5.779  19.270  1.00  0.00    -0.028 C 
ATOM      8  C   UNL     1       0.140   7.483  17.445  1.00  0.00     0.039 C 
ATOM      9  C   UNL     1       0.675   6.378  18.321  1.00  0.00    -0.080 C 
ATOM     10  C   UNL     1       2.110   5.958  18.130  1.00  0.00     0.039 C 
ENDBRANCH   6   7
ENDBRANCH   5   6
ENDBRANCH   3   5
ENDBRANCH   1   2
BRANCH   1  11
ATOM     11  C   UNL     1      -0.131   1.632  20.963  1.00  0.00     0.034 C 
BRANCH  11  12
ATOM     12  C   UNL     1       1.040   1.987  20.073  1.00  0.00    -0.077 C 
ATOM     13  C   UNL     1       1.168   1.363  18.879  1.00  0.00    -0.028 C 
ATOM     14  C   UNL     1       2.029   3.030  20.537  1.00  0.00     0.039 C 
BRANCH  13  15
ATOM     15  C   UNL     1       2.307   1.587  17.916  1.00  0.00     0.035 C 
BRANCH  15  16
ATOM     16  C   UNL     1       1.905   2.586  16.825  1.00  0.00     0.079 C 
BRANCH  16  17
ATOM     17  C   UNL     1       3.048   2.821  15.873  1.00  0.00     0.130 C 
ATOM     18  O   UNL     1       3.265   3.950  15.461  1.00  0.00    -0.300 OA
ATOM     19  C   UNL     1       3.924   1.694  15.411  1.00  0.00     0.087 C 
ENDBRANCH  16  17
ENDBRANCH  15  16
ENDBRANCH  13  15
ENDBRANCH  11  12
ENDBRANCH   1  11
TORSDOF 9
ENDMDL
