MODEL 1
REMARK VINA RESULT:    -5.555      0.000      0.000
REMARK INTER + INTRA:          -6.728
REMARK INTER:                  -6.529
REMARK INTRA:                  -0.198
REMARK UNBOUND:                -0.198
REMARK SMILES CCC=Cc1oc(O)c2ccc(O)cc12
REMARK SMILES IDX 7 1 6 2 5 3 15 4 14 5 12 6 11 7 10 8 9 9 8 10 4 12 3 13 2 14
REMARK SMILES IDX 1 15 13 16
REMARK H PARENT 8 11 13 17
REMARK Flexibility Score: inf
ROOT
ATOM      1  C   UNL     1      -5.559 -20.701 -17.809  1.00  0.00     0.290 A 
ATOM      2  O   UNL     1      -5.726 -20.987 -19.085  1.00  0.00    -0.425 OA
ATOM      3  C   UNL     1      -6.415 -22.111 -19.182  1.00  0.00     0.138 A 
ATOM      4  C   UNL     1      -6.706 -22.573 -17.910  1.00  0.00     0.035 A 
ATOM      5  C   UNL     1      -7.401 -23.698 -17.463  1.00  0.00     0.059 A 
ATOM      6  C   UNL     1      -7.527 -23.888 -16.073  1.00  0.00     0.116 A 
ATOM      7  C   UNL     1      -6.959 -22.952 -15.173  1.00  0.00     0.047 A 
ATOM      8  C   UNL     1      -6.265 -21.828 -15.653  1.00  0.00     0.020 A 
ATOM      9  C   UNL     1      -6.160 -21.672 -17.034  1.00  0.00     0.067 A 
ENDROOT
BRANCH   1  10
ATOM     10  O   UNL     1      -4.875 -19.581 -17.348  1.00  0.00    -0.480 OA
ATOM     11  H   UNL     1      -4.344 -18.993 -17.977  1.00  0.00     0.297 HD
ENDBRANCH   1  10
BRANCH   3  12
ATOM     12  C   UNL     1      -6.800 -22.750 -20.451  1.00  0.00     0.043 C 
ATOM     13  C   UNL     1      -7.373 -22.054 -21.438  1.00  0.00    -0.023 C 
BRANCH  13  14
ATOM     14  C   UNL     1      -7.752 -22.701 -22.738  1.00  0.00     0.024 C 
ATOM     15  C   UNL     1      -8.300 -21.678 -23.729  1.00  0.00     0.008 C 
ENDBRANCH  13  14
ENDBRANCH   3  12
BRANCH   6  16
ATOM     16  O   UNL     1      -8.214 -25.001 -15.595  1.00  0.00    -0.508 OA
ATOM     17  H   UNL     1      -7.903 -25.943 -15.803  1.00  0.00     0.293 HD
ENDBRANCH   6  16
TORSDOF 4
ENDMDL
MODEL 2
REMARK VINA RESULT:    -5.513      1.239      1.583
REMARK INTER + INTRA:          -6.678
REMARK INTER:                  -6.431
REMARK INTRA:                  -0.247
REMARK UNBOUND:                -0.198
REMARK SMILES CCC=Cc1oc(O)c2ccc(O)cc12
REMARK SMILES IDX 7 1 6 2 5 3 15 4 14 5 12 6 11 7 10 8 9 9 8 10 4 12 3 13 2 14
REMARK SMILES IDX 1 15 13 16
REMARK H PARENT 8 11 13 17
REMARK Flexibility Score: inf
ROOT
ATOM      1  C   UNL     1      -5.548 -20.702 -17.906  1.00  0.00     0.290 A 
ATOM      2  O   UNL     1      -5.670 -21.046 -19.172  1.00  0.00    -0.425 OA
ATOM      3  C   UNL     1      -6.361 -22.172 -19.242  1.00  0.00     0.138 A 
ATOM      4  C   UNL     1      -6.698 -22.573 -17.961  1.00  0.00     0.035 A 
ATOM      5  C   UNL     1      -7.414 -23.674 -17.488  1.00  0.00     0.059 A 
ATOM      6  C   UNL     1      -7.590 -23.799 -16.095  1.00  0.00     0.116 A 
ATOM      7  C   UNL     1      -7.050 -22.824 -15.220  1.00  0.00     0.047 A 
ATOM      8  C   UNL     1      -6.334 -21.725 -15.727  1.00  0.00     0.020 A 
ATOM      9  C   UNL     1      -6.179 -21.634 -17.109  1.00  0.00     0.067 A 
ENDROOT
BRANCH   1  10
ATOM     10  O   UNL     1      -4.875 -19.564 -17.473  1.00  0.00    -0.480 OA
ATOM     11  H   UNL     1      -4.071 -19.206 -17.972  1.00  0.00     0.297 HD
ENDBRANCH   1  10
BRANCH   3  12
ATOM     12  C   UNL     1      -6.703 -22.868 -20.493  1.00  0.00     0.043 C 
ATOM     13  C   UNL     1      -5.907 -23.809 -21.009  1.00  0.00    -0.023 C 
BRANCH  13  14
ATOM     14  C   UNL     1      -6.263 -24.529 -22.278  1.00  0.00     0.024 C 
ATOM     15  C   UNL     1      -5.267 -25.645 -22.581  1.00  0.00     0.008 C 
ENDBRANCH  13  14
ENDBRANCH   3  12
BRANCH   6  16
ATOM     16  O   UNL     1      -8.298 -24.886 -15.591  1.00  0.00    -0.508 OA
ATOM     17  H   UNL     1      -9.301 -24.846 -15.452  1.00  0.00     0.293 HD
ENDBRANCH   6  16
TORSDOF 4
ENDMDL
MODEL 3
REMARK VINA RESULT:    -5.294      2.510      6.115
REMARK INTER + INTRA:          -6.421
REMARK INTER:                  -6.201
REMARK INTRA:                  -0.220
REMARK UNBOUND:                -0.198
REMARK SMILES CCC=Cc1oc(O)c2ccc(O)cc12
REMARK SMILES IDX 7 1 6 2 5 3 15 4 14 5 12 6 11 7 10 8 9 9 8 10 4 12 3 13 2 14
REMARK SMILES IDX 1 15 13 16
REMARK H PARENT 8 11 13 17
REMARK Flexibility Score: inf
ROOT
ATOM      1  C   UNL     1      -8.518 -25.178 -21.038  1.00  0.00     0.290 A 
ATOM      2  O   UNL     1      -8.933 -25.019 -19.797  1.00  0.00    -0.425 OA
ATOM      3  C   UNL     1      -8.292 -23.993 -19.263  1.00  0.00     0.138 A 
ATOM      4  C   UNL     1      -7.423 -23.466 -20.203  1.00  0.00     0.035 A 
ATOM      5  C   UNL     1      -6.532 -22.393 -20.150  1.00  0.00     0.059 A 
ATOM      6  C   UNL     1      -5.774 -22.106 -21.302  1.00  0.00     0.116 A 
ATOM      7  C   UNL     1      -5.929 -22.893 -22.470  1.00  0.00     0.047 A 
ATOM      8  C   UNL     1      -6.837 -23.968 -22.494  1.00  0.00     0.020 A 
ATOM      9  C   UNL     1      -7.569 -24.223 -21.336  1.00  0.00     0.067 A 
ENDROOT
BRANCH   1  10
ATOM     10  O   UNL     1      -8.989 -26.171 -21.891  1.00  0.00    -0.480 OA
ATOM     11  H   UNL     1      -9.972 -26.250 -22.116  1.00  0.00     0.297 HD
ENDBRANCH   1  10
BRANCH   3  12
ATOM     12  C   UNL     1      -8.489 -23.508 -17.887  1.00  0.00     0.043 C 
ATOM     13  C   UNL     1      -7.546 -23.657 -16.952  1.00  0.00    -0.023 C 
BRANCH  13  14
ATOM     14  C   UNL     1      -7.740 -23.149 -15.553  1.00  0.00     0.024 C 
ATOM     15  C   UNL     1      -6.466 -22.506 -15.013  1.00  0.00     0.008 C 
ENDBRANCH  13  14
ENDBRANCH   3  12
BRANCH   6  16
ATOM     16  O   UNL     1      -4.875 -21.043 -21.281  1.00  0.00    -0.508 OA
ATOM     17  H   UNL     1      -3.997 -21.083 -21.786  1.00  0.00     0.293 HD
ENDBRANCH   6  16
TORSDOF 4
ENDMDL
MODEL 4
REMARK VINA RESULT:    -5.259      1.976      3.950
REMARK INTER + INTRA:          -6.379
REMARK INTER:                  -6.167
REMARK INTRA:                  -0.213
REMARK UNBOUND:                -0.198
REMARK SMILES CCC=Cc1oc(O)c2ccc(O)cc12
REMARK SMILES IDX 7 1 6 2 5 3 15 4 14 5 12 6 11 7 10 8 9 9 8 10 4 12 3 13 2 14
REMARK SMILES IDX 1 15 13 16
REMARK H PARENT 8 11 13 17
REMARK Flexibility Score: inf
ROOT
ATOM      1  C   UNL     1      -8.357 -24.345 -20.118  1.00  0.00     0.290 A 
ATOM      2  O   UNL     1      -8.393 -23.967 -21.380  1.00  0.00    -0.425 OA
ATOM      3  C   UNL     1      -7.682 -22.859 -21.511  1.00  0.00     0.138 A 
ATOM      4  C   UNL     1      -7.165 -22.506 -20.277  1.00  0.00     0.035 A 
ATOM      5  C   UNL     1      -6.359 -21.440 -19.875  1.00  0.00     0.059 A 
ATOM      6  C   UNL     1      -5.996 -21.362 -18.515  1.00  0.00     0.116 A 
ATOM      7  C   UNL     1      -6.446 -22.347 -17.602  1.00  0.00     0.047 A 
ATOM      8  C   UNL     1      -7.257 -23.411 -18.037  1.00  0.00     0.020 A 
ATOM      9  C   UNL     1      -7.596 -23.456 -19.388  1.00  0.00     0.067 A 
ENDROOT
BRANCH   1  10
ATOM     10  O   UNL     1      -9.001 -25.477 -19.629  1.00  0.00    -0.480 OA
ATOM     11  H   UNL     1      -9.945 -25.431 -19.268  1.00  0.00     0.297 HD
ENDBRANCH   1  10
BRANCH   3  12
ATOM     12  C   UNL     1      -7.488 -22.135 -22.778  1.00  0.00     0.043 C 
ATOM     13  C   UNL     1      -8.525 -21.732 -23.519  1.00  0.00    -0.023 C 
BRANCH  13  14
ATOM     14  C   UNL     1      -8.327 -20.982 -24.804  1.00  0.00     0.024 C 
ATOM     15  C   UNL     1      -9.183 -19.719 -24.847  1.00  0.00     0.008 C 
ENDBRANCH  13  14
ENDBRANCH   3  12
BRANCH   6  16
ATOM     16  O   UNL     1      -5.194 -20.310 -18.082  1.00  0.00    -0.508 OA
ATOM     17  H   UNL     1      -5.381 -19.353 -18.360  1.00  0.00     0.293 HD
ENDBRANCH   6  16
TORSDOF 4
ENDMDL
MODEL 5
REMARK VINA RESULT:    -5.116      2.789      3.824
REMARK INTER + INTRA:          -6.212
REMARK INTER:                  -5.995
REMARK INTRA:                  -0.217
REMARK UNBOUND:                -0.198
REMARK SMILES CCC=Cc1oc(O)c2ccc(O)cc12
REMARK SMILES IDX 7 1 6 2 5 3 15 4 14 5 12 6 11 7 10 8 9 9 8 10 4 12 3 13 2 14
REMARK SMILES IDX 1 15 13 16
REMARK H PARENT 8 11 13 17
REMARK Flexibility Score: inf
ROOT
ATOM      1  C   UNL     1      -6.646 -22.187 -19.175  1.00  0.00     0.290 A 
ATOM      2  O   UNL     1      -5.774 -21.864 -20.109  1.00  0.00    -0.425 OA
ATOM      3  C   UNL     1      -5.960 -22.651 -21.155  1.00  0.00     0.138 A 
ATOM      4  C   UNL     1      -7.000 -23.523 -20.882  1.00  0.00     0.035 A 
ATOM      5  C   UNL     1      -7.587 -24.538 -21.640  1.00  0.00     0.059 A 
ATOM      6  C   UNL     1      -8.653 -25.259 -21.065  1.00  0.00     0.116 A 
ATOM      7  C   UNL     1      -9.100 -24.946 -19.758  1.00  0.00     0.047 A 
ATOM      8  C   UNL     1      -8.489 -23.917 -19.019  1.00  0.00     0.020 A 
ATOM      9  C   UNL     1      -7.438 -23.225 -19.619  1.00  0.00     0.067 A 
ENDROOT
BRANCH   1  10
ATOM     10  O   UNL     1      -6.729 -21.554 -17.938  1.00  0.00    -0.480 OA
ATOM     11  H   UNL     1      -7.397 -20.814 -17.769  1.00  0.00     0.297 HD
ENDBRANCH   1  10
BRANCH   3  12
ATOM     12  C   UNL     1      -5.174 -22.591 -22.398  1.00  0.00     0.043 C 
ATOM     13  C   UNL     1      -5.694 -22.108 -23.530  1.00  0.00    -0.023 C 
BRANCH  13  14
ATOM     14  C   UNL     1      -4.888 -22.032 -24.795  1.00  0.00     0.024 C 
ATOM     15  C   UNL     1      -4.884 -20.618 -25.367  1.00  0.00     0.008 C 
ENDBRANCH  13  14
ENDBRANCH   3  12
BRANCH   6  16
ATOM     16  O   UNL     1      -9.259 -26.278 -21.794  1.00  0.00    -0.508 OA
ATOM     17  H   UNL     1      -8.969 -27.244 -21.694  1.00  0.00     0.293 HD
ENDBRANCH   6  16
TORSDOF 4
ENDMDL
MODEL 6
REMARK VINA RESULT:    -5.012      2.754      5.580
REMARK INTER + INTRA:          -6.090
REMARK INTER:                  -6.046
REMARK INTRA:                  -0.044
REMARK UNBOUND:                -0.198
REMARK SMILES CCC=Cc1oc(O)c2ccc(O)cc12
REMARK SMILES IDX 7 1 6 2 5 3 15 4 14 5 12 6 11 7 10 8 9 9 8 10 4 12 3 13 2 14
REMARK SMILES IDX 1 15 13 16
REMARK H PARENT 8 11 13 17
REMARK Flexibility Score: inf
ROOT
ATOM      1  C   UNL     1      -7.962 -22.515 -21.740  1.00  0.00     0.290 A 
ATOM      2  O   UNL     1      -8.494 -22.318 -20.550  1.00  0.00    -0.425 OA
ATOM      3  C   UNL     1      -8.037 -23.243 -19.722  1.00  0.00     0.138 A 
ATOM      4  C   UNL     1      -7.171 -24.075 -20.410  1.00  0.00     0.035 A 
ATOM      5  C   UNL     1      -6.431 -25.187 -20.006  1.00  0.00     0.059 A 
ATOM      6  C   UNL     1      -5.625 -25.829 -20.968  1.00  0.00     0.116 A 
ATOM      7  C   UNL     1      -5.581 -25.343 -22.298  1.00  0.00     0.047 A 
ATOM      8  C   UNL     1      -6.338 -24.219 -22.675  1.00  0.00     0.020 A 
ATOM      9  C   UNL     1      -7.124 -23.609 -21.698  1.00  0.00     0.067 A 
ENDROOT
BRANCH   1  10
ATOM     10  O   UNL     1      -8.229 -21.720 -22.850  1.00  0.00    -0.480 OA
ATOM     11  H   UNL     1      -9.158 -21.664 -23.247  1.00  0.00     0.297 HD
ENDBRANCH   1  10
BRANCH   3  12
ATOM     12  C   UNL     1      -8.405 -23.348 -18.301  1.00  0.00     0.043 C 
ATOM     13  C   UNL     1      -7.482 -23.532 -17.352  1.00  0.00    -0.023 C 
BRANCH  13  14
ATOM     14  C   UNL     1      -7.856 -23.626 -15.901  1.00  0.00     0.024 C 
ATOM     15  C   UNL     1      -7.135 -22.566 -15.072  1.00  0.00     0.008 C 
ENDBRANCH  13  14
ENDBRANCH   3  12
BRANCH   6  16
ATOM     16  O   UNL     1      -4.876 -26.942 -20.598  1.00  0.00    -0.508 OA
ATOM     17  H   UNL     1      -5.288 -27.707 -20.076  1.00  0.00     0.293 HD
ENDBRANCH   6  16
TORSDOF 4
ENDMDL
MODEL 7
REMARK VINA RESULT:    -4.983      2.154      3.560
REMARK INTER + INTRA:          -6.055
REMARK INTER:                  -5.864
REMARK INTRA:                  -0.191
REMARK UNBOUND:                -0.198
REMARK SMILES CCC=Cc1oc(O)c2ccc(O)cc12
REMARK SMILES IDX 7 1 6 2 5 3 15 4 14 5 12 6 11 7 10 8 9 9 8 10 4 12 3 13 2 14
REMARK SMILES IDX 1 15 13 16
REMARK H PARENT 8 11 13 17
REMARK Flexibility Score: inf
ROOT
ATOM      1  C   UNL     1      -8.003 -24.285 -19.555  1.00  0.00     0.290 A 
ATOM      2  O   UNL     1      -7.417 -24.173 -20.731  1.00  0.00    -0.425 OA
ATOM      3  C   UNL     1      -6.420 -23.309 -20.628  1.00  0.00     0.138 A 
ATOM      4  C   UNL     1      -6.361 -22.843 -19.326  1.00  0.00     0.035 A 
ATOM      5  C   UNL     1      -5.507 -21.934 -18.700  1.00  0.00     0.059 A 
ATOM      6  C   UNL     1      -5.713 -21.668 -17.332  1.00  0.00     0.116 A 
ATOM      7  C   UNL     1      -6.760 -22.315 -16.631  1.00  0.00     0.047 A 
ATOM      8  C   UNL     1      -7.604 -23.228 -17.289  1.00  0.00     0.020 A 
ATOM      9  C   UNL     1      -7.371 -23.467 -18.642  1.00  0.00     0.067 A 
ENDROOT
BRANCH   1  10
ATOM     10  O   UNL     1      -9.093 -25.113 -19.308  1.00  0.00    -0.480 OA
ATOM     11  H   UNL     1      -9.720 -24.941 -18.533  1.00  0.00     0.297 HD
ENDBRANCH   1  10
BRANCH   3  12
ATOM     12  C   UNL     1      -5.530 -22.924 -21.735  1.00  0.00     0.043 C 
ATOM     13  C   UNL     1      -5.779 -23.297 -22.994  1.00  0.00    -0.023 C 
BRANCH  13  14
ATOM     14  C   UNL     1      -4.880 -22.892 -24.125  1.00  0.00     0.024 C 
ATOM     15  C   UNL     1      -5.306 -21.554 -24.722  1.00  0.00     0.008 C 
ENDBRANCH  13  14
ENDBRANCH   3  12
BRANCH   6  16
ATOM     16  O   UNL     1      -4.878 -20.764 -16.679  1.00  0.00    -0.508 OA
ATOM     17  H   UNL     1      -3.883 -20.731 -16.869  1.00  0.00     0.293 HD
ENDBRANCH   6  16
TORSDOF 4
ENDMDL
MODEL 8
REMARK VINA RESULT:    -4.974      2.675      6.418
REMARK INTER + INTRA:          -6.045
REMARK INTER:                  -5.850
REMARK INTRA:                  -0.194
REMARK UNBOUND:                -0.198
REMARK SMILES CCC=Cc1oc(O)c2ccc(O)cc12
REMARK SMILES IDX 7 1 6 2 5 3 15 4 14 5 12 6 11 7 10 8 9 9 8 10 4 12 3 13 2 14
REMARK SMILES IDX 1 15 13 16
REMARK H PARENT 8 11 13 17
REMARK Flexibility Score: inf
ROOT
ATOM      1  C   UNL     1      -5.967 -23.611 -22.480  1.00  0.00     0.290 A 
ATOM      2  O   UNL     1      -6.273 -23.857 -21.222  1.00  0.00    -0.425 OA
ATOM      3  C   UNL     1      -7.361 -23.174 -20.907  1.00  0.00     0.138 A 
ATOM      4  C   UNL     1      -7.776 -22.453 -22.014  1.00  0.00     0.035 A 
ATOM      5  C   UNL     1      -8.853 -21.589 -22.212  1.00  0.00     0.059 A 
ATOM      6  C   UNL     1      -9.004 -21.002 -23.484  1.00  0.00     0.116 A 
ATOM      7  C   UNL     1      -8.080 -21.295 -24.517  1.00  0.00     0.047 A 
ATOM      8  C   UNL     1      -7.004 -22.172 -24.287  1.00  0.00     0.020 A 
ATOM      9  C   UNL     1      -6.886 -22.734 -23.017  1.00  0.00     0.067 A 
ENDROOT
BRANCH   1  10
ATOM     10  O   UNL     1      -4.875 -24.170 -23.136  1.00  0.00    -0.480 OA
ATOM     11  H   UNL     1      -4.996 -24.854 -23.871  1.00  0.00     0.297 HD
ENDBRANCH   1  10
BRANCH   3  12
ATOM     12  C   UNL     1      -8.008 -23.193 -19.585  1.00  0.00     0.043 C 
ATOM     13  C   UNL     1      -7.292 -23.248 -18.458  1.00  0.00    -0.023 C 
BRANCH  13  14
ATOM     14  C   UNL     1      -7.951 -23.253 -17.109  1.00  0.00     0.024 C 
ATOM     15  C   UNL     1      -7.127 -22.478 -16.085  1.00  0.00     0.008 C 
ENDBRANCH  13  14
ENDBRANCH   3  12
BRANCH   6  16
ATOM     16  O   UNL     1     -10.068 -20.133 -23.713  1.00  0.00    -0.508 OA
ATOM     17  H   UNL     1     -10.781 -19.973 -23.011  1.00  0.00     0.293 HD
ENDBRANCH   6  16
TORSDOF 4
ENDMDL
