MODEL 1
REMARK VINA RESULT:    -3.269      0.000      0.000
REMARK INTER + INTRA:          -4.235
REMARK INTER:                  -4.033
REMARK INTRA:                  -0.202
REMARK UNBOUND:                -0.202
REMARK SMILES CCCCCC(=O)[O-]
REMARK SMILES IDX 4 1 5 2 6 3 7 4 8 5 3 6 2 7 1 8
REMARK H PARENT
REMARK Flexibility Score: inf
ROOT
ATOM      1  C   UNL     1      26.344  -3.599  51.536  1.00  0.00     0.006 C 
ENDROOT
BRANCH   1   2
ATOM      2  C   UNL     1      26.438  -5.122  51.693  1.00  0.00     0.053 C 
BRANCH   2   3
ATOM      3  C   UNL     1      27.789  -5.548  52.179  1.00  0.00     0.041 C 
ATOM      4  O   UNL     1      27.988  -5.751  53.406  1.00  0.00    -0.550 OA
ATOM      5  O   UNL     1      28.838  -5.691  51.279  1.00  0.00    -0.550 OA
ENDBRANCH   2   3
ENDBRANCH   1   2
BRANCH   1   6
ATOM      6  C   UNL     1      25.906  -2.908  52.835  1.00  0.00     0.000 C 
BRANCH   6   7
ATOM      7  C   UNL     1      24.612  -3.527  53.377  1.00  0.00    -0.003 C 
ATOM      8  C   UNL     1      24.770  -3.944  54.836  1.00  0.00     0.004 C 
ENDBRANCH   6   7
ENDBRANCH   1   6
TORSDOF 4
ENDMDL
MODEL 2
REMARK VINA RESULT:    -3.200      1.232      1.876
REMARK INTER + INTRA:          -4.150
REMARK INTER:                  -3.969
REMARK INTRA:                  -0.181
REMARK UNBOUND:                -0.202
REMARK SMILES CCCCCC(=O)[O-]
REMARK SMILES IDX 4 1 5 2 6 3 7 4 8 5 3 6 2 7 1 8
REMARK H PARENT
REMARK Flexibility Score: inf
ROOT
ATOM      1  C   UNL     1      26.538  -5.153  51.706  1.00  0.00     0.006 C 
ENDROOT
BRANCH   1   2
ATOM      2  C   UNL     1      27.847  -5.365  52.478  1.00  0.00     0.053 C 
BRANCH   2   3
ATOM      3  C   UNL     1      29.045  -5.045  51.638  1.00  0.00     0.041 C 
ATOM      4  O   UNL     1      29.476  -5.883  50.803  1.00  0.00    -0.550 OA
ATOM      5  O   UNL     1      29.704  -3.833  51.800  1.00  0.00    -0.550 OA
ENDBRANCH   2   3
ENDBRANCH   1   2
BRANCH   1   6
ATOM      6  C   UNL     1      26.252  -3.667  51.446  1.00  0.00     0.000 C 
BRANCH   6   7
ATOM      7  C   UNL     1      25.931  -2.932  52.753  1.00  0.00    -0.003 C 
ATOM      8  C   UNL     1      24.663  -3.484  53.398  1.00  0.00     0.004 C 
ENDBRANCH   6   7
ENDBRANCH   1   6
TORSDOF 4
ENDMDL
MODEL 3
REMARK VINA RESULT:    -3.119      1.515      2.157
REMARK INTER + INTRA:          -4.050
REMARK INTER:                  -3.789
REMARK INTRA:                  -0.261
REMARK UNBOUND:                -0.202
REMARK SMILES CCCCCC(=O)[O-]
REMARK SMILES IDX 4 1 5 2 6 3 7 4 8 5 3 6 2 7 1 8
REMARK H PARENT
REMARK Flexibility Score: inf
ROOT
ATOM      1  C   UNL     1      26.056  -2.749  53.205  1.00  0.00     0.006 C 
ENDROOT
BRANCH   1   2
ATOM      2  C   UNL     1      26.456  -3.113  51.769  1.00  0.00     0.053 C 
BRANCH   2   3
ATOM      3  C   UNL     1      26.249  -4.570  51.487  1.00  0.00     0.041 C 
ATOM      4  O   UNL     1      25.386  -4.937  50.647  1.00  0.00    -0.550 OA
ATOM      5  O   UNL     1      26.988  -5.522  52.176  1.00  0.00    -0.550 OA
ENDBRANCH   2   3
ENDBRANCH   1   2
BRANCH   1   6
ATOM      6  C   UNL     1      24.622  -3.188  53.537  1.00  0.00     0.000 C 
BRANCH   6   7
ATOM      7  C   UNL     1      24.580  -3.975  54.852  1.00  0.00    -0.003 C 
ATOM      8  C   UNL     1      25.988  -4.287  55.352  1.00  0.00     0.004 C 
ENDBRANCH   6   7
ENDBRANCH   1   6
TORSDOF 4
ENDMDL
MODEL 4
REMARK VINA RESULT:    -3.020     16.407     17.746
REMARK INTER + INTRA:          -3.928
REMARK INTER:                  -3.779
REMARK INTRA:                  -0.149
REMARK UNBOUND:                -0.202
REMARK SMILES CCCCCC(=O)[O-]
REMARK SMILES IDX 4 1 5 2 6 3 7 4 8 5 3 6 2 7 1 8
REMARK H PARENT
REMARK Flexibility Score: inf
ROOT
ATOM      1  C   UNL     1      17.768   4.489  64.112  1.00  0.00     0.006 C 
ENDROOT
BRANCH   1   2
ATOM      2  C   UNL     1      16.776   4.180  62.983  1.00  0.00     0.053 C 
BRANCH   2   3
ATOM      3  C   UNL     1      16.127   2.843  63.165  1.00  0.00     0.041 C 
ATOM      4  O   UNL     1      16.763   1.788  62.905  1.00  0.00    -0.550 OA
ATOM      5  O   UNL     1      14.807   2.763  63.591  1.00  0.00    -0.550 OA
ENDBRANCH   2   3
ENDBRANCH   1   2
BRANCH   1   6
ATOM      6  C   UNL     1      17.059   4.785  65.442  1.00  0.00     0.000 C 
BRANCH   6   7
ATOM      7  C   UNL     1      17.498   6.142  66.007  1.00  0.00    -0.003 C 
ATOM      8  C   UNL     1      16.922   7.292  65.186  1.00  0.00     0.004 C 
ENDBRANCH   6   7
ENDBRANCH   1   6
TORSDOF 4
ENDMDL
MODEL 5
REMARK VINA RESULT:    -3.019      1.398      1.967
REMARK INTER + INTRA:          -3.926
REMARK INTER:                  -3.737
REMARK INTRA:                  -0.189
REMARK UNBOUND:                -0.202
REMARK SMILES CCCCCC(=O)[O-]
REMARK SMILES IDX 4 1 5 2 6 3 7 4 8 5 3 6 2 7 1 8
REMARK H PARENT
REMARK Flexibility Score: inf
ROOT
ATOM      1  C   UNL     1      27.094  -4.152  54.060  1.00  0.00     0.006 C 
ENDROOT
BRANCH   1   2
ATOM      2  C   UNL     1      28.036  -5.232  53.512  1.00  0.00     0.053 C 
BRANCH   2   3
ATOM      3  C   UNL     1      27.849  -5.437  52.040  1.00  0.00     0.041 C 
ATOM      4  O   UNL     1      26.701  -5.356  51.529  1.00  0.00    -0.550 OA
ATOM      5  O   UNL     1      28.939  -5.749  51.238  1.00  0.00    -0.550 OA
ENDBRANCH   2   3
ENDBRANCH   1   2
BRANCH   1   6
ATOM      6  C   UNL     1      25.989  -4.743  54.949  1.00  0.00     0.000 C 
BRANCH   6   7
ATOM      7  C   UNL     1      24.670  -3.982  54.762  1.00  0.00    -0.003 C 
ATOM      8  C   UNL     1      24.645  -3.243  53.428  1.00  0.00     0.004 C 
ENDBRANCH   6   7
ENDBRANCH   1   6
TORSDOF 4
ENDMDL
MODEL 6
REMARK VINA RESULT:    -2.958      2.809      3.551
REMARK INTER + INTRA:          -3.852
REMARK INTER:                  -3.622
REMARK INTRA:                  -0.230
REMARK UNBOUND:                -0.202
REMARK SMILES CCCCCC(=O)[O-]
REMARK SMILES IDX 4 1 5 2 6 3 7 4 8 5 3 6 2 7 1 8
REMARK H PARENT
REMARK Flexibility Score: inf
ROOT
ATOM      1  C   UNL     1      25.961  -4.171  51.590  1.00  0.00     0.006 C 
ENDROOT
BRANCH   1   2
ATOM      2  C   UNL     1      26.801  -2.914  51.331  1.00  0.00     0.053 C 
BRANCH   2   3
ATOM      3  C   UNL     1      26.368  -1.770  52.195  1.00  0.00     0.041 C 
ATOM      4  O   UNL     1      26.917  -0.643  52.077  1.00  0.00    -0.550 OA
ATOM      5  O   UNL     1      25.380  -1.957  53.154  1.00  0.00    -0.550 OA
ENDBRANCH   2   3
ENDBRANCH   1   2
BRANCH   1   6
ATOM      6  C   UNL     1      26.820  -5.356  52.057  1.00  0.00     0.000 C 
BRANCH   6   7
ATOM      7  C   UNL     1      27.273  -5.166  53.510  1.00  0.00    -0.003 C 
ATOM      8  C   UNL     1      26.079  -5.148  54.461  1.00  0.00     0.004 C 
ENDBRANCH   6   7
ENDBRANCH   1   6
TORSDOF 4
ENDMDL
MODEL 7
REMARK VINA RESULT:    -2.956      2.230      3.961
REMARK INTER + INTRA:          -3.849
REMARK INTER:                  -3.705
REMARK INTRA:                  -0.144
REMARK UNBOUND:                -0.202
REMARK SMILES CCCCCC(=O)[O-]
REMARK SMILES IDX 4 1 5 2 6 3 7 4 8 5 3 6 2 7 1 8
REMARK H PARENT
REMARK Flexibility Score: inf
ROOT
ATOM      1  C   UNL     1      26.238  -3.685  52.096  1.00  0.00     0.006 C 
ENDROOT
BRANCH   1   2
ATOM      2  C   UNL     1      25.006  -3.579  53.005  1.00  0.00     0.053 C 
BRANCH   2   3
ATOM      3  C   UNL     1      25.385  -3.572  54.455  1.00  0.00     0.041 C 
ATOM      4  O   UNL     1      26.458  -3.030  54.827  1.00  0.00    -0.550 OA
ATOM      5  O   UNL     1      24.567  -4.193  55.389  1.00  0.00    -0.550 OA
ENDBRANCH   2   3
ENDBRANCH   1   2
BRANCH   1   6
ATOM      6  C   UNL     1      26.596  -5.143  51.772  1.00  0.00     0.000 C 
BRANCH   6   7
ATOM      7  C   UNL     1      27.909  -5.549  52.452  1.00  0.00    -0.003 C 
ATOM      8  C   UNL     1      29.056  -5.603  51.447  1.00  0.00     0.004 C 
ENDBRANCH   6   7
ENDBRANCH   1   6
TORSDOF 4
ENDMDL
MODEL 8
REMARK VINA RESULT:    -2.955      2.132      2.543
REMARK INTER + INTRA:          -3.848
REMARK INTER:                  -3.684
REMARK INTRA:                  -0.165
REMARK UNBOUND:                -0.202
REMARK SMILES CCCCCC(=O)[O-]
REMARK SMILES IDX 4 1 5 2 6 3 7 4 8 5 3 6 2 7 1 8
REMARK H PARENT
REMARK Flexibility Score: inf
ROOT
ATOM      1  C   UNL     1      26.644  -5.208  52.440  1.00  0.00     0.006 C 
ENDROOT
BRANCH   1   2
ATOM      2  C   UNL     1      26.127  -4.111  51.500  1.00  0.00     0.053 C 
BRANCH   2   3
ATOM      3  C   UNL     1      27.022  -2.910  51.503  1.00  0.00     0.041 C 
ATOM      4  O   UNL     1      26.557  -1.773  51.779  1.00  0.00    -0.550 OA
ATOM      5  O   UNL     1      28.364  -3.043  51.169  1.00  0.00    -0.550 OA
ENDBRANCH   2   3
ENDBRANCH   1   2
BRANCH   1   6
ATOM      6  C   UNL     1      26.938  -4.673  53.850  1.00  0.00     0.000 C 
BRANCH   6   7
ATOM      7  C   UNL     1      25.839  -5.090  54.835  1.00  0.00    -0.003 C 
ATOM      8  C   UNL     1      24.753  -4.022  54.933  1.00  0.00     0.004 C 
ENDBRANCH   6   7
ENDBRANCH   1   6
TORSDOF 4
ENDMDL
MODEL 9
REMARK VINA RESULT:    -2.937      2.788      4.023
REMARK INTER + INTRA:          -3.826
REMARK INTER:                  -3.623
REMARK INTRA:                  -0.203
REMARK UNBOUND:                -0.202
REMARK SMILES CCCCCC(=O)[O-]
REMARK SMILES IDX 4 1 5 2 6 3 7 4 8 5 3 6 2 7 1 8
REMARK H PARENT
REMARK Flexibility Score: inf
ROOT
ATOM      1  C   UNL     1      26.914  -4.639  53.624  1.00  0.00     0.006 C 
ENDROOT
BRANCH   1   2
ATOM      2  C   UNL     1      26.112  -5.269  54.770  1.00  0.00     0.053 C 
BRANCH   2   3
ATOM      3  C   UNL     1      25.034  -4.354  55.263  1.00  0.00     0.041 C 
ATOM      4  O   UNL     1      24.432  -3.593  54.461  1.00  0.00    -0.550 OA
ATOM      5  O   UNL     1      24.716  -4.319  56.615  1.00  0.00    -0.550 OA
ENDBRANCH   2   3
ENDBRANCH   1   2
BRANCH   1   6
ATOM      6  C   UNL     1      26.628  -5.316  52.275  1.00  0.00     0.000 C 
BRANCH   6   7
ATOM      7  C   UNL     1      25.951  -4.340  51.305  1.00  0.00    -0.003 C 
ATOM      8  C   UNL     1      26.607  -2.964  51.360  1.00  0.00     0.004 C 
ENDBRANCH   6   7
ENDBRANCH   1   6
TORSDOF 4
ENDMDL
