MODEL 1
REMARK VINA RESULT:    -5.421      0.000      0.000
REMARK INTER + INTRA:         -11.857
REMARK INTER:                  -9.540
REMARK INTRA:                  -2.317
REMARK UNBOUND:                -2.317
REMARK SMILES CCCCCCC=CCCCCCCCC(=O)[O-]
REMARK SMILES IDX 10 1 11 2 12 3 13 4 14 5 15 6 16 7 17 8 18 9 9 10 8 11 7 12
REMARK SMILES IDX 6 13 5 14 4 15 3 16 2 17 1 18
REMARK H PARENT
REMARK Flexibility Score: inf
ROOT
ATOM      1  C   UNL     1      21.262  23.289   8.210  1.00  0.00     0.004 C 
ENDROOT
BRANCH   1   2
ATOM      2  C   UNL     1      21.639  22.109   7.297  1.00  0.00     0.000 C 
BRANCH   2   3
ATOM      3  C   UNL     1      20.747  21.940   6.053  1.00  0.00     0.000 C 
BRANCH   3   4
ATOM      4  C   UNL     1      19.433  22.729   6.145  1.00  0.00     0.000 C 
BRANCH   4   5
ATOM      5  C   UNL     1      18.221  21.785   6.124  1.00  0.00     0.006 C 
BRANCH   5   6
ATOM      6  C   UNL     1      17.639  21.557   7.524  1.00  0.00     0.053 C 
BRANCH   6   7
ATOM      7  C   UNL     1      17.871  20.156   8.000  1.00  0.00     0.041 C 
ATOM      8  O   UNL     1      17.254  19.717   9.006  1.00  0.00    -0.550 OA
ATOM      9  O   UNL     1      18.794  19.345   7.352  1.00  0.00    -0.550 OA
ENDBRANCH   6   7
ENDBRANCH   5   6
ENDBRANCH   4   5
ENDBRANCH   3   4
ENDBRANCH   2   3
ENDBRANCH   1   2
BRANCH   1  10
ATOM     10  C   UNL     1      21.778  23.123   9.647  1.00  0.00     0.027 C 
BRANCH  10  11
ATOM     11  C   UNL     1      20.641  23.112  10.630  1.00  0.00    -0.031 C 
ATOM     12  C   UNL     1      19.540  22.375  10.421  1.00  0.00    -0.031 C 
BRANCH  12  13
ATOM     13  C   UNL     1      18.411  22.344  11.414  1.00  0.00     0.027 C 
BRANCH  13  14
ATOM     14  C   UNL     1      17.150  23.006  10.840  1.00  0.00     0.004 C 
BRANCH  14  15
ATOM     15  C   UNL     1      17.294  24.529  10.697  1.00  0.00     0.000 C 
BRANCH  15  16
ATOM     16  C   UNL     1      17.103  25.009   9.250  1.00  0.00    -0.000 C 
BRANCH  16  17
ATOM     17  C   UNL     1      18.450  25.360   8.607  1.00  0.00    -0.003 C 
ATOM     18  C   UNL     1      18.955  26.717   9.090  1.00  0.00     0.004 C 
ENDBRANCH  16  17
ENDBRANCH  15  16
ENDBRANCH  14  15
ENDBRANCH  13  14
ENDBRANCH  12  13
ENDBRANCH  10  11
ENDBRANCH   1  10
TORSDOF 13
ENDMDL
MODEL 2
REMARK VINA RESULT:    -5.185      2.420      4.099
REMARK INTER + INTRA:         -11.442
REMARK INTER:                  -9.467
REMARK INTRA:                  -1.975
REMARK UNBOUND:                -2.317
REMARK SMILES CCCCCCC=CCCCCCCCC(=O)[O-]
REMARK SMILES IDX 10 1 11 2 12 3 13 4 14 5 15 6 16 7 17 8 18 9 9 10 8 11 7 12
REMARK SMILES IDX 6 13 5 14 4 15 3 16 2 17 1 18
REMARK H PARENT
REMARK Flexibility Score: inf
ROOT
ATOM      1  C   UNL     1      20.626  20.331   6.298  1.00  0.00     0.004 C 
ENDROOT
BRANCH   1   2
ATOM      2  C   UNL     1      19.517  20.792   5.335  1.00  0.00     0.000 C 
BRANCH   2   3
ATOM      3  C   UNL     1      19.228  22.305   5.355  1.00  0.00     0.000 C 
BRANCH   3   4
ATOM      4  C   UNL     1      18.076  22.684   6.296  1.00  0.00     0.000 C 
BRANCH   4   5
ATOM      5  C   UNL     1      18.467  23.864   7.198  1.00  0.00     0.006 C 
BRANCH   5   6
ATOM      6  C   UNL     1      17.243  24.628   7.718  1.00  0.00     0.053 C 
BRANCH   6   7
ATOM      7  C   UNL     1      17.604  25.563   8.831  1.00  0.00     0.041 C 
ATOM      8  O   UNL     1      17.293  25.286  10.019  1.00  0.00    -0.550 OA
ATOM      9  O   UNL     1      18.255  26.758   8.552  1.00  0.00    -0.550 OA
ENDBRANCH   6   7
ENDBRANCH   5   6
ENDBRANCH   4   5
ENDBRANCH   3   4
ENDBRANCH   2   3
ENDBRANCH   1   2
BRANCH   1  10
ATOM     10  C   UNL     1      21.810  21.306   6.359  1.00  0.00     0.027 C 
BRANCH  10  11
ATOM     11  C   UNL     1      22.118  21.691   7.779  1.00  0.00    -0.031 C 
ATOM     12  C   UNL     1      21.559  22.768   8.351  1.00  0.00    -0.031 C 
BRANCH  12  13
ATOM     13  C   UNL     1      21.848  23.141   9.779  1.00  0.00     0.027 C 
BRANCH  13  14
ATOM     14  C   UNL     1      20.547  23.351  10.570  1.00  0.00     0.004 C 
BRANCH  14  15
ATOM     15  C   UNL     1      19.459  22.331  10.198  1.00  0.00     0.000 C 
BRANCH  15  16
ATOM     16  C   UNL     1      18.517  22.016  11.370  1.00  0.00    -0.000 C 
BRANCH  16  17
ATOM     17  C   UNL     1      17.060  21.946  10.897  1.00  0.00    -0.003 C 
ATOM     18  C   UNL     1      16.943  21.179   9.582  1.00  0.00     0.004 C 
ENDBRANCH  16  17
ENDBRANCH  15  16
ENDBRANCH  14  15
ENDBRANCH  13  14
ENDBRANCH  12  13
ENDBRANCH  10  11
ENDBRANCH   1  10
TORSDOF 13
ENDMDL
MODEL 3
REMARK VINA RESULT:    -5.166      2.262      5.105
REMARK INTER + INTRA:         -11.408
REMARK INTER:                  -9.209
REMARK INTRA:                  -2.199
REMARK UNBOUND:                -2.317
REMARK SMILES CCCCCCC=CCCCCCCCC(=O)[O-]
REMARK SMILES IDX 10 1 11 2 12 3 13 4 14 5 15 6 16 7 17 8 18 9 9 10 8 11 7 12
REMARK SMILES IDX 6 13 5 14 4 15 3 16 2 17 1 18
REMARK H PARENT
REMARK Flexibility Score: inf
ROOT
ATOM      1  C   UNL     1      20.740  23.213  10.522  1.00  0.00     0.004 C 
ENDROOT
BRANCH   1   2
ATOM      2  C   UNL     1      19.498  22.358  10.212  1.00  0.00     0.000 C 
BRANCH   2   3
ATOM      3  C   UNL     1      18.576  22.092  11.417  1.00  0.00     0.000 C 
BRANCH   3   4
ATOM      4  C   UNL     1      17.274  22.905  11.367  1.00  0.00     0.000 C 
BRANCH   4   5
ATOM      5  C   UNL     1      17.082  23.552   9.988  1.00  0.00     0.006 C 
BRANCH   5   6
ATOM      6  C   UNL     1      16.982  25.081  10.073  1.00  0.00     0.053 C 
BRANCH   6   7
ATOM      7  C   UNL     1      17.807  25.750   9.017  1.00  0.00     0.041 C 
ATOM      8  O   UNL     1      18.442  25.061   8.176  1.00  0.00    -0.550 OA
ATOM      9  O   UNL     1      17.900  27.136   8.982  1.00  0.00    -0.550 OA
ENDBRANCH   6   7
ENDBRANCH   5   6
ENDBRANCH   4   5
ENDBRANCH   3   4
ENDBRANCH   2   3
ENDBRANCH   1   2
BRANCH   1  10
ATOM     10  C   UNL     1      21.806  23.141   9.418  1.00  0.00     0.027 C 
BRANCH  10  11
ATOM     11  C   UNL     1      21.179  22.860   8.081  1.00  0.00    -0.031 C 
ATOM     12  C   UNL     1      21.700  21.953   7.240  1.00  0.00    -0.031 C 
BRANCH  12  13
ATOM     13  C   UNL     1      21.062  21.653   5.912  1.00  0.00     0.027 C 
BRANCH  13  14
ATOM     14  C   UNL     1      19.781  22.479   5.714  1.00  0.00     0.004 C 
BRANCH  14  15
ATOM     15  C   UNL     1      18.515  21.609   5.683  1.00  0.00     0.000 C 
BRANCH  15  16
ATOM     16  C   UNL     1      17.564  21.904   6.853  1.00  0.00    -0.000 C 
BRANCH  16  17
ATOM     17  C   UNL     1      17.207  20.617   7.606  1.00  0.00    -0.003 C 
ATOM     18  C   UNL     1      18.446  19.763   7.857  1.00  0.00     0.004 C 
ENDBRANCH  16  17
ENDBRANCH  15  16
ENDBRANCH  14  15
ENDBRANCH  13  14
ENDBRANCH  12  13
ENDBRANCH  10  11
ENDBRANCH   1  10
TORSDOF 13
ENDMDL
MODEL 4
REMARK VINA RESULT:    -5.026      1.742      5.418
REMARK INTER + INTRA:         -11.162
REMARK INTER:                  -9.005
REMARK INTRA:                  -2.158
REMARK UNBOUND:                -2.317
REMARK SMILES CCCCCCC=CCCCCCCCC(=O)[O-]
REMARK SMILES IDX 10 1 11 2 12 3 13 4 14 5 15 6 16 7 17 8 18 9 9 10 8 11 7 12
REMARK SMILES IDX 6 13 5 14 4 15 3 16 2 17 1 18
REMARK H PARENT
REMARK Flexibility Score: inf
ROOT
ATOM      1  C   UNL     1      17.912  25.013   7.931  1.00  0.00     0.004 C 
ENDROOT
BRANCH   1   2
ATOM      2  C   UNL     1      17.846  25.464   9.402  1.00  0.00     0.000 C 
BRANCH   2   3
ATOM      3  C   UNL     1      19.110  25.165  10.230  1.00  0.00     0.000 C 
BRANCH   3   4
ATOM      4  C   UNL     1      19.938  24.003   9.664  1.00  0.00     0.000 C 
BRANCH   4   5
ATOM      5  C   UNL     1      19.764  22.737  10.516  1.00  0.00     0.006 C 
BRANCH   5   6
ATOM      6  C   UNL     1      19.057  21.613   9.748  1.00  0.00     0.053 C 
BRANCH   6   7
ATOM      7  C   UNL     1      17.670  21.377  10.264  1.00  0.00     0.041 C 
ATOM      8  O   UNL     1      17.090  20.282  10.045  1.00  0.00    -0.550 OA
ATOM      9  O   UNL     1      17.006  22.381  10.957  1.00  0.00    -0.550 OA
ENDBRANCH   6   7
ENDBRANCH   5   6
ENDBRANCH   4   5
ENDBRANCH   3   4
ENDBRANCH   2   3
ENDBRANCH   1   2
BRANCH   1  10
ATOM     10  C   UNL     1      16.875  23.933   7.589  1.00  0.00     0.027 C 
BRANCH  10  11
ATOM     11  C   UNL     1      17.430  22.950   6.596  1.00  0.00    -0.031 C 
ATOM     12  C   UNL     1      18.735  22.926   6.285  1.00  0.00    -0.031 C 
BRANCH  12  13
ATOM     13  C   UNL     1      19.295  21.928   5.311  1.00  0.00     0.027 C 
BRANCH  13  14
ATOM     14  C   UNL     1      20.824  21.840   5.426  1.00  0.00     0.004 C 
BRANCH  14  15
ATOM     15  C   UNL     1      21.320  22.026   6.868  1.00  0.00     0.000 C 
BRANCH  15  16
ATOM     16  C   UNL     1      22.263  20.902   7.321  1.00  0.00    -0.000 C 
BRANCH  16  17
ATOM     17  C   UNL     1      22.022  19.624   6.507  1.00  0.00    -0.003 C 
ATOM     18  C   UNL     1      23.260  19.245   5.697  1.00  0.00     0.004 C 
ENDBRANCH  16  17
ENDBRANCH  15  16
ENDBRANCH  14  15
ENDBRANCH  13  14
ENDBRANCH  12  13
ENDBRANCH  10  11
ENDBRANCH   1  10
TORSDOF 13
ENDMDL
MODEL 5
REMARK VINA RESULT:    -4.985      1.971      2.518
REMARK INTER + INTRA:         -11.090
REMARK INTER:                  -9.385
REMARK INTRA:                  -1.705
REMARK UNBOUND:                -2.317
REMARK SMILES CCCCCCC=CCCCCCCCC(=O)[O-]
REMARK SMILES IDX 10 1 11 2 12 3 13 4 14 5 15 6 16 7 17 8 18 9 9 10 8 11 7 12
REMARK SMILES IDX 6 13 5 14 4 15 3 16 2 17 1 18
REMARK H PARENT
REMARK Flexibility Score: inf
ROOT
ATOM      1  C   UNL     1      21.445  22.116   8.658  1.00  0.00     0.004 C 
ENDROOT
BRANCH   1   2
ATOM      2  C   UNL     1      21.022  22.707   7.301  1.00  0.00     0.000 C 
BRANCH   2   3
ATOM      3  C   UNL     1      19.502  22.852   7.102  1.00  0.00     0.000 C 
BRANCH   3   4
ATOM      4  C   UNL     1      19.073  22.720   5.633  1.00  0.00     0.000 C 
BRANCH   4   5
ATOM      5  C   UNL     1      19.066  21.249   5.193  1.00  0.00     0.006 C 
BRANCH   5   6
ATOM      6  C   UNL     1      19.984  20.998   3.990  1.00  0.00     0.053 C 
BRANCH   6   7
ATOM      7  C   UNL     1      21.319  20.465   4.413  1.00  0.00     0.041 C 
ATOM      8  O   UNL     1      21.399  19.369   5.027  1.00  0.00    -0.550 OA
ATOM      9  O   UNL     1      22.472  21.196   4.158  1.00  0.00    -0.550 OA
ENDBRANCH   6   7
ENDBRANCH   5   6
ENDBRANCH   4   5
ENDBRANCH   3   4
ENDBRANCH   2   3
ENDBRANCH   1   2
BRANCH   1  10
ATOM     10  C   UNL     1      21.622  23.184   9.747  1.00  0.00     0.027 C 
BRANCH  10  11
ATOM     11  C   UNL     1      20.408  23.260  10.630  1.00  0.00    -0.031 C 
ATOM     12  C   UNL     1      19.487  22.284  10.641  1.00  0.00    -0.031 C 
BRANCH  12  13
ATOM     13  C   UNL     1      18.283  22.347  11.540  1.00  0.00     0.027 C 
BRANCH  13  14
ATOM     14  C   UNL     1      17.023  22.733  10.752  1.00  0.00     0.004 C 
BRANCH  14  15
ATOM     15  C   UNL     1      16.875  24.253  10.579  1.00  0.00     0.000 C 
BRANCH  15  16
ATOM     16  C   UNL     1      17.193  24.721   9.151  1.00  0.00    -0.000 C 
BRANCH  16  17
ATOM     17  C   UNL     1      17.629  26.192   9.141  1.00  0.00    -0.003 C 
ATOM     18  C   UNL     1      19.115  26.325   8.819  1.00  0.00     0.004 C 
ENDBRANCH  16  17
ENDBRANCH  15  16
ENDBRANCH  14  15
ENDBRANCH  13  14
ENDBRANCH  12  13
ENDBRANCH  10  11
ENDBRANCH   1  10
TORSDOF 13
ENDMDL
MODEL 6
REMARK VINA RESULT:    -4.935      2.737      6.137
REMARK INTER + INTRA:         -11.002
REMARK INTER:                  -9.709
REMARK INTRA:                  -1.293
REMARK UNBOUND:                -2.317
REMARK SMILES CCCCCCC=CCCCCCCCC(=O)[O-]
REMARK SMILES IDX 10 1 11 2 12 3 13 4 14 5 15 6 16 7 17 8 18 9 9 10 8 11 7 12
REMARK SMILES IDX 6 13 5 14 4 15 3 16 2 17 1 18
REMARK H PARENT
REMARK Flexibility Score: inf
ROOT
ATOM      1  C   UNL     1      20.748  23.107  10.170  1.00  0.00     0.004 C 
ENDROOT
BRANCH   1   2
ATOM      2  C   UNL     1      19.506  22.199  10.128  1.00  0.00     0.000 C 
BRANCH   2   3
ATOM      3  C   UNL     1      18.796  22.008  11.481  1.00  0.00     0.000 C 
BRANCH   3   4
ATOM      4  C   UNL     1      17.376  22.592  11.502  1.00  0.00     0.000 C 
BRANCH   4   5
ATOM      5  C   UNL     1      17.029  23.243  10.154  1.00  0.00     0.006 C 
BRANCH   5   6
ATOM      6  C   UNL     1      17.084  24.774  10.218  1.00  0.00     0.053 C 
BRANCH   6   7
ATOM      7  C   UNL     1      17.823  25.352   9.050  1.00  0.00     0.041 C 
ATOM      8  O   UNL     1      18.800  26.125   9.237  1.00  0.00    -0.550 OA
ATOM      9  O   UNL     1      17.412  25.063   7.755  1.00  0.00    -0.550 OA
ENDBRANCH   6   7
ENDBRANCH   5   6
ENDBRANCH   4   5
ENDBRANCH   3   4
ENDBRANCH   2   3
ENDBRANCH   1   2
BRANCH   1  10
ATOM     10  C   UNL     1      21.371  23.335   8.784  1.00  0.00     0.027 C 
BRANCH  10  11
ATOM     11  C   UNL     1      20.406  22.965   7.693  1.00  0.00    -0.031 C 
ATOM     12  C   UNL     1      20.804  22.290   6.603  1.00  0.00    -0.031 C 
BRANCH  12  13
ATOM     13  C   UNL     1      19.836  21.899   5.522  1.00  0.00     0.027 C 
BRANCH  13  14
ATOM     14  C   UNL     1      20.552  21.169   4.375  1.00  0.00     0.004 C 
BRANCH  14  15
ATOM     15  C   UNL     1      22.080  21.164   4.541  1.00  0.00     0.000 C 
BRANCH  15  16
ATOM     16  C   UNL     1      22.703  19.790   4.250  1.00  0.00    -0.000 C 
BRANCH  16  17
ATOM     17  C   UNL     1      22.932  19.007   5.548  1.00  0.00    -0.003 C 
ATOM     18  C   UNL     1      24.408  18.661   5.730  1.00  0.00     0.004 C 
ENDBRANCH  16  17
ENDBRANCH  15  16
ENDBRANCH  14  15
ENDBRANCH  13  14
ENDBRANCH  12  13
ENDBRANCH  10  11
ENDBRANCH   1  10
TORSDOF 13
ENDMDL
MODEL 7
REMARK VINA RESULT:    -4.859      1.701      3.899
REMARK INTER + INTRA:         -10.868
REMARK INTER:                  -8.786
REMARK INTRA:                  -2.082
REMARK UNBOUND:                -2.317
REMARK SMILES CCCCCCC=CCCCCCCCC(=O)[O-]
REMARK SMILES IDX 10 1 11 2 12 3 13 4 14 5 15 6 16 7 17 8 18 9 9 10 8 11 7 12
REMARK SMILES IDX 6 13 5 14 4 15 3 16 2 17 1 18
REMARK H PARENT
REMARK Flexibility Score: inf
ROOT
ATOM      1  C   UNL     1      18.080  21.774   6.456  1.00  0.00     0.004 C 
ENDROOT
BRANCH   1   2
ATOM      2  C   UNL     1      19.285  22.333   5.678  1.00  0.00     0.000 C 
BRANCH   2   3
ATOM      3  C   UNL     1      20.601  22.397   6.477  1.00  0.00     0.000 C 
BRANCH   3   4
ATOM      4  C   UNL     1      21.709  21.518   5.881  1.00  0.00     0.000 C 
BRANCH   4   5
ATOM      5  C   UNL     1      21.969  20.287   6.762  1.00  0.00     0.006 C 
BRANCH   5   6
ATOM      6  C   UNL     1      21.703  18.973   6.016  1.00  0.00     0.053 C 
BRANCH   6   7
ATOM      7  C   UNL     1      20.237  18.730   5.826  1.00  0.00     0.041 C 
ATOM      8  O   UNL     1      19.708  18.898   4.696  1.00  0.00    -0.550 OA
ATOM      9  O   UNL     1      19.450  18.349   6.905  1.00  0.00    -0.550 OA
ENDBRANCH   6   7
ENDBRANCH   5   6
ENDBRANCH   4   5
ENDBRANCH   3   4
ENDBRANCH   2   3
ENDBRANCH   1   2
BRANCH   1  10
ATOM     10  C   UNL     1      16.922  22.776   6.566  1.00  0.00     0.027 C 
BRANCH  10  11
ATOM     11  C   UNL     1      17.419  24.129   6.996  1.00  0.00    -0.031 C 
ATOM     12  C   UNL     1      17.125  24.632   8.205  1.00  0.00    -0.031 C 
BRANCH  12  13
ATOM     13  C   UNL     1      17.641  25.974   8.646  1.00  0.00     0.027 C 
BRANCH  13  14
ATOM     14  C   UNL     1      19.113  25.887   9.076  1.00  0.00     0.004 C 
BRANCH  14  15
ATOM     15  C   UNL     1      19.338  24.876  10.212  1.00  0.00     0.000 C 
BRANCH  15  16
ATOM     16  C   UNL     1      20.324  23.763   9.828  1.00  0.00    -0.000 C 
BRANCH  16  17
ATOM     17  C   UNL     1      19.679  22.381   9.988  1.00  0.00    -0.003 C 
ATOM     18  C   UNL     1      18.486  22.436  10.938  1.00  0.00     0.004 C 
ENDBRANCH  16  17
ENDBRANCH  15  16
ENDBRANCH  14  15
ENDBRANCH  13  14
ENDBRANCH  12  13
ENDBRANCH  10  11
ENDBRANCH   1  10
TORSDOF 13
ENDMDL
MODEL 8
REMARK VINA RESULT:    -4.829      1.967      3.400
REMARK INTER + INTRA:         -10.815
REMARK INTER:                  -9.084
REMARK INTRA:                  -1.732
REMARK UNBOUND:                -2.317
REMARK SMILES CCCCCCC=CCCCCCCCC(=O)[O-]
REMARK SMILES IDX 10 1 11 2 12 3 13 4 14 5 15 6 16 7 17 8 18 9 9 10 8 11 7 12
REMARK SMILES IDX 6 13 5 14 4 15 3 16 2 17 1 18
REMARK H PARENT
REMARK Flexibility Score: inf
ROOT
ATOM      1  C   UNL     1      17.696  20.713   7.096  1.00  0.00     0.004 C 
ENDROOT
BRANCH   1   2
ATOM      2  C   UNL     1      17.577  22.172   6.621  1.00  0.00     0.000 C 
BRANCH   2   3
ATOM      3  C   UNL     1      18.891  22.800   6.117  1.00  0.00     0.000 C 
BRANCH   3   4
ATOM      4  C   UNL     1      19.500  22.044   4.928  1.00  0.00     0.000 C 
BRANCH   4   5
ATOM      5  C   UNL     1      20.859  21.435   5.301  1.00  0.00     0.006 C 
BRANCH   5   6
ATOM      6  C   UNL     1      21.397  21.984   6.628  1.00  0.00     0.053 C 
BRANCH   6   7
ATOM      7  C   UNL     1      22.211  20.962   7.363  1.00  0.00     0.041 C 
ATOM      8  O   UNL     1      22.611  21.192   8.534  1.00  0.00    -0.550 OA
ATOM      9  O   UNL     1      22.554  19.769   6.740  1.00  0.00    -0.550 OA
ENDBRANCH   6   7
ENDBRANCH   5   6
ENDBRANCH   4   5
ENDBRANCH   3   4
ENDBRANCH   2   3
ENDBRANCH   1   2
BRANCH   1  10
ATOM     10  C   UNL     1      17.032  20.471   8.459  1.00  0.00     0.027 C 
BRANCH  10  11
ATOM     11  C   UNL     1      17.522  21.459   9.480  1.00  0.00    -0.031 C 
ATOM     12  C   UNL     1      18.791  21.447   9.916  1.00  0.00    -0.031 C 
BRANCH  12  13
ATOM     13  C   UNL     1      19.289  22.450  10.920  1.00  0.00     0.027 C 
BRANCH  13  14
ATOM     14  C   UNL     1      20.477  23.249  10.361  1.00  0.00     0.004 C 
BRANCH  14  15
ATOM     15  C   UNL     1      20.084  24.139   9.172  1.00  0.00     0.000 C 
BRANCH  15  16
ATOM     16  C   UNL     1      18.862  25.021   9.470  1.00  0.00    -0.000 C 
BRANCH  16  17
ATOM     17  C   UNL     1      19.172  26.497   9.195  1.00  0.00    -0.003 C 
ATOM     18  C   UNL     1      17.949  27.226   8.646  1.00  0.00     0.004 C 
ENDBRANCH  16  17
ENDBRANCH  15  16
ENDBRANCH  14  15
ENDBRANCH  13  14
ENDBRANCH  12  13
ENDBRANCH  10  11
ENDBRANCH   1  10
TORSDOF 13
ENDMDL
MODEL 9
REMARK VINA RESULT:    -3.801      1.970      5.266
REMARK INTER + INTRA:          -9.006
REMARK INTER:                  -7.317
REMARK INTRA:                  -1.689
REMARK UNBOUND:                -2.317
REMARK SMILES CCCCCCC=CCCCCCCCC(=O)[O-]
REMARK SMILES IDX 10 1 11 2 12 3 13 4 14 5 15 6 16 7 17 8 18 9 9 10 8 11 7 12
REMARK SMILES IDX 6 13 5 14 4 15 3 16 2 17 1 18
REMARK H PARENT
REMARK Flexibility Score: inf
ROOT
ATOM      1  C   UNL     1      19.602  23.042  10.545  1.00  0.00     0.004 C 
ENDROOT
BRANCH   1   2
ATOM      2  C   UNL     1      18.598  24.198  10.387  1.00  0.00     0.000 C 
BRANCH   2   3
ATOM      3  C   UNL     1      19.127  25.415   9.606  1.00  0.00     0.000 C 
BRANCH   3   4
ATOM      4  C   UNL     1      18.272  25.757   8.377  1.00  0.00     0.000 C 
BRANCH   4   5
ATOM      5  C   UNL     1      17.252  24.645   8.090  1.00  0.00     0.006 C 
BRANCH   5   6
ATOM      6  C   UNL     1      17.637  23.807   6.865  1.00  0.00     0.053 C 
BRANCH   6   7
ATOM      7  C   UNL     1      17.237  22.372   7.027  1.00  0.00     0.041 C 
ATOM      8  O   UNL     1      17.257  21.832   8.164  1.00  0.00    -0.550 OA
ATOM      9  O   UNL     1      16.875  21.621   5.915  1.00  0.00    -0.550 OA
ENDBRANCH   6   7
ENDBRANCH   5   6
ENDBRANCH   4   5
ENDBRANCH   3   4
ENDBRANCH   2   3
ENDBRANCH   1   2
BRANCH   1  10
ATOM     10  C   UNL     1      21.057  23.477  10.320  1.00  0.00     0.027 C 
BRANCH  10  11
ATOM     11  C   UNL     1      21.650  22.780   9.127  1.00  0.00    -0.031 C 
ATOM     12  C   UNL     1      21.011  22.743   7.948  1.00  0.00    -0.031 C 
BRANCH  12  13
ATOM     13  C   UNL     1      21.613  22.067   6.747  1.00  0.00     0.027 C 
BRANCH  13  14
ATOM     14  C   UNL     1      20.527  21.427   5.869  1.00  0.00     0.004 C 
BRANCH  14  15
ATOM     15  C   UNL     1      20.997  21.187   4.426  1.00  0.00     0.000 C 
BRANCH  15  16
ATOM     16  C   UNL     1      22.475  20.773   4.346  1.00  0.00    -0.000 C 
BRANCH  16  17
ATOM     17  C   UNL     1      22.634  19.265   4.572  1.00  0.00    -0.003 C 
ATOM     18  C   UNL     1      23.698  18.974   5.627  1.00  0.00     0.004 C 
ENDBRANCH  16  17
ENDBRANCH  15  16
ENDBRANCH  14  15
ENDBRANCH  13  14
ENDBRANCH  12  13
ENDBRANCH  10  11
ENDBRANCH   1  10
TORSDOF 13
ENDMDL
