MODEL 1
REMARK VINA RESULT:    -6.057      0.000      0.000
REMARK INTER + INTRA:          -7.597
REMARK INTER:                  -7.296
REMARK INTRA:                  -0.300
REMARK UNBOUND:                -0.300
REMARK SMILES O=c1c(O)c(-c2ccc(O)c(O)c2)oc2cc(O)cc(O)c12
REMARK SMILES IDX 5 1 3 2 2 3 1 4 22 5 20 6 19 7 17 8 16 9 15 10 14 11 6 12
REMARK SMILES IDX 7 13 8 14 9 15 13 16 11 17 10 18 12 20 4 22 21 24 18 26
REMARK H PARENT 10 19 12 21 4 23 21 25 18 27
REMARK Flexibility Score: inf
ROOT
ATOM      1  C   UNL     1      11.286  -6.230 -10.846  1.00  0.00     0.180 A 
ATOM      2  C   UNL     1      11.055  -6.476  -9.481  1.00  0.00     0.208 A 
ATOM      3  C   UNL     1       9.891  -7.161  -9.099  1.00  0.00     0.238 A 
ATOM      4  O   UNL     1       9.717  -7.424  -7.880  1.00  0.00    -0.285 OA
ATOM      5  C   UNL     1       8.963  -7.576 -10.084  1.00  0.00     0.111 A 
ATOM      6  C   UNL     1       7.732  -8.243  -9.807  1.00  0.00     0.134 A 
ATOM      7  C   UNL     1       6.953  -8.724 -10.866  1.00  0.00     0.093 A 
ATOM      8  C   UNL     1       7.328  -8.508 -12.191  1.00  0.00     0.123 A 
ATOM      9  C   UNL     1       8.502  -7.806 -12.474  1.00  0.00     0.094 A 
ATOM     10  C   UNL     1       9.317  -7.345 -11.439  1.00  0.00     0.146 A 
ATOM     11  O   UNL     1      10.429  -6.691 -11.750  1.00  0.00    -0.452 OA
ENDROOT
BRANCH   1  12
ATOM     12  C   UNL     1      12.477  -5.493 -11.325  1.00  0.00     0.025 A 
ATOM     13  C   UNL     1      13.722  -6.131 -11.473  1.00  0.00     0.016 A 
ATOM     14  C   UNL     1      14.838  -5.408 -11.903  1.00  0.00     0.051 A 
ATOM     15  C   UNL     1      14.730  -4.039 -12.179  1.00  0.00     0.157 A 
ATOM     16  C   UNL     1      12.380  -4.116 -11.584  1.00  0.00     0.062 A 
ATOM     17  C   UNL     1      13.500  -3.391 -12.017  1.00  0.00     0.158 A 
BRANCH  15  18
ATOM     18  O   UNL     1      15.841  -3.316 -12.611  1.00  0.00    -0.504 OA
ATOM     19  H   UNL     1      15.795  -2.709 -13.422  1.00  0.00     0.293 HD
ENDBRANCH  15  18
BRANCH  17  20
ATOM     20  O   UNL     1      13.397  -2.027 -12.285  1.00  0.00    -0.504 OA
ATOM     21  H   UNL     1      12.889  -1.682 -13.092  1.00  0.00     0.293 HD
ENDBRANCH  17  20
ENDBRANCH   1  12
BRANCH   2  22
ATOM     22  O   UNL     1      11.995  -6.075  -8.526  1.00  0.00    -0.502 OA
ATOM     23  H   UNL     1      12.259  -5.107  -8.396  1.00  0.00     0.293 HD
ENDBRANCH   2  22
BRANCH   6  24
ATOM     24  O   UNL     1       7.217  -8.429  -8.519  1.00  0.00    -0.507 OA
ATOM     25  H   UNL     1       6.305  -8.128  -8.216  1.00  0.00     0.293 HD
ENDBRANCH   6  24
BRANCH   8  26
ATOM     26  O   UNL     1       6.522  -8.988 -13.222  1.00  0.00    -0.508 OA
ATOM     27  H   UNL     1       6.869  -9.076 -14.170  1.00  0.00     0.293 HD
ENDBRANCH   8  26
TORSDOF 6
ENDMDL
MODEL 2
REMARK VINA RESULT:    -6.044      5.956      9.660
REMARK INTER + INTRA:          -7.580
REMARK INTER:                  -7.351
REMARK INTRA:                  -0.229
REMARK UNBOUND:                -0.300
REMARK SMILES O=c1c(O)c(-c2ccc(O)c(O)c2)oc2cc(O)cc(O)c12
REMARK SMILES IDX 5 1 3 2 2 3 1 4 22 5 20 6 19 7 17 8 16 9 15 10 14 11 6 12
REMARK SMILES IDX 7 13 8 14 9 15 13 16 11 17 10 18 12 20 4 22 21 24 18 26
REMARK H PARENT 10 19 12 21 4 23 21 25 18 27
REMARK Flexibility Score: inf
ROOT
ATOM      1  C   UNL     1      17.434  -1.308 -15.797  1.00  0.00     0.180 A 
ATOM      2  C   UNL     1      16.938  -0.155 -15.163  1.00  0.00     0.208 A 
ATOM      3  C   UNL     1      16.015  -0.298 -14.115  1.00  0.00     0.238 A 
ATOM      4  O   UNL     1      15.616   0.735 -13.516  1.00  0.00    -0.285 OA
ATOM      5  C   UNL     1      15.586  -1.589 -13.726  1.00  0.00     0.111 A 
ATOM      6  C   UNL     1      14.624  -1.849 -12.704  1.00  0.00     0.134 A 
ATOM      7  C   UNL     1      14.371  -3.169 -12.313  1.00  0.00     0.093 A 
ATOM      8  C   UNL     1      14.996  -4.241 -12.948  1.00  0.00     0.123 A 
ATOM      9  C   UNL     1      15.895  -4.000 -13.990  1.00  0.00     0.094 A 
ATOM     10  C   UNL     1      16.194  -2.693 -14.378  1.00  0.00     0.146 A 
ATOM     11  O   UNL     1      17.061  -2.507 -15.365  1.00  0.00    -0.452 OA
ENDROOT
BRANCH   1  12
ATOM     12  C   UNL     1      18.390  -1.238 -16.926  1.00  0.00     0.025 A 
ATOM     13  C   UNL     1      18.002  -1.573 -18.236  1.00  0.00     0.016 A 
ATOM     14  C   UNL     1      18.928  -1.522 -19.281  1.00  0.00     0.051 A 
ATOM     15  C   UNL     1      20.255  -1.150 -19.032  1.00  0.00     0.157 A 
ATOM     16  C   UNL     1      19.726  -0.885 -16.679  1.00  0.00     0.062 A 
ATOM     17  C   UNL     1      20.656  -0.833 -17.728  1.00  0.00     0.158 A 
BRANCH  15  18
ATOM     18  O   UNL     1      21.181  -1.096 -20.072  1.00  0.00    -0.504 OA
ATOM     19  H   UNL     1      21.701  -0.250 -20.275  1.00  0.00     0.293 HD
ENDBRANCH  15  18
BRANCH  17  20
ATOM     20  O   UNL     1      21.979  -0.469 -17.481  1.00  0.00    -0.504 OA
ATOM     21  H   UNL     1      22.261  -0.062 -16.596  1.00  0.00     0.293 HD
ENDBRANCH  17  20
ENDBRANCH   1  12
BRANCH   2  22
ATOM     22  O   UNL     1      17.392   1.110 -15.550  1.00  0.00    -0.502 OA
ATOM     23  H   UNL     1      18.374   1.323 -15.666  1.00  0.00     0.293 HD
ENDBRANCH   2  22
BRANCH   6  24
ATOM     24  O   UNL     1      13.873  -0.855 -12.067  1.00  0.00    -0.507 OA
ATOM     25  H   UNL     1      13.932  -0.631 -11.086  1.00  0.00     0.293 HD
ENDBRANCH   6  24
BRANCH   8  26
ATOM     26  O   UNL     1      14.710  -5.543 -12.544  1.00  0.00    -0.508 OA
ATOM     27  H   UNL     1      15.437  -6.244 -12.458  1.00  0.00     0.293 HD
ENDBRANCH   8  26
TORSDOF 6
ENDMDL
MODEL 3
REMARK VINA RESULT:    -5.961      2.374      3.989
REMARK INTER + INTRA:          -7.482
REMARK INTER:                  -7.906
REMARK INTRA:                   0.424
REMARK UNBOUND:                -0.300
REMARK SMILES O=c1c(O)c(-c2ccc(O)c(O)c2)oc2cc(O)cc(O)c12
REMARK SMILES IDX 5 1 3 2 2 3 1 4 22 5 20 6 19 7 17 8 16 9 15 10 14 11 6 12
REMARK SMILES IDX 7 13 8 14 9 15 13 16 11 17 10 18 12 20 4 22 21 24 18 26
REMARK H PARENT 10 19 12 21 4 23 21 25 18 27
REMARK Flexibility Score: inf
ROOT
ATOM      1  C   UNL     1      10.879  -6.896  -9.343  1.00  0.00     0.180 A 
ATOM      2  C   UNL     1      10.007  -7.970  -9.590  1.00  0.00     0.208 A 
ATOM      3  C   UNL     1       8.936  -8.195  -8.711  1.00  0.00     0.238 A 
ATOM      4  O   UNL     1       8.128  -9.125  -8.968  1.00  0.00    -0.285 OA
ATOM      5  C   UNL     1       8.760  -7.354  -7.587  1.00  0.00     0.111 A 
ATOM      6  C   UNL     1       7.733  -7.514  -6.608  1.00  0.00     0.134 A 
ATOM      7  C   UNL     1       7.574  -6.546  -5.609  1.00  0.00     0.093 A 
ATOM      8  C   UNL     1       8.443  -5.460  -5.514  1.00  0.00     0.123 A 
ATOM      9  C   UNL     1       9.487  -5.325  -6.431  1.00  0.00     0.094 A 
ATOM     10  C   UNL     1       9.650  -6.255  -7.459  1.00  0.00     0.146 A 
ATOM     11  O   UNL     1      10.649  -6.086  -8.316  1.00  0.00    -0.452 OA
ENDROOT
BRANCH   1  12
ATOM     12  C   UNL     1      12.045  -6.610 -10.210  1.00  0.00     0.025 A 
ATOM     13  C   UNL     1      12.476  -7.530 -11.183  1.00  0.00     0.016 A 
ATOM     14  C   UNL     1      13.593  -7.249 -11.974  1.00  0.00     0.051 A 
ATOM     15  C   UNL     1      14.304  -6.055 -11.795  1.00  0.00     0.157 A 
ATOM     16  C   UNL     1      12.773  -5.424 -10.021  1.00  0.00     0.062 A 
ATOM     17  C   UNL     1      13.894  -5.142 -10.815  1.00  0.00     0.158 A 
BRANCH  15  18
ATOM     18  O   UNL     1      15.418  -5.771 -12.583  1.00  0.00    -0.504 OA
ATOM     19  H   UNL     1      15.347  -5.190 -13.411  1.00  0.00     0.293 HD
ENDBRANCH  15  18
BRANCH  17  20
ATOM     20  O   UNL     1      14.607  -3.957 -10.634  1.00  0.00    -0.504 OA
ATOM     21  H   UNL     1      15.025  -3.721  -9.741  1.00  0.00     0.293 HD
ENDBRANCH  17  20
ENDBRANCH   1  12
BRANCH   2  22
ATOM     22  O   UNL     1      10.187  -8.776 -10.719  1.00  0.00    -0.502 OA
ATOM     23  H   UNL     1      10.995  -9.374 -10.837  1.00  0.00     0.293 HD
ENDBRANCH   2  22
BRANCH   6  24
ATOM     24  O   UNL     1       6.868  -8.611  -6.557  1.00  0.00    -0.507 OA
ATOM     25  H   UNL     1       6.755  -9.289  -7.294  1.00  0.00     0.293 HD
ENDBRANCH   6  24
BRANCH   8  26
ATOM     26  O   UNL     1       8.265  -4.523  -4.497  1.00  0.00    -0.508 OA
ATOM     27  H   UNL     1       7.752  -4.747  -3.653  1.00  0.00     0.293 HD
ENDBRANCH   8  26
TORSDOF 6
ENDMDL
MODEL 4
REMARK VINA RESULT:    -5.951     10.240     13.470
REMARK INTER + INTRA:          -7.469
REMARK INTER:                  -7.148
REMARK INTRA:                  -0.321
REMARK UNBOUND:                -0.300
REMARK SMILES O=c1c(O)c(-c2ccc(O)c(O)c2)oc2cc(O)cc(O)c12
REMARK SMILES IDX 5 1 3 2 2 3 1 4 22 5 20 6 19 7 17 8 16 9 15 10 14 11 6 12
REMARK SMILES IDX 7 13 8 14 9 15 13 16 11 17 10 18 12 20 4 22 21 24 18 26
REMARK H PARENT 10 19 12 21 4 23 21 25 18 27
REMARK Flexibility Score: inf
ROOT
ATOM      1  C   UNL     1       7.612   2.987 -17.118  1.00  0.00     0.180 A 
ATOM      2  C   UNL     1       7.953   4.225 -16.545  1.00  0.00     0.208 A 
ATOM      3  C   UNL     1       8.914   5.028 -17.179  1.00  0.00     0.238 A 
ATOM      4  O   UNL     1       9.176   6.158 -16.690  1.00  0.00    -0.285 OA
ATOM      5  C   UNL     1       9.535   4.576 -18.368  1.00  0.00     0.111 A 
ATOM      6  C   UNL     1      10.550   5.290 -19.073  1.00  0.00     0.134 A 
ATOM      7  C   UNL     1      11.000   4.810 -20.310  1.00  0.00     0.093 A 
ATOM      8  C   UNL     1      10.519   3.612 -20.835  1.00  0.00     0.123 A 
ATOM      9  C   UNL     1       9.568   2.876 -20.125  1.00  0.00     0.094 A 
ATOM     10  C   UNL     1       9.075   3.346 -18.907  1.00  0.00     0.146 A 
ATOM     11  O   UNL     1       8.164   2.622 -18.269  1.00  0.00    -0.452 OA
ENDROOT
BRANCH   1  12
ATOM     12  C   UNL     1       6.627   2.074 -16.495  1.00  0.00     0.025 A 
ATOM     13  C   UNL     1       5.250   2.199 -16.751  1.00  0.00     0.016 A 
ATOM     14  C   UNL     1       4.336   1.341 -16.132  1.00  0.00     0.051 A 
ATOM     15  C   UNL     1       4.783   0.357 -15.242  1.00  0.00     0.157 A 
ATOM     16  C   UNL     1       7.067   1.099 -15.586  1.00  0.00     0.062 A 
ATOM     17  C   UNL     1       6.151   0.237 -14.966  1.00  0.00     0.158 A 
BRANCH  15  18
ATOM     18  O   UNL     1       3.875  -0.503 -14.625  1.00  0.00    -0.504 OA
ATOM     19  H   UNL     1       3.579  -0.361 -13.666  1.00  0.00     0.293 HD
ENDBRANCH  15  18
BRANCH  17  20
ATOM     20  O   UNL     1       6.592  -0.739 -14.073  1.00  0.00    -0.504 OA
ATOM     21  H   UNL     1       6.654  -1.715 -14.342  1.00  0.00     0.293 HD
ENDBRANCH  17  20
ENDBRANCH   1  12
BRANCH   2  22
ATOM     22  O   UNL     1       7.312   4.661 -15.381  1.00  0.00    -0.502 OA
ATOM     23  H   UNL     1       6.305   4.671 -15.286  1.00  0.00     0.293 HD
ENDBRANCH   2  22
BRANCH   6  24
ATOM     24  O   UNL     1      11.166   6.450 -18.593  1.00  0.00    -0.507 OA
ATOM     25  H   UNL     1      10.725   7.354 -18.539  1.00  0.00     0.293 HD
ENDBRANCH   6  24
BRANCH   8  26
ATOM     26  O   UNL     1      11.000   3.156 -22.061  1.00  0.00    -0.508 OA
ATOM     27  H   UNL     1      11.975   3.253 -22.318  1.00  0.00     0.293 HD
ENDBRANCH   8  26
TORSDOF 6
ENDMDL
MODEL 5
REMARK VINA RESULT:    -5.913      5.948      9.312
REMARK INTER + INTRA:          -7.423
REMARK INTER:                  -7.781
REMARK INTRA:                   0.358
REMARK UNBOUND:                -0.300
REMARK SMILES O=c1c(O)c(-c2ccc(O)c(O)c2)oc2cc(O)cc(O)c12
REMARK SMILES IDX 5 1 3 2 2 3 1 4 22 5 20 6 19 7 17 8 16 9 15 10 14 11 6 12
REMARK SMILES IDX 7 13 8 14 9 15 13 16 11 17 10 18 12 20 4 22 21 24 18 26
REMARK H PARENT 10 19 12 21 4 23 21 25 18 27
REMARK Flexibility Score: inf
ROOT
ATOM      1  C   UNL     1      17.624  -3.237 -16.140  1.00  0.00     0.180 A 
ATOM      2  C   UNL     1      17.309  -4.607 -16.092  1.00  0.00     0.208 A 
ATOM      3  C   UNL     1      16.476  -5.078 -15.065  1.00  0.00     0.238 A 
ATOM      4  O   UNL     1      16.155  -6.295 -15.059  1.00  0.00    -0.285 OA
ATOM      5  C   UNL     1      15.983  -4.179 -14.090  1.00  0.00     0.111 A 
ATOM      6  C   UNL     1      15.163  -4.555 -12.983  1.00  0.00     0.134 A 
ATOM      7  C   UNL     1      14.625  -3.563 -12.154  1.00  0.00     0.093 A 
ATOM      8  C   UNL     1      14.927  -2.217 -12.353  1.00  0.00     0.123 A 
ATOM      9  C   UNL     1      15.774  -1.843 -13.398  1.00  0.00     0.094 A 
ATOM     10  C   UNL     1      16.298  -2.806 -14.262  1.00  0.00     0.146 A 
ATOM     11  O   UNL     1      17.092  -2.409 -15.250  1.00  0.00    -0.452 OA
ENDROOT
BRANCH   1  12
ATOM     12  C   UNL     1      18.515  -2.669 -17.177  1.00  0.00     0.025 A 
ATOM     13  C   UNL     1      18.716  -3.321 -18.407  1.00  0.00     0.016 A 
ATOM     14  C   UNL     1      19.581  -2.778 -19.361  1.00  0.00     0.051 A 
ATOM     15  C   UNL     1      20.266  -1.585 -19.096  1.00  0.00     0.157 A 
ATOM     16  C   UNL     1      19.219  -1.484 -16.910  1.00  0.00     0.062 A 
ATOM     17  C   UNL     1      20.087  -0.938 -17.867  1.00  0.00     0.158 A 
BRANCH  15  18
ATOM     18  O   UNL     1      21.127  -1.039 -20.046  1.00  0.00    -0.504 OA
ATOM     19  H   UNL     1      21.982  -1.510 -20.318  1.00  0.00     0.293 HD
ENDBRANCH  15  18
BRANCH  17  20
ATOM     20  O   UNL     1      20.775   0.246 -17.603  1.00  0.00    -0.504 OA
ATOM     21  H   UNL     1      20.624   1.082 -18.157  1.00  0.00     0.293 HD
ENDBRANCH  17  20
ENDBRANCH   1  12
BRANCH   2  22
ATOM     22  O   UNL     1      17.791  -5.474 -17.078  1.00  0.00    -0.502 OA
ATOM     23  H   UNL     1      17.189  -6.116 -17.577  1.00  0.00     0.293 HD
ENDBRANCH   2  22
BRANCH   6  24
ATOM     24  O   UNL     1      14.875  -5.879 -12.639  1.00  0.00    -0.507 OA
ATOM     25  H   UNL     1      14.584  -6.592 -13.289  1.00  0.00     0.293 HD
ENDBRANCH   6  24
BRANCH   8  26
ATOM     26  O   UNL     1      14.386  -1.256 -11.500  1.00  0.00    -0.508 OA
ATOM     27  H   UNL     1      13.386  -1.178 -11.356  1.00  0.00     0.293 HD
ENDBRANCH   8  26
TORSDOF 6
ENDMDL
MODEL 6
REMARK VINA RESULT:    -5.877      7.047     11.251
REMARK INTER + INTRA:          -7.379
REMARK INTER:                  -7.112
REMARK INTRA:                  -0.268
REMARK UNBOUND:                -0.300
REMARK SMILES O=c1c(O)c(-c2ccc(O)c(O)c2)oc2cc(O)cc(O)c12
REMARK SMILES IDX 5 1 3 2 2 3 1 4 22 5 20 6 19 7 17 8 16 9 15 10 14 11 6 12
REMARK SMILES IDX 7 13 8 14 9 15 13 16 11 17 10 18 12 20 4 22 21 24 18 26
REMARK H PARENT 10 19 12 21 4 23 21 25 18 27
REMARK Flexibility Score: inf
ROOT
ATOM      1  C   UNL     1      17.596  -4.215 -16.002  1.00  0.00     0.180 A 
ATOM      2  C   UNL     1      17.603  -3.066 -15.192  1.00  0.00     0.208 A 
ATOM      3  C   UNL     1      18.232  -1.903 -15.664  1.00  0.00     0.238 A 
ATOM      4  O   UNL     1      18.188  -0.862 -14.957  1.00  0.00    -0.285 OA
ATOM      5  C   UNL     1      18.861  -1.909 -16.932  1.00  0.00     0.111 A 
ATOM      6  C   UNL     1      19.563  -0.799 -17.492  1.00  0.00     0.134 A 
ATOM      7  C   UNL     1      20.035  -0.874 -18.809  1.00  0.00     0.093 A 
ATOM      8  C   UNL     1      19.887  -2.038 -19.561  1.00  0.00     0.123 A 
ATOM      9  C   UNL     1      19.254  -3.150 -19.002  1.00  0.00     0.094 A 
ATOM     10  C   UNL     1      18.742  -3.093 -17.704  1.00  0.00     0.146 A 
ATOM     11  O   UNL     1      18.138  -4.168 -17.213  1.00  0.00    -0.452 OA
ENDROOT
BRANCH   1  12
ATOM     12  C   UNL     1      16.975  -5.485 -15.563  1.00  0.00     0.025 A 
ATOM     13  C   UNL     1      17.583  -6.299 -14.589  1.00  0.00     0.016 A 
ATOM     14  C   UNL     1      16.990  -7.506 -14.208  1.00  0.00     0.051 A 
ATOM     15  C   UNL     1      15.792  -7.923 -14.801  1.00  0.00     0.157 A 
ATOM     16  C   UNL     1      15.785  -5.919 -16.168  1.00  0.00     0.062 A 
ATOM     17  C   UNL     1      15.189  -7.129 -15.785  1.00  0.00     0.158 A 
BRANCH  15  18
ATOM     18  O   UNL     1      15.197  -9.125 -14.422  1.00  0.00    -0.504 OA
ATOM     19  H   UNL     1      14.609  -9.649 -15.059  1.00  0.00     0.293 HD
ENDBRANCH  15  18
BRANCH  17  20
ATOM     20  O   UNL     1      14.000  -7.550 -16.380  1.00  0.00    -0.504 OA
ATOM     21  H   UNL     1      13.317  -6.887 -16.728  1.00  0.00     0.293 HD
ENDBRANCH  17  20
ENDBRANCH   1  12
BRANCH   2  22
ATOM     22  O   UNL     1      16.957  -3.076 -13.952  1.00  0.00    -0.502 OA
ATOM     23  H   UNL     1      15.951  -3.148 -13.863  1.00  0.00     0.293 HD
ENDBRANCH   2  22
BRANCH   6  24
ATOM     24  O   UNL     1      19.847   0.379 -16.794  1.00  0.00    -0.507 OA
ATOM     25  H   UNL     1      20.496   0.449 -16.026  1.00  0.00     0.293 HD
ENDBRANCH   6  24
BRANCH   8  26
ATOM     26  O   UNL     1      20.382  -2.083 -20.863  1.00  0.00    -0.508 OA
ATOM     27  H   UNL     1      20.312  -2.922 -21.428  1.00  0.00     0.293 HD
ENDBRANCH   8  26
TORSDOF 6
ENDMDL
MODEL 7
REMARK VINA RESULT:    -5.866     12.722     15.537
REMARK INTER + INTRA:          -7.366
REMARK INTER:                  -7.056
REMARK INTRA:                  -0.310
REMARK UNBOUND:                -0.300
REMARK SMILES O=c1c(O)c(-c2ccc(O)c(O)c2)oc2cc(O)cc(O)c12
REMARK SMILES IDX 5 1 3 2 2 3 1 4 22 5 20 6 19 7 17 8 16 9 15 10 14 11 6 12
REMARK SMILES IDX 7 13 8 14 9 15 13 16 11 17 10 18 12 20 4 22 21 24 18 26
REMARK H PARENT 10 19 12 21 4 23 21 25 18 27
REMARK Flexibility Score: inf
ROOT
ATOM      1  C   UNL     1      12.161   4.909 -18.634  1.00  0.00     0.180 A 
ATOM      2  C   UNL     1      13.178   4.266 -17.905  1.00  0.00     0.208 A 
ATOM      3  C   UNL     1      14.260   5.025 -17.431  1.00  0.00     0.238 A 
ATOM      4  O   UNL     1      15.139   4.454 -16.734  1.00  0.00    -0.285 OA
ATOM      5  C   UNL     1      14.320   6.412 -17.705  1.00  0.00     0.111 A 
ATOM      6  C   UNL     1      15.390   7.270 -17.306  1.00  0.00     0.134 A 
ATOM      7  C   UNL     1      15.284   8.650 -17.518  1.00  0.00     0.093 A 
ATOM      8  C   UNL     1      14.178   9.196 -18.168  1.00  0.00     0.123 A 
ATOM      9  C   UNL     1      13.153   8.359 -18.614  1.00  0.00     0.094 A 
ATOM     10  C   UNL     1      13.214   6.983 -18.386  1.00  0.00     0.146 A 
ATOM     11  O   UNL     1      12.215   6.223 -18.817  1.00  0.00    -0.452 OA
ENDROOT
BRANCH   1  12
ATOM     12  C   UNL     1      11.002   4.173 -19.188  1.00  0.00     0.025 A 
ATOM     13  C   UNL     1      11.106   3.438 -20.383  1.00  0.00     0.016 A 
ATOM     14  C   UNL     1       9.992   2.771 -20.900  1.00  0.00     0.051 A 
ATOM     15  C   UNL     1       8.759   2.838 -20.239  1.00  0.00     0.157 A 
ATOM     16  C   UNL     1       9.759   4.253 -18.541  1.00  0.00     0.062 A 
ATOM     17  C   UNL     1       8.641   3.583 -19.059  1.00  0.00     0.158 A 
BRANCH  15  18
ATOM     18  O   UNL     1       7.646   2.172 -20.750  1.00  0.00    -0.504 OA
ATOM     19  H   UNL     1       6.804   2.046 -20.200  1.00  0.00     0.293 HD
ENDBRANCH  15  18
BRANCH  17  20
ATOM     20  O   UNL     1       7.410   3.654 -18.407  1.00  0.00    -0.504 OA
ATOM     21  H   UNL     1       6.762   2.874 -18.412  1.00  0.00     0.293 HD
ENDBRANCH  17  20
ENDBRANCH   1  12
BRANCH   2  22
ATOM     22  O   UNL     1      13.087   2.899 -17.628  1.00  0.00    -0.502 OA
ATOM     23  H   UNL     1      13.444   2.191 -18.258  1.00  0.00     0.293 HD
ENDBRANCH   2  22
BRANCH   6  24
ATOM     24  O   UNL     1      16.582   6.817 -16.732  1.00  0.00    -0.507 OA
ATOM     25  H   UNL     1      16.687   6.543 -15.768  1.00  0.00     0.293 HD
ENDBRANCH   6  24
BRANCH   8  26
ATOM     26  O   UNL     1      14.111  10.572 -18.375  1.00  0.00    -0.508 OA
ATOM     27  H   UNL     1      13.773  10.961 -19.248  1.00  0.00     0.293 HD
ENDBRANCH   8  26
TORSDOF 6
ENDMDL
MODEL 8
REMARK VINA RESULT:    -5.825      5.094     10.139
REMARK INTER + INTRA:          -7.317
REMARK INTER:                  -7.096
REMARK INTRA:                  -0.220
REMARK UNBOUND:                -0.300
REMARK SMILES O=c1c(O)c(-c2ccc(O)c(O)c2)oc2cc(O)cc(O)c12
REMARK SMILES IDX 5 1 3 2 2 3 1 4 22 5 20 6 19 7 17 8 16 9 15 10 14 11 6 12
REMARK SMILES IDX 7 13 8 14 9 15 13 16 11 17 10 18 12 20 4 22 21 24 18 26
REMARK H PARENT 10 19 12 21 4 23 21 25 18 27
REMARK Flexibility Score: inf
ROOT
ATOM      1  C   UNL     1      16.650  -2.717 -14.221  1.00  0.00     0.180 A 
ATOM      2  C   UNL     1      16.924  -1.341 -14.313  1.00  0.00     0.208 A 
ATOM      3  C   UNL     1      17.686  -0.869 -15.393  1.00  0.00     0.238 A 
ATOM      4  O   UNL     1      17.882   0.370 -15.499  1.00  0.00    -0.285 OA
ATOM      5  C   UNL     1      18.180  -1.780 -16.357  1.00  0.00     0.111 A 
ATOM      6  C   UNL     1      18.997  -1.417 -17.470  1.00  0.00     0.134 A 
ATOM      7  C   UNL     1      19.320  -2.381 -18.433  1.00  0.00     0.093 A 
ATOM      8  C   UNL     1      18.911  -3.705 -18.291  1.00  0.00     0.123 A 
ATOM      9  C   UNL     1      18.161  -4.084 -17.175  1.00  0.00     0.094 A 
ATOM     10  C   UNL     1      17.794  -3.138 -16.217  1.00  0.00     0.146 A 
ATOM     11  O   UNL     1      17.072  -3.536 -15.176  1.00  0.00    -0.452 OA
ENDROOT
BRANCH   1  12
ATOM     12  C   UNL     1      15.874  -3.293 -13.099  1.00  0.00     0.025 A 
ATOM     13  C   UNL     1      16.486  -4.107 -12.128  1.00  0.00     0.016 A 
ATOM     14  C   UNL     1      15.729  -4.659 -11.092  1.00  0.00     0.051 A 
ATOM     15  C   UNL     1      14.351  -4.418 -11.017  1.00  0.00     0.157 A 
ATOM     16  C   UNL     1      14.490  -3.071 -13.029  1.00  0.00     0.062 A 
ATOM     17  C   UNL     1      13.730  -3.624 -11.989  1.00  0.00     0.158 A 
BRANCH  15  18
ATOM     18  O   UNL     1      13.593  -4.965  -9.983  1.00  0.00    -0.504 OA
ATOM     19  H   UNL     1      13.806  -5.877  -9.595  1.00  0.00     0.293 HD
ENDBRANCH  15  18
BRANCH  17  20
ATOM     20  O   UNL     1      12.357  -3.391 -11.916  1.00  0.00    -0.504 OA
ATOM     21  H   UNL     1      11.875  -2.836 -12.614  1.00  0.00     0.293 HD
ENDBRANCH  17  20
ENDBRANCH   1  12
BRANCH   2  22
ATOM     22  O   UNL     1      16.408  -0.456 -13.361  1.00  0.00    -0.502 OA
ATOM     23  H   UNL     1      16.058   0.462 -13.605  1.00  0.00     0.293 HD
ENDBRANCH   2  22
BRANCH   6  24
ATOM     24  O   UNL     1      19.537  -0.140 -17.659  1.00  0.00    -0.507 OA
ATOM     25  H   UNL     1      19.994   0.402 -16.943  1.00  0.00     0.293 HD
ENDBRANCH   6  24
BRANCH   8  26
ATOM     26  O   UNL     1      19.263  -4.643 -19.261  1.00  0.00    -0.508 OA
ATOM     27  H   UNL     1      19.707  -5.520 -19.014  1.00  0.00     0.293 HD
ENDBRANCH   8  26
TORSDOF 6
ENDMDL
MODEL 9
REMARK VINA RESULT:    -5.798     12.532     14.386
REMARK INTER + INTRA:          -7.285
REMARK INTER:                  -7.174
REMARK INTRA:                  -0.111
REMARK UNBOUND:                -0.300
REMARK SMILES O=c1c(O)c(-c2ccc(O)c(O)c2)oc2cc(O)cc(O)c12
REMARK SMILES IDX 5 1 3 2 2 3 1 4 22 5 20 6 19 7 17 8 16 9 15 10 14 11 6 12
REMARK SMILES IDX 7 13 8 14 9 15 13 16 11 17 10 18 12 20 4 22 21 24 18 26
REMARK H PARENT 10 19 12 21 4 23 21 25 18 27
REMARK Flexibility Score: inf
ROOT
ATOM      1  C   UNL     1       4.738   5.551 -10.934  1.00  0.00     0.180 A 
ATOM      2  C   UNL     1       4.620   6.951 -10.897  1.00  0.00     0.208 A 
ATOM      3  C   UNL     1       4.416   7.650 -12.098  1.00  0.00     0.238 A 
ATOM      4  O   UNL     1       4.257   8.898 -12.052  1.00  0.00    -0.285 OA
ATOM      5  C   UNL     1       4.351   6.942 -13.322  1.00  0.00     0.111 A 
ATOM      6  C   UNL     1       4.188   7.551 -14.602  1.00  0.00     0.134 A 
ATOM      7  C   UNL     1       4.006   6.745 -15.733  1.00  0.00     0.093 A 
ATOM      8  C   UNL     1       4.045   5.355 -15.639  1.00  0.00     0.123 A 
ATOM      9  C   UNL     1       4.263   4.749 -14.401  1.00  0.00     0.094 A 
ATOM     10  C   UNL     1       4.412   5.526 -13.250  1.00  0.00     0.146 A 
ATOM     11  O   UNL     1       4.607   4.911 -12.090  1.00  0.00    -0.452 OA
ENDROOT
BRANCH   1  12
ATOM     12  C   UNL     1       4.979   4.747  -9.714  1.00  0.00     0.025 A 
ATOM     13  C   UNL     1       4.071   4.758  -8.640  1.00  0.00     0.016 A 
ATOM     14  C   UNL     1       4.331   4.011  -7.488  1.00  0.00     0.051 A 
ATOM     15  C   UNL     1       5.505   3.253  -7.388  1.00  0.00     0.157 A 
ATOM     16  C   UNL     1       6.163   4.002  -9.600  1.00  0.00     0.062 A 
ATOM     17  C   UNL     1       6.424   3.250  -8.445  1.00  0.00     0.158 A 
BRANCH  15  18
ATOM     18  O   UNL     1       5.767   2.504  -6.242  1.00  0.00    -0.504 OA
ATOM     19  H   UNL     1       5.142   2.519  -5.445  1.00  0.00     0.293 HD
ENDBRANCH  15  18
BRANCH  17  20
ATOM     20  O   UNL     1       7.595   2.501  -8.339  1.00  0.00    -0.504 OA
ATOM     21  H   UNL     1       7.758   1.687  -8.921  1.00  0.00     0.293 HD
ENDBRANCH  17  20
ENDBRANCH   1  12
BRANCH   2  22
ATOM     22  O   UNL     1       4.666   7.629  -9.675  1.00  0.00    -0.502 OA
ATOM     23  H   UNL     1       5.369   7.436  -8.973  1.00  0.00     0.293 HD
ENDBRANCH   2  22
BRANCH   6  24
ATOM     24  O   UNL     1       4.227   8.932 -14.821  1.00  0.00    -0.507 OA
ATOM     25  H   UNL     1       4.937   9.551 -14.461  1.00  0.00     0.293 HD
ENDBRANCH   6  24
BRANCH   8  26
ATOM     26  O   UNL     1       3.875   4.583 -16.787  1.00  0.00    -0.508 OA
ATOM     27  H   UNL     1       3.354   4.926 -17.585  1.00  0.00     0.293 HD
ENDBRANCH   8  26
TORSDOF 6
ENDMDL
