MODEL 1
REMARK VINA RESULT:    -3.904      0.000      0.000
REMARK INTER + INTRA:          -5.374
REMARK INTER:                  -5.273
REMARK INTRA:                  -0.101
REMARK UNBOUND:                -0.101
REMARK SMILES [NH3+]CCCC[C@H]([NH3+])C(=O)[O-]
REMARK SMILES IDX 4 1 3 2 2 3 1 4 5 8 6 9 7 10 8 14 9 15 10 16
REMARK H PARENT 1 5 1 6 1 7 7 11 7 12 7 13
REMARK Flexibility Score: inf
ROOT
ATOM      1  C   UNL     1      25.656  26.966  23.418  1.00  0.00     0.012 C 
ENDROOT
BRANCH   1   2
ATOM      2  C   UNL     1      25.870  28.453  23.742  1.00  0.00     0.061 C 
BRANCH   2   3
ATOM      3  C   UNL     1      24.539  29.139  24.081  1.00  0.00     0.258 C 
BRANCH   3   4
ATOM      4  N   UNL     1      24.222  30.177  23.102  1.00  0.00    -0.358 N 
ATOM      5  H   UNL     1      24.827  31.016  23.257  1.00  0.00     0.344 HD
ATOM      6  H   UNL     1      24.398  29.806  22.141  1.00  0.00     0.344 HD
ATOM      7  H   UNL     1      23.215  30.449  23.181  1.00  0.00     0.344 HD
ENDBRANCH   3   4
ENDBRANCH   2   3
ENDBRANCH   1   2
BRANCH   1   8
ATOM      8  C   UNL     1      26.975  26.206  23.187  1.00  0.00     0.072 C 
BRANCH   8   9
ATOM      9  C   UNL     1      27.901  26.821  22.111  1.00  0.00     0.227 C 
BRANCH   9  10
ATOM     10  N   UNL     1      27.282  26.801  20.778  1.00  0.00    -0.350 N 
ATOM     11  H   UNL     1      26.287  26.485  20.851  1.00  0.00     0.345 HD
ATOM     12  H   UNL     1      27.782  26.122  20.161  1.00  0.00     0.345 HD
ATOM     13  H   UNL     1      27.308  27.752  20.342  1.00  0.00     0.345 HD
ENDBRANCH   9  10
BRANCH   9  14
ATOM     14  C   UNL     1      29.208  26.072  22.090  1.00  0.00     0.099 C 
ATOM     15  O   UNL     1      29.232  24.836  21.843  1.00  0.00    -0.544 OA
ATOM     16  O   UNL     1      30.394  26.737  22.373  1.00  0.00    -0.544 OA
ENDBRANCH   9  14
ENDBRANCH   8   9
ENDBRANCH   1   8
TORSDOF 7
ENDMDL
MODEL 2
REMARK VINA RESULT:    -3.835      3.075      5.200
REMARK INTER + INTRA:          -5.281
REMARK INTER:                  -5.145
REMARK INTRA:                  -0.136
REMARK UNBOUND:                -0.101
REMARK SMILES [NH3+]CCCC[C@H]([NH3+])C(=O)[O-]
REMARK SMILES IDX 4 1 3 2 2 3 1 4 5 8 6 9 7 10 8 14 9 15 10 16
REMARK H PARENT 1 5 1 6 1 7 7 11 7 12 7 13
REMARK Flexibility Score: inf
ROOT
ATOM      1  C   UNL     1      30.257  25.268  22.341  1.00  0.00     0.012 C 
ENDROOT
BRANCH   1   2
ATOM      2  C   UNL     1      31.660  25.584  22.882  1.00  0.00     0.061 C 
BRANCH   2   3
ATOM      3  C   UNL     1      31.662  25.626  24.416  1.00  0.00     0.258 C 
BRANCH   3   4
ATOM      4  N   UNL     1      31.880  24.294  24.976  1.00  0.00    -0.358 N 
ATOM      5  H   UNL     1      32.042  23.602  24.208  1.00  0.00     0.344 HD
ATOM      6  H   UNL     1      32.723  24.316  25.594  1.00  0.00     0.344 HD
ATOM      7  H   UNL     1      31.052  24.003  25.545  1.00  0.00     0.344 HD
ENDBRANCH   3   4
ENDBRANCH   2   3
ENDBRANCH   1   2
BRANCH   1   8
ATOM      8  C   UNL     1      29.454  26.531  21.980  1.00  0.00     0.072 C 
BRANCH   8   9
ATOM      9  C   UNL     1      27.920  26.394  22.136  1.00  0.00     0.227 C 
BRANCH   9  10
ATOM     10  N   UNL     1      27.205  26.815  20.922  1.00  0.00    -0.350 N 
ATOM     11  H   UNL     1      26.233  27.117  21.167  1.00  0.00     0.345 HD
ATOM     12  H   UNL     1      27.126  26.014  20.257  1.00  0.00     0.345 HD
ATOM     13  H   UNL     1      27.702  27.608  20.455  1.00  0.00     0.345 HD
ENDBRANCH   9  10
BRANCH   9  14
ATOM     14  C   UNL     1      27.464  27.207  23.319  1.00  0.00     0.099 C 
ATOM     15  O   UNL     1      26.446  27.945  23.233  1.00  0.00    -0.544 OA
ATOM     16  O   UNL     1      28.184  27.170  24.506  1.00  0.00    -0.544 OA
ENDBRANCH   9  14
ENDBRANCH   8   9
ENDBRANCH   1   8
TORSDOF 7
ENDMDL
MODEL 3
REMARK VINA RESULT:    -3.781      2.013      2.604
REMARK INTER + INTRA:          -5.209
REMARK INTER:                  -5.072
REMARK INTRA:                  -0.136
REMARK UNBOUND:                -0.101
REMARK SMILES [NH3+]CCCC[C@H]([NH3+])C(=O)[O-]
REMARK SMILES IDX 4 1 3 2 2 3 1 4 5 8 6 9 7 10 8 14 9 15 10 16
REMARK H PARENT 1 5 1 6 1 7 7 11 7 12 7 13
REMARK Flexibility Score: inf
ROOT
ATOM      1  C   UNL     1      25.782  26.698  23.310  1.00  0.00     0.012 C 
ENDROOT
BRANCH   1   2
ATOM      2  C   UNL     1      25.156  26.111  24.584  1.00  0.00     0.061 C 
BRANCH   2   3
ATOM      3  C   UNL     1      24.562  24.721  24.315  1.00  0.00     0.258 C 
BRANCH   3   4
ATOM      4  N   UNL     1      25.216  24.084  23.173  1.00  0.00    -0.358 N 
ATOM      5  H   UNL     1      26.120  24.565  22.962  1.00  0.00     0.344 HD
ATOM      6  H   UNL     1      25.412  23.084  23.405  1.00  0.00     0.344 HD
ATOM      7  H   UNL     1      24.591  24.121  22.335  1.00  0.00     0.344 HD
ENDBRANCH   3   4
ENDBRANCH   2   3
ENDBRANCH   1   2
BRANCH   1   8
ATOM      8  C   UNL     1      27.262  27.083  23.489  1.00  0.00     0.072 C 
BRANCH   8   9
ATOM      9  C   UNL     1      28.123  26.970  22.209  1.00  0.00     0.227 C 
BRANCH   9  10
ATOM     10  N   UNL     1      27.301  26.730  21.014  1.00  0.00    -0.350 N 
ATOM     11  H   UNL     1      27.917  26.560  20.185  1.00  0.00     0.345 HD
ATOM     12  H   UNL     1      26.720  27.572  20.804  1.00  0.00     0.345 HD
ATOM     13  H   UNL     1      26.678  25.902  21.151  1.00  0.00     0.345 HD
ENDBRANCH   9  10
BRANCH   9  14
ATOM     14  C   UNL     1      29.129  25.862  22.380  1.00  0.00     0.099 C 
ATOM     15  O   UNL     1      29.157  24.893  21.575  1.00  0.00    -0.544 OA
ATOM     16  O   UNL     1      30.016  25.889  23.450  1.00  0.00    -0.544 OA
ENDBRANCH   9  14
ENDBRANCH   8   9
ENDBRANCH   1   8
TORSDOF 7
ENDMDL
MODEL 4
REMARK VINA RESULT:    -3.554      2.762      3.287
REMARK INTER + INTRA:          -4.901
REMARK INTER:                  -4.377
REMARK INTRA:                  -0.524
REMARK UNBOUND:                -0.101
REMARK SMILES [NH3+]CCCC[C@H]([NH3+])C(=O)[O-]
REMARK SMILES IDX 4 1 3 2 2 3 1 4 5 8 6 9 7 10 8 14 9 15 10 16
REMARK H PARENT 1 5 1 6 1 7 7 11 7 12 7 13
REMARK Flexibility Score: inf
ROOT
ATOM      1  C   UNL     1      27.318  29.073  23.958  1.00  0.00     0.012 C 
ENDROOT
BRANCH   1   2
ATOM      2  C   UNL     1      26.338  29.922  24.782  1.00  0.00     0.061 C 
BRANCH   2   3
ATOM      3  C   UNL     1      25.357  30.671  23.870  1.00  0.00     0.258 C 
BRANCH   3   4
ATOM      4  N   UNL     1      24.394  29.749  23.269  1.00  0.00    -0.358 N 
ATOM      5  H   UNL     1      23.629  29.534  23.948  1.00  0.00     0.344 HD
ATOM      6  H   UNL     1      23.977  30.196  22.420  1.00  0.00     0.344 HD
ATOM      7  H   UNL     1      24.874  28.865  22.983  1.00  0.00     0.344 HD
ENDBRANCH   3   4
ENDBRANCH   2   3
ENDBRANCH   1   2
BRANCH   1   8
ATOM      8  C   UNL     1      27.368  27.603  24.413  1.00  0.00     0.072 C 
BRANCH   8   9
ATOM      9  C   UNL     1      26.745  26.593  23.419  1.00  0.00     0.227 C 
BRANCH   9  10
ATOM     10  N   UNL     1      26.553  27.182  22.086  1.00  0.00    -0.350 N 
ATOM     11  H   UNL     1      27.481  27.420  21.663  1.00  0.00     0.345 HD
ATOM     12  H   UNL     1      26.008  28.070  22.162  1.00  0.00     0.345 HD
ATOM     13  H   UNL     1      26.051  26.518  21.454  1.00  0.00     0.345 HD
ENDBRANCH   9  10
BRANCH   9  14
ATOM     14  C   UNL     1      25.431  26.101  23.965  1.00  0.00     0.099 C 
ATOM     15  O   UNL     1      24.667  26.881  24.595  1.00  0.00    -0.544 OA
ATOM     16  O   UNL     1      25.065  24.770  23.802  1.00  0.00    -0.544 OA
ENDBRANCH   9  14
ENDBRANCH   8   9
ENDBRANCH   1   8
TORSDOF 7
ENDMDL
MODEL 5
REMARK VINA RESULT:    -3.523      2.024      2.904
REMARK INTER + INTRA:          -4.859
REMARK INTER:                  -4.408
REMARK INTRA:                  -0.451
REMARK UNBOUND:                -0.101
REMARK SMILES [NH3+]CCCC[C@H]([NH3+])C(=O)[O-]
REMARK SMILES IDX 4 1 3 2 2 3 1 4 5 8 6 9 7 10 8 14 9 15 10 16
REMARK H PARENT 1 5 1 6 1 7 7 11 7 12 7 13
REMARK Flexibility Score: inf
ROOT
ATOM      1  C   UNL     1      28.205  28.387  23.803  1.00  0.00     0.012 C 
ENDROOT
BRANCH   1   2
ATOM      2  C   UNL     1      26.782  27.939  23.432  1.00  0.00     0.061 C 
BRANCH   2   3
ATOM      3  C   UNL     1      26.809  26.636  22.623  1.00  0.00     0.258 C 
BRANCH   3   4
ATOM      4  N   UNL     1      27.067  26.902  21.209  1.00  0.00    -0.358 N 
ATOM      5  H   UNL     1      26.288  26.523  20.623  1.00  0.00     0.344 HD
ATOM      6  H   UNL     1      27.128  27.936  21.062  1.00  0.00     0.344 HD
ATOM      7  H   UNL     1      27.972  26.465  20.921  1.00  0.00     0.344 HD
ENDBRANCH   3   4
ENDBRANCH   2   3
ENDBRANCH   1   2
BRANCH   1   8
ATOM      8  C   UNL     1      29.129  27.211  24.166  1.00  0.00     0.072 C 
BRANCH   8   9
ATOM      9  C   UNL     1      30.368  27.051  23.252  1.00  0.00     0.227 C 
BRANCH   9  10
ATOM     10  N   UNL     1      30.295  27.923  22.071  1.00  0.00    -0.350 N 
ATOM     11  H   UNL     1      29.893  28.852  22.338  1.00  0.00     0.345 HD
ATOM     12  H   UNL     1      29.662  27.503  21.354  1.00  0.00     0.345 HD
ATOM     13  H   UNL     1      31.244  28.068  21.657  1.00  0.00     0.345 HD
ENDBRANCH   9  10
BRANCH   9  14
ATOM     14  C   UNL     1      30.495  25.611  22.830  1.00  0.00     0.099 C 
ATOM     15  O   UNL     1      31.272  24.831  23.441  1.00  0.00    -0.544 OA
ATOM     16  O   UNL     1      29.772  25.141  21.740  1.00  0.00    -0.544 OA
ENDBRANCH   9  14
ENDBRANCH   8   9
ENDBRANCH   1   8
TORSDOF 7
ENDMDL
MODEL 6
REMARK VINA RESULT:    -3.519      3.358      4.978
REMARK INTER + INTRA:          -4.854
REMARK INTER:                  -4.652
REMARK INTRA:                  -0.203
REMARK UNBOUND:                -0.101
REMARK SMILES [NH3+]CCCC[C@H]([NH3+])C(=O)[O-]
REMARK SMILES IDX 4 1 3 2 2 3 1 4 5 8 6 9 7 10 8 14 9 15 10 16
REMARK H PARENT 1 5 1 6 1 7 7 11 7 12 7 13
REMARK Flexibility Score: inf
ROOT
ATOM      1  C   UNL     1      27.708  27.133  24.016  1.00  0.00     0.012 C 
ENDROOT
BRANCH   1   2
ATOM      2  C   UNL     1      28.674  26.945  22.836  1.00  0.00     0.061 C 
BRANCH   2   3
ATOM      3  C   UNL     1      28.061  26.034  21.763  1.00  0.00     0.258 C 
BRANCH   3   4
ATOM      4  N   UNL     1      27.232  26.802  20.836  1.00  0.00    -0.358 N 
ATOM      5  H   UNL     1      27.378  27.827  20.986  1.00  0.00     0.344 HD
ATOM      6  H   UNL     1      27.505  26.563  19.855  1.00  0.00     0.344 HD
ATOM      7  H   UNL     1      26.223  26.564  20.974  1.00  0.00     0.344 HD
ENDBRANCH   3   4
ENDBRANCH   2   3
ENDBRANCH   1   2
BRANCH   1   8
ATOM      8  C   UNL     1      27.119  28.553  24.091  1.00  0.00     0.072 C 
BRANCH   8   9
ATOM      9  C   UNL     1      25.579  28.612  24.234  1.00  0.00     0.227 C 
BRANCH   9  10
ATOM     10  N   UNL     1      24.909  27.652  23.346  1.00  0.00    -0.350 N 
ATOM     11  H   UNL     1      25.196  27.821  22.354  1.00  0.00     0.345 HD
ATOM     12  H   UNL     1      23.873  27.780  23.397  1.00  0.00     0.345 HD
ATOM     13  H   UNL     1      25.152  26.669  23.609  1.00  0.00     0.345 HD
ENDBRANCH   9  10
BRANCH   9  14
ATOM     14  C   UNL     1      25.104  30.011  23.942  1.00  0.00     0.099 C 
ATOM     15  O   UNL     1      25.932  30.950  23.793  1.00  0.00    -0.544 OA
ATOM     16  O   UNL     1      23.743  30.281  23.864  1.00  0.00    -0.544 OA
ENDBRANCH   9  14
ENDBRANCH   8   9
ENDBRANCH   1   8
TORSDOF 7
ENDMDL
MODEL 7
REMARK VINA RESULT:    -3.476      3.697      4.693
REMARK INTER + INTRA:          -4.796
REMARK INTER:                  -4.583
REMARK INTRA:                  -0.213
REMARK UNBOUND:                -0.101
REMARK SMILES [NH3+]CCCC[C@H]([NH3+])C(=O)[O-]
REMARK SMILES IDX 4 1 3 2 2 3 1 4 5 8 6 9 7 10 8 14 9 15 10 16
REMARK H PARENT 1 5 1 6 1 7 7 11 7 12 7 13
REMARK Flexibility Score: inf
ROOT
ATOM      1  C   UNL     1      29.763  25.925  22.945  1.00  0.00     0.012 C 
ENDROOT
BRANCH   1   2
ATOM      2  C   UNL     1      29.086  25.261  21.736  1.00  0.00     0.061 C 
BRANCH   2   3
ATOM      3  C   UNL     1      28.673  26.308  20.693  1.00  0.00     0.258 C 
BRANCH   3   4
ATOM      4  N   UNL     1      27.324  26.806  20.956  1.00  0.00    -0.358 N 
ATOM      5  H   UNL     1      27.287  27.841  20.808  1.00  0.00     0.344 HD
ATOM      6  H   UNL     1      26.655  26.346  20.298  1.00  0.00     0.344 HD
ATOM      7  H   UNL     1      27.043  26.579  21.938  1.00  0.00     0.344 HD
ENDBRANCH   3   4
ENDBRANCH   2   3
ENDBRANCH   1   2
BRANCH   1   8
ATOM      8  C   UNL     1      31.298  25.967  22.827  1.00  0.00     0.072 C 
BRANCH   8   9
ATOM      9  C   UNL     1      31.956  27.263  23.358  1.00  0.00     0.227 C 
BRANCH   9  10
ATOM     10  N   UNL     1      31.918  27.336  24.826  1.00  0.00    -0.350 N 
ATOM     11  H   UNL     1      32.824  26.995  25.225  1.00  0.00     0.345 HD
ATOM     12  H   UNL     1      31.162  26.716  25.195  1.00  0.00     0.345 HD
ATOM     13  H   UNL     1      31.751  28.317  25.145  1.00  0.00     0.345 HD
ENDBRANCH   9  10
BRANCH   9  14
ATOM     14  C   UNL     1      31.262  28.458  22.759  1.00  0.00     0.099 C 
ATOM     15  O   UNL     1      30.626  29.262  23.491  1.00  0.00    -0.544 OA
ATOM     16  O   UNL     1      31.296  28.664  21.385  1.00  0.00    -0.544 OA
ENDBRANCH   9  14
ENDBRANCH   8   9
ENDBRANCH   1   8
TORSDOF 7
ENDMDL
MODEL 8
REMARK VINA RESULT:    -3.473      2.854      4.526
REMARK INTER + INTRA:          -4.792
REMARK INTER:                  -4.701
REMARK INTRA:                  -0.091
REMARK UNBOUND:                -0.101
REMARK SMILES [NH3+]CCCC[C@H]([NH3+])C(=O)[O-]
REMARK SMILES IDX 4 1 3 2 2 3 1 4 5 8 6 9 7 10 8 14 9 15 10 16
REMARK H PARENT 1 5 1 6 1 7 7 11 7 12 7 13
REMARK Flexibility Score: inf
ROOT
ATOM      1  C   UNL     1      29.921  25.845  22.511  1.00  0.00     0.012 C 
ENDROOT
BRANCH   1   2
ATOM      2  C   UNL     1      31.241  26.584  22.779  1.00  0.00     0.061 C 
BRANCH   2   3
ATOM      3  C   UNL     1      31.018  28.100  22.858  1.00  0.00     0.258 C 
BRANCH   3   4
ATOM      4  N   UNL     1      31.009  28.698  21.523  1.00  0.00    -0.358 N 
ATOM      5  H   UNL     1      30.178  28.364  20.985  1.00  0.00     0.344 HD
ATOM      6  H   UNL     1      30.958  29.738  21.615  1.00  0.00     0.344 HD
ATOM      7  H   UNL     1      31.886  28.446  21.012  1.00  0.00     0.344 HD
ENDBRANCH   3   4
ENDBRANCH   2   3
ENDBRANCH   1   2
BRANCH   1   8
ATOM      8  C   UNL     1      28.693  26.586  23.072  1.00  0.00     0.072 C 
BRANCH   8   9
ATOM      9  C   UNL     1      27.357  26.262  22.361  1.00  0.00     0.227 C 
BRANCH   9  10
ATOM     10  N   UNL     1      27.289  26.864  21.021  1.00  0.00    -0.350 N 
ATOM     11  H   UNL     1      28.195  26.720  20.518  1.00  0.00     0.345 HD
ATOM     12  H   UNL     1      27.135  27.895  21.099  1.00  0.00     0.345 HD
ATOM     13  H   UNL     1      26.515  26.437  20.461  1.00  0.00     0.345 HD
ENDBRANCH   9  10
BRANCH   9  14
ATOM     14  C   UNL     1      26.210  26.747  23.209  1.00  0.00     0.099 C 
ATOM     15  O   UNL     1      25.396  25.927  23.712  1.00  0.00    -0.544 OA
ATOM     16  O   UNL     1      26.028  28.108  23.418  1.00  0.00    -0.544 OA
ENDBRANCH   9  14
ENDBRANCH   8   9
ENDBRANCH   1   8
TORSDOF 7
ENDMDL
MODEL 9
REMARK VINA RESULT:    -3.395      3.401      4.960
REMARK INTER + INTRA:          -4.687
REMARK INTER:                  -4.580
REMARK INTRA:                  -0.107
REMARK UNBOUND:                -0.101
REMARK SMILES [NH3+]CCCC[C@H]([NH3+])C(=O)[O-]
REMARK SMILES IDX 4 1 3 2 2 3 1 4 5 8 6 9 7 10 8 14 9 15 10 16
REMARK H PARENT 1 5 1 6 1 7 7 11 7 12 7 13
REMARK Flexibility Score: inf
ROOT
ATOM      1  C   UNL     1      25.707  27.074  23.305  1.00  0.00     0.012 C 
ENDROOT
BRANCH   1   2
ATOM      2  C   UNL     1      25.223  26.312  24.548  1.00  0.00     0.061 C 
BRANCH   2   3
ATOM      3  C   UNL     1      24.563  24.983  24.157  1.00  0.00     0.258 C 
BRANCH   3   4
ATOM      4  N   UNL     1      25.383  24.257  23.189  1.00  0.00    -0.358 N 
ATOM      5  H   UNL     1      25.318  23.228  23.363  1.00  0.00     0.344 HD
ATOM      6  H   UNL     1      25.032  24.459  22.225  1.00  0.00     0.344 HD
ATOM      7  H   UNL     1      26.379  24.566  23.258  1.00  0.00     0.344 HD
ENDBRANCH   3   4
ENDBRANCH   2   3
ENDBRANCH   1   2
BRANCH   1   8
ATOM      8  C   UNL     1      26.325  28.444  23.641  1.00  0.00     0.072 C 
BRANCH   8   9
ATOM      9  C   UNL     1      25.320  29.502  24.155  1.00  0.00     0.227 C 
BRANCH   9  10
ATOM     10  N   UNL     1      24.256  29.770  23.175  1.00  0.00    -0.350 N 
ATOM     11  H   UNL     1      24.510  30.600  22.591  1.00  0.00     0.345 HD
ATOM     12  H   UNL     1      23.364  29.996  23.669  1.00  0.00     0.345 HD
ATOM     13  H   UNL     1      24.110  28.944  22.551  1.00  0.00     0.345 HD
ENDBRANCH   9  10
BRANCH   9  14
ATOM     14  C   UNL     1      26.058  30.774  24.482  1.00  0.00     0.099 C 
ATOM     15  O   UNL     1      25.456  31.743  25.016  1.00  0.00    -0.544 OA
ATOM     16  O   UNL     1      27.407  30.894  24.170  1.00  0.00    -0.544 OA
ENDBRANCH   9  14
ENDBRANCH   8   9
ENDBRANCH   1   8
TORSDOF 7
ENDMDL
