MODEL 1
REMARK VINA RESULT:    -4.956      0.000      0.000
REMARK INTER + INTRA:          -5.778
REMARK INTER:                  -5.681
REMARK INTRA:                  -0.097
REMARK UNBOUND:                -0.097
REMARK SMILES COc1cc(C(=O)[O-])ccc1O
REMARK SMILES IDX 5 1 9 2 4 3 10 4 3 5 11 6 6 7 7 8 8 9 2 10 1 11 12 12
REMARK H PARENT 12 13
REMARK Flexibility Score: inf
ROOT
ATOM      1  C   UNL     1     -43.607  40.640  10.459  1.00  0.00     0.001 A 
ATOM      2  C   UNL     1     -42.429  39.905  10.252  1.00  0.00     0.014 A 
ATOM      3  C   UNL     1     -43.574  41.757  11.311  1.00  0.00     0.060 A 
ATOM      4  C   UNL     1     -41.242  40.278  10.883  1.00  0.00     0.051 A 
ATOM      5  C   UNL     1     -42.377  42.140  11.952  1.00  0.00     0.161 A 
ATOM      6  C   UNL     1     -41.210  41.389  11.730  1.00  0.00     0.157 A 
ENDROOT
BRANCH   1   7
ATOM      7  C   UNL     1     -44.868  40.246   9.790  1.00  0.00     0.072 C 
ATOM      8  O   UNL     1     -44.952  40.241   8.534  1.00  0.00    -0.545 OA
ATOM      9  O   UNL     1     -45.978  39.875  10.541  1.00  0.00    -0.545 OA
ENDBRANCH   1   7
BRANCH   5  10
ATOM     10  O   UNL     1     -42.315  43.251  12.809  1.00  0.00    -0.493 OA
ATOM     11  C   UNL     1     -42.249  44.606  12.375  1.00  0.00     0.278 C 
ENDBRANCH   5  10
BRANCH   6  12
ATOM     12  O   UNL     1     -40.004  41.732  12.344  1.00  0.00    -0.504 OA
ATOM     13  H   UNL     1     -39.794  42.682  12.625  1.00  0.00     0.293 HD
ENDBRANCH   6  12
TORSDOF 3
ENDMDL
MODEL 2
REMARK VINA RESULT:    -4.588      1.347      4.475
REMARK INTER + INTRA:          -5.356
REMARK INTER:                  -5.281
REMARK INTRA:                  -0.075
REMARK UNBOUND:                -0.097
REMARK SMILES COc1cc(C(=O)[O-])ccc1O
REMARK SMILES IDX 5 1 9 2 4 3 10 4 3 5 11 6 6 7 7 8 8 9 2 10 1 11 12 12
REMARK H PARENT 12 13
REMARK Flexibility Score: inf
ROOT
ATOM      1  C   UNL     1     -42.363  42.106  11.625  1.00  0.00     0.001 A 
ATOM      2  C   UNL     1     -41.864  41.895  10.330  1.00  0.00     0.014 A 
ATOM      3  C   UNL     1     -43.611  41.561  11.974  1.00  0.00     0.060 A 
ATOM      4  C   UNL     1     -42.597  41.153   9.402  1.00  0.00     0.051 A 
ATOM      5  C   UNL     1     -44.356  40.811  11.041  1.00  0.00     0.161 A 
ATOM      6  C   UNL     1     -43.837  40.612   9.750  1.00  0.00     0.157 A 
ENDROOT
BRANCH   1   7
ATOM      7  C   UNL     1     -41.587  42.893  12.610  1.00  0.00     0.072 C 
ATOM      8  O   UNL     1     -41.971  44.040  12.960  1.00  0.00    -0.545 OA
ATOM      9  O   UNL     1     -40.422  42.375  13.165  1.00  0.00    -0.545 OA
ENDBRANCH   1   7
BRANCH   5  10
ATOM     10  O   UNL     1     -45.605  40.255  11.363  1.00  0.00    -0.493 OA
ATOM     11  C   UNL     1     -46.013  39.884  12.676  1.00  0.00     0.278 C 
ENDBRANCH   5  10
BRANCH   6  12
ATOM     12  O   UNL     1     -44.541  39.875   8.796  1.00  0.00    -0.504 OA
ATOM     13  H   UNL     1     -45.548  39.930   8.708  1.00  0.00     0.293 HD
ENDBRANCH   6  12
TORSDOF 3
ENDMDL
MODEL 3
REMARK VINA RESULT:    -3.831      1.777      4.347
REMARK INTER + INTRA:          -4.488
REMARK INTER:                  -4.394
REMARK INTRA:                  -0.094
REMARK UNBOUND:                -0.097
REMARK SMILES COc1cc(C(=O)[O-])ccc1O
REMARK SMILES IDX 5 1 9 2 4 3 10 4 3 5 11 6 6 7 7 8 8 9 2 10 1 11 12 12
REMARK H PARENT 12 13
REMARK Flexibility Score: inf
ROOT
ATOM      1  C   UNL     1     -42.096  43.789  12.088  1.00  0.00     0.001 A 
ATOM      2  C   UNL     1     -40.777  43.492  12.468  1.00  0.00     0.014 A 
ATOM      3  C   UNL     1     -42.914  42.757  11.596  1.00  0.00     0.060 A 
ATOM      4  C   UNL     1     -40.286  42.190  12.359  1.00  0.00     0.051 A 
ATOM      5  C   UNL     1     -42.424  41.440  11.484  1.00  0.00     0.161 A 
ATOM      6  C   UNL     1     -41.101  41.165  11.871  1.00  0.00     0.157 A 
ENDROOT
BRANCH   1   7
ATOM      7  C   UNL     1     -42.618  45.170  12.202  1.00  0.00     0.072 C 
ATOM      8  O   UNL     1     -43.854  45.380  12.314  1.00  0.00    -0.545 OA
ATOM      9  O   UNL     1     -41.749  46.255  12.187  1.00  0.00    -0.545 OA
ENDBRANCH   1   7
BRANCH   5  10
ATOM     10  O   UNL     1     -43.220  40.390  10.997  1.00  0.00    -0.493 OA
ATOM     11  C   UNL     1     -43.810  40.355   9.702  1.00  0.00     0.278 C 
ENDBRANCH   5  10
BRANCH   6  12
ATOM     12  O   UNL     1     -40.576  39.875  11.777  1.00  0.00    -0.504 OA
ATOM     13  H   UNL     1     -39.712  39.679  11.286  1.00  0.00     0.293 HD
ENDBRANCH   6  12
TORSDOF 3
ENDMDL
MODEL 4
REMARK VINA RESULT:    -3.407      1.271      4.826
REMARK INTER + INTRA:          -4.002
REMARK INTER:                  -4.272
REMARK INTRA:                   0.270
REMARK UNBOUND:                -0.097
REMARK SMILES COc1cc(C(=O)[O-])ccc1O
REMARK SMILES IDX 5 1 9 2 4 3 10 4 3 5 11 6 6 7 7 8 8 9 2 10 1 11 12 12
REMARK H PARENT 12 13
REMARK Flexibility Score: inf
ROOT
ATOM      1  C   UNL     1     -42.493  42.098  11.660  1.00  0.00     0.001 A 
ATOM      2  C   UNL     1     -43.500  42.078  12.639  1.00  0.00     0.014 A 
ATOM      3  C   UNL     1     -42.677  41.365  10.475  1.00  0.00     0.060 A 
ATOM      4  C   UNL     1     -44.667  41.341  12.437  1.00  0.00     0.051 A 
ATOM      5  C   UNL     1     -43.854  40.618  10.265  1.00  0.00     0.161 A 
ATOM      6  C   UNL     1     -44.849  40.612  11.258  1.00  0.00     0.157 A 
ENDROOT
BRANCH   1   7
ATOM      7  C   UNL     1     -41.253  42.879  11.872  1.00  0.00     0.072 C 
ATOM      8  O   UNL     1     -41.305  44.121  12.074  1.00  0.00    -0.545 OA
ATOM      9  O   UNL     1     -40.013  42.252  11.853  1.00  0.00    -0.545 OA
ENDBRANCH   1   7
BRANCH   5  10
ATOM     10  O   UNL     1     -44.065  39.876   9.091  1.00  0.00    -0.493 OA
ATOM     11  C   UNL     1     -45.207  39.998   8.250  1.00  0.00     0.278 C 
ENDBRANCH   5  10
BRANCH   6  12
ATOM     12  O   UNL     1     -46.030  39.887  11.092  1.00  0.00    -0.504 OA
ATOM     13  H   UNL     1     -46.073  39.050  10.523  1.00  0.00     0.293 HD
ENDBRANCH   6  12
TORSDOF 3
ENDMDL
MODEL 5
REMARK VINA RESULT:    -3.012      1.217      2.538
REMARK INTER + INTRA:          -3.550
REMARK INTER:                  -3.492
REMARK INTRA:                  -0.058
REMARK UNBOUND:                -0.097
REMARK SMILES COc1cc(C(=O)[O-])ccc1O
REMARK SMILES IDX 5 1 9 2 4 3 10 4 3 5 11 6 6 7 7 8 8 9 2 10 1 11 12 12
REMARK H PARENT 12 13
REMARK Flexibility Score: inf
ROOT
ATOM      1  C   UNL     1     -43.447  41.027  11.118  1.00  0.00     0.001 A 
ATOM      2  C   UNL     1     -43.709  42.306  11.633  1.00  0.00     0.014 A 
ATOM      3  C   UNL     1     -42.151  40.496  11.233  1.00  0.00     0.060 A 
ATOM      4  C   UNL     1     -42.696  43.041  12.251  1.00  0.00     0.051 A 
ATOM      5  C   UNL     1     -41.123  41.232  11.857  1.00  0.00     0.161 A 
ATOM      6  C   UNL     1     -41.408  42.511  12.366  1.00  0.00     0.157 A 
ENDROOT
BRANCH   1   7
ATOM      7  C   UNL     1     -44.520  40.247  10.461  1.00  0.00     0.072 C 
ATOM      8  O   UNL     1     -44.419  39.908   9.252  1.00  0.00    -0.545 OA
ATOM      9  O   UNL     1     -45.657  39.875  11.171  1.00  0.00    -0.545 OA
ENDBRANCH   1   7
BRANCH   5  10
ATOM     10  O   UNL     1     -39.819  40.726  11.987  1.00  0.00    -0.493 OA
ATOM     11  C   UNL     1     -39.319  40.061  13.142  1.00  0.00     0.278 C 
ENDBRANCH   5  10
BRANCH   6  12
ATOM     12  O   UNL     1     -40.421  43.275  12.992  1.00  0.00    -0.504 OA
ATOM     13  H   UNL     1     -39.435  43.144  12.799  1.00  0.00     0.293 HD
ENDBRANCH   6  12
TORSDOF 3
ENDMDL
MODEL 6
REMARK VINA RESULT:    -2.559      1.831      2.301
REMARK INTER + INTRA:          -3.031
REMARK INTER:                  -3.339
REMARK INTRA:                   0.308
REMARK UNBOUND:                -0.097
REMARK SMILES COc1cc(C(=O)[O-])ccc1O
REMARK SMILES IDX 5 1 9 2 4 3 10 4 3 5 11 6 6 7 7 8 8 9 2 10 1 11 12 12
REMARK H PARENT 12 13
REMARK Flexibility Score: inf
ROOT
ATOM      1  C   UNL     1     -42.911  41.853  11.663  1.00  0.00     0.001 A 
ATOM      2  C   UNL     1     -41.576  41.680  11.263  1.00  0.00     0.014 A 
ATOM      3  C   UNL     1     -43.312  43.093  12.188  1.00  0.00     0.060 A 
ATOM      4  C   UNL     1     -40.661  42.727  11.385  1.00  0.00     0.051 A 
ATOM      5  C   UNL     1     -42.392  44.154  12.314  1.00  0.00     0.161 A 
ATOM      6  C   UNL     1     -41.061  43.960  11.907  1.00  0.00     0.157 A 
ENDROOT
BRANCH   1   7
ATOM      7  C   UNL     1     -43.883  40.744  11.534  1.00  0.00     0.072 C 
ATOM      8  O   UNL     1     -43.759  39.884  10.623  1.00  0.00    -0.545 OA
ATOM      9  O   UNL     1     -44.950  40.636  12.420  1.00  0.00    -0.545 OA
ENDBRANCH   1   7
BRANCH   5  10
ATOM     10  O   UNL     1     -42.766  45.404  12.835  1.00  0.00    -0.493 OA
ATOM     11  C   UNL     1     -42.511  46.654  12.203  1.00  0.00     0.278 C 
ENDBRANCH   5  10
BRANCH   6  12
ATOM     12  O   UNL     1     -40.118  44.983  12.014  1.00  0.00    -0.504 OA
ATOM     13  H   UNL     1     -39.646  45.368  11.204  1.00  0.00     0.293 HD
ENDBRANCH   6  12
TORSDOF 3
ENDMDL
MODEL 7
REMARK VINA RESULT:    -2.121      2.337      4.693
REMARK INTER + INTRA:          -2.528
REMARK INTER:                  -2.459
REMARK INTRA:                  -0.070
REMARK UNBOUND:                -0.097
REMARK SMILES COc1cc(C(=O)[O-])ccc1O
REMARK SMILES IDX 5 1 9 2 4 3 10 4 3 5 11 6 6 7 7 8 8 9 2 10 1 11 12 12
REMARK H PARENT 12 13
REMARK Flexibility Score: inf
ROOT
ATOM      1  C   UNL     1     -42.084  44.044  12.089  1.00  0.00     0.001 A 
ATOM      2  C   UNL     1     -43.373  43.488  12.061  1.00  0.00     0.014 A 
ATOM      3  C   UNL     1     -40.969  43.188  12.061  1.00  0.00     0.060 A 
ATOM      4  C   UNL     1     -43.545  42.104  12.005  1.00  0.00     0.051 A 
ATOM      5  C   UNL     1     -41.136  41.789  12.005  1.00  0.00     0.161 A 
ATOM      6  C   UNL     1     -42.436  41.254  11.978  1.00  0.00     0.157 A 
ENDROOT
BRANCH   1   7
ATOM      7  C   UNL     1     -41.899  45.512  12.148  1.00  0.00     0.072 C 
ATOM      8  O   UNL     1     -40.758  46.021  11.991  1.00  0.00    -0.545 OA
ATOM      9  O   UNL     1     -42.984  46.350  12.376  1.00  0.00    -0.545 OA
ENDBRANCH   1   7
BRANCH   5  10
ATOM     10  O   UNL     1     -40.041  40.910  11.976  1.00  0.00    -0.493 OA
ATOM     11  C   UNL     1     -39.481  40.276  13.121  1.00  0.00     0.278 C 
ENDBRANCH   5  10
BRANCH   6  12
ATOM     12  O   UNL     1     -42.647  39.875  11.922  1.00  0.00    -0.504 OA
ATOM     13  H   UNL     1     -43.575  39.470  11.962  1.00  0.00     0.293 HD
ENDBRANCH   6  12
TORSDOF 3
ENDMDL
