MODEL 1
REMARK VINA RESULT:    53.120      0.000      0.000
REMARK INTER + INTRA:          88.105
REMARK INTER:                  87.279
REMARK INTRA:                   0.826
REMARK UNBOUND:                 0.826
REMARK SMILES C[C@H]1O[C@@H](OC[C@H]2O[C@@H](Oc3c(-c4ccc(O)c(O)c4)oc4cc(O)cc(O)c4c3=O)[C@@H](O)[C@@H](O)[C@@H]2O)[C@H](O)[C@H](O)[C@H]1O
REMARK SMILES IDX 7 1 36 2 34 3 32 4 9 5 8 6 6 7 5 8 4 9 1 10 2 11 42 12 3 13
REMARK SMILES IDX 40 14 38 15 43 16 41 18 39 20 37 22 35 24 10 26 11 27 12 28
REMARK SMILES IDX 30 29 21 30 29 31 31 32 22 33 27 34 23 35 26 36 24 37 13 38
REMARK SMILES IDX 20 39 14 40 18 41 15 42 16 43 19 44 17 46 28 48 25 50 33 52
REMARK H PARENT 43 17 41 19 39 21 37 23 35 25 19 45 17 47 28 49 25 51 33 53
REMARK Flexibility Score: inf
ROOT
ATOM      1  C   UNL     1      -3.099   9.278   9.361  1.00  0.00     0.180 C 
ATOM      2  C   UNL     1      -2.686   9.626  10.840  1.00  0.00     0.177 C 
ATOM      3  C   UNL     1      -1.168   9.496  11.070  1.00  0.00     0.180 C 
ATOM      4  C   UNL     1      -0.610   8.159  10.497  1.00  0.00     0.214 C 
ATOM      5  C   UNL     1      -1.609   7.498   9.530  1.00  0.00     0.339 C 
ATOM      6  O   UNL     1      -2.113   8.506   8.670  1.00  0.00    -0.332 OA
ENDROOT
BRANCH   1   7
ATOM      7  C   UNL     1      -3.450  10.563   8.566  1.00  0.00     0.198 C 
BRANCH   7   8
ATOM      8  O   UNL     1      -3.353  11.688   9.422  1.00  0.00    -0.347 OA
BRANCH   8   9
ATOM      9  C   UNL     1      -3.928  12.848   8.834  1.00  0.00     0.281 C 
ATOM     10  C   UNL     1      -1.717  12.540   6.881  1.00  0.00     0.041 C 
ATOM     11  C   UNL     1      -3.094  13.175   6.608  1.00  0.00     0.150 C 
ATOM     12  C   UNL     1      -3.111  14.717   6.686  1.00  0.00     0.174 C 
ATOM     13  O   UNL     1      -4.125  12.644   7.426  1.00  0.00    -0.344 OA
ATOM     14  C   UNL     1      -3.068  15.228   8.150  1.00  0.00     0.179 C 
ATOM     15  C   UNL     1      -3.038  14.077   9.201  1.00  0.00     0.202 C 
BRANCH  12  16
ATOM     16  O   UNL     1      -2.016  15.223   5.955  1.00  0.00    -0.388 OA
ATOM     17  H   UNL     1      -1.293  15.412   6.608  1.00  0.00     0.211 HD
ENDBRANCH  12  16
BRANCH  14  18
ATOM     18  O   UNL     1      -4.123  16.125   8.386  1.00  0.00    -0.387 OA
ATOM     19  H   UNL     1      -3.981  16.902   7.781  1.00  0.00     0.211 HD
ENDBRANCH  14  18
BRANCH  15  20
ATOM     20  O   UNL     1      -3.406  14.570  10.463  1.00  0.00    -0.385 OA
ATOM     21  H   UNL     1      -4.042  15.327  10.294  1.00  0.00     0.211 HD
ENDBRANCH  15  20
ENDBRANCH   8   9
ENDBRANCH   7   8
ENDBRANCH   1   7
BRANCH   2  22
ATOM     22  O   UNL     1      -3.347   8.765  11.737  1.00  0.00    -0.387 OA
ATOM     23  H   UNL     1      -2.693   8.453  12.408  1.00  0.00     0.211 HD
ENDBRANCH   2  22
BRANCH   3  24
ATOM     24  O   UNL     1      -0.520  10.612  10.499  1.00  0.00    -0.387 OA
ATOM     25  H   UNL     1      -0.363  10.416   9.531  1.00  0.00     0.211 HD
ENDBRANCH   3  24
BRANCH   5  26
ATOM     26  O   UNL     1      -0.932   6.447   8.834  1.00  0.00    -0.454 OA
BRANCH  26  27
ATOM     27  C   UNL     1       0.313   5.900   9.186  1.00  0.00     0.214 A 
ATOM     28  C   UNL     1       1.438   5.981   8.341  1.00  0.00     0.180 A 
ATOM     29  C   UNL     1       0.436   5.182  10.395  1.00  0.00     0.239 A 
ATOM     30  O   UNL     1       2.542   5.314   8.636  1.00  0.00    -0.452 OA
ATOM     31  C   UNL     1       1.687   4.670  10.759  1.00  0.00     0.111 A 
ATOM     32  O   UNL     1      -0.575   5.022  11.133  1.00  0.00    -0.285 OA
ATOM     33  C   UNL     1       2.703   4.646   9.773  1.00  0.00     0.146 A 
ATOM     34  C   UNL     1       1.990   4.225  12.059  1.00  0.00     0.134 A 
ATOM     35  C   UNL     1       3.882   3.934  10.007  1.00  0.00     0.094 A 
ATOM     36  C   UNL     1       3.172   3.492  12.281  1.00  0.00     0.093 A 
ATOM     37  C   UNL     1       4.093   3.303  11.239  1.00  0.00     0.123 A 
BRANCH  28  38
ATOM     38  C   UNL     1       1.415   6.823   7.118  1.00  0.00     0.025 A 
ATOM     39  C   UNL     1       2.379   7.811   6.946  1.00  0.00     0.062 A 
ATOM     40  C   UNL     1       0.517   6.560   6.079  1.00  0.00     0.016 A 
ATOM     41  C   UNL     1       2.429   8.562   5.765  1.00  0.00     0.158 A 
ATOM     42  C   UNL     1       0.558   7.306   4.889  1.00  0.00     0.051 A 
ATOM     43  C   UNL     1       1.527   8.300   4.711  1.00  0.00     0.157 A 
BRANCH  41  44
ATOM     44  O   UNL     1       3.392   9.559   5.649  1.00  0.00    -0.504 OA
ATOM     45  H   UNL     1       3.866   9.940   6.473  1.00  0.00     0.293 HD
ENDBRANCH  41  44
BRANCH  43  46
ATOM     46  O   UNL     1       1.604   9.012   3.512  1.00  0.00    -0.504 OA
ATOM     47  H   UNL     1       1.679  10.023   3.488  1.00  0.00     0.293 HD
ENDBRANCH  43  46
ENDBRANCH  28  38
BRANCH  34  48
ATOM     48  O   UNL     1       1.177   4.577  13.156  1.00  0.00    -0.507 OA
ATOM     49  H   UNL     1       0.255   4.160  13.241  1.00  0.00     0.293 HD
ENDBRANCH  34  48
BRANCH  37  50
ATOM     50  O   UNL     1       5.202   2.474  11.418  1.00  0.00    -0.508 OA
ATOM     51  H   UNL     1       5.585   2.312  12.343  1.00  0.00     0.293 HD
ENDBRANCH  37  50
ENDBRANCH  26  27
ENDBRANCH   5  26
BRANCH   4  52
ATOM     52  O   UNL     1       0.601   8.392   9.816  1.00  0.00    -0.384 OA
ATOM     53  H   UNL     1       0.410   8.976   9.051  1.00  0.00     0.211 HD
ENDBRANCH   4  52
TORSDOF 16
ENDMDL
MODEL 2
REMARK VINA RESULT:    53.424      2.101      9.879
REMARK INTER + INTRA:          88.605
REMARK INTER:                  87.878
REMARK INTRA:                   0.727
REMARK UNBOUND:                 0.826
REMARK SMILES C[C@H]1O[C@@H](OC[C@H]2O[C@@H](Oc3c(-c4ccc(O)c(O)c4)oc4cc(O)cc(O)c4c3=O)[C@@H](O)[C@@H](O)[C@@H]2O)[C@H](O)[C@H](O)[C@H]1O
REMARK SMILES IDX 7 1 36 2 34 3 32 4 9 5 8 6 6 7 5 8 4 9 1 10 2 11 42 12 3 13
REMARK SMILES IDX 40 14 38 15 43 16 41 18 39 20 37 22 35 24 10 26 11 27 12 28
REMARK SMILES IDX 30 29 21 30 29 31 31 32 22 33 27 34 23 35 26 36 24 37 13 38
REMARK SMILES IDX 20 39 14 40 18 41 15 42 16 43 19 44 17 46 28 48 25 50 33 52
REMARK H PARENT 43 17 41 19 39 21 37 23 35 25 19 45 17 47 28 49 25 51 33 53
REMARK Flexibility Score: inf
ROOT
ATOM      1  C   UNL     1      -0.370   7.525   9.498  1.00  0.00     0.180 C 
ATOM      2  C   UNL     1      -0.434   6.957  10.964  1.00  0.00     0.177 C 
ATOM      3  C   UNL     1      -1.861   6.535  11.368  1.00  0.00     0.180 C 
ATOM      4  C   UNL     1      -2.909   7.630  11.009  1.00  0.00     0.214 C 
ATOM      5  C   UNL     1      -2.335   8.660  10.020  1.00  0.00     0.339 C 
ATOM      6  O   UNL     1      -1.645   7.951   9.004  1.00  0.00    -0.332 OA
ENDROOT
BRANCH   1   7
ATOM      7  C   UNL     1       0.279   6.498   8.533  1.00  0.00     0.198 C 
BRANCH   7   8
ATOM      8  O   UNL     1       0.425   5.255   9.196  1.00  0.00    -0.347 OA
BRANCH   8   9
ATOM      9  C   UNL     1       1.517   5.269  10.107  1.00  0.00     0.281 C 
ATOM     10  C   UNL     1       2.668   3.283   8.228  1.00  0.00     0.041 C 
ATOM     11  C   UNL     1       3.458   4.259   9.121  1.00  0.00     0.150 C 
ATOM     12  C   UNL     1       3.970   3.642  10.440  1.00  0.00     0.174 C 
ATOM     13  O   UNL     1       2.751   5.458   9.397  1.00  0.00    -0.344 OA
ATOM     14  C   UNL     1       2.835   3.468  11.483  1.00  0.00     0.179 C 
ATOM     15  C   UNL     1       1.451   3.971  10.972  1.00  0.00     0.202 C 
BRANCH  12  16
ATOM     16  O   UNL     1       4.575   2.399  10.158  1.00  0.00    -0.388 OA
ATOM     17  H   UNL     1       4.576   1.878  11.003  1.00  0.00     0.211 HD
ENDBRANCH  12  16
BRANCH  14  18
ATOM     18  O   UNL     1       3.194   4.070  12.701  1.00  0.00    -0.387 OA
ATOM     19  H   UNL     1       3.978   3.566  13.050  1.00  0.00     0.211 HD
ENDBRANCH  14  18
BRANCH  15  20
ATOM     20  O   UNL     1       0.582   4.168  12.058  1.00  0.00    -0.385 OA
ATOM     21  H   UNL     1      -0.144   4.778  11.730  1.00  0.00     0.211 HD
ENDBRANCH  15  20
ENDBRANCH   8   9
ENDBRANCH   7   8
ENDBRANCH   1   7
BRANCH   2  22
ATOM     22  O   UNL     1       0.015   7.932  11.876  1.00  0.00    -0.387 OA
ATOM     23  H   UNL     1      -0.206   8.823  11.514  1.00  0.00     0.211 HD
ENDBRANCH   2  22
BRANCH   3  24
ATOM     24  O   UNL     1      -2.167   5.304  10.749  1.00  0.00    -0.387 OA
ATOM     25  H   UNL     1      -1.307   4.872  10.480  1.00  0.00     0.211 HD
ENDBRANCH   3  24
BRANCH   5  26
ATOM     26  O   UNL     1      -3.414   9.454   9.520  1.00  0.00    -0.454 OA
BRANCH  26  27
ATOM     27  C   UNL     1      -3.306  10.763   9.019  1.00  0.00     0.214 A 
ATOM     28  C   UNL     1      -3.582  11.897   9.810  1.00  0.00     0.180 A 
ATOM     29  C   UNL     1      -2.978  10.958   7.661  1.00  0.00     0.239 A 
ATOM     30  O   UNL     1      -3.628  13.099   9.257  1.00  0.00    -0.452 OA
ATOM     31  C   UNL     1      -2.835  12.264   7.177  1.00  0.00     0.111 A 
ATOM     32  O   UNL     1      -2.805   9.960   6.909  1.00  0.00    -0.285 OA
ATOM     33  C   UNL     1      -3.303  13.324   7.989  1.00  0.00     0.146 A 
ATOM     34  C   UNL     1      -2.213  12.568   5.951  1.00  0.00     0.134 A 
ATOM     35  C   UNL     1      -3.405  14.613   7.459  1.00  0.00     0.094 A 
ATOM     36  C   UNL     1      -2.338  13.866   5.416  1.00  0.00     0.093 A 
ATOM     37  C   UNL     1      -2.980  14.874   6.150  1.00  0.00     0.123 A 
BRANCH  28  38
ATOM     38  C   UNL     1      -3.812  11.772  11.271  1.00  0.00     0.025 A 
ATOM     39  C   UNL     1      -3.726  10.522  11.876  1.00  0.00     0.062 A 
ATOM     40  C   UNL     1      -3.993  12.904  12.072  1.00  0.00     0.016 A 
ATOM     41  C   UNL     1      -3.857  10.389  13.263  1.00  0.00     0.158 A 
ATOM     42  C   UNL     1      -4.125  12.784  13.465  1.00  0.00     0.051 A 
ATOM     43  C   UNL     1      -4.037  11.529  14.078  1.00  0.00     0.157 A 
BRANCH  41  44
ATOM     44  O   UNL     1      -3.793   9.117  13.821  1.00  0.00    -0.504 OA
ATOM     45  H   UNL     1      -2.924   8.758  14.231  1.00  0.00     0.293 HD
ENDBRANCH  41  44
BRANCH  43  46
ATOM     46  O   UNL     1      -4.118  11.407  15.468  1.00  0.00    -0.504 OA
ATOM     47  H   UNL     1      -3.306  11.508  16.066  1.00  0.00     0.293 HD
ENDBRANCH  43  46
ENDBRANCH  28  38
BRANCH  34  48
ATOM     48  O   UNL     1      -1.395  11.625   5.297  1.00  0.00    -0.507 OA
ATOM     49  H   UNL     1      -1.430  10.653   5.590  1.00  0.00     0.293 HD
ENDBRANCH  34  48
BRANCH  37  50
ATOM     50  O   UNL     1      -3.217  16.125   5.576  1.00  0.00    -0.508 OA
ATOM     51  H   UNL     1      -3.445  16.926   6.154  1.00  0.00     0.293 HD
ENDBRANCH  37  50
ENDBRANCH  26  27
ENDBRANCH   5  26
BRANCH   4  52
ATOM     52  O   UNL     1      -4.053   7.037  10.438  1.00  0.00    -0.384 OA
ATOM     53  H   UNL     1      -4.710   7.747  10.269  1.00  0.00     0.211 HD
ENDBRANCH   4  52
TORSDOF 16
ENDMDL
MODEL 3
REMARK VINA RESULT:    55.319      1.835      2.467
REMARK INTER + INTRA:          91.719
REMARK INTER:                  93.840
REMARK INTRA:                  -2.120
REMARK UNBOUND:                 0.826
REMARK SMILES C[C@H]1O[C@@H](OC[C@H]2O[C@@H](Oc3c(-c4ccc(O)c(O)c4)oc4cc(O)cc(O)c4c3=O)[C@@H](O)[C@@H](O)[C@@H]2O)[C@H](O)[C@H](O)[C@H]1O
REMARK SMILES IDX 7 1 36 2 34 3 32 4 9 5 8 6 6 7 5 8 4 9 1 10 2 11 42 12 3 13
REMARK SMILES IDX 40 14 38 15 43 16 41 18 39 20 37 22 35 24 10 26 11 27 12 28
REMARK SMILES IDX 30 29 21 30 29 31 31 32 22 33 27 34 23 35 26 36 24 37 13 38
REMARK SMILES IDX 20 39 14 40 18 41 15 42 16 43 19 44 17 46 28 48 25 50 33 52
REMARK H PARENT 43 17 41 19 39 21 37 23 35 25 19 45 17 47 28 49 25 51 33 53
REMARK Flexibility Score: inf
ROOT
ATOM      1  C   UNL     1      -3.004   9.084   8.395  1.00  0.00     0.180 C 
ATOM      2  C   UNL     1      -3.484   8.541   9.792  1.00  0.00     0.177 C 
ATOM      3  C   UNL     1      -2.402   8.685  10.881  1.00  0.00     0.180 C 
ATOM      4  C   UNL     1      -1.015   8.179  10.386  1.00  0.00     0.214 C 
ATOM      5  C   UNL     1      -0.982   8.027   8.855  1.00  0.00     0.339 C 
ATOM      6  O   UNL     1      -1.580   9.181   8.290  1.00  0.00    -0.332 OA
ENDROOT
BRANCH   1   7
ATOM      7  C   UNL     1      -3.674  10.445   8.069  1.00  0.00     0.198 C 
BRANCH   7   8
ATOM      8  O   UNL     1      -3.023  11.476   8.790  1.00  0.00    -0.347 OA
BRANCH   8   9
ATOM      9  C   UNL     1      -3.728  12.708   8.700  1.00  0.00     0.281 C 
ATOM     10  C   UNL     1      -1.821  13.245   6.491  1.00  0.00     0.041 C 
ATOM     11  C   UNL     1      -3.249  13.809   6.622  1.00  0.00     0.150 C 
ATOM     12  C   UNL     1      -3.319  15.235   7.210  1.00  0.00     0.174 C 
ATOM     13  O   UNL     1      -4.124  12.953   7.341  1.00  0.00    -0.344 OA
ATOM     14  C   UNL     1      -3.079  15.248   8.742  1.00  0.00     0.179 C 
ATOM     15  C   UNL     1      -2.845  13.826   9.338  1.00  0.00     0.202 C 
BRANCH  12  16
ATOM     16  O   UNL     1      -2.367  16.045   6.555  1.00  0.00    -0.388 OA
ATOM     17  H   UNL     1      -1.478  15.637   6.717  1.00  0.00     0.211 HD
ENDBRANCH  12  16
BRANCH  14  18
ATOM     18  O   UNL     1      -4.125  15.923   9.395  1.00  0.00    -0.387 OA
ATOM     19  H   UNL     1      -4.208  15.519  10.300  1.00  0.00     0.211 HD
ENDBRANCH  14  18
BRANCH  15  20
ATOM     20  O   UNL     1      -3.042  13.851  10.728  1.00  0.00    -0.385 OA
ATOM     21  H   UNL     1      -2.128  13.866  11.141  1.00  0.00     0.211 HD
ENDBRANCH  15  20
ENDBRANCH   8   9
ENDBRANCH   7   8
ENDBRANCH   1   7
BRANCH   2  22
ATOM     22  O   UNL     1      -3.826   7.179   9.685  1.00  0.00    -0.387 OA
ATOM     23  H   UNL     1      -4.391   7.061   8.884  1.00  0.00     0.211 HD
ENDBRANCH   2  22
BRANCH   3  24
ATOM     24  O   UNL     1      -2.343  10.035  11.291  1.00  0.00    -0.387 OA
ATOM     25  H   UNL     1      -2.967  10.561  10.714  1.00  0.00     0.211 HD
ENDBRANCH   3  24
BRANCH   5  26
ATOM     26  O   UNL     1       0.377   7.839   8.451  1.00  0.00    -0.454 OA
BRANCH  26  27
ATOM     27  C   UNL     1       0.940   6.633   8.000  1.00  0.00     0.214 A 
ATOM     28  C   UNL     1       0.851   6.216   6.656  1.00  0.00     0.180 A 
ATOM     29  C   UNL     1       1.559   5.770   8.928  1.00  0.00     0.239 A 
ATOM     30  O   UNL     1       1.249   5.003   6.308  1.00  0.00    -0.452 OA
ATOM     31  C   UNL     1       2.151   4.588   8.468  1.00  0.00     0.111 A 
ATOM     32  O   UNL     1       1.582   6.079  10.151  1.00  0.00    -0.285 OA
ATOM     33  C   UNL     1       1.856   4.172   7.148  1.00  0.00     0.146 A 
ATOM     34  C   UNL     1       3.052   3.826   9.237  1.00  0.00     0.134 A 
ATOM     35  C   UNL     1       2.221   2.891   6.724  1.00  0.00     0.094 A 
ATOM     36  C   UNL     1       3.399   2.529   8.810  1.00  0.00     0.093 A 
ATOM     37  C   UNL     1       2.940   2.044   7.577  1.00  0.00     0.123 A 
BRANCH  28  38
ATOM     38  C   UNL     1       0.325   7.126   5.607  1.00  0.00     0.025 A 
ATOM     39  C   UNL     1      -1.049   7.273   5.451  1.00  0.00     0.062 A 
ATOM     40  C   UNL     1       1.186   7.930   4.854  1.00  0.00     0.016 A 
ATOM     41  C   UNL     1      -1.569   8.186   4.526  1.00  0.00     0.158 A 
ATOM     42  C   UNL     1       0.677   8.851   3.923  1.00  0.00     0.051 A 
ATOM     43  C   UNL     1      -0.705   9.004   3.763  1.00  0.00     0.157 A 
BRANCH  41  44
ATOM     44  O   UNL     1      -2.949   8.279   4.383  1.00  0.00    -0.504 OA
ATOM     45  H   UNL     1      -3.575   7.579   4.792  1.00  0.00     0.293 HD
ENDBRANCH  41  44
BRANCH  43  46
ATOM     46  O   UNL     1      -1.219   9.952   2.875  1.00  0.00    -0.504 OA
ATOM     47  H   UNL     1      -2.103  10.421   3.039  1.00  0.00     0.293 HD
ENDBRANCH  43  46
ENDBRANCH  28  38
BRANCH  34  48
ATOM     48  O   UNL     1       3.679   4.372  10.375  1.00  0.00    -0.507 OA
ATOM     49  H   UNL     1       4.037   3.746  11.090  1.00  0.00     0.293 HD
ENDBRANCH  34  48
BRANCH  37  50
ATOM     50  O   UNL     1       3.176   0.718   7.206  1.00  0.00    -0.508 OA
ATOM     51  H   UNL     1       3.311  -0.001   7.910  1.00  0.00     0.293 HD
ENDBRANCH  37  50
ENDBRANCH  26  27
ENDBRANCH   5  26
BRANCH   4  52
ATOM     52  O   UNL     1      -0.003   9.077  10.778  1.00  0.00    -0.384 OA
ATOM     53  H   UNL     1       0.473   9.368   9.971  1.00  0.00     0.211 HD
ENDBRANCH   4  52
TORSDOF 16
ENDMDL
