MODEL 1
REMARK VINA RESULT:    -5.803      0.000      0.000
REMARK INTER + INTRA:          -7.313
REMARK INTER:                  -6.991
REMARK INTRA:                  -0.323
REMARK UNBOUND:                -0.323
REMARK SMILES O=c1c(O)c(-c2ccc(O)c(O)c2)oc2cc(O)cc(O)c12
REMARK SMILES IDX 5 1 3 2 2 3 1 4 22 5 20 6 19 7 17 8 16 9 15 10 14 11 6 12
REMARK SMILES IDX 7 13 8 14 9 15 13 16 11 17 10 18 12 20 4 22 21 24 18 26
REMARK H PARENT 10 19 12 21 4 23 21 25 18 27
REMARK Flexibility Score: inf
ROOT
ATOM      1  C   UNL     1      23.908  28.255   5.996  1.00  0.00     0.180 A 
ATOM      2  C   UNL     1      23.692  26.887   5.750  1.00  0.00     0.208 A 
ATOM      3  C   UNL     1      22.877  26.158   6.629  1.00  0.00     0.238 A 
ATOM      4  O   UNL     1      22.731  24.923   6.435  1.00  0.00    -0.285 OA
ATOM      5  C   UNL     1      22.275  26.807   7.734  1.00  0.00     0.111 A 
ATOM      6  C   UNL     1      21.398  26.175   8.667  1.00  0.00     0.134 A 
ATOM      7  C   UNL     1      20.964  26.881   9.795  1.00  0.00     0.093 A 
ATOM      8  C   UNL     1      21.323  28.217   9.991  1.00  0.00     0.123 A 
ATOM      9  C   UNL     1      22.130  28.861   9.056  1.00  0.00     0.094 A 
ATOM     10  C   UNL     1      22.608  28.172   7.938  1.00  0.00     0.146 A 
ATOM     11  O   UNL     1      23.383  28.819   7.077  1.00  0.00    -0.452 OA
ENDROOT
BRANCH   1  12
ATOM     12  C   UNL     1      24.735  29.095   5.100  1.00  0.00     0.025 A 
ATOM     13  C   UNL     1      26.125  29.207   5.278  1.00  0.00     0.016 A 
ATOM     14  C   UNL     1      26.888  29.987   4.406  1.00  0.00     0.051 A 
ATOM     15  C   UNL     1      26.279  30.654   3.335  1.00  0.00     0.157 A 
ATOM     16  C   UNL     1      24.131  29.748   4.013  1.00  0.00     0.062 A 
ATOM     17  C   UNL     1      24.893  30.530   3.136  1.00  0.00     0.158 A 
BRANCH  15  18
ATOM     18  O   UNL     1      27.042  31.433   2.467  1.00  0.00    -0.504 OA
ATOM     19  H   UNL     1      27.997  31.689   2.686  1.00  0.00     0.293 HD
ENDBRANCH  15  18
BRANCH  17  20
ATOM     20  O   UNL     1      24.256  31.176   2.077  1.00  0.00    -0.504 OA
ATOM     21  H   UNL     1      24.498  32.119   1.798  1.00  0.00     0.293 HD
ENDBRANCH  17  20
ENDBRANCH   1  12
BRANCH   2  22
ATOM     22  O   UNL     1      24.314  26.261   4.666  1.00  0.00    -0.502 OA
ATOM     23  H   UNL     1      23.913  25.457   4.200  1.00  0.00     0.293 HD
ENDBRANCH   2  22
BRANCH   6  24
ATOM     24  O   UNL     1      20.905  24.875   8.516  1.00  0.00    -0.507 OA
ATOM     25  H   UNL     1      19.956  24.593   8.708  1.00  0.00     0.293 HD
ENDBRANCH   6  24
BRANCH   8  26
ATOM     26  O   UNL     1      20.875  28.917  11.109  1.00  0.00    -0.508 OA
ATOM     27  H   UNL     1      20.837  28.485  12.024  1.00  0.00     0.293 HD
ENDBRANCH   8  26
TORSDOF 6
ENDMDL
MODEL 2
REMARK VINA RESULT:    -4.579     22.012     23.253
REMARK INTER + INTRA:          -5.838
REMARK INTER:                  -5.711
REMARK INTRA:                  -0.127
REMARK UNBOUND:                -0.323
REMARK SMILES O=c1c(O)c(-c2ccc(O)c(O)c2)oc2cc(O)cc(O)c12
REMARK SMILES IDX 5 1 3 2 2 3 1 4 22 5 20 6 19 7 17 8 16 9 15 10 14 11 6 12
REMARK SMILES IDX 7 13 8 14 9 15 13 16 11 17 10 18 12 20 4 22 21 24 18 26
REMARK H PARENT 10 19 12 21 4 23 21 25 18 27
REMARK Flexibility Score: inf
ROOT
ATOM      1  C   UNL     1      36.183  42.850  17.673  1.00  0.00     0.180 A 
ATOM      2  C   UNL     1      36.731  41.562  17.809  1.00  0.00     0.208 A 
ATOM      3  C   UNL     1      37.737  41.153  16.920  1.00  0.00     0.238 A 
ATOM      4  O   UNL     1      38.185  39.980  17.013  1.00  0.00    -0.285 OA
ATOM      5  C   UNL     1      38.194  42.040  15.917  1.00  0.00     0.111 A 
ATOM      6  C   UNL     1      39.237  41.745  14.987  1.00  0.00     0.134 A 
ATOM      7  C   UNL     1      39.518  42.648  13.955  1.00  0.00     0.093 A 
ATOM      8  C   UNL     1      38.839  43.865  13.857  1.00  0.00     0.123 A 
ATOM      9  C   UNL     1      37.861  44.188  14.794  1.00  0.00     0.094 A 
ATOM     10  C   UNL     1      37.533  43.292  15.815  1.00  0.00     0.146 A 
ATOM     11  O   UNL     1      36.587  43.635  16.681  1.00  0.00    -0.452 OA
ENDROOT
BRANCH   1  12
ATOM     12  C   UNL     1      35.137  43.362  18.588  1.00  0.00     0.025 A 
ATOM     13  C   UNL     1      35.355  43.445  19.974  1.00  0.00     0.016 A 
ATOM     14  C   UNL     1      34.361  43.954  20.815  1.00  0.00     0.051 A 
ATOM     15  C   UNL     1      33.144  44.400  20.284  1.00  0.00     0.157 A 
ATOM     16  C   UNL     1      33.924  43.829  18.057  1.00  0.00     0.062 A 
ATOM     17  C   UNL     1      32.927  44.340  18.897  1.00  0.00     0.158 A 
BRANCH  15  18
ATOM     18  O   UNL     1      32.155  44.906  21.125  1.00  0.00    -0.504 OA
ATOM     19  H   UNL     1      31.292  44.400  21.293  1.00  0.00     0.293 HD
ENDBRANCH  15  18
BRANCH  17  20
ATOM     20  O   UNL     1      31.729  44.782  18.336  1.00  0.00    -0.504 OA
ATOM     21  H   UNL     1      31.585  44.815  17.334  1.00  0.00     0.293 HD
ENDBRANCH  17  20
ENDBRANCH   1  12
BRANCH   2  22
ATOM     22  O   UNL     1      36.249  40.694  18.793  1.00  0.00    -0.502 OA
ATOM     23  H   UNL     1      35.273  40.434  18.859  1.00  0.00     0.293 HD
ENDBRANCH   2  22
BRANCH   6  24
ATOM     24  O   UNL     1      40.038  40.601  15.052  1.00  0.00    -0.507 OA
ATOM     25  H   UNL     1      41.030  40.581  14.869  1.00  0.00     0.293 HD
ENDBRANCH   6  24
BRANCH   8  26
ATOM     26  O   UNL     1      39.135  44.764  12.835  1.00  0.00    -0.508 OA
ATOM     27  H   UNL     1      38.531  44.867  12.029  1.00  0.00     0.293 HD
ENDBRANCH   8  26
TORSDOF 6
ENDMDL
MODEL 3
REMARK VINA RESULT:    -4.407      1.491      2.230
REMARK INTER + INTRA:          -5.631
REMARK INTER:                  -5.310
REMARK INTRA:                  -0.321
REMARK UNBOUND:                -0.323
REMARK SMILES O=c1c(O)c(-c2ccc(O)c(O)c2)oc2cc(O)cc(O)c12
REMARK SMILES IDX 5 1 3 2 2 3 1 4 22 5 20 6 19 7 17 8 16 9 15 10 14 11 6 12
REMARK SMILES IDX 7 13 8 14 9 15 13 16 11 17 10 18 12 20 4 22 21 24 18 26
REMARK H PARENT 10 19 12 21 4 23 21 25 18 27
REMARK Flexibility Score: inf
ROOT
ATOM      1  C   UNL     1      24.385  29.151   4.279  1.00  0.00     0.180 A 
ATOM      2  C   UNL     1      24.221  27.872   3.717  1.00  0.00     0.208 A 
ATOM      3  C   UNL     1      23.690  26.843   4.511  1.00  0.00     0.238 A 
ATOM      4  O   UNL     1      23.596  25.688   4.019  1.00  0.00    -0.285 OA
ATOM      5  C   UNL     1      23.315  27.108   5.850  1.00  0.00     0.111 A 
ATOM      6  C   UNL     1      22.729  26.151   6.733  1.00  0.00     0.134 A 
ATOM      7  C   UNL     1      22.518  26.487   8.075  1.00  0.00     0.093 A 
ATOM      8  C   UNL     1      22.811  27.767   8.551  1.00  0.00     0.123 A 
ATOM      9  C   UNL     1      23.327  28.727   7.684  1.00  0.00     0.094 A 
ATOM     10  C   UNL     1      23.582  28.410   6.347  1.00  0.00     0.146 A 
ATOM     11  O   UNL     1      24.085  29.351   5.557  1.00  0.00    -0.452 OA
ENDROOT
BRANCH   1  12
ATOM     12  C   UNL     1      24.915  30.292   3.498  1.00  0.00     0.025 A 
ATOM     13  C   UNL     1      26.289  30.588   3.477  1.00  0.00     0.016 A 
ATOM     14  C   UNL     1      26.769  31.656   2.713  1.00  0.00     0.051 A 
ATOM     15  C   UNL     1      25.888  32.433   1.949  1.00  0.00     0.157 A 
ATOM     16  C   UNL     1      24.038  31.060   2.715  1.00  0.00     0.062 A 
ATOM     17  C   UNL     1      24.515  32.130   1.948  1.00  0.00     0.158 A 
BRANCH  15  18
ATOM     18  O   UNL     1      26.368  33.498   1.190  1.00  0.00    -0.504 OA
ATOM     19  H   UNL     1      25.992  34.433   1.291  1.00  0.00     0.293 HD
ENDBRANCH  15  18
BRANCH  17  20
ATOM     20  O   UNL     1      23.613  32.879   1.194  1.00  0.00    -0.504 OA
ATOM     21  H   UNL     1      22.637  32.965   1.453  1.00  0.00     0.293 HD
ENDBRANCH  17  20
ENDBRANCH   1  12
BRANCH   2  22
ATOM     22  O   UNL     1      24.618  27.626   2.400  1.00  0.00    -0.502 OA
ATOM     23  H   UNL     1      24.109  27.003   1.786  1.00  0.00     0.293 HD
ENDBRANCH   2  22
BRANCH   6  24
ATOM     24  O   UNL     1      22.314  24.876   6.336  1.00  0.00    -0.507 OA
ATOM     25  H   UNL     1      22.860  24.242   5.773  1.00  0.00     0.293 HD
ENDBRANCH   6  24
BRANCH   8  26
ATOM     26  O   UNL     1      22.585  28.099   9.885  1.00  0.00    -0.508 OA
ATOM     27  H   UNL     1      22.049  27.495  10.497  1.00  0.00     0.293 HD
ENDBRANCH   8  26
TORSDOF 6
ENDMDL
MODEL 4
REMARK VINA RESULT:    -4.322     21.983     22.887
REMARK INTER + INTRA:          -5.529
REMARK INTER:                  -5.206
REMARK INTRA:                  -0.323
REMARK UNBOUND:                -0.323
REMARK SMILES O=c1c(O)c(-c2ccc(O)c(O)c2)oc2cc(O)cc(O)c12
REMARK SMILES IDX 5 1 3 2 2 3 1 4 22 5 20 6 19 7 17 8 16 9 15 10 14 11 6 12
REMARK SMILES IDX 7 13 8 14 9 15 13 16 11 17 10 18 12 20 4 22 21 24 18 26
REMARK H PARENT 10 19 12 21 4 23 21 25 18 27
REMARK Flexibility Score: inf
ROOT
ATOM      1  C   UNL     1      37.669  42.818  16.979  1.00  0.00     0.180 A 
ATOM      2  C   UNL     1      37.924  41.572  17.579  1.00  0.00     0.208 A 
ATOM      3  C   UNL     1      37.238  41.230  18.755  1.00  0.00     0.238 A 
ATOM      4  O   UNL     1      37.509  40.137  19.317  1.00  0.00    -0.285 OA
ATOM      5  C   UNL     1      36.295  42.130  19.308  1.00  0.00     0.111 A 
ATOM      6  C   UNL     1      35.512  41.870  20.473  1.00  0.00     0.134 A 
ATOM      7  C   UNL     1      34.706  42.884  21.004  1.00  0.00     0.093 A 
ATOM      8  C   UNL     1      34.604  44.126  20.375  1.00  0.00     0.123 A 
ATOM      9  C   UNL     1      35.317  44.370  19.204  1.00  0.00     0.094 A 
ATOM     10  C   UNL     1      36.158  43.390  18.669  1.00  0.00     0.146 A 
ATOM     11  O   UNL     1      36.828  43.667  17.558  1.00  0.00    -0.452 OA
ENDROOT
BRANCH   1  12
ATOM     12  C   UNL     1      38.335  43.239  15.725  1.00  0.00     0.025 A 
ATOM     13  C   UNL     1      39.577  43.898  15.742  1.00  0.00     0.016 A 
ATOM     14  C   UNL     1      40.197  44.264  14.544  1.00  0.00     0.051 A 
ATOM     15  C   UNL     1      39.596  43.966  13.315  1.00  0.00     0.157 A 
ATOM     16  C   UNL     1      37.746  42.923  14.490  1.00  0.00     0.062 A 
ATOM     17  C   UNL     1      38.365  43.289  13.289  1.00  0.00     0.158 A 
BRANCH  15  18
ATOM     18  O   UNL     1      40.216  44.334  12.122  1.00  0.00    -0.504 OA
ATOM     19  H   UNL     1      40.580  43.640  11.478  1.00  0.00     0.293 HD
ENDBRANCH  15  18
BRANCH  17  20
ATOM     20  O   UNL     1      37.743  42.971  12.082  1.00  0.00    -0.504 OA
ATOM     21  H   UNL     1      38.144  42.311  11.427  1.00  0.00     0.293 HD
ENDBRANCH  17  20
ENDBRANCH   1  12
BRANCH   2  22
ATOM     22  O   UNL     1      38.875  40.708  17.029  1.00  0.00    -0.502 OA
ATOM     23  H   UNL     1      39.577  41.020  16.370  1.00  0.00     0.293 HD
ENDBRANCH   2  22
BRANCH   6  24
ATOM     24  O   UNL     1      35.471  40.633  21.125  1.00  0.00    -0.507 OA
ATOM     25  H   UNL     1      34.708  40.311  21.701  1.00  0.00     0.293 HD
ENDBRANCH   6  24
BRANCH   8  26
ATOM     26  O   UNL     1      33.787  45.125  20.902  1.00  0.00    -0.508 OA
ATOM     27  H   UNL     1      33.405  45.057  21.837  1.00  0.00     0.293 HD
ENDBRANCH   8  26
TORSDOF 6
ENDMDL
MODEL 5
REMARK VINA RESULT:    -3.985     22.385     23.171
REMARK INTER + INTRA:          -5.123
REMARK INTER:                  -4.796
REMARK INTRA:                  -0.327
REMARK UNBOUND:                -0.323
REMARK SMILES O=c1c(O)c(-c2ccc(O)c(O)c2)oc2cc(O)cc(O)c12
REMARK SMILES IDX 5 1 3 2 2 3 1 4 22 5 20 6 19 7 17 8 16 9 15 10 14 11 6 12
REMARK SMILES IDX 7 13 8 14 9 15 13 16 11 17 10 18 12 20 4 22 21 24 18 26
REMARK H PARENT 10 19 12 21 4 23 21 25 18 27
REMARK Flexibility Score: inf
ROOT
ATOM      1  C   UNL     1      37.810  43.471  16.350  1.00  0.00     0.180 A 
ATOM      2  C   UNL     1      36.547  44.060  16.533  1.00  0.00     0.208 A 
ATOM      3  C   UNL     1      35.801  43.729  17.675  1.00  0.00     0.238 A 
ATOM      4  O   UNL     1      34.648  44.219  17.807  1.00  0.00    -0.285 OA
ATOM      5  C   UNL     1      36.332  42.826  18.627  1.00  0.00     0.111 A 
ATOM      6  C   UNL     1      35.681  42.450  19.841  1.00  0.00     0.134 A 
ATOM      7  C   UNL     1      36.241  41.450  20.645  1.00  0.00     0.093 A 
ATOM      8  C   UNL     1      37.462  40.858  20.312  1.00  0.00     0.123 A 
ATOM      9  C   UNL     1      38.135  41.261  19.161  1.00  0.00     0.094 A 
ATOM     10  C   UNL     1      37.584  42.231  18.320  1.00  0.00     0.146 A 
ATOM     11  O   UNL     1      38.252  42.577  17.227  1.00  0.00    -0.452 OA
ENDROOT
BRANCH   1  12
ATOM     12  C   UNL     1      38.666  43.789  15.184  1.00  0.00     0.025 A 
ATOM     13  C   UNL     1      39.634  44.806  15.243  1.00  0.00     0.016 A 
ATOM     14  C   UNL     1      40.447  45.072  14.138  1.00  0.00     0.051 A 
ATOM     15  C   UNL     1      40.314  44.319  12.964  1.00  0.00     0.157 A 
ATOM     16  C   UNL     1      38.550  43.023  14.012  1.00  0.00     0.062 A 
ATOM     17  C   UNL     1      39.363  43.287  12.903  1.00  0.00     0.158 A 
BRANCH  15  18
ATOM     18  O   UNL     1      41.125  44.587  11.862  1.00  0.00    -0.504 OA
ATOM     19  H   UNL     1      42.136  44.542  11.924  1.00  0.00     0.293 HD
ENDBRANCH  15  18
BRANCH  17  20
ATOM     20  O   UNL     1      39.210  42.514  11.752  1.00  0.00    -0.504 OA
ATOM     21  H   UNL     1      39.432  41.526  11.734  1.00  0.00     0.293 HD
ENDBRANCH  17  20
ENDBRANCH   1  12
BRANCH   2  22
ATOM     22  O   UNL     1      36.031  44.932  15.571  1.00  0.00    -0.502 OA
ATOM     23  H   UNL     1      36.299  44.886  14.595  1.00  0.00     0.293 HD
ENDBRANCH   2  22
BRANCH   6  24
ATOM     24  O   UNL     1      34.506  43.045  20.311  1.00  0.00    -0.507 OA
ATOM     25  H   UNL     1      34.460  43.937  20.781  1.00  0.00     0.293 HD
ENDBRANCH   6  24
BRANCH   8  26
ATOM     26  O   UNL     1      38.020  39.874  21.125  1.00  0.00    -0.508 OA
ATOM     27  H   UNL     1      38.639  40.109  21.891  1.00  0.00     0.293 HD
ENDBRANCH   8  26
TORSDOF 6
ENDMDL
MODEL 6
REMARK VINA RESULT:    -3.906     21.174     22.422
REMARK INTER + INTRA:          -5.028
REMARK INTER:                  -5.415
REMARK INTRA:                   0.387
REMARK UNBOUND:                -0.323
REMARK SMILES O=c1c(O)c(-c2ccc(O)c(O)c2)oc2cc(O)cc(O)c12
REMARK SMILES IDX 5 1 3 2 2 3 1 4 22 5 20 6 19 7 17 8 16 9 15 10 14 11 6 12
REMARK SMILES IDX 7 13 8 14 9 15 13 16 11 17 10 18 12 20 4 22 21 24 18 26
REMARK H PARENT 10 19 12 21 4 23 21 25 18 27
REMARK Flexibility Score: inf
ROOT
ATOM      1  C   UNL     1      38.428  42.106  15.872  1.00  0.00     0.180 A 
ATOM      2  C   UNL     1      38.301  40.708  15.798  1.00  0.00     0.208 A 
ATOM      3  C   UNL     1      37.617  40.032  16.820  1.00  0.00     0.238 A 
ATOM      4  O   UNL     1      37.554  38.775  16.777  1.00  0.00    -0.285 OA
ATOM      5  C   UNL     1      37.055  40.762  17.895  1.00  0.00     0.111 A 
ATOM      6  C   UNL     1      36.307  40.184  18.965  1.00  0.00     0.134 A 
ATOM      7  C   UNL     1      35.909  40.986  20.042  1.00  0.00     0.093 A 
ATOM      8  C   UNL     1      36.177  42.357  20.057  1.00  0.00     0.123 A 
ATOM      9  C   UNL     1      36.854  42.941  18.989  1.00  0.00     0.094 A 
ATOM     10  C   UNL     1      37.295  42.161  17.917  1.00  0.00     0.146 A 
ATOM     11  O   UNL     1      37.947  42.756  16.926  1.00  0.00    -0.452 OA
ENDROOT
BRANCH   1  12
ATOM     12  C   UNL     1      39.114  42.892  14.820  1.00  0.00     0.025 A 
ATOM     13  C   UNL     1      39.712  44.131  15.105  1.00  0.00     0.016 A 
ATOM     14  C   UNL     1      40.374  44.843  14.101  1.00  0.00     0.051 A 
ATOM     15  C   UNL     1      40.461  44.323  12.803  1.00  0.00     0.157 A 
ATOM     16  C   UNL     1      39.221  42.364  13.523  1.00  0.00     0.062 A 
ATOM     17  C   UNL     1      39.884  43.074  12.515  1.00  0.00     0.158 A 
BRANCH  15  18
ATOM     18  O   UNL     1      41.121  45.035  11.804  1.00  0.00    -0.504 OA
ATOM     19  H   UNL     1      41.303  44.626  10.894  1.00  0.00     0.293 HD
ENDBRANCH  15  18
BRANCH  17  20
ATOM     20  O   UNL     1      39.958  42.525  11.235  1.00  0.00    -0.504 OA
ATOM     21  H   UNL     1      39.283  42.748  10.514  1.00  0.00     0.293 HD
ENDBRANCH  17  20
ENDBRANCH   1  12
BRANCH   2  22
ATOM     22  O   UNL     1      38.883  40.004  14.740  1.00  0.00    -0.502 OA
ATOM     23  H   UNL     1      38.386  39.288  14.224  1.00  0.00     0.293 HD
ENDBRANCH   2  22
BRANCH   6  24
ATOM     24  O   UNL     1      35.907  38.845  19.002  1.00  0.00    -0.507 OA
ATOM     25  H   UNL     1      36.131  38.158  18.298  1.00  0.00     0.293 HD
ENDBRANCH   6  24
BRANCH   8  26
ATOM     26  O   UNL     1      35.765  43.150  21.125  1.00  0.00    -0.508 OA
ATOM     27  H   UNL     1      36.083  44.106  21.228  1.00  0.00     0.293 HD
ENDBRANCH   8  26
TORSDOF 6
ENDMDL
MODEL 7
REMARK VINA RESULT:    -3.894     21.196     22.980
REMARK INTER + INTRA:          -5.013
REMARK INTER:                  -4.710
REMARK INTRA:                  -0.304
REMARK UNBOUND:                -0.323
REMARK SMILES O=c1c(O)c(-c2ccc(O)c(O)c2)oc2cc(O)cc(O)c12
REMARK SMILES IDX 5 1 3 2 2 3 1 4 22 5 20 6 19 7 17 8 16 9 15 10 14 11 6 12
REMARK SMILES IDX 7 13 8 14 9 15 13 16 11 17 10 18 12 20 4 22 21 24 18 26
REMARK H PARENT 10 19 12 21 4 23 21 25 18 27
REMARK Flexibility Score: inf
ROOT
ATOM      1  C   UNL     1      37.472  42.574  16.454  1.00  0.00     0.180 A 
ATOM      2  C   UNL     1      36.801  41.404  16.851  1.00  0.00     0.208 A 
ATOM      3  C   UNL     1      37.093  40.845  18.105  1.00  0.00     0.238 A 
ATOM      4  O   UNL     1      36.529  39.768  18.433  1.00  0.00    -0.285 OA
ATOM      5  C   UNL     1      38.040  41.469  18.952  1.00  0.00     0.111 A 
ATOM      6  C   UNL     1      38.384  41.012  20.260  1.00  0.00     0.134 A 
ATOM      7  C   UNL     1      39.428  41.633  20.957  1.00  0.00     0.093 A 
ATOM      8  C   UNL     1      40.097  42.735  20.419  1.00  0.00     0.123 A 
ATOM      9  C   UNL     1      39.729  43.227  19.169  1.00  0.00     0.094 A 
ATOM     10  C   UNL     1      38.714  42.606  18.434  1.00  0.00     0.146 A 
ATOM     11  O   UNL     1      38.402  43.099  17.242  1.00  0.00    -0.452 OA
ENDROOT
BRANCH   1  12
ATOM     12  C   UNL     1      37.199  43.236  15.157  1.00  0.00     0.025 A 
ATOM     13  C   UNL     1      36.350  44.353  15.071  1.00  0.00     0.016 A 
ATOM     14  C   UNL     1      36.127  44.976  13.840  1.00  0.00     0.051 A 
ATOM     15  C   UNL     1      36.758  44.503  12.682  1.00  0.00     0.157 A 
ATOM     16  C   UNL     1      37.846  42.778  13.998  1.00  0.00     0.062 A 
ATOM     17  C   UNL     1      37.625  43.400  12.763  1.00  0.00     0.158 A 
BRANCH  15  18
ATOM     18  O   UNL     1      36.533  45.125  11.455  1.00  0.00    -0.504 OA
ATOM     19  H   UNL     1      36.262  44.596  10.634  1.00  0.00     0.293 HD
ENDBRANCH  15  18
BRANCH  17  20
ATOM     20  O   UNL     1      38.274  42.908  11.631  1.00  0.00    -0.504 OA
ATOM     21  H   UNL     1      39.240  43.133  11.424  1.00  0.00     0.293 HD
ENDBRANCH  17  20
ENDBRANCH   1  12
BRANCH   2  22
ATOM     22  O   UNL     1      35.886  40.791  15.991  1.00  0.00    -0.502 OA
ATOM     23  H   UNL     1      35.300  41.318  15.355  1.00  0.00     0.293 HD
ENDBRANCH   2  22
BRANCH   6  24
ATOM     24  O   UNL     1      37.717  39.979  20.925  1.00  0.00    -0.507 OA
ATOM     25  H   UNL     1      36.871  39.536  20.600  1.00  0.00     0.293 HD
ENDBRANCH   6  24
BRANCH   8  26
ATOM     26  O   UNL     1      41.125  43.357  21.125  1.00  0.00    -0.508 OA
ATOM     27  H   UNL     1      41.249  44.362  21.105  1.00  0.00     0.293 HD
ENDBRANCH   8  26
TORSDOF 6
ENDMDL
MODEL 8
REMARK VINA RESULT:    -3.888     21.068     22.966
REMARK INTER + INTRA:          -5.006
REMARK INTER:                  -5.458
REMARK INTRA:                   0.452
REMARK UNBOUND:                -0.323
REMARK SMILES O=c1c(O)c(-c2ccc(O)c(O)c2)oc2cc(O)cc(O)c12
REMARK SMILES IDX 5 1 3 2 2 3 1 4 22 5 20 6 19 7 17 8 16 9 15 10 14 11 6 12
REMARK SMILES IDX 7 13 8 14 9 15 13 16 11 17 10 18 12 20 4 22 21 24 18 26
REMARK H PARENT 10 19 12 21 4 23 21 25 18 27
REMARK Flexibility Score: inf
ROOT
ATOM      1  C   UNL     1      38.703  42.705  16.331  1.00  0.00     0.180 A 
ATOM      2  C   UNL     1      38.636  43.359  17.573  1.00  0.00     0.208 A 
ATOM      3  C   UNL     1      38.059  42.691  18.664  1.00  0.00     0.238 A 
ATOM      4  O   UNL     1      37.953  43.302  19.760  1.00  0.00    -0.285 OA
ATOM      5  C   UNL     1      37.571  41.371  18.505  1.00  0.00     0.111 A 
ATOM      6  C   UNL     1      37.004  40.584  19.553  1.00  0.00     0.134 A 
ATOM      7  C   UNL     1      36.436  39.340  19.252  1.00  0.00     0.093 A 
ATOM      8  C   UNL     1      36.472  38.827  17.953  1.00  0.00     0.123 A 
ATOM      9  C   UNL     1      37.077  39.561  16.936  1.00  0.00     0.094 A 
ATOM     10  C   UNL     1      37.621  40.821  17.197  1.00  0.00     0.146 A 
ATOM     11  O   UNL     1      38.177  41.492  16.197  1.00  0.00    -0.452 OA
ENDROOT
BRANCH   1  12
ATOM     12  C   UNL     1      39.319  43.335  15.140  1.00  0.00     0.025 A 
ATOM     13  C   UNL     1      40.008  44.556  15.234  1.00  0.00     0.016 A 
ATOM     14  C   UNL     1      40.602  45.120  14.101  1.00  0.00     0.051 A 
ATOM     15  C   UNL     1      40.528  44.467  12.864  1.00  0.00     0.157 A 
ATOM     16  C   UNL     1      39.264  42.674  13.903  1.00  0.00     0.062 A 
ATOM     17  C   UNL     1      39.859  43.236  12.766  1.00  0.00     0.158 A 
BRANCH  15  18
ATOM     18  O   UNL     1      41.120  45.032  11.736  1.00  0.00    -0.504 OA
ATOM     19  H   UNL     1      40.639  45.728  11.177  1.00  0.00     0.293 HD
ENDBRANCH  15  18
BRANCH  17  20
ATOM     20  O   UNL     1      39.772  42.557  11.551  1.00  0.00    -0.504 OA
ATOM     21  H   UNL     1      40.589  42.181  11.085  1.00  0.00     0.293 HD
ENDBRANCH  17  20
ENDBRANCH   1  12
BRANCH   2  22
ATOM     22  O   UNL     1      39.103  44.670  17.703  1.00  0.00    -0.502 OA
ATOM     23  H   UNL     1      39.072  45.174  18.581  1.00  0.00     0.293 HD
ENDBRANCH   2  22
BRANCH   6  24
ATOM     24  O   UNL     1      37.000  40.964  20.898  1.00  0.00    -0.507 OA
ATOM     25  H   UNL     1      37.783  41.376  21.383  1.00  0.00     0.293 HD
ENDBRANCH   6  24
BRANCH   8  26
ATOM     26  O   UNL     1      35.918  37.582  17.665  1.00  0.00    -0.508 OA
ATOM     27  H   UNL     1      35.657  37.324  16.721  1.00  0.00     0.293 HD
ENDBRANCH   8  26
TORSDOF 6
ENDMDL
MODEL 9
REMARK VINA RESULT:    -3.428      1.643      6.601
REMARK INTER + INTRA:          -4.452
REMARK INTER:                  -4.230
REMARK INTRA:                  -0.222
REMARK UNBOUND:                -0.323
REMARK SMILES O=c1c(O)c(-c2ccc(O)c(O)c2)oc2cc(O)cc(O)c12
REMARK SMILES IDX 5 1 3 2 2 3 1 4 22 5 20 6 19 7 17 8 16 9 15 10 14 11 6 12
REMARK SMILES IDX 7 13 8 14 9 15 13 16 11 17 10 18 12 20 4 22 21 24 18 26
REMARK H PARENT 10 19 12 21 4 23 21 25 18 27
REMARK Flexibility Score: inf
ROOT
ATOM      1  C   UNL     1      22.986  28.112   6.833  1.00  0.00     0.180 A 
ATOM      2  C   UNL     1      22.395  27.394   5.778  1.00  0.00     0.208 A 
ATOM      3  C   UNL     1      23.001  27.424   4.512  1.00  0.00     0.238 A 
ATOM      4  O   UNL     1      22.438  26.824   3.558  1.00  0.00    -0.285 OA
ATOM      5  C   UNL     1      24.196  28.157   4.319  1.00  0.00     0.111 A 
ATOM      6  C   UNL     1      24.917  28.224   3.088  1.00  0.00     0.134 A 
ATOM      7  C   UNL     1      26.017  29.084   2.978  1.00  0.00     0.093 A 
ATOM      8  C   UNL     1      26.460  29.830   4.072  1.00  0.00     0.123 A 
ATOM      9  C   UNL     1      25.800  29.727   5.294  1.00  0.00     0.094 A 
ATOM     10  C   UNL     1      24.678  28.904   5.426  1.00  0.00     0.146 A 
ATOM     11  O   UNL     1      24.071  28.843   6.604  1.00  0.00    -0.452 OA
ENDROOT
BRANCH   1  12
ATOM     12  C   UNL     1      22.421  28.108   8.201  1.00  0.00     0.025 A 
ATOM     13  C   UNL     1      22.424  26.946   8.991  1.00  0.00     0.016 A 
ATOM     14  C   UNL     1      21.906  26.973  10.289  1.00  0.00     0.051 A 
ATOM     15  C   UNL     1      21.392  28.162  10.822  1.00  0.00     0.157 A 
ATOM     16  C   UNL     1      21.923  29.303   8.746  1.00  0.00     0.062 A 
ATOM     17  C   UNL     1      21.404  29.334  10.047  1.00  0.00     0.158 A 
BRANCH  15  18
ATOM     18  O   UNL     1      20.875  28.186  12.116  1.00  0.00    -0.504 OA
ATOM     19  H   UNL     1      21.322  27.683  12.874  1.00  0.00     0.293 HD
ENDBRANCH  15  18
BRANCH  17  20
ATOM     20  O   UNL     1      20.906  30.535  10.549  1.00  0.00    -0.504 OA
ATOM     21  H   UNL     1      20.717  31.331   9.951  1.00  0.00     0.293 HD
ENDBRANCH  17  20
ENDBRANCH   1  12
BRANCH   2  22
ATOM     22  O   UNL     1      21.203  26.695   5.984  1.00  0.00    -0.502 OA
ATOM     23  H   UNL     1      20.328  26.974   5.557  1.00  0.00     0.293 HD
ENDBRANCH   2  22
BRANCH   6  24
ATOM     24  O   UNL     1      24.613  27.451   1.964  1.00  0.00    -0.507 OA
ATOM     25  H   UNL     1      23.680  27.257   1.633  1.00  0.00     0.293 HD
ENDBRANCH   6  24
BRANCH   8  26
ATOM     26  O   UNL     1      27.564  30.673   3.958  1.00  0.00    -0.508 OA
ATOM     27  H   UNL     1      27.474  31.678   4.044  1.00  0.00     0.293 HD
ENDBRANCH   8  26
TORSDOF 6
ENDMDL
