MODEL 1
REMARK VINA RESULT:    -5.776      0.000      0.000
REMARK INTER + INTRA:          -7.488
REMARK INTER:                  -7.126
REMARK INTRA:                  -0.361
REMARK UNBOUND:                -0.361
REMARK SMILES O=c1c(O)c(-c2cc(O)c(O)c(O)c2)oc2cc(O)cc(O)c12
REMARK SMILES IDX 5 1 3 2 2 3 1 4 23 5 21 6 20 7 18 8 17 9 16 10 15 11 6 12
REMARK SMILES IDX 7 13 8 14 14 15 10 16 12 17 9 18 11 20 13 22 4 24 22 26
REMARK SMILES IDX 19 28
REMARK H PARENT 9 19 11 21 13 23 4 25 22 27 19 29
REMARK Flexibility Score: inf
ROOT
ATOM      1  C   UNL     1      71.368  38.237  19.968  1.00  0.00     0.180 A 
ATOM      2  C   UNL     1      71.581  37.005  19.326  1.00  0.00     0.208 A 
ATOM      3  C   UNL     1      70.471  36.257  18.901  1.00  0.00     0.238 A 
ATOM      4  O   UNL     1      70.667  35.130  18.376  1.00  0.00    -0.285 OA
ATOM      5  C   UNL     1      69.163  36.758  19.108  1.00  0.00     0.111 A 
ATOM      6  C   UNL     1      67.969  36.104  18.683  1.00  0.00     0.134 A 
ATOM      7  C   UNL     1      66.724  36.627  19.056  1.00  0.00     0.093 A 
ATOM      8  C   UNL     1      66.630  37.813  19.782  1.00  0.00     0.123 A 
ATOM      9  C   UNL     1      67.791  38.493  20.152  1.00  0.00     0.094 A 
ATOM     10  C   UNL     1      69.047  37.977  19.825  1.00  0.00     0.146 A 
ATOM     11  O   UNL     1      70.128  38.649  20.205  1.00  0.00    -0.452 OA
ENDROOT
BRANCH   1  12
ATOM     12  C   UNL     1      72.487  39.094  20.421  1.00  0.00     0.029 A 
ATOM     13  C   UNL     1      73.012  40.106  19.601  1.00  0.00     0.062 A 
ATOM     14  C   UNL     1      74.057  40.922  20.055  1.00  0.00     0.162 A 
ATOM     15  C   UNL     1      73.000  38.931  21.717  1.00  0.00     0.062 A 
ATOM     16  C   UNL     1      74.579  40.738  21.346  1.00  0.00     0.200 A 
ATOM     17  C   UNL     1      74.044  39.740  22.178  1.00  0.00     0.162 A 
BRANCH  14  18
ATOM     18  O   UNL     1      74.573  41.921  19.230  1.00  0.00    -0.504 OA
ATOM     19  H   UNL     1      75.344  42.509  19.523  1.00  0.00     0.293 HD
ENDBRANCH  14  18
BRANCH  16  20
ATOM     20  O   UNL     1      75.623  41.539  21.814  1.00  0.00    -0.502 OA
ATOM     21  H   UNL     1      75.890  42.400  21.353  1.00  0.00     0.293 HD
ENDBRANCH  16  20
BRANCH  17  22
ATOM     22  O   UNL     1      74.535  39.537  23.468  1.00  0.00    -0.504 OA
ATOM     23  H   UNL     1      74.160  38.822  24.081  1.00  0.00     0.293 HD
ENDBRANCH  17  22
ENDBRANCH   1  12
BRANCH   2  24
ATOM     24  O   UNL     1      72.880  36.519  19.152  1.00  0.00    -0.502 OA
ATOM     25  H   UNL     1      73.654  36.816  19.732  1.00  0.00     0.293 HD
ENDBRANCH   2  24
BRANCH   6  26
ATOM     26  O   UNL     1      67.948  34.963  17.875  1.00  0.00    -0.507 OA
ATOM     27  H   UNL     1      68.389  34.086  18.108  1.00  0.00     0.293 HD
ENDBRANCH   6  26
BRANCH   8  28
ATOM     28  O   UNL     1      65.375  38.314  20.123  1.00  0.00    -0.508 OA
ATOM     29  H   UNL     1      65.200  38.732  21.028  1.00  0.00     0.293 HD
ENDBRANCH   8  28
TORSDOF 7
ENDMDL
MODEL 2
REMARK VINA RESULT:    -5.737      0.163      1.761
REMARK INTER + INTRA:          -7.440
REMARK INTER:                  -7.082
REMARK INTRA:                  -0.358
REMARK UNBOUND:                -0.361
REMARK SMILES O=c1c(O)c(-c2cc(O)c(O)c(O)c2)oc2cc(O)cc(O)c12
REMARK SMILES IDX 5 1 3 2 2 3 1 4 23 5 21 6 20 7 18 8 17 9 16 10 15 11 6 12
REMARK SMILES IDX 7 13 8 14 14 15 10 16 12 17 9 18 11 20 13 22 4 24 22 26
REMARK SMILES IDX 19 28
REMARK H PARENT 9 19 11 21 13 23 4 25 22 27 19 29
REMARK Flexibility Score: inf
ROOT
ATOM      1  C   UNL     1      71.367  38.280  19.905  1.00  0.00     0.180 A 
ATOM      2  C   UNL     1      71.570  37.043  19.271  1.00  0.00     0.208 A 
ATOM      3  C   UNL     1      70.454  36.294  18.864  1.00  0.00     0.238 A 
ATOM      4  O   UNL     1      70.641  35.162  18.346  1.00  0.00    -0.285 OA
ATOM      5  C   UNL     1      69.150  36.800  19.081  1.00  0.00     0.111 A 
ATOM      6  C   UNL     1      67.949  36.145  18.674  1.00  0.00     0.134 A 
ATOM      7  C   UNL     1      66.710  36.674  19.056  1.00  0.00     0.093 A 
ATOM      8  C   UNL     1      66.626  37.866  19.774  1.00  0.00     0.123 A 
ATOM      9  C   UNL     1      67.793  38.546  20.126  1.00  0.00     0.094 A 
ATOM     10  C   UNL     1      69.044  38.024  19.790  1.00  0.00     0.146 A 
ATOM     11  O   UNL     1      70.131  38.697  20.152  1.00  0.00    -0.452 OA
ENDROOT
BRANCH   1  12
ATOM     12  C   UNL     1      72.493  39.137  20.339  1.00  0.00     0.029 A 
ATOM     13  C   UNL     1      73.069  38.998  21.613  1.00  0.00     0.062 A 
ATOM     14  C   UNL     1      74.149  39.804  22.000  1.00  0.00     0.162 A 
ATOM     15  C   UNL     1      73.035  40.071  19.444  1.00  0.00     0.062 A 
ATOM     16  C   UNL     1      74.672  40.752  21.104  1.00  0.00     0.200 A 
ATOM     17  C   UNL     1      74.112  40.880  19.821  1.00  0.00     0.162 A 
BRANCH  14  18
ATOM     18  O   UNL     1      74.709  39.660  23.269  1.00  0.00    -0.504 OA
ATOM     19  H   UNL     1      74.234  39.990  24.100  1.00  0.00     0.293 HD
ENDBRANCH  14  18
BRANCH  16  20
ATOM     20  O   UNL     1      75.744  41.565  21.473  1.00  0.00    -0.502 OA
ATOM     21  H   UNL     1      76.477  41.819  20.822  1.00  0.00     0.293 HD
ENDBRANCH  16  20
BRANCH  17  22
ATOM     22  O   UNL     1      74.613  41.806  18.907  1.00  0.00    -0.504 OA
ATOM     23  H   UNL     1      75.601  41.871  18.691  1.00  0.00     0.293 HD
ENDBRANCH  17  22
ENDBRANCH   1  12
BRANCH   2  24
ATOM     24  O   UNL     1      72.866  36.552  19.086  1.00  0.00    -0.502 OA
ATOM     25  H   UNL     1      73.110  35.584  19.256  1.00  0.00     0.293 HD
ENDBRANCH   2  24
BRANCH   6  26
ATOM     26  O   UNL     1      67.917  34.998  17.876  1.00  0.00    -0.507 OA
ATOM     27  H   UNL     1      67.371  34.899  17.032  1.00  0.00     0.293 HD
ENDBRANCH   6  26
BRANCH   8  28
ATOM     28  O   UNL     1      65.377  38.373  20.125  1.00  0.00    -0.508 OA
ATOM     29  H   UNL     1      65.163  38.643  21.077  1.00  0.00     0.293 HD
ENDBRANCH   8  28
TORSDOF 7
ENDMDL
MODEL 3
REMARK VINA RESULT:    -5.310      1.272      2.982
REMARK INTER + INTRA:          -6.913
REMARK INTER:                  -6.588
REMARK INTRA:                  -0.326
REMARK UNBOUND:                -0.361
REMARK SMILES O=c1c(O)c(-c2cc(O)c(O)c(O)c2)oc2cc(O)cc(O)c12
REMARK SMILES IDX 5 1 3 2 2 3 1 4 23 5 21 6 20 7 18 8 17 9 16 10 15 11 6 12
REMARK SMILES IDX 7 13 8 14 14 15 10 16 12 17 9 18 11 20 13 22 4 24 22 26
REMARK SMILES IDX 19 28
REMARK H PARENT 9 19 11 21 13 23 4 25 22 27 19 29
REMARK Flexibility Score: inf
ROOT
ATOM      1  C   UNL     1      70.610  39.613  20.397  1.00  0.00     0.180 A 
ATOM      2  C   UNL     1      69.510  40.456  20.629  1.00  0.00     0.208 A 
ATOM      3  C   UNL     1      68.222  40.002  20.301  1.00  0.00     0.238 A 
ATOM      4  O   UNL     1      67.247  40.782  20.460  1.00  0.00    -0.285 OA
ATOM      5  C   UNL     1      68.049  38.705  19.761  1.00  0.00     0.111 A 
ATOM      6  C   UNL     1      66.787  38.128  19.430  1.00  0.00     0.134 A 
ATOM      7  C   UNL     1      66.744  36.888  18.780  1.00  0.00     0.093 A 
ATOM      8  C   UNL     1      67.911  36.176  18.509  1.00  0.00     0.123 A 
ATOM      9  C   UNL     1      69.148  36.704  18.882  1.00  0.00     0.094 A 
ATOM     10  C   UNL     1      69.225  37.955  19.499  1.00  0.00     0.146 A 
ATOM     11  O   UNL     1      70.421  38.427  19.829  1.00  0.00    -0.452 OA
ENDROOT
BRANCH   1  12
ATOM     12  C   UNL     1      71.994  40.011  20.740  1.00  0.00     0.029 A 
ATOM     13  C   UNL     1      72.738  40.860  19.905  1.00  0.00     0.062 A 
ATOM     14  C   UNL     1      74.040  41.244  20.257  1.00  0.00     0.162 A 
ATOM     15  C   UNL     1      72.557  39.577  21.949  1.00  0.00     0.062 A 
ATOM     16  C   UNL     1      74.605  40.787  21.459  1.00  0.00     0.200 A 
ATOM     17  C   UNL     1      73.856  39.954  22.308  1.00  0.00     0.162 A 
BRANCH  14  18
ATOM     18  O   UNL     1      74.771  42.084  19.417  1.00  0.00    -0.504 OA
ATOM     19  H   UNL     1      74.559  42.165  18.430  1.00  0.00     0.293 HD
ENDBRANCH  14  18
BRANCH  16  20
ATOM     20  O   UNL     1      75.901  41.156  21.824  1.00  0.00    -0.502 OA
ATOM     21  H   UNL     1      76.170  41.298  22.789  1.00  0.00     0.293 HD
ENDBRANCH  16  20
BRANCH  17  22
ATOM     22  O   UNL     1      74.385  39.490  23.512  1.00  0.00    -0.504 OA
ATOM     23  H   UNL     1      74.378  38.508  23.760  1.00  0.00     0.293 HD
ENDBRANCH  17  22
ENDBRANCH   1  12
BRANCH   2  24
ATOM     24  O   UNL     1      69.705  41.741  21.143  1.00  0.00    -0.502 OA
ATOM     25  H   UNL     1      70.575  42.247  21.026  1.00  0.00     0.293 HD
ENDBRANCH   2  24
BRANCH   6  26
ATOM     26  O   UNL     1      65.555  38.712  19.739  1.00  0.00    -0.507 OA
ATOM     27  H   UNL     1      64.854  38.969  19.061  1.00  0.00     0.293 HD
ENDBRANCH   6  26
BRANCH   8  28
ATOM     28  O   UNL     1      67.831  34.938  17.875  1.00  0.00    -0.508 OA
ATOM     29  H   UNL     1      67.695  34.862  16.875  1.00  0.00     0.293 HD
ENDBRANCH   8  28
TORSDOF 7
ENDMDL
MODEL 4
REMARK VINA RESULT:    -5.209      1.266      3.455
REMARK INTER + INTRA:          -6.789
REMARK INTER:                  -6.461
REMARK INTRA:                  -0.328
REMARK UNBOUND:                -0.361
REMARK SMILES O=c1c(O)c(-c2cc(O)c(O)c(O)c2)oc2cc(O)cc(O)c12
REMARK SMILES IDX 5 1 3 2 2 3 1 4 23 5 21 6 20 7 18 8 17 9 16 10 15 11 6 12
REMARK SMILES IDX 7 13 8 14 14 15 10 16 12 17 9 18 11 20 13 22 4 24 22 26
REMARK SMILES IDX 19 28
REMARK H PARENT 9 19 11 21 13 23 4 25 22 27 19 29
REMARK Flexibility Score: inf
ROOT
ATOM      1  C   UNL     1      70.642  39.612  20.478  1.00  0.00     0.180 A 
ATOM      2  C   UNL     1      69.521  40.429  20.704  1.00  0.00     0.208 A 
ATOM      3  C   UNL     1      68.248  39.950  20.354  1.00  0.00     0.238 A 
ATOM      4  O   UNL     1      67.255  40.707  20.508  1.00  0.00    -0.285 OA
ATOM      5  C   UNL     1      68.110  38.655  19.800  1.00  0.00     0.111 A 
ATOM      6  C   UNL     1      66.866  38.054  19.446  1.00  0.00     0.134 A 
ATOM      7  C   UNL     1      66.858  36.819  18.784  1.00  0.00     0.093 A 
ATOM      8  C   UNL     1      68.045  36.136  18.522  1.00  0.00     0.123 A 
ATOM      9  C   UNL     1      69.265  36.687  18.917  1.00  0.00     0.094 A 
ATOM     10  C   UNL     1      69.306  37.934  19.546  1.00  0.00     0.146 A 
ATOM     11  O   UNL     1      70.487  38.428  19.897  1.00  0.00    -0.452 OA
ENDROOT
BRANCH   1  12
ATOM     12  C   UNL     1      72.013  40.036  20.843  1.00  0.00     0.029 A 
ATOM     13  C   UNL     1      72.635  39.571  22.014  1.00  0.00     0.062 A 
ATOM     14  C   UNL     1      73.942  39.966  22.332  1.00  0.00     0.162 A 
ATOM     15  C   UNL     1      72.729  40.877  19.978  1.00  0.00     0.062 A 
ATOM     16  C   UNL     1      74.644  40.825  21.471  1.00  0.00     0.200 A 
ATOM     17  C   UNL     1      74.033  41.277  20.288  1.00  0.00     0.162 A 
BRANCH  14  18
ATOM     18  O   UNL     1      74.547  39.501  23.500  1.00  0.00    -0.504 OA
ATOM     19  H   UNL     1      74.704  40.107  24.296  1.00  0.00     0.293 HD
ENDBRANCH  14  18
BRANCH  16  20
ATOM     20  O   UNL     1      75.945  41.231  21.774  1.00  0.00    -0.502 OA
ATOM     21  H   UNL     1      76.566  41.616  21.073  1.00  0.00     0.293 HD
ENDBRANCH  16  20
BRANCH  17  22
ATOM     22  O   UNL     1      74.706  42.124  19.409  1.00  0.00    -0.504 OA
ATOM     23  H   UNL     1      75.058  41.803  18.514  1.00  0.00     0.293 HD
ENDBRANCH  17  22
ENDBRANCH   1  12
BRANCH   2  24
ATOM     24  O   UNL     1      69.682  41.713  21.232  1.00  0.00    -0.502 OA
ATOM     25  H   UNL     1      68.898  42.322  21.430  1.00  0.00     0.293 HD
ENDBRANCH   2  24
BRANCH   6  26
ATOM     26  O   UNL     1      65.618  38.608  19.745  1.00  0.00    -0.507 OA
ATOM     27  H   UNL     1      64.756  38.368  19.279  1.00  0.00     0.293 HD
ENDBRANCH   6  26
BRANCH   8  28
ATOM     28  O   UNL     1      68.000  34.902  17.876  1.00  0.00    -0.508 OA
ATOM     29  H   UNL     1      67.208  34.631  17.305  1.00  0.00     0.293 HD
ENDBRANCH   8  28
TORSDOF 7
ENDMDL
MODEL 5
REMARK VINA RESULT:    -5.033      1.549      7.282
REMARK INTER + INTRA:          -6.572
REMARK INTER:                  -6.315
REMARK INTRA:                  -0.257
REMARK UNBOUND:                -0.361
REMARK SMILES O=c1c(O)c(-c2cc(O)c(O)c(O)c2)oc2cc(O)cc(O)c12
REMARK SMILES IDX 5 1 3 2 2 3 1 4 23 5 21 6 20 7 18 8 17 9 16 10 15 11 6 12
REMARK SMILES IDX 7 13 8 14 14 15 10 16 12 17 9 18 11 20 13 22 4 24 22 26
REMARK SMILES IDX 19 28
REMARK H PARENT 9 19 11 21 13 23 4 25 22 27 19 29
REMARK Flexibility Score: inf
ROOT
ATOM      1  C   UNL     1      71.927  39.298  20.131  1.00  0.00     0.180 A 
ATOM      2  C   UNL     1      72.414  40.092  19.079  1.00  0.00     0.208 A 
ATOM      3  C   UNL     1      73.592  40.831  19.271  1.00  0.00     0.238 A 
ATOM      4  O   UNL     1      73.992  41.582  18.344  1.00  0.00    -0.285 OA
ATOM      5  C   UNL     1      74.279  40.753  20.506  1.00  0.00     0.111 A 
ATOM      6  C   UNL     1      75.503  41.426  20.796  1.00  0.00     0.134 A 
ATOM      7  C   UNL     1      76.025  41.381  22.095  1.00  0.00     0.093 A 
ATOM      8  C   UNL     1      75.404  40.635  23.096  1.00  0.00     0.123 A 
ATOM      9  C   UNL     1      74.238  39.924  22.807  1.00  0.00     0.094 A 
ATOM     10  C   UNL     1      73.674  39.979  21.530  1.00  0.00     0.146 A 
ATOM     11  O   UNL     1      72.559  39.296  21.300  1.00  0.00    -0.452 OA
ENDROOT
BRANCH   1  12
ATOM     12  C   UNL     1      70.706  38.472  19.997  1.00  0.00     0.029 A 
ATOM     13  C   UNL     1      69.508  38.828  20.639  1.00  0.00     0.062 A 
ATOM     14  C   UNL     1      68.355  38.046  20.482  1.00  0.00     0.162 A 
ATOM     15  C   UNL     1      70.726  37.340  19.167  1.00  0.00     0.062 A 
ATOM     16  C   UNL     1      68.390  36.902  19.667  1.00  0.00     0.200 A 
ATOM     17  C   UNL     1      69.581  36.554  19.006  1.00  0.00     0.162 A 
BRANCH  14  18
ATOM     18  O   UNL     1      67.174  38.406  21.129  1.00  0.00    -0.504 OA
ATOM     19  H   UNL     1      66.621  37.731  21.643  1.00  0.00     0.293 HD
ENDBRANCH  14  18
BRANCH  16  20
ATOM     20  O   UNL     1      67.253  36.109  19.503  1.00  0.00    -0.502 OA
ATOM     21  H   UNL     1      66.400  36.275  20.024  1.00  0.00     0.293 HD
ENDBRANCH  16  20
BRANCH  17  22
ATOM     22  O   UNL     1      69.645  35.429  18.185  1.00  0.00    -0.504 OA
ATOM     23  H   UNL     1      70.443  35.242  17.588  1.00  0.00     0.293 HD
ENDBRANCH  17  22
ENDBRANCH   1  12
BRANCH   2  24
ATOM     24  O   UNL     1      71.708  40.172  17.875  1.00  0.00    -0.502 OA
ATOM     25  H   UNL     1      72.170  40.205  16.975  1.00  0.00     0.293 HD
ENDBRANCH   2  24
BRANCH   6  26
ATOM     26  O   UNL     1      76.254  42.124  19.846  1.00  0.00    -0.507 OA
ATOM     27  H   UNL     1      77.025  42.739  20.061  1.00  0.00     0.293 HD
ENDBRANCH   6  26
BRANCH   8  28
ATOM     28  O   UNL     1      75.959  40.599  24.373  1.00  0.00    -0.508 OA
ATOM     29  H   UNL     1      75.611  39.969  25.085  1.00  0.00     0.293 HD
ENDBRANCH   8  28
TORSDOF 7
ENDMDL
MODEL 6
REMARK VINA RESULT:    -4.955      1.713      2.847
REMARK INTER + INTRA:          -6.475
REMARK INTER:                  -6.141
REMARK INTRA:                  -0.334
REMARK UNBOUND:                -0.361
REMARK SMILES O=c1c(O)c(-c2cc(O)c(O)c(O)c2)oc2cc(O)cc(O)c12
REMARK SMILES IDX 5 1 3 2 2 3 1 4 23 5 21 6 20 7 18 8 17 9 16 10 15 11 6 12
REMARK SMILES IDX 7 13 8 14 14 15 10 16 12 17 9 18 11 20 13 22 4 24 22 26
REMARK SMILES IDX 19 28
REMARK H PARENT 9 19 11 21 13 23 4 25 22 27 19 29
REMARK Flexibility Score: inf
ROOT
ATOM      1  C   UNL     1      72.667  39.378  21.217  1.00  0.00     0.180 A 
ATOM      2  C   UNL     1      72.666  38.011  20.892  1.00  0.00     0.208 A 
ATOM      3  C   UNL     1      71.485  37.426  20.408  1.00  0.00     0.238 A 
ATOM      4  O   UNL     1      71.475  36.190  20.171  1.00  0.00    -0.285 OA
ATOM      5  C   UNL     1      70.325  38.219  20.238  1.00  0.00     0.111 A 
ATOM      6  C   UNL     1      69.086  37.741  19.717  1.00  0.00     0.134 A 
ATOM      7  C   UNL     1      67.966  38.583  19.715  1.00  0.00     0.093 A 
ATOM      8  C   UNL     1      68.057  39.903  20.154  1.00  0.00     0.123 A 
ATOM      9  C   UNL     1      69.279  40.399  20.610  1.00  0.00     0.094 A 
ATOM     10  C   UNL     1      70.404  39.573  20.657  1.00  0.00     0.146 A 
ATOM     11  O   UNL     1      71.545  40.081  21.107  1.00  0.00    -0.452 OA
ENDROOT
BRANCH   1  12
ATOM     12  C   UNL     1      73.880  40.071  21.708  1.00  0.00     0.029 A 
ATOM     13  C   UNL     1      74.269  39.995  23.056  1.00  0.00     0.062 A 
ATOM     14  C   UNL     1      75.433  40.639  23.500  1.00  0.00     0.162 A 
ATOM     15  C   UNL     1      74.689  40.773  20.803  1.00  0.00     0.062 A 
ATOM     16  C   UNL     1      76.226  41.358  22.590  1.00  0.00     0.200 A 
ATOM     17  C   UNL     1      75.851  41.420  21.237  1.00  0.00     0.162 A 
BRANCH  14  18
ATOM     18  O   UNL     1      75.806  40.561  24.841  1.00  0.00    -0.504 OA
ATOM     19  H   UNL     1      76.693  40.163  25.124  1.00  0.00     0.293 HD
ENDBRANCH  14  18
BRANCH  16  20
ATOM     20  O   UNL     1      77.385  42.009  23.015  1.00  0.00    -0.502 OA
ATOM     21  H   UNL     1      78.047  42.411  22.362  1.00  0.00     0.293 HD
ENDBRANCH  16  20
BRANCH  17  22
ATOM     22  O   UNL     1      76.621  42.119  20.307  1.00  0.00    -0.504 OA
ATOM     23  H   UNL     1      76.516  43.116  20.162  1.00  0.00     0.293 HD
ENDBRANCH  17  22
ENDBRANCH   1  12
BRANCH   2  24
ATOM     24  O   UNL     1      73.816  37.241  21.088  1.00  0.00    -0.502 OA
ATOM     25  H   UNL     1      74.530  37.138  20.377  1.00  0.00     0.293 HD
ENDBRANCH   2  24
BRANCH   6  26
ATOM     26  O   UNL     1      68.909  36.468  19.168  1.00  0.00    -0.507 OA
ATOM     27  H   UNL     1      69.640  35.921  18.737  1.00  0.00     0.293 HD
ENDBRANCH   6  26
BRANCH   8  28
ATOM     28  O   UNL     1      66.927  40.717  20.123  1.00  0.00    -0.508 OA
ATOM     29  H   UNL     1      66.269  40.741  20.893  1.00  0.00     0.293 HD
ENDBRANCH   8  28
TORSDOF 7
ENDMDL
MODEL 7
REMARK VINA RESULT:    -4.934      1.606      3.172
REMARK INTER + INTRA:          -6.449
REMARK INTER:                  -6.234
REMARK INTRA:                  -0.215
REMARK UNBOUND:                -0.361
REMARK SMILES O=c1c(O)c(-c2cc(O)c(O)c(O)c2)oc2cc(O)cc(O)c12
REMARK SMILES IDX 5 1 3 2 2 3 1 4 23 5 21 6 20 7 18 8 17 9 16 10 15 11 6 12
REMARK SMILES IDX 7 13 8 14 14 15 10 16 12 17 9 18 11 20 13 22 4 24 22 26
REMARK SMILES IDX 19 28
REMARK H PARENT 9 19 11 21 13 23 4 25 22 27 19 29
REMARK Flexibility Score: inf
ROOT
ATOM      1  C   UNL     1      71.818  39.875  20.745  1.00  0.00     0.180 A 
ATOM      2  C   UNL     1      70.685  40.465  21.332  1.00  0.00     0.208 A 
ATOM      3  C   UNL     1      69.432  39.858  21.154  1.00  0.00     0.238 A 
ATOM      4  O   UNL     1      68.414  40.420  21.636  1.00  0.00    -0.285 OA
ATOM      5  C   UNL     1      69.328  38.661  20.406  1.00  0.00     0.111 A 
ATOM      6  C   UNL     1      68.116  37.939  20.196  1.00  0.00     0.134 A 
ATOM      7  C   UNL     1      68.108  36.838  19.330  1.00  0.00     0.093 A 
ATOM      8  C   UNL     1      69.280  36.394  18.719  1.00  0.00     0.123 A 
ATOM      9  C   UNL     1      70.484  37.057  18.965  1.00  0.00     0.094 A 
ATOM     10  C   UNL     1      70.516  38.180  19.795  1.00  0.00     0.146 A 
ATOM     11  O   UNL     1      71.679  38.788  19.995  1.00  0.00    -0.452 OA
ENDROOT
BRANCH   1  12
ATOM     12  C   UNL     1      73.176  40.442  20.909  1.00  0.00     0.029 A 
ATOM     13  C   UNL     1      73.865  41.013  19.826  1.00  0.00     0.062 A 
ATOM     14  C   UNL     1      75.142  41.565  20.005  1.00  0.00     0.162 A 
ATOM     15  C   UNL     1      73.768  40.459  22.181  1.00  0.00     0.062 A 
ATOM     16  C   UNL     1      75.736  41.559  21.278  1.00  0.00     0.200 A 
ATOM     17  C   UNL     1      75.041  41.006  22.368  1.00  0.00     0.162 A 
BRANCH  14  18
ATOM     18  O   UNL     1      75.818  42.125  18.921  1.00  0.00    -0.504 OA
ATOM     19  H   UNL     1      75.358  42.289  18.034  1.00  0.00     0.293 HD
ENDBRANCH  14  18
BRANCH  16  20
ATOM     20  O   UNL     1      77.008  42.100  21.473  1.00  0.00    -0.502 OA
ATOM     21  H   UNL     1      77.473  42.072  22.371  1.00  0.00     0.293 HD
ENDBRANCH  16  20
BRANCH  17  22
ATOM     22  O   UNL     1      75.601  40.992  23.645  1.00  0.00    -0.504 OA
ATOM     23  H   UNL     1      76.033  41.812  24.053  1.00  0.00     0.293 HD
ENDBRANCH  17  22
ENDBRANCH   1  12
BRANCH   2  24
ATOM     24  O   UNL     1      70.807  41.659  22.048  1.00  0.00    -0.502 OA
ATOM     25  H   UNL     1      70.946  41.680  23.051  1.00  0.00     0.293 HD
ENDBRANCH   2  24
BRANCH   6  26
ATOM     26  O   UNL     1      66.907  38.242  20.829  1.00  0.00    -0.507 OA
ATOM     27  H   UNL     1      66.747  39.057  21.402  1.00  0.00     0.293 HD
ENDBRANCH   6  26
BRANCH   8  28
ATOM     28  O   UNL     1      69.240  35.285  17.877  1.00  0.00    -0.508 OA
ATOM     29  H   UNL     1      68.854  35.344  16.942  1.00  0.00     0.293 HD
ENDBRANCH   8  28
TORSDOF 7
ENDMDL
MODEL 8
REMARK VINA RESULT:    -4.903      1.771      7.578
REMARK INTER + INTRA:          -6.411
REMARK INTER:                  -6.101
REMARK INTRA:                  -0.311
REMARK UNBOUND:                -0.361
REMARK SMILES O=c1c(O)c(-c2cc(O)c(O)c(O)c2)oc2cc(O)cc(O)c12
REMARK SMILES IDX 5 1 3 2 2 3 1 4 23 5 21 6 20 7 18 8 17 9 16 10 15 11 6 12
REMARK SMILES IDX 7 13 8 14 14 15 10 16 12 17 9 18 11 20 13 22 4 24 22 26
REMARK SMILES IDX 19 28
REMARK H PARENT 9 19 11 21 13 23 4 25 22 27 19 29
REMARK Flexibility Score: inf
ROOT
ATOM      1  C   UNL     1      73.028  38.876  20.020  1.00  0.00     0.180 A 
ATOM      2  C   UNL     1      73.166  39.137  21.394  1.00  0.00     0.208 A 
ATOM      3  C   UNL     1      74.170  40.020  21.822  1.00  0.00     0.238 A 
ATOM      4  O   UNL     1      74.324  40.207  23.057  1.00  0.00    -0.285 OA
ATOM      5  C   UNL     1      75.012  40.645  20.871  1.00  0.00     0.111 A 
ATOM      6  C   UNL     1      76.035  41.587  21.189  1.00  0.00     0.134 A 
ATOM      7  C   UNL     1      76.893  42.042  20.180  1.00  0.00     0.093 A 
ATOM      8  C   UNL     1      76.725  41.640  18.856  1.00  0.00     0.123 A 
ATOM      9  C   UNL     1      75.690  40.765  18.524  1.00  0.00     0.094 A 
ATOM     10  C   UNL     1      74.840  40.266  19.514  1.00  0.00     0.146 A 
ATOM     11  O   UNL     1      73.874  39.428  19.158  1.00  0.00    -0.452 OA
ENDROOT
BRANCH   1  12
ATOM     12  C   UNL     1      71.978  37.978  19.490  1.00  0.00     0.029 A 
ATOM     13  C   UNL     1      70.633  38.380  19.428  1.00  0.00     0.062 A 
ATOM     14  C   UNL     1      69.655  37.524  18.902  1.00  0.00     0.162 A 
ATOM     15  C   UNL     1      72.337  36.718  18.985  1.00  0.00     0.062 A 
ATOM     16  C   UNL     1      70.021  36.256  18.420  1.00  0.00     0.200 A 
ATOM     17  C   UNL     1      71.368  35.857  18.460  1.00  0.00     0.162 A 
BRANCH  14  18
ATOM     18  O   UNL     1      68.323  37.933  18.852  1.00  0.00    -0.504 OA
ATOM     19  H   UNL     1      68.068  38.888  18.631  1.00  0.00     0.293 HD
ENDBRANCH  14  18
BRANCH  16  20
ATOM     20  O   UNL     1      69.060  35.389  17.896  1.00  0.00    -0.502 OA
ATOM     21  H   UNL     1      68.305  35.018  18.460  1.00  0.00     0.293 HD
ENDBRANCH  16  20
BRANCH  17  22
ATOM     22  O   UNL     1      71.764  34.608  17.982  1.00  0.00    -0.504 OA
ATOM     23  H   UNL     1      72.322  33.971  18.538  1.00  0.00     0.293 HD
ENDBRANCH  17  22
ENDBRANCH   1  12
BRANCH   2  24
ATOM     24  O   UNL     1      72.338  38.493  22.318  1.00  0.00    -0.502 OA
ATOM     25  H   UNL     1      72.662  38.213  23.235  1.00  0.00     0.293 HD
ENDBRANCH   2  24
BRANCH   6  26
ATOM     26  O   UNL     1      76.231  42.125  22.464  1.00  0.00    -0.507 OA
ATOM     27  H   UNL     1      76.233  41.590  23.320  1.00  0.00     0.293 HD
ENDBRANCH   6  26
BRANCH   8  28
ATOM     28  O   UNL     1      77.587  42.125  17.875  1.00  0.00    -0.508 OA
ATOM     29  H   UNL     1      77.853  41.561  17.077  1.00  0.00     0.293 HD
ENDBRANCH   8  28
TORSDOF 7
ENDMDL
MODEL 9
REMARK VINA RESULT:    -4.872      1.459      1.685
REMARK INTER + INTRA:          -6.373
REMARK INTER:                  -6.166
REMARK INTRA:                  -0.207
REMARK UNBOUND:                -0.361
REMARK SMILES O=c1c(O)c(-c2cc(O)c(O)c(O)c2)oc2cc(O)cc(O)c12
REMARK SMILES IDX 5 1 3 2 2 3 1 4 23 5 21 6 20 7 18 8 17 9 16 10 15 11 6 12
REMARK SMILES IDX 7 13 8 14 14 15 10 16 12 17 9 18 11 20 13 22 4 24 22 26
REMARK SMILES IDX 19 28
REMARK H PARENT 9 19 11 21 13 23 4 25 22 27 19 29
REMARK Flexibility Score: inf
ROOT
ATOM      1  C   UNL     1      71.763  39.391  20.330  1.00  0.00     0.180 A 
ATOM      2  C   UNL     1      71.643  37.994  20.429  1.00  0.00     0.208 A 
ATOM      3  C   UNL     1      70.401  37.396  20.164  1.00  0.00     0.238 A 
ATOM      4  O   UNL     1      70.286  36.151  20.308  1.00  0.00    -0.285 OA
ATOM      5  C   UNL     1      69.298  38.200  19.787  1.00  0.00     0.111 A 
ATOM      6  C   UNL     1      68.005  37.697  19.456  1.00  0.00     0.134 A 
ATOM      7  C   UNL     1      66.954  38.594  19.223  1.00  0.00     0.093 A 
ATOM      8  C   UNL     1      67.164  39.972  19.246  1.00  0.00     0.123 A 
ATOM      9  C   UNL     1      68.440  40.474  19.509  1.00  0.00     0.094 A 
ATOM     10  C   UNL     1      69.499  39.605  19.781  1.00  0.00     0.146 A 
ATOM     11  O   UNL     1      70.695  40.123  20.037  1.00  0.00    -0.452 OA
ENDROOT
BRANCH   1  12
ATOM     12  C   UNL     1      73.045  40.091  20.570  1.00  0.00     0.029 A 
ATOM     13  C   UNL     1      73.710  40.773  19.537  1.00  0.00     0.062 A 
ATOM     14  C   UNL     1      74.912  41.449  19.787  1.00  0.00     0.162 A 
ATOM     15  C   UNL     1      73.583  40.123  21.865  1.00  0.00     0.062 A 
ATOM     16  C   UNL     1      75.455  41.458  21.083  1.00  0.00     0.200 A 
ATOM     17  C   UNL     1      74.783  40.794  22.124  1.00  0.00     0.162 A 
BRANCH  14  18
ATOM     18  O   UNL     1      75.565  42.118  18.752  1.00  0.00    -0.504 OA
ATOM     19  H   UNL     1      76.510  42.467  18.857  1.00  0.00     0.293 HD
ENDBRANCH  14  18
BRANCH  16  20
ATOM     20  O   UNL     1      76.653  42.123  21.349  1.00  0.00    -0.502 OA
ATOM     21  H   UNL     1      76.733  42.815  22.084  1.00  0.00     0.293 HD
ENDBRANCH  16  20
BRANCH  17  22
ATOM     22  O   UNL     1      75.291  40.791  23.422  1.00  0.00    -0.504 OA
ATOM     23  H   UNL     1      75.009  41.476  24.113  1.00  0.00     0.293 HD
ENDBRANCH  17  22
ENDBRANCH   1  12
BRANCH   2  24
ATOM     24  O   UNL     1      72.738  37.221  20.825  1.00  0.00    -0.502 OA
ATOM     25  H   UNL     1      72.640  36.389  21.394  1.00  0.00     0.293 HD
ENDBRANCH   2  24
BRANCH   6  26
ATOM     26  O   UNL     1      67.707  36.339  19.316  1.00  0.00    -0.507 OA
ATOM     27  H   UNL     1      67.508  35.712  20.081  1.00  0.00     0.293 HD
ENDBRANCH   6  26
BRANCH   8  28
ATOM     28  O   UNL     1      66.100  40.835  18.994  1.00  0.00    -0.508 OA
ATOM     29  H   UNL     1      65.188  40.487  18.724  1.00  0.00     0.293 HD
ENDBRANCH   8  28
TORSDOF 7
ENDMDL
