MODEL 1
REMARK VINA RESULT:    -5.445      0.000      0.000
REMARK INTER + INTRA:          -6.150
REMARK INTER:                  -5.922
REMARK INTRA:                  -0.228
REMARK UNBOUND:                -0.228
REMARK SMILES CC1=C2C[C@H](C(C)(C)O)CC[C@@]2(C)CCC1
REMARK SMILES IDX 6 1 7 2 8 3 5 4 1 5 2 6 3 7 16 8 4 9 12 10 15 11 11 12 14 13
REMARK SMILES IDX 13 14 10 15 9 16
REMARK H PARENT 9 17
REMARK Flexibility Score: inf
ROOT
ATOM      1  C   UNL     1      40.057 -40.734   0.332  1.00  0.00     0.062 C 
ATOM      2  C   UNL     1      40.917 -41.360   1.449  1.00  0.00     0.042 C 
ATOM      3  C   UNL     1      39.733 -39.272   0.738  1.00  0.00     0.042 C 
ENDROOT
BRANCH   1   4
ATOM      4  C   UNL     1      40.798 -40.839  -1.053  1.00  0.00     0.024 C 
ATOM      5  C   UNL     1      38.768 -41.187  -4.494  1.00  0.00     0.039 C 
ATOM      6  C   UNL     1      40.243 -40.853  -4.522  1.00  0.00    -0.074 C 
ATOM      7  C   UNL     1      40.863 -40.210  -3.482  1.00  0.00    -0.065 C 
ATOM      8  C   UNL     1      40.997 -41.226  -5.777  1.00  0.00     0.031 C 
ATOM      9  C   UNL     1      40.152 -39.966  -2.156  1.00  0.00     0.038 C 
ATOM     10  C   UNL     1      42.375 -39.909  -3.484  1.00  0.00    -0.011 C 
ATOM     11  C   UNL     1      42.462 -41.514  -5.481  1.00  0.00     0.005 C 
ATOM     12  C   UNL     1      43.022 -40.724  -2.329  1.00  0.00     0.011 C 
ATOM     13  C   UNL     1      43.078 -40.286  -4.825  1.00  0.00     0.011 C 
ATOM     14  C   UNL     1      42.615 -38.394  -3.265  1.00  0.00     0.016 C 
ATOM     15  C   UNL     1      42.319 -40.541  -0.970  1.00  0.00     0.008 C 
ENDBRANCH   1   4
BRANCH   1  16
ATOM     16  O   UNL     1      38.869 -41.495   0.281  1.00  0.00    -0.390 OA
ATOM     17  H   UNL     1      38.707 -41.907   1.170  1.00  0.00     0.211 HD
ENDBRANCH   1  16
TORSDOF 2
ENDMDL
MODEL 2
REMARK VINA RESULT:    -5.080      2.303      3.935
REMARK INTER + INTRA:          -5.753
REMARK INTER:                  -5.514
REMARK INTRA:                  -0.239
REMARK UNBOUND:                -0.228
REMARK SMILES CC1=C2C[C@H](C(C)(C)O)CC[C@@]2(C)CCC1
REMARK SMILES IDX 6 1 7 2 8 3 5 4 1 5 2 6 3 7 16 8 4 9 12 10 15 11 11 12 14 13
REMARK SMILES IDX 13 14 10 15 9 16
REMARK H PARENT 9 17
REMARK Flexibility Score: inf
ROOT
ATOM      1  C   UNL     1      37.219 -40.471  -4.504  1.00  0.00     0.062 C 
ATOM      2  C   UNL     1      36.319 -39.695  -3.521  1.00  0.00     0.042 C 
ATOM      3  C   UNL     1      36.970 -39.909  -5.928  1.00  0.00     0.042 C 
ENDROOT
BRANCH   1   4
ATOM      4  C   UNL     1      38.726 -40.374  -4.058  1.00  0.00     0.024 C 
ATOM      5  C   UNL     1      41.670 -41.971  -6.265  1.00  0.00     0.039 C 
ATOM      6  C   UNL     1      42.006 -41.008  -5.148  1.00  0.00    -0.074 C 
ATOM      7  C   UNL     1      41.124 -40.046  -4.727  1.00  0.00    -0.065 C 
ATOM      8  C   UNL     1      43.386 -41.128  -4.542  1.00  0.00     0.031 C 
ATOM      9  C   UNL     1      39.682 -40.013  -5.222  1.00  0.00     0.038 C 
ATOM     10  C   UNL     1      41.441 -39.092  -3.558  1.00  0.00    -0.011 C 
ATOM     11  C   UNL     1      43.395 -40.683  -3.087  1.00  0.00     0.005 C 
ATOM     12  C   UNL     1      40.435 -39.395  -2.412  1.00  0.00     0.011 C 
ATOM     13  C   UNL     1      42.894 -39.248  -3.011  1.00  0.00     0.011 C 
ATOM     14  C   UNL     1      41.293 -37.620  -4.019  1.00  0.00     0.016 C 
ATOM     15  C   UNL     1      38.962 -39.409  -2.866  1.00  0.00     0.008 C 
ENDBRANCH   1   4
BRANCH   1  16
ATOM     16  O   UNL     1      36.802 -41.818  -4.436  1.00  0.00    -0.390 OA
ATOM     17  H   UNL     1      37.475 -42.343  -3.928  1.00  0.00     0.211 HD
ENDBRANCH   1  16
TORSDOF 2
ENDMDL
MODEL 3
REMARK VINA RESULT:    -4.856      3.292      5.361
REMARK INTER + INTRA:          -5.509
REMARK INTER:                  -5.248
REMARK INTRA:                  -0.262
REMARK UNBOUND:                -0.228
REMARK SMILES CC1=C2C[C@H](C(C)(C)O)CC[C@@]2(C)CCC1
REMARK SMILES IDX 6 1 7 2 8 3 5 4 1 5 2 6 3 7 16 8 4 9 12 10 15 11 11 12 14 13
REMARK SMILES IDX 13 14 10 15 9 16
REMARK H PARENT 9 17
REMARK Flexibility Score: inf
ROOT
ATOM      1  C   UNL     1      41.890 -39.985  -4.423  1.00  0.00     0.062 C 
ATOM      2  C   UNL     1      41.859 -40.473  -2.960  1.00  0.00     0.042 C 
ATOM      3  C   UNL     1      42.241 -41.197  -5.325  1.00  0.00     0.042 C 
ENDROOT
BRANCH   1   4
ATOM      4  C   UNL     1      40.519 -39.310  -4.803  1.00  0.00     0.024 C 
ATOM      5  C   UNL     1      38.946 -39.688  -8.473  1.00  0.00     0.039 C 
ATOM      6  C   UNL     1      38.097 -39.150  -7.343  1.00  0.00    -0.074 C 
ATOM      7  C   UNL     1      38.337 -39.477  -6.034  1.00  0.00    -0.065 C 
ATOM      8  C   UNL     1      36.936 -38.264  -7.732  1.00  0.00     0.031 C 
ATOM      9  C   UNL     1      39.589 -40.242  -5.618  1.00  0.00     0.038 C 
ATOM     10  C   UNL     1      37.505 -38.895  -4.873  1.00  0.00    -0.011 C 
ATOM     11  C   UNL     1      36.610 -37.261  -6.634  1.00  0.00     0.005 C 
ATOM     12  C   UNL     1      38.450 -38.018  -4.005  1.00  0.00     0.011 C 
ATOM     13  C   UNL     1      36.303 -38.023  -5.353  1.00  0.00     0.011 C 
ATOM     14  C   UNL     1      36.911 -40.043  -4.018  1.00  0.00     0.016 C 
ATOM     15  C   UNL     1      39.750 -38.732  -3.586  1.00  0.00     0.008 C 
ENDBRANCH   1   4
BRANCH   1  16
ATOM     16  O   UNL     1      42.917 -39.018  -4.491  1.00  0.00    -0.390 OA
ATOM     17  H   UNL     1      42.534 -38.157  -4.804  1.00  0.00     0.211 HD
ENDBRANCH   1  16
TORSDOF 2
ENDMDL
MODEL 4
REMARK VINA RESULT:    -4.812      2.656      4.970
REMARK INTER + INTRA:          -5.462
REMARK INTER:                  -5.262
REMARK INTRA:                  -0.200
REMARK UNBOUND:                -0.228
REMARK SMILES CC1=C2C[C@H](C(C)(C)O)CC[C@@]2(C)CCC1
REMARK SMILES IDX 6 1 7 2 8 3 5 4 1 5 2 6 3 7 16 8 4 9 12 10 15 11 11 12 14 13
REMARK SMILES IDX 13 14 10 15 9 16
REMARK H PARENT 9 17
REMARK Flexibility Score: inf
ROOT
ATOM      1  C   UNL     1      42.705 -40.181  -3.763  1.00  0.00     0.062 C 
ATOM      2  C   UNL     1      43.169 -40.576  -2.347  1.00  0.00     0.042 C 
ATOM      3  C   UNL     1      43.313 -41.194  -4.768  1.00  0.00     0.042 C 
ENDROOT
BRANCH   1   4
ATOM      4  C   UNL     1      41.133 -40.118  -3.826  1.00  0.00     0.024 C 
ATOM      5  C   UNL     1      39.063 -37.362  -1.776  1.00  0.00     0.039 C 
ATOM      6  C   UNL     1      38.376 -38.168  -2.856  1.00  0.00    -0.074 C 
ATOM      7  C   UNL     1      39.064 -38.699  -3.916  1.00  0.00    -0.065 C 
ATOM      8  C   UNL     1      36.878 -38.327  -2.733  1.00  0.00     0.031 C 
ATOM      9  C   UNL     1      40.587 -38.677  -3.971  1.00  0.00     0.038 C 
ATOM     10  C   UNL     1      38.378 -39.561  -4.995  1.00  0.00    -0.011 C 
ATOM     11  C   UNL     1      36.402 -39.628  -3.363  1.00  0.00     0.005 C 
ATOM     12  C   UNL     1      38.976 -40.994  -4.907  1.00  0.00     0.011 C 
ATOM     13  C   UNL     1      36.830 -39.647  -4.824  1.00  0.00     0.011 C 
ATOM     14  C   UNL     1      38.640 -38.962  -6.399  1.00  0.00     0.016 C 
ATOM     15  C   UNL     1      40.517 -41.027  -4.923  1.00  0.00     0.008 C 
ENDBRANCH   1   4
BRANCH   1  16
ATOM     16  O   UNL     1      43.229 -38.891  -4.000  1.00  0.00    -0.390 OA
ATOM     17  H   UNL     1      43.268 -38.729  -4.979  1.00  0.00     0.211 HD
ENDBRANCH   1  16
TORSDOF 2
ENDMDL
MODEL 5
REMARK VINA RESULT:    -4.797      1.967      4.429
REMARK INTER + INTRA:          -5.446
REMARK INTER:                  -5.242
REMARK INTRA:                  -0.204
REMARK UNBOUND:                -0.228
REMARK SMILES CC1=C2C[C@H](C(C)(C)O)CC[C@@]2(C)CCC1
REMARK SMILES IDX 6 1 7 2 8 3 5 4 1 5 2 6 3 7 16 8 4 9 12 10 15 11 11 12 14 13
REMARK SMILES IDX 13 14 10 15 9 16
REMARK H PARENT 9 17
REMARK Flexibility Score: inf
ROOT
ATOM      1  C   UNL     1      37.376 -40.201  -4.652  1.00  0.00     0.062 C 
ATOM      2  C   UNL     1      36.268 -39.338  -4.014  1.00  0.00     0.042 C 
ATOM      3  C   UNL     1      37.309 -40.007  -6.189  1.00  0.00     0.042 C 
ENDROOT
BRANCH   1   4
ATOM      4  C   UNL     1      38.779 -39.828  -4.044  1.00  0.00     0.024 C 
ATOM      5  C   UNL     1      39.987 -41.291  -0.510  1.00  0.00     0.039 C 
ATOM      6  C   UNL     1      40.984 -40.613  -1.424  1.00  0.00    -0.074 C 
ATOM      7  C   UNL     1      40.817 -40.577  -2.784  1.00  0.00    -0.065 C 
ATOM      8  C   UNL     1      42.204 -40.011  -0.765  1.00  0.00     0.031 C 
ATOM      9  C   UNL     1      39.524 -41.044  -3.443  1.00  0.00     0.038 C 
ATOM     10  C   UNL     1      41.805 -39.848  -3.716  1.00  0.00    -0.011 C 
ATOM     11  C   UNL     1      42.734 -38.824  -1.557  1.00  0.00     0.005 C 
ATOM     12  C   UNL     1      41.043 -38.668  -4.384  1.00  0.00     0.011 C 
ATOM     13  C   UNL     1      43.056 -39.286  -2.972  1.00  0.00     0.011 C 
ATOM     14  C   UNL     1      42.331 -40.822  -4.800  1.00  0.00     0.016 C 
ATOM     15  C   UNL     1      39.709 -39.079  -5.036  1.00  0.00     0.008 C 
ENDBRANCH   1   4
BRANCH   1  16
ATOM     16  O   UNL     1      37.068 -41.538  -4.320  1.00  0.00    -0.390 OA
ATOM     17  H   UNL     1      36.973 -42.069  -5.155  1.00  0.00     0.211 HD
ENDBRANCH   1  16
TORSDOF 2
ENDMDL
MODEL 6
REMARK VINA RESULT:    -4.638      2.376      4.047
REMARK INTER + INTRA:          -5.273
REMARK INTER:                  -5.059
REMARK INTRA:                  -0.214
REMARK UNBOUND:                -0.228
REMARK SMILES CC1=C2C[C@H](C(C)(C)O)CC[C@@]2(C)CCC1
REMARK SMILES IDX 6 1 7 2 8 3 5 4 1 5 2 6 3 7 16 8 4 9 12 10 15 11 11 12 14 13
REMARK SMILES IDX 13 14 10 15 9 16
REMARK H PARENT 9 17
REMARK Flexibility Score: inf
ROOT
ATOM      1  C   UNL     1      36.658 -39.307  -3.078  1.00  0.00     0.062 C 
ATOM      2  C   UNL     1      36.317 -39.304  -1.573  1.00  0.00     0.042 C 
ATOM      3  C   UNL     1      35.910 -38.122  -3.742  1.00  0.00     0.042 C 
ENDROOT
BRANCH   1   4
ATOM      4  C   UNL     1      38.218 -39.245  -3.285  1.00  0.00     0.024 C 
ATOM      5  C   UNL     1      40.753 -40.756  -0.569  1.00  0.00     0.039 C 
ATOM      6  C   UNL     1      41.259 -40.386  -1.946  1.00  0.00    -0.074 C 
ATOM      7  C   UNL     1      40.441 -40.386  -3.046  1.00  0.00    -0.065 C 
ATOM      8  C   UNL     1      42.730 -40.055  -2.060  1.00  0.00     0.031 C 
ATOM      9  C   UNL     1      38.933 -40.569  -2.919  1.00  0.00     0.038 C 
ATOM     10  C   UNL     1      40.939 -39.965  -4.443  1.00  0.00    -0.011 C 
ATOM     11  C   UNL     1      42.992 -39.074  -3.193  1.00  0.00     0.005 C 
ATOM     12  C   UNL     1      40.170 -38.677  -4.852  1.00  0.00     0.011 C 
ATOM     13  C   UNL     1      42.471 -39.676  -4.491  1.00  0.00     0.011 C 
ATOM     14  C   UNL     1      40.665 -41.095  -5.467  1.00  0.00     0.016 C 
ATOM     15  C   UNL     1      38.640 -38.795  -4.708  1.00  0.00     0.008 C 
ENDBRANCH   1   4
BRANCH   1  16
ATOM     16  O   UNL     1      36.172 -40.532  -3.585  1.00  0.00    -0.390 OA
ATOM     17  H   UNL     1      35.434 -40.350  -4.224  1.00  0.00     0.211 HD
ENDBRANCH   1  16
TORSDOF 2
ENDMDL
MODEL 7
REMARK VINA RESULT:    -4.600      1.955      3.580
REMARK INTER + INTRA:          -5.231
REMARK INTER:                  -5.024
REMARK INTRA:                  -0.207
REMARK UNBOUND:                -0.228
REMARK SMILES CC1=C2C[C@H](C(C)(C)O)CC[C@@]2(C)CCC1
REMARK SMILES IDX 6 1 7 2 8 3 5 4 1 5 2 6 3 7 16 8 4 9 12 10 15 11 11 12 14 13
REMARK SMILES IDX 13 14 10 15 9 16
REMARK H PARENT 9 17
REMARK Flexibility Score: inf
ROOT
ATOM      1  C   UNL     1      42.630 -40.827  -0.022  1.00  0.00     0.062 C 
ATOM      2  C   UNL     1      43.206 -39.794   0.968  1.00  0.00     0.042 C 
ATOM      3  C   UNL     1      41.713 -41.793   0.772  1.00  0.00     0.042 C 
ENDROOT
BRANCH   1   4
ATOM      4  C   UNL     1      41.883 -40.097  -1.200  1.00  0.00     0.024 C 
ATOM      5  C   UNL     1      43.438 -36.854  -2.976  1.00  0.00     0.039 C 
ATOM      6  C   UNL     1      42.274 -37.577  -3.618  1.00  0.00    -0.074 C 
ATOM      7  C   UNL     1      42.043 -38.912  -3.408  1.00  0.00    -0.065 C 
ATOM      8  C   UNL     1      41.398 -36.763  -4.542  1.00  0.00     0.031 C 
ATOM      9  C   UNL     1      42.824 -39.704  -2.366  1.00  0.00     0.038 C 
ATOM     10  C   UNL     1      40.833 -39.645  -4.021  1.00  0.00    -0.011 C 
ATOM     11  C   UNL     1      39.971 -37.292  -4.564  1.00  0.00     0.005 C 
ATOM     12  C   UNL     1      39.919 -40.111  -2.852  1.00  0.00     0.011 C 
ATOM     13  C   UNL     1      39.998 -38.753  -4.991  1.00  0.00     0.011 C 
ATOM     14  C   UNL     1      41.312 -40.869  -4.841  1.00  0.00     0.016 C 
ATOM     15  C   UNL     1      40.666 -40.887  -1.751  1.00  0.00     0.008 C 
ENDBRANCH   1   4
BRANCH   1  16
ATOM     16  O   UNL     1      43.739 -41.530  -0.542  1.00  0.00    -0.390 OA
ATOM     17  H   UNL     1      44.509 -40.909  -0.625  1.00  0.00     0.211 HD
ENDBRANCH   1  16
TORSDOF 2
ENDMDL
MODEL 8
REMARK VINA RESULT:    -4.531      3.218      5.231
REMARK INTER + INTRA:          -5.155
REMARK INTER:                  -4.956
REMARK INTRA:                  -0.200
REMARK UNBOUND:                -0.228
REMARK SMILES CC1=C2C[C@H](C(C)(C)O)CC[C@@]2(C)CCC1
REMARK SMILES IDX 6 1 7 2 8 3 5 4 1 5 2 6 3 7 16 8 4 9 12 10 15 11 11 12 14 13
REMARK SMILES IDX 13 14 10 15 9 16
REMARK H PARENT 9 17
REMARK Flexibility Score: inf
ROOT
ATOM      1  C   UNL     1      38.931 -36.049  -5.059  1.00  0.00     0.062 C 
ATOM      2  C   UNL     1      39.767 -34.935  -5.721  1.00  0.00     0.042 C 
ATOM      3  C   UNL     1      37.496 -35.982  -5.641  1.00  0.00     0.042 C 
ENDROOT
BRANCH   1   4
ATOM      4  C   UNL     1      39.619 -37.450  -5.273  1.00  0.00     0.024 C 
ATOM      5  C   UNL     1      43.002 -38.437  -3.360  1.00  0.00     0.039 C 
ATOM      6  C   UNL     1      42.200 -39.506  -4.068  1.00  0.00    -0.074 C 
ATOM      7  C   UNL     1      40.848 -39.391  -4.263  1.00  0.00    -0.065 C 
ATOM      8  C   UNL     1      42.957 -40.735  -4.516  1.00  0.00     0.031 C 
ATOM      9  C   UNL     1      40.103 -38.098  -3.954  1.00  0.00     0.038 C 
ATOM     10  C   UNL     1      40.032 -40.455  -5.025  1.00  0.00    -0.011 C 
ATOM     11  C   UNL     1      42.317 -41.365  -5.746  1.00  0.00     0.005 C 
ATOM     12  C   UNL     1      39.476 -39.790  -6.317  1.00  0.00     0.011 C 
ATOM     13  C   UNL     1      40.871 -41.709  -5.421  1.00  0.00     0.011 C 
ATOM     14  C   UNL     1      38.862 -40.960  -4.143  1.00  0.00     0.016 C 
ATOM     15  C   UNL     1      38.744 -38.458  -6.064  1.00  0.00     0.008 C 
ENDBRANCH   1   4
BRANCH   1  16
ATOM     16  O   UNL     1      38.908 -35.752  -3.679  1.00  0.00    -0.390 OA
ATOM     17  H   UNL     1      38.855 -36.598  -3.163  1.00  0.00     0.211 HD
ENDBRANCH   1  16
TORSDOF 2
ENDMDL
MODEL 9
REMARK VINA RESULT:    -4.500      3.274      5.638
REMARK INTER + INTRA:          -5.122
REMARK INTER:                  -4.894
REMARK INTRA:                  -0.228
REMARK UNBOUND:                -0.228
REMARK SMILES CC1=C2C[C@H](C(C)(C)O)CC[C@@]2(C)CCC1
REMARK SMILES IDX 6 1 7 2 8 3 5 4 1 5 2 6 3 7 16 8 4 9 12 10 15 11 11 12 14 13
REMARK SMILES IDX 13 14 10 15 9 16
REMARK H PARENT 9 17
REMARK Flexibility Score: inf
ROOT
ATOM      1  C   UNL     1      37.902 -38.350  -7.071  1.00  0.00     0.062 C 
ATOM      2  C   UNL     1      37.476 -39.485  -8.025  1.00  0.00     0.042 C 
ATOM      3  C   UNL     1      36.640 -37.861  -6.314  1.00  0.00     0.042 C 
ENDROOT
BRANCH   1   4
ATOM      4  C   UNL     1      39.045 -38.845  -6.108  1.00  0.00     0.024 C 
ATOM      5  C   UNL     1      41.817 -36.323  -4.679  1.00  0.00     0.039 C 
ATOM      6  C   UNL     1      41.669 -37.700  -4.071  1.00  0.00    -0.074 C 
ATOM      7  C   UNL     1      40.482 -38.385  -4.101  1.00  0.00    -0.065 C 
ATOM      8  C   UNL     1      42.889 -38.273  -3.386  1.00  0.00     0.031 C 
ATOM      9  C   UNL     1      39.294 -37.888  -4.917  1.00  0.00     0.038 C 
ATOM     10  C   UNL     1      40.336 -39.808  -3.525  1.00  0.00    -0.011 C 
ATOM     11  C   UNL     1      42.898 -39.793  -3.445  1.00  0.00     0.005 C 
ATOM     12  C   UNL     1      40.010 -40.766  -4.706  1.00  0.00     0.011 C 
ATOM     13  C   UNL     1      41.621 -40.315  -2.802  1.00  0.00     0.011 C 
ATOM     14  C   UNL     1      39.192 -39.843  -2.481  1.00  0.00     0.016 C 
ATOM     15  C   UNL     1      38.837 -40.291  -5.586  1.00  0.00     0.008 C 
ENDBRANCH   1   4
BRANCH   1  16
ATOM     16  O   UNL     1      38.403 -37.317  -7.893  1.00  0.00    -0.390 OA
ATOM     17  H   UNL     1      37.799 -37.198  -8.672  1.00  0.00     0.211 HD
ENDBRANCH   1  16
TORSDOF 2
ENDMDL
