MODEL 1
REMARK VINA RESULT:    -3.660      0.000      0.000
REMARK INTER + INTRA:          -3.660
REMARK INTER:                  -3.660
REMARK INTRA:                   0.000
REMARK UNBOUND:                 0.000
REMARK SMILES C=C1CCC[C@@]2(C)CC(=O)C(=C(C)C)C[C@@H]12
REMARK SMILES IDX 13 1 12 2 11 3 15 4 16 5 2 6 1 7 3 8 4 9 5 10 6 11 8 12 9 13
REMARK SMILES IDX 10 14 7 15 14 16
REMARK H PARENT
REMARK Flexibility Score: inf
ROOT
ATOM      1  C   UNL     1     168.378 201.404 298.875  1.00  0.00     0.039 C 
ATOM      2  C   UNL     1     167.737 200.473 299.879  1.00  0.00    -0.070 C 
ATOM      3  C   UNL     1     167.001 200.955 300.924  1.00  0.00    -0.006 C 
ATOM      4  C   UNL     1     166.775 202.451 301.106  1.00  0.00     0.047 C 
ATOM      5  C   UNL     1     165.423 202.793 301.785  1.00  0.00     0.025 C 
ATOM      6  C   UNL     1     164.199 202.703 300.869  1.00  0.00    -0.073 C 
ATOM      7  C   UNL     1     164.220 202.209 299.616  1.00  0.00     0.008 C 
ATOM      8  C   UNL     1     162.890 203.124 301.483  1.00  0.00     0.031 C 
ATOM      9  C   UNL     1     162.619 202.281 302.730  1.00  0.00     0.005 C 
ATOM     10  C   UNL     1     163.801 202.333 303.714  1.00  0.00     0.008 C 
ATOM     11  C   UNL     1     165.179 201.956 303.083  1.00  0.00    -0.018 C 
ATOM     12  C   UNL     1     165.221 200.443 302.740  1.00  0.00     0.088 C 
ATOM     13  C   UNL     1     166.474 200.070 302.002  1.00  0.00     0.159 C 
ATOM     14  O   UNL     1     167.070 199.006 302.323  1.00  0.00    -0.295 OA
ATOM     15  C   UNL     1     166.264 202.268 304.146  1.00  0.00     0.012 C 
ATOM     16  C   UNL     1     167.913 198.990 299.648  1.00  0.00     0.039 C 
ENDROOT
TORSDOF 0
ENDMDL
MODEL 2
REMARK VINA RESULT:    -3.372      1.794      5.045
REMARK INTER + INTRA:          -3.372
REMARK INTER:                  -3.372
REMARK INTRA:                   0.000
REMARK UNBOUND:                 0.000
REMARK SMILES C=C1CCC[C@@]2(C)CC(=O)C(=C(C)C)C[C@@H]12
REMARK SMILES IDX 13 1 12 2 11 3 15 4 16 5 2 6 1 7 3 8 4 9 5 10 6 11 8 12 9 13
REMARK SMILES IDX 10 14 7 15 14 16
REMARK H PARENT
REMARK Flexibility Score: inf
ROOT
ATOM      1  C   UNL     1     164.252 202.910 303.870  1.00  0.00     0.039 C 
ATOM      2  C   UNL     1     164.029 202.737 302.385  1.00  0.00    -0.070 C 
ATOM      3  C   UNL     1     165.068 202.475 301.537  1.00  0.00    -0.006 C 
ATOM      4  C   UNL     1     166.491 202.322 302.058  1.00  0.00     0.047 C 
ATOM      5  C   UNL     1     167.357 201.351 301.213  1.00  0.00     0.025 C 
ATOM      6  C   UNL     1     167.089 199.864 301.460  1.00  0.00    -0.073 C 
ATOM      7  C   UNL     1     166.079 199.387 302.214  1.00  0.00     0.008 C 
ATOM      8  C   UNL     1     167.985 198.905 300.721  1.00  0.00     0.031 C 
ATOM      9  C   UNL     1     167.880 199.168 299.219  1.00  0.00     0.005 C 
ATOM     10  C   UNL     1     168.154 200.645 298.883  1.00  0.00     0.008 C 
ATOM     11  C   UNL     1     167.276 201.659 299.682  1.00  0.00    -0.018 C 
ATOM     12  C   UNL     1     165.798 201.580 299.215  1.00  0.00     0.088 C 
ATOM     13  C   UNL     1     164.897 202.436 300.057  1.00  0.00     0.159 C 
ATOM     14  O   UNL     1     164.010 203.125 299.483  1.00  0.00    -0.295 OA
ATOM     15  C   UNL     1     167.831 203.075 299.379  1.00  0.00     0.012 C 
ATOM     16  C   UNL     1     162.603 202.825 301.890  1.00  0.00     0.039 C 
ENDROOT
TORSDOF 0
ENDMDL
MODEL 3
REMARK VINA RESULT:    -3.343      1.667      3.144
REMARK INTER + INTRA:          -3.343
REMARK INTER:                  -3.343
REMARK INTRA:                   0.000
REMARK UNBOUND:                 0.000
REMARK SMILES C=C1CCC[C@@]2(C)CC(=O)C(=C(C)C)C[C@@H]12
REMARK SMILES IDX 13 1 12 2 11 3 15 4 16 5 2 6 1 7 3 8 4 9 5 10 6 11 8 12 9 13
REMARK SMILES IDX 10 14 7 15 14 16
REMARK H PARENT
REMARK Flexibility Score: inf
ROOT
ATOM      1  C   UNL     1     167.988 199.377 300.209  1.00  0.00     0.039 C 
ATOM      2  C   UNL     1     167.460 200.776 299.989  1.00  0.00    -0.070 C 
ATOM      3  C   UNL     1     166.234 201.153 300.459  1.00  0.00    -0.006 C 
ATOM      4  C   UNL     1     165.360 200.186 301.248  1.00  0.00     0.047 C 
ATOM      5  C   UNL     1     164.450 200.886 302.291  1.00  0.00     0.025 C 
ATOM      6  C   UNL     1     165.159 201.321 303.577  1.00  0.00    -0.073 C 
ATOM      7  C   UNL     1     166.492 201.274 303.766  1.00  0.00     0.008 C 
ATOM      8  C   UNL     1     164.276 201.916 304.643  1.00  0.00     0.031 C 
ATOM      9  C   UNL     1     163.535 203.125 304.071  1.00  0.00     0.005 C 
ATOM     10  C   UNL     1     162.779 202.766 302.780  1.00  0.00     0.008 C 
ATOM     11  C   UNL     1     163.665 202.094 301.683  1.00  0.00    -0.018 C 
ATOM     12  C   UNL     1     164.668 203.121 301.094  1.00  0.00     0.088 C 
ATOM     13  C   UNL     1     165.632 202.479 300.139  1.00  0.00     0.159 C 
ATOM     14  O   UNL     1     165.907 203.078 299.064  1.00  0.00    -0.295 OA
ATOM     15  C   UNL     1     162.709 201.614 300.560  1.00  0.00     0.012 C 
ATOM     16  C   UNL     1     168.365 201.745 299.263  1.00  0.00     0.039 C 
ENDROOT
TORSDOF 0
ENDMDL
MODEL 4
REMARK VINA RESULT:    -3.025      2.924      4.946
REMARK INTER + INTRA:          -3.025
REMARK INTER:                  -3.025
REMARK INTRA:                   0.000
REMARK UNBOUND:                 0.000
REMARK SMILES C=C1CCC[C@@]2(C)CC(=O)C(=C(C)C)C[C@@H]12
REMARK SMILES IDX 13 1 12 2 11 3 15 4 16 5 2 6 1 7 3 8 4 9 5 10 6 11 8 12 9 13
REMARK SMILES IDX 10 14 7 15 14 16
REMARK H PARENT
REMARK Flexibility Score: inf
ROOT
ATOM      1  C   UNL     1     166.501 198.137 306.940  1.00  0.00     0.039 C 
ATOM      2  C   UNL     1     165.402 199.164 306.780  1.00  0.00    -0.070 C 
ATOM      3  C   UNL     1     165.446 200.100 305.786  1.00  0.00    -0.006 C 
ATOM      4  C   UNL     1     166.592 200.131 304.782  1.00  0.00     0.047 C 
ATOM      5  C   UNL     1     166.176 200.667 303.387  1.00  0.00     0.025 C 
ATOM      6  C   UNL     1     165.415 199.667 302.512  1.00  0.00    -0.073 C 
ATOM      7  C   UNL     1     164.971 198.467 302.935  1.00  0.00     0.008 C 
ATOM      8  C   UNL     1     165.086 200.133 301.118  1.00  0.00     0.031 C 
ATOM      9  C   UNL     1     164.269 201.423 301.195  1.00  0.00     0.005 C 
ATOM     10  C   UNL     1     164.976 202.491 302.047  1.00  0.00     0.008 C 
ATOM     11  C   UNL     1     165.379 202.009 303.477  1.00  0.00    -0.018 C 
ATOM     12  C   UNL     1     164.115 201.804 304.354  1.00  0.00     0.088 C 
ATOM     13  C   UNL     1     164.450 201.205 305.689  1.00  0.00     0.159 C 
ATOM     14  O   UNL     1     163.883 201.665 306.717  1.00  0.00    -0.295 OA
ATOM     15  C   UNL     1     166.257 203.125 304.101  1.00  0.00     0.012 C 
ATOM     16  C   UNL     1     164.239 199.079 307.741  1.00  0.00     0.039 C 
ENDROOT
TORSDOF 0
ENDMDL
MODEL 5
REMARK VINA RESULT:    -2.961      1.669      3.329
REMARK INTER + INTRA:          -2.961
REMARK INTER:                  -2.961
REMARK INTRA:                   0.000
REMARK UNBOUND:                 0.000
REMARK SMILES C=C1CCC[C@@]2(C)CC(=O)C(=C(C)C)C[C@@H]12
REMARK SMILES IDX 13 1 12 2 11 3 15 4 16 5 2 6 1 7 3 8 4 9 5 10 6 11 8 12 9 13
REMARK SMILES IDX 10 14 7 15 14 16
REMARK H PARENT
REMARK Flexibility Score: inf
ROOT
ATOM      1  C   UNL     1     167.679 198.769 299.271  1.00  0.00     0.039 C 
ATOM      2  C   UNL     1     167.711 200.155 299.873  1.00  0.00    -0.070 C 
ATOM      3  C   UNL     1     166.746 200.572 300.746  1.00  0.00    -0.006 C 
ATOM      4  C   UNL     1     165.611 199.647 301.167  1.00  0.00     0.047 C 
ATOM      5  C   UNL     1     165.089 199.923 302.602  1.00  0.00     0.025 C 
ATOM      6  C   UNL     1     165.973 199.377 303.726  1.00  0.00    -0.073 C 
ATOM      7  C   UNL     1     167.197 198.843 303.543  1.00  0.00     0.008 C 
ATOM      8  C   UNL     1     165.437 199.550 305.123  1.00  0.00     0.031 C 
ATOM      9  C   UNL     1     165.183 201.034 305.390  1.00  0.00     0.005 C 
ATOM     10  C   UNL     1     164.284 201.657 304.307  1.00  0.00     0.008 C 
ATOM     11  C   UNL     1     164.791 201.438 302.846  1.00  0.00    -0.018 C 
ATOM     12  C   UNL     1     166.078 202.267 302.592  1.00  0.00     0.088 C 
ATOM     13  C   UNL     1     166.677 201.974 301.247  1.00  0.00     0.159 C 
ATOM     14  O   UNL     1     167.104 202.937 300.553  1.00  0.00    -0.295 OA
ATOM     15  C   UNL     1     163.670 201.935 301.898  1.00  0.00     0.012 C 
ATOM     16  C   UNL     1     168.879 201.039 299.499  1.00  0.00     0.039 C 
ENDROOT
TORSDOF 0
ENDMDL
MODEL 6
REMARK VINA RESULT:    -2.807      2.024      5.262
REMARK INTER + INTRA:          -2.807
REMARK INTER:                  -2.807
REMARK INTRA:                   0.000
REMARK UNBOUND:                 0.000
REMARK SMILES C=C1CCC[C@@]2(C)CC(=O)C(=C(C)C)C[C@@H]12
REMARK SMILES IDX 13 1 12 2 11 3 15 4 16 5 2 6 1 7 3 8 4 9 5 10 6 11 8 12 9 13
REMARK SMILES IDX 10 14 7 15 14 16
REMARK H PARENT
REMARK Flexibility Score: inf
ROOT
ATOM      1  C   UNL     1     163.027 203.125 305.969  1.00  0.00     0.039 C 
ATOM      2  C   UNL     1     162.756 202.822 304.513  1.00  0.00    -0.070 C 
ATOM      3  C   UNL     1     163.775 202.550 303.644  1.00  0.00    -0.006 C 
ATOM      4  C   UNL     1     165.224 202.516 304.113  1.00  0.00     0.047 C 
ATOM      5  C   UNL     1     166.111 201.529 303.309  1.00  0.00     0.025 C 
ATOM      6  C   UNL     1     165.937 200.054 303.683  1.00  0.00    -0.073 C 
ATOM      7  C   UNL     1     164.987 199.585 304.515  1.00  0.00     0.008 C 
ATOM      8  C   UNL     1     166.857 199.089 302.983  1.00  0.00     0.031 C 
ATOM      9  C   UNL     1     166.679 199.224 301.470  1.00  0.00     0.005 C 
ATOM     10  C   UNL     1     166.855 200.682 301.009  1.00  0.00     0.008 C 
ATOM     11  C   UNL     1     165.952 201.708 301.764  1.00  0.00    -0.018 C 
ATOM     12  C   UNL     1     164.464 201.512 301.369  1.00  0.00     0.088 C 
ATOM     13  C   UNL     1     163.549 202.383 302.180  1.00  0.00     0.159 C 
ATOM     14  O   UNL     1     162.602 202.975 301.594  1.00  0.00    -0.295 OA
ATOM     15  C   UNL     1     166.412 203.123 301.328  1.00  0.00     0.012 C 
ATOM     16  C   UNL     1     161.310 202.793 304.076  1.00  0.00     0.039 C 
ENDROOT
TORSDOF 0
ENDMDL
MODEL 7
REMARK VINA RESULT:    -2.544      2.009      4.716
REMARK INTER + INTRA:          -2.544
REMARK INTER:                  -2.544
REMARK INTRA:                   0.000
REMARK UNBOUND:                 0.000
REMARK SMILES C=C1CCC[C@@]2(C)CC(=O)C(=C(C)C)C[C@@H]12
REMARK SMILES IDX 13 1 12 2 11 3 15 4 16 5 2 6 1 7 3 8 4 9 5 10 6 11 8 12 9 13
REMARK SMILES IDX 10 14 7 15 14 16
REMARK H PARENT
REMARK Flexibility Score: inf
ROOT
ATOM      1  C   UNL     1     164.268 201.207 306.909  1.00  0.00     0.039 C 
ATOM      2  C   UNL     1     165.240 200.282 306.212  1.00  0.00    -0.070 C 
ATOM      3  C   UNL     1     165.327 200.242 304.849  1.00  0.00    -0.006 C 
ATOM      4  C   UNL     1     164.466 201.147 303.977  1.00  0.00     0.047 C 
ATOM      5  C   UNL     1     165.142 201.538 302.636  1.00  0.00     0.025 C 
ATOM      6  C   UNL     1     166.208 202.631 302.746  1.00  0.00    -0.073 C 
ATOM      7  C   UNL     1     166.678 203.125 303.909  1.00  0.00     0.008 C 
ATOM      8  C   UNL     1     166.809 203.093 301.444  1.00  0.00     0.031 C 
ATOM      9  C   UNL     1     167.420 201.897 300.714  1.00  0.00     0.005 C 
ATOM     10  C   UNL     1     166.402 200.756 300.548  1.00  0.00     0.008 C 
ATOM     11  C   UNL     1     165.724 200.300 301.879  1.00  0.00    -0.018 C 
ATOM     12  C   UNL     1     166.750 199.572 302.787  1.00  0.00     0.088 C 
ATOM     13  C   UNL     1     166.175 199.246 304.134  1.00  0.00     0.159 C 
ATOM     14  O   UNL     1     166.414 198.113 304.635  1.00  0.00    -0.295 OA
ATOM     15  C   UNL     1     164.592 199.312 301.496  1.00  0.00     0.012 C 
ATOM     16  C   UNL     1     166.135 199.439 307.090  1.00  0.00     0.039 C 
ENDROOT
TORSDOF 0
ENDMDL
MODEL 8
REMARK VINA RESULT:    -2.272      1.653      4.658
REMARK INTER + INTRA:          -2.272
REMARK INTER:                  -2.272
REMARK INTRA:                   0.000
REMARK UNBOUND:                 0.000
REMARK SMILES C=C1CCC[C@@]2(C)CC(=O)C(=C(C)C)C[C@@H]12
REMARK SMILES IDX 13 1 12 2 11 3 15 4 16 5 2 6 1 7 3 8 4 9 5 10 6 11 8 12 9 13
REMARK SMILES IDX 10 14 7 15 14 16
REMARK H PARENT
REMARK Flexibility Score: inf
ROOT
ATOM      1  C   UNL     1     161.943 202.932 303.491  1.00  0.00     0.039 C 
ATOM      2  C   UNL     1     163.248 202.490 304.112  1.00  0.00    -0.070 C 
ATOM      3  C   UNL     1     164.059 201.586 303.488  1.00  0.00    -0.006 C 
ATOM      4  C   UNL     1     163.693 201.004 302.128  1.00  0.00     0.047 C 
ATOM      5  C   UNL     1     164.926 200.643 301.258  1.00  0.00     0.025 C 
ATOM      6  C   UNL     1     165.611 201.834 300.583  1.00  0.00    -0.073 C 
ATOM      7  C   UNL     1     165.311 203.125 300.826  1.00  0.00     0.008 C 
ATOM      8  C   UNL     1     166.751 201.496 299.658  1.00  0.00     0.031 C 
ATOM      9  C   UNL     1     167.811 200.705 300.426  1.00  0.00     0.005 C 
ATOM     10  C   UNL     1     167.203 199.475 301.123  1.00  0.00     0.008 C 
ATOM     11  C   UNL     1     165.981 199.796 302.043  1.00  0.00    -0.018 C 
ATOM     12  C   UNL     1     166.443 200.579 303.301  1.00  0.00     0.088 C 
ATOM     13  C   UNL     1     165.281 201.030 304.137  1.00  0.00     0.159 C 
ATOM     14  O   UNL     1     165.360 200.917 305.391  1.00  0.00    -0.295 OA
ATOM     15  C   UNL     1     165.375 198.438 302.481  1.00  0.00     0.012 C 
ATOM     16  C   UNL     1     163.631 203.125 305.429  1.00  0.00     0.039 C 
ENDROOT
TORSDOF 0
ENDMDL
MODEL 9
REMARK VINA RESULT:    -1.831      2.654      4.479
REMARK INTER + INTRA:          -1.831
REMARK INTER:                  -1.831
REMARK INTRA:                   0.000
REMARK UNBOUND:                 0.000
REMARK SMILES C=C1CCC[C@@]2(C)CC(=O)C(=C(C)C)C[C@@H]12
REMARK SMILES IDX 13 1 12 2 11 3 15 4 16 5 2 6 1 7 3 8 4 9 5 10 6 11 8 12 9 13
REMARK SMILES IDX 10 14 7 15 14 16
REMARK H PARENT
REMARK Flexibility Score: inf
ROOT
ATOM      1  C   UNL     1     165.085 203.124 301.838  1.00  0.00     0.039 C 
ATOM      2  C   UNL     1     164.689 201.667 301.915  1.00  0.00    -0.070 C 
ATOM      3  C   UNL     1     165.185 200.849 302.890  1.00  0.00    -0.006 C 
ATOM      4  C   UNL     1     166.138 201.377 303.954  1.00  0.00     0.047 C 
ATOM      5  C   UNL     1     166.019 200.638 305.313  1.00  0.00     0.025 C 
ATOM      6  C   UNL     1     164.814 201.045 306.166  1.00  0.00    -0.073 C 
ATOM      7  C   UNL     1     163.819 201.850 305.745  1.00  0.00     0.008 C 
ATOM      8  C   UNL     1     164.732 200.410 307.529  1.00  0.00     0.031 C 
ATOM      9  C   UNL     1     164.722 198.888 307.380  1.00  0.00     0.005 C 
ATOM     10  C   UNL     1     165.917 198.394 306.545  1.00  0.00     0.008 C 
ATOM     11  C   UNL     1     166.054 199.083 305.150  1.00  0.00    -0.018 C 
ATOM     12  C   UNL     1     164.905 198.633 304.210  1.00  0.00     0.088 C 
ATOM     13  C   UNL     1     164.920 199.382 302.908  1.00  0.00     0.159 C 
ATOM     14  O   UNL     1     164.718 198.741 301.841  1.00  0.00    -0.295 OA
ATOM     15  C   UNL     1     167.410 198.627 304.552  1.00  0.00     0.012 C 
ATOM     16  C   UNL     1     163.691 201.173 300.894  1.00  0.00     0.039 C 
ENDROOT
TORSDOF 0
ENDMDL
