MODEL 1
REMARK VINA RESULT:    -3.322      0.000      0.000
REMARK INTER + INTRA:          -3.331
REMARK INTER:                  -4.099
REMARK INTRA:                   0.767
REMARK UNBOUND:                 0.767
REMARK SMILES CC1=CC=CC(C)(C)CC1=O
REMARK SMILES IDX 1 1 2 2 3 3 10 4 11 5 9 6 4 8 5 9 6 10 7 11 8 12
REMARK H PARENT
REMARK Flexibility Score: 80.00
ROOT
ATOM      1  C   UNL     1      -8.944   4.002  15.016  1.00  0.00     0.048 C 
ATOM      2  C   UNL     1      -7.455   4.250  15.062  1.00  0.00    -0.008 C 
ATOM      3  C   UNL     1      -6.939   5.123  14.171  1.00  0.00     0.007 C 
ENDROOT
BRANCH   2   4
ATOM      4  C   UNL     1      -6.667   3.455  16.035  1.00  0.00     0.159 C 
ATOM      5  O   UNL     1      -7.228   2.494  16.631  1.00  0.00    -0.295 OA
BRANCH   4   6
ATOM      6  C   UNL     1      -5.233   3.738  16.366  1.00  0.00     0.091 CG0
ATOM      7  G   UNL     1      -4.298   3.656  15.139  1.00  0.00     0.000 G0
ENDBRANCH   4   6
ENDBRANCH   2   4
BRANCH   3   8
ATOM      8  C   UNL     1      -5.535   5.546  13.957  1.00  0.00    -0.003 C 
ATOM      9  C   UNL     1      -4.404   4.944  14.344  1.00  0.00    -0.020 C 
BRANCH   9  10
ATOM     10  C   UNL     1      -4.295   3.664  15.138  1.00  0.00    -0.010 CG0
ATOM     11  C   UNL     1      -2.841   3.529  15.645  1.00  0.00     0.016 C 
ATOM     12  C   UNL     1      -4.597   2.451  14.228  1.00  0.00     0.016 C 
ATOM     13  G   UNL     1      -5.227   3.734  16.367  1.00  0.00     0.000 G0
ENDBRANCH   9  10
ENDBRANCH   3   8
TORSDOF 0
ENDMDL
MODEL 2
REMARK VINA RESULT:    -3.271      1.790      2.674
REMARK INTER + INTRA:          -3.268
REMARK INTER:                  -4.021
REMARK INTRA:                   0.752
REMARK UNBOUND:                 0.767
REMARK SMILES CC1=CC=CC(C)(C)CC1=O
REMARK SMILES IDX 1 1 2 2 3 3 10 4 11 5 9 6 4 8 5 9 6 10 7 11 8 12
REMARK H PARENT
REMARK Flexibility Score: 80.00
ROOT
ATOM      1  C   UNL     1      -8.876   4.008  14.474  1.00  0.00     0.048 C 
ATOM      2  C   UNL     1      -7.387   4.034  14.734  1.00  0.00    -0.008 C 
ATOM      3  C   UNL     1      -6.878   3.082  15.544  1.00  0.00     0.007 C 
ENDROOT
BRANCH   2   4
ATOM      4  C   UNL     1      -6.617   5.151  14.135  1.00  0.00     0.159 C 
ATOM      5  O   UNL     1      -7.245   6.129  13.643  1.00  0.00    -0.295 OA
BRANCH   4   6
ATOM      6  C   UNL     1      -5.120   5.179  14.066  1.00  0.00     0.091 CG0
ATOM      7  G   UNL     1      -4.446   5.140  15.456  1.00  0.00     0.000 G0
ENDBRANCH   4   6
ENDBRANCH   2   4
BRANCH   3   8
ATOM      8  C   UNL     1      -5.484   2.867  16.000  1.00  0.00    -0.003 C 
ATOM      9  C   UNL     1      -4.451   3.718  15.985  1.00  0.00    -0.020 C 
BRANCH   9  10
ATOM     10  C   UNL     1      -4.461   5.134  15.459  1.00  0.00    -0.010 CG0
ATOM     11  C   UNL     1      -2.996   5.599  15.289  1.00  0.00     0.016 C 
ATOM     12  C   UNL     1      -5.145   6.072  16.480  1.00  0.00     0.016 C 
ATOM     13  G   UNL     1      -5.139   5.168  14.071  1.00  0.00     0.000 G0
ENDBRANCH   9  10
ENDBRANCH   3   8
TORSDOF 0
ENDMDL
MODEL 3
REMARK VINA RESULT:    -3.267      8.904      9.739
REMARK INTER + INTRA:          -3.263
REMARK INTER:                  -4.012
REMARK INTRA:                   0.749
REMARK UNBOUND:                 0.767
REMARK SMILES CC1=CC=CC(C)(C)CC1=O
REMARK SMILES IDX 1 1 2 2 3 3 10 4 11 5 9 6 4 8 5 9 6 10 7 11 8 12
REMARK H PARENT
REMARK Flexibility Score: 80.00
ROOT
ATOM      1  C   UNL     1      -4.258  -4.330  11.984  1.00  0.00     0.048 C 
ATOM      2  C   UNL     1      -3.166  -3.775  11.099  1.00  0.00    -0.008 C 
ATOM      3  C   UNL     1      -2.090  -3.228  11.704  1.00  0.00     0.007 C 
ENDROOT
BRANCH   2   4
ATOM      4  C   UNL     1      -3.401  -3.808   9.635  1.00  0.00     0.159 C 
ATOM      5  O   UNL     1      -4.555  -4.093   9.210  1.00  0.00    -0.295 OA
BRANCH   4   6
ATOM      6  C   UNL     1      -2.334  -3.532   8.620  1.00  0.00     0.091 CG0
ATOM      7  G   UNL     1      -1.714  -2.123   8.756  1.00  0.00     0.000 G0
ENDBRANCH   4   6
ENDBRANCH   2   4
BRANCH   3   8
ATOM      8  C   UNL     1      -0.891  -2.588  11.114  1.00  0.00    -0.003 C 
ATOM      9  C   UNL     1      -0.715  -2.102   9.879  1.00  0.00    -0.020 C 
BRANCH   9  10
ATOM     10  C   UNL     1      -1.724  -2.117   8.756  1.00  0.00    -0.010 CG0
ATOM     11  C   UNL     1      -0.986  -1.799   7.435  1.00  0.00     0.016 C 
ATOM     12  C   UNL     1      -2.787  -1.018   8.986  1.00  0.00     0.016 C 
ATOM     13  G   UNL     1      -2.342  -3.527   8.632  1.00  0.00     0.000 G0
ENDBRANCH   9  10
ENDBRANCH   3   8
TORSDOF 0
ENDMDL
MODEL 4
REMARK VINA RESULT:    -3.186      2.043      3.468
REMARK INTER + INTRA:          -3.163
REMARK INTER:                  -3.909
REMARK INTRA:                   0.746
REMARK UNBOUND:                 0.767
REMARK SMILES CC1=CC=CC(C)(C)CC1=O
REMARK SMILES IDX 1 1 2 2 3 3 10 4 11 5 9 6 4 8 5 9 6 10 7 11 8 12
REMARK H PARENT
REMARK Flexibility Score: 80.00
ROOT
ATOM      1  C   UNL     1      -4.952   1.589  14.828  1.00  0.00     0.048 C 
ATOM      2  C   UNL     1      -5.413   2.893  15.437  1.00  0.00    -0.008 C 
ATOM      3  C   UNL     1      -6.597   2.895  16.086  1.00  0.00     0.007 C 
ENDROOT
BRANCH   2   4
ATOM      4  C   UNL     1      -4.561   4.084  15.207  1.00  0.00     0.159 C 
ATOM      5  O   UNL     1      -3.613   4.004  14.377  1.00  0.00    -0.295 OA
BRANCH   4   6
ATOM      6  C   UNL     1      -4.753   5.388  15.919  1.00  0.00     0.091 CG0
ATOM      7  G   UNL     1      -6.147   6.010  15.686  1.00  0.00     0.000 G0
ENDBRANCH   4   6
ENDBRANCH   2   4
BRANCH   3   8
ATOM      8  C   UNL     1      -7.314   4.008  16.753  1.00  0.00    -0.003 C 
ATOM      9  C   UNL     1      -7.153   5.328  16.599  1.00  0.00    -0.020 C 
BRANCH   9  10
ATOM     10  C   UNL     1      -6.151   6.011  15.699  1.00  0.00    -0.010 CG0
ATOM     11  C   UNL     1      -6.066   7.499  16.109  1.00  0.00     0.016 C 
ATOM     12  C   UNL     1      -6.629   5.946  14.231  1.00  0.00     0.016 C 
ATOM     13  G   UNL     1      -4.756   5.378  15.900  1.00  0.00     0.000 G0
ENDBRANCH   9  10
ENDBRANCH   3   8
TORSDOF 0
ENDMDL
MODEL 5
REMARK VINA RESULT:    -3.172      2.191      2.991
REMARK INTER + INTRA:          -3.146
REMARK INTER:                  -3.923
REMARK INTRA:                   0.777
REMARK UNBOUND:                 0.767
REMARK SMILES CC1=CC=CC(C)(C)CC1=O
REMARK SMILES IDX 1 1 2 2 3 3 10 4 11 5 9 6 4 8 5 9 6 10 7 11 8 12
REMARK H PARENT
REMARK Flexibility Score: 80.00
ROOT
ATOM      1  C   UNL     1      -6.616   6.984  17.598  1.00  0.00     0.048 C 
ATOM      2  C   UNL     1      -6.543   5.870  16.580  1.00  0.00    -0.008 C 
ATOM      3  C   UNL     1      -7.404   4.840  16.718  1.00  0.00     0.007 C 
ENDROOT
BRANCH   2   4
ATOM      4  C   UNL     1      -5.479   5.963  15.551  1.00  0.00     0.159 C 
ATOM      5  O   UNL     1      -4.581   6.842  15.682  1.00  0.00    -0.295 OA
BRANCH   4   6
ATOM      6  C   UNL     1      -5.413   5.075  14.346  1.00  0.00     0.091 CG0
ATOM      7  G   UNL     1      -5.329   3.574  14.700  1.00  0.00     0.000 G0
ENDBRANCH   4   6
ENDBRANCH   2   4
BRANCH   3   8
ATOM      8  C   UNL     1      -7.554   3.609  15.906  1.00  0.00    -0.003 C 
ATOM      9  C   UNL     1      -6.686   3.049  15.054  1.00  0.00    -0.020 C 
BRANCH   9  10
ATOM     10  C   UNL     1      -5.317   3.576  14.693  1.00  0.00    -0.010 CG0
ATOM     11  C   UNL     1      -4.818   2.812  13.445  1.00  0.00     0.016 C 
ATOM     12  C   UNL     1      -4.325   3.305  15.847  1.00  0.00     0.016 C 
ATOM     13  G   UNL     1      -5.415   5.074  14.330  1.00  0.00     0.000 G0
ENDBRANCH   9  10
ENDBRANCH   3   8
TORSDOF 0
ENDMDL
MODEL 6
REMARK VINA RESULT:    -3.165      6.817      8.485
REMARK INTER + INTRA:          -3.137
REMARK INTER:                  -3.895
REMARK INTRA:                   0.758
REMARK UNBOUND:                 0.767
REMARK SMILES CC1=CC=CC(C)(C)CC1=O
REMARK SMILES IDX 1 1 2 2 3 3 10 4 11 5 9 6 4 8 5 9 6 10 7 11 8 12
REMARK H PARENT
REMARK Flexibility Score: 80.00
ROOT
ATOM      1  C   UNL     1      -4.212  -4.626  11.203  1.00  0.00     0.048 C 
ATOM      2  C   UNL     1      -3.316  -3.442  10.921  1.00  0.00    -0.008 C 
ATOM      3  C   UNL     1      -2.321  -3.189  11.798  1.00  0.00     0.007 C 
ENDROOT
BRANCH   2   4
ATOM      4  C   UNL     1      -3.650  -2.608   9.741  1.00  0.00     0.159 C 
ATOM      5  O   UNL     1      -4.750  -2.799   9.152  1.00  0.00    -0.295 OA
BRANCH   4   6
ATOM      6  C   UNL     1      -2.742  -1.549   9.194  1.00  0.00     0.091 CG0
ATOM      7  G   UNL     1      -2.407  -0.444  10.220  1.00  0.00     0.000 G0
ENDBRANCH   4   6
ENDBRANCH   2   4
BRANCH   3   8
ATOM      8  C   UNL     1      -1.313  -2.103  11.805  1.00  0.00    -0.003 C 
ATOM      9  C   UNL     1      -1.330  -0.931  11.157  1.00  0.00    -0.020 C 
BRANCH   9  10
ATOM     10  C   UNL     1      -2.405  -0.441  10.217  1.00  0.00    -0.010 CG0
ATOM     11  C   UNL     1      -1.851   0.772   9.435  1.00  0.00     0.016 C 
ATOM     12  C   UNL     1      -3.636   0.032  11.023  1.00  0.00     0.016 C 
ATOM     13  G   UNL     1      -2.751  -1.550   9.199  1.00  0.00     0.000 G0
ENDBRANCH   9  10
ENDBRANCH   3   8
TORSDOF 0
ENDMDL
MODEL 7
REMARK VINA RESULT:    -3.121      7.337      8.212
REMARK INTER + INTRA:          -3.083
REMARK INTER:                  -3.842
REMARK INTRA:                   0.759
REMARK UNBOUND:                 0.767
REMARK SMILES CC1=CC=CC(C)(C)CC1=O
REMARK SMILES IDX 1 1 2 2 3 3 10 4 11 5 9 6 4 8 5 9 6 10 7 11 8 12
REMARK H PARENT
REMARK Flexibility Score: 80.00
ROOT
ATOM      1  C   UNL     1      -4.003  -4.568  10.252  1.00  0.00     0.048 C 
ATOM      2  C   UNL     1      -3.649  -3.100  10.199  1.00  0.00    -0.008 C 
ATOM      3  C   UNL     1      -4.198  -2.361   9.212  1.00  0.00     0.007 C 
ENDROOT
BRANCH   2   4
ATOM      4  C   UNL     1      -2.666  -2.606  11.193  1.00  0.00     0.159 C 
ATOM      5  O   UNL     1      -2.022  -3.445  11.882  1.00  0.00    -0.295 OA
BRANCH   4   6
ATOM      6  C   UNL     1      -2.398  -1.152  11.439  1.00  0.00     0.091 CG0
ATOM      7  G   UNL     1      -1.888  -0.407  10.186  1.00  0.00     0.000 G0
ENDBRANCH   4   6
ENDBRANCH   2   4
BRANCH   3   8
ATOM      8  C   UNL     1      -4.023  -0.925   8.889  1.00  0.00    -0.003 C 
ATOM      9  C   UNL     1      -3.054  -0.086   9.273  1.00  0.00    -0.020 C 
BRANCH   9  10
ATOM     10  C   UNL     1      -1.888  -0.414  10.176  1.00  0.00    -0.010 CG0
ATOM     11  C   UNL     1      -1.238   0.913  10.630  1.00  0.00     0.016 C 
ATOM     12  C   UNL     1      -0.827  -1.223   9.396  1.00  0.00     0.016 C 
ATOM     13  G   UNL     1      -2.397  -1.153  11.434  1.00  0.00     0.000 G0
ENDBRANCH   9  10
ENDBRANCH   3   8
TORSDOF 0
ENDMDL
MODEL 8
REMARK VINA RESULT:    -3.063      1.679      2.205
REMARK INTER + INTRA:          -3.011
REMARK INTER:                  -3.766
REMARK INTRA:                   0.755
REMARK UNBOUND:                 0.767
REMARK SMILES CC1=CC=CC(C)(C)CC1=O
REMARK SMILES IDX 1 1 2 2 3 3 10 4 11 5 9 6 4 8 5 9 6 10 7 11 8 12
REMARK H PARENT
REMARK Flexibility Score: 80.00
ROOT
ATOM      1  C   UNL     1      -8.905   3.242  15.636  1.00  0.00     0.048 C 
ATOM      2  C   UNL     1      -7.638   3.998  15.960  1.00  0.00    -0.008 C 
ATOM      3  C   UNL     1      -7.747   5.100  16.732  1.00  0.00     0.007 C 
ENDROOT
BRANCH   2   4
ATOM      4  C   UNL     1      -6.382   3.508  15.339  1.00  0.00     0.159 C 
ATOM      5  O   UNL     1      -6.452   2.628  14.437  1.00  0.00    -0.295 OA
BRANCH   4   6
ATOM      6  C   UNL     1      -5.021   3.992  15.735  1.00  0.00     0.091 CG0
ATOM      7  G   UNL     1      -4.843   5.517  15.563  1.00  0.00     0.000 G0
ENDBRANCH   4   6
ENDBRANCH   2   4
BRANCH   3   8
ATOM      8  C   UNL     1      -6.704   6.048  17.189  1.00  0.00    -0.003 C 
ATOM      9  C   UNL     1      -5.473   6.248  16.703  1.00  0.00    -0.020 C 
BRANCH   9  10
ATOM     10  C   UNL     1      -4.832   5.509  15.552  1.00  0.00    -0.010 CG0
ATOM     11  C   UNL     1      -3.314   5.801  15.573  1.00  0.00     0.016 C 
ATOM     12  C   UNL     1      -5.399   6.028  14.210  1.00  0.00     0.016 C 
ATOM     13  G   UNL     1      -5.030   3.988  15.734  1.00  0.00     0.000 G0
ENDBRANCH   9  10
ENDBRANCH   3   8
TORSDOF 0
ENDMDL
MODEL 9
REMARK VINA RESULT:    -3.056      1.867      2.892
REMARK INTER + INTRA:          -3.003
REMARK INTER:                  -3.757
REMARK INTRA:                   0.754
REMARK UNBOUND:                 0.767
REMARK SMILES CC1=CC=CC(C)(C)CC1=O
REMARK SMILES IDX 1 1 2 2 3 3 10 4 11 5 9 6 4 8 5 9 6 10 7 11 8 12
REMARK H PARENT
REMARK Flexibility Score: 80.00
ROOT
ATOM      1  C   UNL     1      -7.002   2.481  16.729  1.00  0.00     0.048 C 
ATOM      2  C   UNL     1      -6.460   3.458  15.712  1.00  0.00    -0.008 C 
ATOM      3  C   UNL     1      -5.484   3.024  14.886  1.00  0.00     0.007 C 
ENDROOT
BRANCH   2   4
ATOM      4  C   UNL     1      -6.993   4.841  15.754  1.00  0.00     0.159 C 
ATOM      5  O   UNL     1      -7.710   5.188  16.733  1.00  0.00    -0.295 OA
BRANCH   4   6
ATOM      6  C   UNL     1      -6.738   5.859  14.684  1.00  0.00     0.091 CG0
ATOM      7  G   UNL     1      -5.236   6.141  14.457  1.00  0.00     0.000 G0
ENDBRANCH   4   6
ENDBRANCH   2   4
BRANCH   3   8
ATOM      8  C   UNL     1      -4.748   3.746  13.822  1.00  0.00    -0.003 C 
ATOM      9  C   UNL     1      -4.622   5.064  13.628  1.00  0.00    -0.020 C 
BRANCH   9  10
ATOM     10  C   UNL     1      -5.245   6.158  14.463  1.00  0.00    -0.010 CG0
ATOM     11  C   UNL     1      -5.143   7.486  13.678  1.00  0.00     0.016 C 
ATOM     12  C   UNL     1      -4.462   6.323  15.785  1.00  0.00     0.016 C 
ATOM     13  G   UNL     1      -6.741   5.849  14.691  1.00  0.00     0.000 G0
ENDBRANCH   9  10
ENDBRANCH   3   8
TORSDOF 0
ENDMDL
