MODEL 1
REMARK VINA RESULT:    -3.895      0.000      0.000
REMARK INTER + INTRA:          -5.060
REMARK INTER:                  -4.692
REMARK INTRA:                  -0.368
REMARK UNBOUND:                -0.368
REMARK SMILES NC(=O)C[C@H]([NH3+])C(=O)[O-]
REMARK SMILES IDX 4 1 5 2 6 3 7 7 8 8 9 9 2 10 3 11 1 12
REMARK H PARENT 6 4 6 5 6 6 1 13 1 14
REMARK Flexibility Score: inf
ROOT
ATOM      1  C   UNL     1       1.416   8.903  18.048  1.00  0.00     0.171 C 
ENDROOT
BRANCH   1   2
ATOM      2  C   UNL     1       2.259   9.448  16.877  1.00  0.00     0.237 C 
BRANCH   2   3
ATOM      3  N   UNL     1       3.611   8.873  16.875  1.00  0.00    -0.350 N 
ATOM      4  H   UNL     1       4.077   9.065  15.959  1.00  0.00     0.345 HD
ATOM      5  H   UNL     1       4.189   9.282  17.646  1.00  0.00     0.345 HD
ATOM      6  H   UNL     1       3.560   7.836  16.997  1.00  0.00     0.345 HD
ENDBRANCH   2   3
BRANCH   2   7
ATOM      7  C   UNL     1       2.336  10.948  16.964  1.00  0.00     0.100 C 
ATOM      8  O   UNL     1       3.455  11.526  16.972  1.00  0.00    -0.544 OA
ATOM      9  O   UNL     1       1.173  11.708  17.020  1.00  0.00    -0.544 OA
ENDBRANCH   2   7
ENDBRANCH   1   2
BRANCH   1  10
ATOM     10  C   UNL     1       1.846   9.489  19.361  1.00  0.00     0.223 C 
ATOM     11  O   UNL     1       2.975   9.197  19.836  1.00  0.00    -0.275 OA
ATOM     12  N   UNL     1       0.999  10.401  20.060  1.00  0.00    -0.369 N 
ATOM     13  H   UNL     1       1.307  10.815  20.968  1.00  0.00     0.159 HD
ATOM     14  H   UNL     1       0.069  10.673  19.670  1.00  0.00     0.159 HD
ENDBRANCH   1  10
TORSDOF 4
ENDMDL
MODEL 2
REMARK VINA RESULT:    -3.869      1.428      3.735
REMARK INTER + INTRA:          -5.028
REMARK INTER:                  -4.590
REMARK INTRA:                  -0.438
REMARK UNBOUND:                -0.368
REMARK SMILES NC(=O)C[C@H]([NH3+])C(=O)[O-]
REMARK SMILES IDX 4 1 5 2 6 3 7 7 8 8 9 9 2 10 3 11 1 12
REMARK H PARENT 6 4 6 5 6 6 1 13 1 14
REMARK Flexibility Score: inf
ROOT
ATOM      1  C   UNL     1       1.835  10.131  17.395  1.00  0.00     0.171 C 
ENDROOT
BRANCH   1   2
ATOM      2  C   UNL     1       1.049  10.499  18.670  1.00  0.00     0.237 C 
BRANCH   2   3
ATOM      3  N   UNL     1       1.386  11.851  19.137  1.00  0.00    -0.350 N 
ATOM      4  H   UNL     1       1.184  12.547  18.384  1.00  0.00     0.345 HD
ATOM      5  H   UNL     1       0.832  12.098  19.990  1.00  0.00     0.345 HD
ATOM      6  H   UNL     1       2.405  11.909  19.361  1.00  0.00     0.345 HD
ENDBRANCH   2   3
BRANCH   2   7
ATOM      7  C   UNL     1       1.338   9.492  19.751  1.00  0.00     0.100 C 
ATOM      8  O   UNL     1       0.520   9.321  20.692  1.00  0.00    -0.544 OA
ATOM      9  O   UNL     1       2.501   8.732  19.708  1.00  0.00    -0.544 OA
ENDBRANCH   2   7
ENDBRANCH   1   2
BRANCH   1  10
ATOM     10  C   UNL     1       3.095  10.936  17.267  1.00  0.00     0.223 C 
ATOM     11  O   UNL     1       3.036  12.131  16.875  1.00  0.00    -0.275 OA
ATOM     12  N   UNL     1       4.357  10.368  17.619  1.00  0.00    -0.369 N 
ATOM     13  H   UNL     1       5.230  10.935  17.539  1.00  0.00     0.159 HD
ATOM     14  H   UNL     1       4.422   9.386  17.968  1.00  0.00     0.159 HD
ENDBRANCH   1  10
TORSDOF 4
ENDMDL
MODEL 3
REMARK VINA RESULT:    -3.581      1.711      2.000
REMARK INTER + INTRA:          -4.681
REMARK INTER:                  -4.433
REMARK INTRA:                  -0.248
REMARK UNBOUND:                -0.368
REMARK SMILES NC(=O)C[C@H]([NH3+])C(=O)[O-]
REMARK SMILES IDX 4 1 5 2 6 3 7 7 8 8 9 9 2 10 3 11 1 12
REMARK H PARENT 6 4 6 5 6 6 1 13 1 14
REMARK Flexibility Score: inf
ROOT
ATOM      1  C   UNL     1       2.237  10.265  19.118  1.00  0.00     0.171 C 
ENDROOT
BRANCH   1   2
ATOM      2  C   UNL     1       2.071  10.436  17.594  1.00  0.00     0.237 C 
BRANCH   2   3
ATOM      3  N   UNL     1       2.288   9.167  16.885  1.00  0.00    -0.350 N 
ATOM      4  H   UNL     1       2.562   9.358  15.894  1.00  0.00     0.345 HD
ATOM      5  H   UNL     1       3.042   8.608  17.348  1.00  0.00     0.345 HD
ATOM      6  H   UNL     1       1.405   8.609  16.870  1.00  0.00     0.345 HD
ENDBRANCH   2   3
BRANCH   2   7
ATOM      7  C   UNL     1       3.034  11.479  17.094  1.00  0.00     0.100 C 
ATOM      8  O   UNL     1       2.640  12.656  16.884  1.00  0.00    -0.544 OA
ATOM      9  O   UNL     1       4.368  11.155  16.876  1.00  0.00    -0.544 OA
ENDBRANCH   2   7
ENDBRANCH   1   2
BRANCH   1  10
ATOM     10  C   UNL     1       1.870   8.881  19.565  1.00  0.00     0.223 C 
ATOM     11  O   UNL     1       0.671   8.499  19.496  1.00  0.00    -0.275 OA
ATOM     12  N   UNL     1       2.873   7.981  20.038  1.00  0.00    -0.369 N 
ATOM     13  H   UNL     1       2.614   7.015  20.338  1.00  0.00     0.159 HD
ATOM     14  H   UNL     1       3.874   8.273  20.081  1.00  0.00     0.159 HD
ENDBRANCH   1  10
TORSDOF 4
ENDMDL
MODEL 4
REMARK VINA RESULT:    -3.495     23.656     24.373
REMARK INTER + INTRA:          -4.578
REMARK INTER:                  -4.307
REMARK INTRA:                  -0.271
REMARK UNBOUND:                -0.368
REMARK SMILES NC(=O)C[C@H]([NH3+])C(=O)[O-]
REMARK SMILES IDX 4 1 5 2 6 3 7 7 8 8 9 9 2 10 3 11 1 12
REMARK H PARENT 6 4 6 5 6 6 1 13 1 14
REMARK Flexibility Score: inf
ROOT
ATOM      1  C   UNL     1      18.194  13.169  35.996  1.00  0.00     0.171 C 
ENDROOT
BRANCH   1   2
ATOM      2  C   UNL     1      17.055  13.101  37.034  1.00  0.00     0.237 C 
BRANCH   2   3
ATOM      3  N   UNL     1      16.195  11.930  36.813  1.00  0.00    -0.350 N 
ATOM      4  H   UNL     1      16.266  11.280  37.629  1.00  0.00     0.345 HD
ATOM      5  H   UNL     1      15.198  12.221  36.691  1.00  0.00     0.345 HD
ATOM      6  H   UNL     1      16.509  11.410  35.963  1.00  0.00     0.345 HD
ENDBRANCH   2   3
BRANCH   2   7
ATOM      7  C   UNL     1      16.236  14.363  36.969  1.00  0.00     0.100 C 
ATOM      8  O   UNL     1      14.990  14.301  36.797  1.00  0.00    -0.544 OA
ATOM      9  O   UNL     1      16.846  15.603  37.117  1.00  0.00    -0.544 OA
ENDBRANCH   2   7
ENDBRANCH   1   2
BRANCH   1  10
ATOM     10  C   UNL     1      19.060  11.944  36.041  1.00  0.00     0.223 C 
ATOM     11  O   UNL     1      19.197  11.315  37.123  1.00  0.00    -0.275 OA
ATOM     12  N   UNL     1      19.703  11.467  34.859  1.00  0.00    -0.369 N 
ATOM     13  H   UNL     1      20.295  10.608  34.892  1.00  0.00     0.159 HD
ATOM     14  H   UNL     1      19.581  11.962  33.948  1.00  0.00     0.159 HD
ENDBRANCH   1  10
TORSDOF 4
ENDMDL
MODEL 5
REMARK VINA RESULT:    -3.435      1.328      1.711
REMARK INTER + INTRA:          -4.505
REMARK INTER:                  -4.376
REMARK INTRA:                  -0.129
REMARK UNBOUND:                -0.368
REMARK SMILES NC(=O)C[C@H]([NH3+])C(=O)[O-]
REMARK SMILES IDX 4 1 5 2 6 3 7 7 8 8 9 9 2 10 3 11 1 12
REMARK H PARENT 6 4 6 5 6 6 1 13 1 14
REMARK Flexibility Score: inf
ROOT
ATOM      1  C   UNL     1       2.649  10.004  19.382  1.00  0.00     0.171 C 
ENDROOT
BRANCH   1   2
ATOM      2  C   UNL     1       2.643  10.133  17.845  1.00  0.00     0.237 C 
BRANCH   2   3
ATOM      3  N   UNL     1       3.997  10.001  17.289  1.00  0.00    -0.350 N 
ATOM      4  H   UNL     1       4.556  10.856  17.512  1.00  0.00     0.345 HD
ATOM      5  H   UNL     1       4.480   9.162  17.685  1.00  0.00     0.345 HD
ATOM      6  H   UNL     1       3.950   9.912  16.249  1.00  0.00     0.345 HD
ENDBRANCH   2   3
BRANCH   2   7
ATOM      7  C   UNL     1       2.051  11.460  17.451  1.00  0.00     0.100 C 
ATOM      8  O   UNL     1       0.831  11.695  17.656  1.00  0.00    -0.544 OA
ATOM      9  O   UNL     1       2.849  12.441  16.875  1.00  0.00    -0.544 OA
ENDBRANCH   2   7
ENDBRANCH   1   2
BRANCH   1  10
ATOM     10  C   UNL     1       1.912   8.779  19.839  1.00  0.00     0.223 C 
ATOM     11  O   UNL     1       2.454   7.995  20.663  1.00  0.00    -0.275 OA
ATOM     12  N   UNL     1       0.590   8.512  19.373  1.00  0.00    -0.369 N 
ATOM     13  H   UNL     1       0.076   7.664  19.702  1.00  0.00     0.159 HD
ATOM     14  H   UNL     1       0.116   9.163  18.708  1.00  0.00     0.159 HD
ENDBRANCH   1  10
TORSDOF 4
ENDMDL
MODEL 6
REMARK VINA RESULT:    -3.184     23.178     23.787
REMARK INTER + INTRA:          -4.203
REMARK INTER:                  -3.953
REMARK INTRA:                  -0.250
REMARK UNBOUND:                -0.368
REMARK SMILES NC(=O)C[C@H]([NH3+])C(=O)[O-]
REMARK SMILES IDX 4 1 5 2 6 3 7 7 8 8 9 9 2 10 3 11 1 12
REMARK H PARENT 6 4 6 5 6 6 1 13 1 14
REMARK Flexibility Score: inf
ROOT
ATOM      1  C   UNL     1      16.686  13.528  37.001  1.00  0.00     0.171 C 
ENDROOT
BRANCH   1   2
ATOM      2  C   UNL     1      17.765  14.026  36.019  1.00  0.00     0.237 C 
BRANCH   2   3
ATOM      3  N   UNL     1      17.181  14.851  34.952  1.00  0.00    -0.350 N 
ATOM      4  H   UNL     1      17.796  14.824  34.107  1.00  0.00     0.345 HD
ATOM      5  H   UNL     1      16.229  14.504  34.694  1.00  0.00     0.345 HD
ATOM      6  H   UNL     1      17.112  15.845  35.266  1.00  0.00     0.345 HD
ENDBRANCH   2   3
BRANCH   2   7
ATOM      7  C   UNL     1      18.488  12.848  35.422  1.00  0.00     0.100 C 
ATOM      8  O   UNL     1      18.103  12.355  34.329  1.00  0.00    -0.544 OA
ATOM      9  O   UNL     1      19.596  12.306  36.065  1.00  0.00    -0.544 OA
ENDBRANCH   2   7
ENDBRANCH   1   2
BRANCH   1  10
ATOM     10  C   UNL     1      15.458  14.389  36.960  1.00  0.00     0.223 C 
ATOM     11  O   UNL     1      15.563  15.636  37.102  1.00  0.00    -0.275 OA
ATOM     12  N   UNL     1      14.174  13.810  36.727  1.00  0.00    -0.369 N 
ATOM     13  H   UNL     1      13.323  14.414  36.688  1.00  0.00     0.159 HD
ATOM     14  H   UNL     1      14.070  12.781  36.584  1.00  0.00     0.159 HD
ENDBRANCH   1  10
TORSDOF 4
ENDMDL
MODEL 7
REMARK VINA RESULT:    -2.906     21.868     22.433
REMARK INTER + INTRA:          -3.869
REMARK INTER:                  -3.764
REMARK INTRA:                  -0.105
REMARK UNBOUND:                -0.368
REMARK SMILES NC(=O)C[C@H]([NH3+])C(=O)[O-]
REMARK SMILES IDX 4 1 5 2 6 3 7 7 8 8 9 9 2 10 3 11 1 12
REMARK H PARENT 6 4 6 5 6 6 1 13 1 14
REMARK Flexibility Score: inf
ROOT
ATOM      1  C   UNL     1      16.994  21.361  28.902  1.00  0.00     0.171 C 
ENDROOT
BRANCH   1   2
ATOM      2  C   UNL     1      16.629  21.652  30.372  1.00  0.00     0.237 C 
BRANCH   2   3
ATOM      3  N   UNL     1      16.263  20.423  31.088  1.00  0.00    -0.350 N 
ATOM      4  H   UNL     1      15.241  20.431  31.308  1.00  0.00     0.345 HD
ATOM      5  H   UNL     1      16.483  19.578  30.512  1.00  0.00     0.345 HD
ATOM      6  H   UNL     1      16.785  20.366  31.993  1.00  0.00     0.345 HD
ENDBRANCH   2   3
BRANCH   2   7
ATOM      7  C   UNL     1      15.492  22.638  30.425  1.00  0.00     0.100 C 
ATOM      8  O   UNL     1      15.070  23.059  31.534  1.00  0.00    -0.544 OA
ATOM      9  O   UNL     1      14.912  23.103  29.250  1.00  0.00    -0.544 OA
ENDBRANCH   2   7
ENDBRANCH   1   2
BRANCH   1  10
ATOM     10  C   UNL     1      18.297  21.998  28.516  1.00  0.00     0.223 C 
ATOM     11  O   UNL     1      18.607  23.123  28.990  1.00  0.00    -0.275 OA
ATOM     12  N   UNL     1      19.203  21.324  27.643  1.00  0.00    -0.369 N 
ATOM     13  H   UNL     1      20.114  21.766  27.386  1.00  0.00     0.159 HD
ATOM     14  H   UNL     1      18.973  20.381  27.259  1.00  0.00     0.159 HD
ENDBRANCH   1  10
TORSDOF 4
ENDMDL
MODEL 8
REMARK VINA RESULT:    -2.675     22.437     23.201
REMARK INTER + INTRA:          -3.590
REMARK INTER:                  -3.356
REMARK INTRA:                  -0.234
REMARK UNBOUND:                -0.368
REMARK SMILES NC(=O)C[C@H]([NH3+])C(=O)[O-]
REMARK SMILES IDX 4 1 5 2 6 3 7 7 8 8 9 9 2 10 3 11 1 12
REMARK H PARENT 6 4 6 5 6 6 1 13 1 14
REMARK Flexibility Score: inf
ROOT
ATOM      1  C   UNL     1      15.206  13.512  36.843  1.00  0.00     0.171 C 
ENDROOT
BRANCH   1   2
ATOM      2  C   UNL     1      16.341  12.685  36.204  1.00  0.00     0.237 C 
BRANCH   2   3
ATOM      3  N   UNL     1      16.840  11.655  37.125  1.00  0.00    -0.350 N 
ATOM      4  H   UNL     1      17.040  12.082  38.058  1.00  0.00     0.345 HD
ATOM      5  H   UNL     1      16.137  10.889  37.241  1.00  0.00     0.345 HD
ATOM      6  H   UNL     1      17.733  11.251  36.761  1.00  0.00     0.345 HD
ENDBRANCH   2   3
BRANCH   2   7
ATOM      7  C   UNL     1      17.464  13.600  35.795  1.00  0.00     0.100 C 
ATOM      8  O   UNL     1      18.661  13.238  35.941  1.00  0.00    -0.544 OA
ATOM      9  O   UNL     1      17.188  14.844  35.237  1.00  0.00    -0.544 OA
ENDBRANCH   2   7
ENDBRANCH   1   2
BRANCH   1  10
ATOM     10  C   UNL     1      13.940  12.715  36.965  1.00  0.00     0.223 C 
ATOM     11  O   UNL     1      14.000  11.466  37.124  1.00  0.00    -0.275 OA
ATOM     12  N   UNL     1      12.669  13.364  36.938  1.00  0.00    -0.369 N 
ATOM     13  H   UNL     1      11.791  12.807  37.035  1.00  0.00     0.159 HD
ATOM     14  H   UNL     1      12.601  14.400  36.831  1.00  0.00     0.159 HD
ENDBRANCH   1  10
TORSDOF 4
ENDMDL
