MODEL 1
REMARK VINA RESULT:    -5.393      0.000      0.000
REMARK INTER + INTRA:          -6.231
REMARK INTER:                  -6.181
REMARK INTRA:                  -0.050
REMARK UNBOUND:                -0.050
REMARK SMILES O=C([O-])c1cc(O)c(O)c(O)c1
REMARK SMILES IDX 4 1 5 2 12 3 6 4 10 5 8 6 2 7 1 8 3 9 7 10 11 12 9 14
REMARK H PARENT 7 11 11 13 9 15
REMARK Flexibility Score: inf
ROOT
ATOM      1  C   UNL     1      10.937  10.127  12.973  1.00  0.00     0.005 A 
ATOM      2  C   UNL     1      11.794  10.672  13.944  1.00  0.00     0.060 A 
ATOM      3  C   UNL     1       9.713   9.569  13.378  1.00  0.00     0.060 A 
ATOM      4  C   UNL     1      11.433  10.664  15.299  1.00  0.00     0.162 A 
ATOM      5  C   UNL     1       9.348   9.559  14.731  1.00  0.00     0.162 A 
ATOM      6  C   UNL     1      10.207  10.104  15.693  1.00  0.00     0.200 A 
ENDROOT
BRANCH   1   7
ATOM      7  C   UNL     1      11.325  10.140  11.544  1.00  0.00     0.072 C 
ATOM      8  O   UNL     1      11.047   9.164  10.797  1.00  0.00    -0.545 OA
ATOM      9  O   UNL     1      12.001  11.230  11.007  1.00  0.00    -0.545 OA
ENDBRANCH   1   7
BRANCH   4  10
ATOM     10  O   UNL     1      12.291  11.207  16.254  1.00  0.00    -0.504 OA
ATOM     11  H   UNL     1      13.024  11.859  16.001  1.00  0.00     0.293 HD
ENDBRANCH   4  10
BRANCH   5  12
ATOM     12  O   UNL     1       8.131   9.005  15.128  1.00  0.00    -0.504 OA
ATOM     13  H   UNL     1       8.034   8.517  16.011  1.00  0.00     0.293 HD
ENDBRANCH   5  12
BRANCH   6  14
ATOM     14  O   UNL     1       9.826  10.084  17.036  1.00  0.00    -0.502 OA
ATOM     15  H   UNL     1      10.243   9.449  17.705  1.00  0.00     0.293 HD
ENDBRANCH   6  14
TORSDOF 4
ENDMDL
MODEL 2
REMARK VINA RESULT:    -5.383      0.047      2.422
REMARK INTER + INTRA:          -6.219
REMARK INTER:                  -6.170
REMARK INTRA:                  -0.049
REMARK UNBOUND:                -0.050
REMARK SMILES O=C([O-])c1cc(O)c(O)c(O)c1
REMARK SMILES IDX 4 1 5 2 12 3 6 4 10 5 8 6 2 7 1 8 3 9 7 10 11 12 9 14
REMARK H PARENT 7 11 11 13 9 15
REMARK Flexibility Score: inf
ROOT
ATOM      1  C   UNL     1      10.923  10.144  12.960  1.00  0.00     0.005 A 
ATOM      2  C   UNL     1       9.695   9.587  13.353  1.00  0.00     0.060 A 
ATOM      3  C   UNL     1      11.776  10.677  13.941  1.00  0.00     0.060 A 
ATOM      4  C   UNL     1       9.322   9.561  14.705  1.00  0.00     0.162 A 
ATOM      5  C   UNL     1      11.409  10.653  15.294  1.00  0.00     0.162 A 
ATOM      6  C   UNL     1      10.182  10.097  15.677  1.00  0.00     0.200 A 
ENDROOT
BRANCH   1   7
ATOM      7  C   UNL     1      11.309  10.168  11.531  1.00  0.00     0.072 C 
ATOM      8  O   UNL     1      11.098   9.169  10.794  1.00  0.00    -0.545 OA
ATOM      9  O   UNL     1      11.912  11.295  10.983  1.00  0.00    -0.545 OA
ENDBRANCH   1   7
BRANCH   4  10
ATOM     10  O   UNL     1       8.101   9.006  15.082  1.00  0.00    -0.504 OA
ATOM     11  H   UNL     1       8.048   8.127  15.583  1.00  0.00     0.293 HD
ENDBRANCH   4  10
BRANCH   5  12
ATOM     12  O   UNL     1      12.258  11.183  16.264  1.00  0.00    -0.504 OA
ATOM     13  H   UNL     1      13.026  10.645  16.648  1.00  0.00     0.293 HD
ENDBRANCH   5  12
BRANCH   6  14
ATOM     14  O   UNL     1       9.834  10.082  17.029  1.00  0.00    -0.502 OA
ATOM     15  H   UNL     1       8.951  10.448  17.362  1.00  0.00     0.293 HD
ENDBRANCH   6  14
TORSDOF 4
ENDMDL
MODEL 3
REMARK VINA RESULT:    -5.370      1.652      3.062
REMARK INTER + INTRA:          -6.205
REMARK INTER:                  -6.157
REMARK INTRA:                  -0.048
REMARK UNBOUND:                -0.050
REMARK SMILES O=C([O-])c1cc(O)c(O)c(O)c1
REMARK SMILES IDX 4 1 5 2 12 3 6 4 10 5 8 6 2 7 1 8 3 9 7 10 11 12 9 14
REMARK H PARENT 7 11 11 13 9 15
REMARK Flexibility Score: inf
ROOT
ATOM      1  C   UNL     1      10.985   9.759  13.291  1.00  0.00     0.005 A 
ATOM      2  C   UNL     1       9.915   9.259  12.531  1.00  0.00     0.060 A 
ATOM      3  C   UNL     1      10.734  10.254  14.582  1.00  0.00     0.060 A 
ATOM      4  C   UNL     1       8.612   9.251  13.052  1.00  0.00     0.162 A 
ATOM      5  C   UNL     1       9.434  10.248  15.107  1.00  0.00     0.162 A 
ATOM      6  C   UNL     1       8.372   9.748  14.343  1.00  0.00     0.200 A 
ENDROOT
BRANCH   1   7
ATOM      7  C   UNL     1      12.357   9.765  12.735  1.00  0.00     0.072 C 
ATOM      8  O   UNL     1      12.579  10.221  11.582  1.00  0.00    -0.545 OA
ATOM      9  O   UNL     1      13.421   9.265  13.478  1.00  0.00    -0.545 OA
ENDBRANCH   1   7
BRANCH   4  10
ATOM     10  O   UNL     1       7.558   8.753  12.289  1.00  0.00    -0.504 OA
ATOM     11  H   UNL     1       6.720   8.379  12.719  1.00  0.00     0.293 HD
ENDBRANCH   4  10
BRANCH   5  12
ATOM     12  O   UNL     1       9.190  10.739  16.388  1.00  0.00    -0.504 OA
ATOM     13  H   UNL     1       9.727  10.426  17.188  1.00  0.00     0.293 HD
ENDBRANCH   5  12
BRANCH   6  14
ATOM     14  O   UNL     1       7.085   9.750  14.883  1.00  0.00    -0.502 OA
ATOM     15  H   UNL     1       6.693  10.565  15.337  1.00  0.00     0.293 HD
ENDBRANCH   6  14
TORSDOF 4
ENDMDL
MODEL 4
REMARK VINA RESULT:    -5.354      1.543      2.312
REMARK INTER + INTRA:          -6.186
REMARK INTER:                  -6.133
REMARK INTRA:                  -0.053
REMARK UNBOUND:                -0.050
REMARK SMILES O=C([O-])c1cc(O)c(O)c(O)c1
REMARK SMILES IDX 4 1 5 2 12 3 6 4 10 5 8 6 2 7 1 8 3 9 7 10 11 12 9 14
REMARK H PARENT 7 11 11 13 9 15
REMARK Flexibility Score: inf
ROOT
ATOM      1  C   UNL     1      11.009  10.063  13.197  1.00  0.00     0.005 A 
ATOM      2  C   UNL     1      10.743  10.561  14.483  1.00  0.00     0.060 A 
ATOM      3  C   UNL     1       9.973   9.449  12.474  1.00  0.00     0.060 A 
ATOM      4  C   UNL     1       9.461  10.449  15.041  1.00  0.00     0.162 A 
ATOM      5  C   UNL     1       8.690   9.335  13.026  1.00  0.00     0.162 A 
ATOM      6  C   UNL     1       8.432   9.833  14.310  1.00  0.00     0.200 A 
ENDROOT
BRANCH   1   7
ATOM      7  C   UNL     1      12.365  10.185  12.616  1.00  0.00     0.072 C 
ATOM      8  O   UNL     1      13.246  10.883  13.185  1.00  0.00    -0.545 OA
ATOM      9  O   UNL     1      12.686   9.530  11.432  1.00  0.00    -0.545 OA
ENDBRANCH   1   7
BRANCH   4  10
ATOM     10  O   UNL     1       9.208  10.946  16.318  1.00  0.00    -0.504 OA
ATOM     11  H   UNL     1       8.317  11.364  16.559  1.00  0.00     0.293 HD
ENDBRANCH   4  10
BRANCH   5  12
ATOM     12  O   UNL     1       7.664   8.725  12.306  1.00  0.00    -0.504 OA
ATOM     13  H   UNL     1       7.784   8.457  11.336  1.00  0.00     0.293 HD
ENDBRANCH   5  12
BRANCH   6  14
ATOM     14  O   UNL     1       7.148   9.711  14.843  1.00  0.00    -0.502 OA
ATOM     15  H   UNL     1       6.388   9.285  14.326  1.00  0.00     0.293 HD
ENDBRANCH   6  14
TORSDOF 4
ENDMDL
MODEL 5
REMARK VINA RESULT:    -5.277      1.296      2.584
REMARK INTER + INTRA:          -6.097
REMARK INTER:                  -6.048
REMARK INTRA:                  -0.050
REMARK UNBOUND:                -0.050
REMARK SMILES O=C([O-])c1cc(O)c(O)c(O)c1
REMARK SMILES IDX 4 1 5 2 12 3 6 4 10 5 8 6 2 7 1 8 3 9 7 10 11 12 9 14
REMARK H PARENT 7 11 11 13 9 15
REMARK Flexibility Score: inf
ROOT
ATOM      1  C   UNL     1       9.789   9.519  13.483  1.00  0.00     0.005 A 
ATOM      2  C   UNL     1      10.967  10.131  13.027  1.00  0.00     0.060 A 
ATOM      3  C   UNL     1       9.543   9.456  14.866  1.00  0.00     0.060 A 
ATOM      4  C   UNL     1      11.887  10.675  13.935  1.00  0.00     0.162 A 
ATOM      5  C   UNL     1      10.459   9.998  15.777  1.00  0.00     0.162 A 
ATOM      6  C   UNL     1      11.632  10.607  15.314  1.00  0.00     0.200 A 
ENDROOT
BRANCH   1   7
ATOM      7  C   UNL     1       8.822   8.947  12.519  1.00  0.00     0.072 C 
ATOM      8  O   UNL     1       7.583   9.013  12.737  1.00  0.00    -0.545 OA
ATOM      9  O   UNL     1       9.269   8.327  11.357  1.00  0.00    -0.545 OA
ENDBRANCH   1   7
BRANCH   4  10
ATOM     10  O   UNL     1      13.054  11.280  13.470  1.00  0.00    -0.504 OA
ATOM     11  H   UNL     1      13.934  10.779  13.431  1.00  0.00     0.293 HD
ENDBRANCH   4  10
BRANCH   5  12
ATOM     12  O   UNL     1      10.211   9.934  17.148  1.00  0.00    -0.504 OA
ATOM     13  H   UNL     1       9.297   9.687  17.511  1.00  0.00     0.293 HD
ENDBRANCH   5  12
BRANCH   6  14
ATOM     14  O   UNL     1      12.532  11.142  16.237  1.00  0.00    -0.502 OA
ATOM     15  H   UNL     1      13.319  11.712  15.954  1.00  0.00     0.293 HD
ENDBRANCH   6  14
TORSDOF 4
ENDMDL
MODEL 6
REMARK VINA RESULT:    -5.264      1.323      3.032
REMARK INTER + INTRA:          -6.083
REMARK INTER:                  -6.033
REMARK INTRA:                  -0.050
REMARK UNBOUND:                -0.050
REMARK SMILES O=C([O-])c1cc(O)c(O)c(O)c1
REMARK SMILES IDX 4 1 5 2 12 3 6 4 10 5 8 6 2 7 1 8 3 9 7 10 11 12 9 14
REMARK H PARENT 7 11 11 13 9 15
REMARK Flexibility Score: inf
ROOT
ATOM      1  C   UNL     1       9.782   9.510  13.510  1.00  0.00     0.005 A 
ATOM      2  C   UNL     1       9.480   9.427  14.879  1.00  0.00     0.060 A 
ATOM      3  C   UNL     1      10.967  10.150  13.109  1.00  0.00     0.060 A 
ATOM      4  C   UNL     1      10.348   9.972  15.836  1.00  0.00     0.162 A 
ATOM      5  C   UNL     1      11.839  10.696  14.062  1.00  0.00     0.162 A 
ATOM      6  C   UNL     1      11.530  10.609  15.425  1.00  0.00     0.200 A 
ENDROOT
BRANCH   1   7
ATOM      7  C   UNL     1       8.861   8.933  12.506  1.00  0.00     0.072 C 
ATOM      8  O   UNL     1       7.615   8.955  12.691  1.00  0.00    -0.545 OA
ATOM      9  O   UNL     1       9.358   8.356  11.342  1.00  0.00    -0.545 OA
ENDBRANCH   1   7
BRANCH   4  10
ATOM     10  O   UNL     1      10.038   9.884  17.192  1.00  0.00    -0.504 OA
ATOM     11  H   UNL     1       9.494  10.599  17.661  1.00  0.00     0.293 HD
ENDBRANCH   4  10
BRANCH   5  12
ATOM     12  O   UNL     1      13.014  11.329  13.661  1.00  0.00    -0.504 OA
ATOM     13  H   UNL     1      13.831  10.801  13.376  1.00  0.00     0.293 HD
ENDBRANCH   5  12
BRANCH   6  14
ATOM     14  O   UNL     1      12.410  11.159  16.359  1.00  0.00    -0.502 OA
ATOM     15  H   UNL     1      12.321  10.983  17.352  1.00  0.00     0.293 HD
ENDBRANCH   6  14
TORSDOF 4
ENDMDL
MODEL 7
REMARK VINA RESULT:    -5.209      2.141      2.373
REMARK INTER + INTRA:          -6.020
REMARK INTER:                  -5.972
REMARK INTRA:                  -0.047
REMARK UNBOUND:                -0.050
REMARK SMILES O=C([O-])c1cc(O)c(O)c(O)c1
REMARK SMILES IDX 4 1 5 2 12 3 6 4 10 5 8 6 2 7 1 8 3 9 7 10 11 12 9 14
REMARK H PARENT 7 11 11 13 9 15
REMARK Flexibility Score: inf
ROOT
ATOM      1  C   UNL     1      12.747   9.832  13.782  1.00  0.00     0.005 A 
ATOM      2  C   UNL     1      13.043  10.875  14.675  1.00  0.00     0.060 A 
ATOM      3  C   UNL     1      11.403   9.511  13.527  1.00  0.00     0.060 A 
ATOM      4  C   UNL     1      12.013  11.590  15.303  1.00  0.00     0.162 A 
ATOM      5  C   UNL     1      10.370  10.224  14.151  1.00  0.00     0.162 A 
ATOM      6  C   UNL     1      10.673  11.262  15.041  1.00  0.00     0.200 A 
ENDROOT
BRANCH   1   7
ATOM      7  C   UNL     1      13.840   9.081  13.123  1.00  0.00     0.072 C 
ATOM      8  O   UNL     1      13.865   8.955  11.870  1.00  0.00    -0.545 OA
ATOM      9  O   UNL     1      14.855   8.504  13.879  1.00  0.00    -0.545 OA
ENDBRANCH   1   7
BRANCH   4  10
ATOM     10  O   UNL     1      12.318  12.623  16.188  1.00  0.00    -0.504 OA
ATOM     11  H   UNL     1      11.921  13.550  16.081  1.00  0.00     0.293 HD
ENDBRANCH   4  10
BRANCH   5  12
ATOM     12  O   UNL     1       9.038   9.903  13.895  1.00  0.00    -0.504 OA
ATOM     13  H   UNL     1       8.502  10.389  13.185  1.00  0.00     0.293 HD
ENDBRANCH   5  12
BRANCH   6  14
ATOM     14  O   UNL     1       9.631  11.960  15.653  1.00  0.00    -0.502 OA
ATOM     15  H   UNL     1       9.468  11.918  16.652  1.00  0.00     0.293 HD
ENDBRANCH   6  14
TORSDOF 4
ENDMDL
MODEL 8
REMARK VINA RESULT:    -5.090      2.101      3.295
REMARK INTER + INTRA:          -5.883
REMARK INTER:                  -5.837
REMARK INTRA:                  -0.046
REMARK UNBOUND:                -0.050
REMARK SMILES O=C([O-])c1cc(O)c(O)c(O)c1
REMARK SMILES IDX 4 1 5 2 12 3 6 4 10 5 8 6 2 7 1 8 3 9 7 10 11 12 9 14
REMARK H PARENT 7 11 11 13 9 15
REMARK Flexibility Score: inf
ROOT
ATOM      1  C   UNL     1      12.801   9.802  13.806  1.00  0.00     0.005 A 
ATOM      2  C   UNL     1      11.473   9.378  13.631  1.00  0.00     0.060 A 
ATOM      3  C   UNL     1      13.067  10.874  14.675  1.00  0.00     0.060 A 
ATOM      4  C   UNL     1      10.425  10.012  14.314  1.00  0.00     0.162 A 
ATOM      5  C   UNL     1      12.023  11.511  15.361  1.00  0.00     0.162 A 
ATOM      6  C   UNL     1      10.702  11.082  15.181  1.00  0.00     0.200 A 
ENDROOT
BRANCH   1   7
ATOM      7  C   UNL     1      13.902   9.128  13.082  1.00  0.00     0.072 C 
ATOM      8  O   UNL     1      14.809   8.524  13.713  1.00  0.00    -0.545 OA
ATOM      9  O   UNL     1      13.950   9.152  11.692  1.00  0.00    -0.545 OA
ENDBRANCH   1   7
BRANCH   4  10
ATOM     10  O   UNL     1       9.112   9.583  14.133  1.00  0.00    -0.504 OA
ATOM     11  H   UNL     1       8.770   8.726  14.551  1.00  0.00     0.293 HD
ENDBRANCH   4  10
BRANCH   5  12
ATOM     12  O   UNL     1      12.291  12.573  16.222  1.00  0.00    -0.504 OA
ATOM     13  H   UNL     1      11.623  13.323  16.365  1.00  0.00     0.293 HD
ENDBRANCH   5  12
BRANCH   6  14
ATOM     14  O   UNL     1       9.676  11.729  15.872  1.00  0.00    -0.502 OA
ATOM     15  H   UNL     1       9.860  12.454  16.554  1.00  0.00     0.293 HD
ENDBRANCH   6  14
TORSDOF 4
ENDMDL
MODEL 9
REMARK VINA RESULT:    -4.920      1.741      3.491
REMARK INTER + INTRA:          -5.689
REMARK INTER:                  -5.637
REMARK INTRA:                  -0.052
REMARK UNBOUND:                -0.050
REMARK SMILES O=C([O-])c1cc(O)c(O)c(O)c1
REMARK SMILES IDX 4 1 5 2 12 3 6 4 10 5 8 6 2 7 1 8 3 9 7 10 11 12 9 14
REMARK H PARENT 7 11 11 13 9 15
REMARK Flexibility Score: inf
ROOT
ATOM      1  C   UNL     1      10.106   9.837  13.960  1.00  0.00     0.005 A 
ATOM      2  C   UNL     1      10.461  10.685  15.022  1.00  0.00     0.060 A 
ATOM      3  C   UNL     1      11.117   9.317  13.134  1.00  0.00     0.060 A 
ATOM      4  C   UNL     1      11.806  11.010  15.258  1.00  0.00     0.162 A 
ATOM      5  C   UNL     1      12.462   9.637  13.365  1.00  0.00     0.162 A 
ATOM      6  C   UNL     1      12.808  10.484  14.426  1.00  0.00     0.200 A 
ENDROOT
BRANCH   1   7
ATOM      7  C   UNL     1       8.686   9.499  13.717  1.00  0.00     0.072 C 
ATOM      8  O   UNL     1       7.815   9.720  14.601  1.00  0.00    -0.545 OA
ATOM      9  O   UNL     1       8.292   8.933  12.509  1.00  0.00    -0.545 OA
ENDBRANCH   1   7
BRANCH   4  10
ATOM     10  O   UNL     1      12.146  11.853  16.314  1.00  0.00    -0.504 OA
ATOM     11  H   UNL     1      12.751  12.655  16.180  1.00  0.00     0.293 HD
ENDBRANCH   4  10
BRANCH   5  12
ATOM     12  O   UNL     1      13.461   9.119  12.544  1.00  0.00    -0.504 OA
ATOM     13  H   UNL     1      13.246   8.487  11.781  1.00  0.00     0.293 HD
ENDBRANCH   5  12
BRANCH   6  14
ATOM     14  O   UNL     1      14.152  10.792  14.641  1.00  0.00    -0.502 OA
ATOM     15  H   UNL     1      14.609  11.567  14.176  1.00  0.00     0.293 HD
ENDBRANCH   6  14
TORSDOF 4
ENDMDL
