MODEL 1
REMARK VINA RESULT:    -4.161      0.000      0.000
REMARK INTER + INTRA:          -8.344
REMARK INTER:                  -7.080
REMARK INTRA:                  -1.265
REMARK UNBOUND:                -1.265
REMARK SMILES CCCCCCCCCCCCCC(=O)[O-]
REMARK SMILES IDX 8 1 9 2 10 3 11 4 12 5 13 6 14 7 15 8 16 9 7 10 6 11 5 12
REMARK SMILES IDX 4 13 3 14 2 15 1 16
REMARK H PARENT
REMARK Flexibility Score: inf
ROOT
ATOM      1  C   UNL     1      69.339 -37.479   9.247  1.00  0.00     0.000 C 
ENDROOT
BRANCH   1   2
ATOM      2  C   UNL     1      69.305 -39.010   9.367  1.00  0.00     0.000 C 
BRANCH   2   3
ATOM      3  C   UNL     1      70.269 -39.495  10.460  1.00  0.00     0.000 C 
BRANCH   3   4
ATOM      4  C   UNL     1      70.771 -38.357  11.367  1.00  0.00     0.000 C 
BRANCH   4   5
ATOM      5  C   UNL     1      72.275 -38.405  11.704  1.00  0.00     0.006 C 
BRANCH   5   6
ATOM      6  C   UNL     1      73.053 -37.132  11.337  1.00  0.00     0.053 C 
BRANCH   6   7
ATOM      7  C   UNL     1      74.444 -37.440  10.870  1.00  0.00     0.041 C 
ATOM      8  O   UNL     1      74.756 -37.277   9.662  1.00  0.00    -0.550 OA
ATOM      9  O   UNL     1      75.383 -37.938  11.762  1.00  0.00    -0.550 OA
ENDBRANCH   6   7
ENDBRANCH   5   6
ENDBRANCH   4   5
ENDBRANCH   3   4
ENDBRANCH   2   3
ENDBRANCH   1   2
BRANCH   1  10
ATOM     10  C   UNL     1      70.035 -36.999   7.962  1.00  0.00     0.000 C 
BRANCH  10  11
ATOM     11  C   UNL     1      71.399 -36.343   8.240  1.00  0.00    -0.000 C 
BRANCH  11  12
ATOM     12  C   UNL     1      72.292 -36.286   6.989  1.00  0.00    -0.000 C 
BRANCH  12  13
ATOM     13  C   UNL     1      71.863 -35.189   6.002  1.00  0.00    -0.000 C 
BRANCH  13  14
ATOM     14  C   UNL     1      72.470 -33.833   6.393  1.00  0.00    -0.000 C 
BRANCH  14  15
ATOM     15  C   UNL     1      71.452 -32.904   7.073  1.00  0.00    -0.003 C 
ATOM     16  C   UNL     1      70.010 -33.212   6.670  1.00  0.00     0.004 C 
ENDBRANCH  14  15
ENDBRANCH  13  14
ENDBRANCH  12  13
ENDBRANCH  11  12
ENDBRANCH  10  11
ENDBRANCH   1  10
TORSDOF 12
ENDMDL
MODEL 2
REMARK VINA RESULT:    -4.136      1.351      2.265
REMARK INTER + INTRA:          -8.301
REMARK INTER:                  -7.287
REMARK INTRA:                  -1.014
REMARK UNBOUND:                -1.265
REMARK SMILES CCCCCCCCCCCCCC(=O)[O-]
REMARK SMILES IDX 8 1 9 2 10 3 11 4 12 5 13 6 14 7 15 8 16 9 7 10 6 11 5 12
REMARK SMILES IDX 4 13 3 14 2 15 1 16
REMARK H PARENT
REMARK Flexibility Score: inf
ROOT
ATOM      1  C   UNL     1      68.964 -38.125   9.129  1.00  0.00     0.000 C 
ENDROOT
BRANCH   1   2
ATOM      2  C   UNL     1      70.173 -37.516   9.855  1.00  0.00     0.000 C 
BRANCH   2   3
ATOM      3  C   UNL     1      70.710 -38.478  10.925  1.00  0.00     0.000 C 
BRANCH   3   4
ATOM      4  C   UNL     1      71.913 -37.907  11.697  1.00  0.00     0.000 C 
BRANCH   4   5
ATOM      5  C   UNL     1      73.013 -37.274  10.819  1.00  0.00     0.006 C 
BRANCH   5   6
ATOM      6  C   UNL     1      74.409 -37.890  11.002  1.00  0.00     0.053 C 
BRANCH   6   7
ATOM      7  C   UNL     1      75.497 -36.946  10.588  1.00  0.00     0.041 C 
ATOM      8  O   UNL     1      76.287 -36.475  11.448  1.00  0.00    -0.550 OA
ATOM      9  O   UNL     1      75.615 -36.560   9.260  1.00  0.00    -0.550 OA
ENDBRANCH   6   7
ENDBRANCH   5   6
ENDBRANCH   4   5
ENDBRANCH   3   4
ENDBRANCH   2   3
ENDBRANCH   1   2
BRANCH   1  10
ATOM     10  C   UNL     1      68.618 -37.384   7.826  1.00  0.00     0.000 C 
BRANCH  10  11
ATOM     11  C   UNL     1      67.757 -36.132   8.069  1.00  0.00    -0.000 C 
BRANCH  11  12
ATOM     12  C   UNL     1      68.425 -34.847   7.552  1.00  0.00    -0.000 C 
BRANCH  12  13
ATOM     13  C   UNL     1      69.860 -35.081   7.055  1.00  0.00    -0.000 C 
BRANCH  13  14
ATOM     14  C   UNL     1      70.589 -33.746   6.842  1.00  0.00    -0.000 C 
BRANCH  14  15
ATOM     15  C   UNL     1      72.087 -33.831   7.172  1.00  0.00    -0.003 C 
ATOM     16  C   UNL     1      72.506 -35.217   7.664  1.00  0.00     0.004 C 
ENDBRANCH  14  15
ENDBRANCH  13  14
ENDBRANCH  12  13
ENDBRANCH  11  12
ENDBRANCH  10  11
ENDBRANCH   1  10
TORSDOF 12
ENDMDL
MODEL 3
REMARK VINA RESULT:    -4.072     10.962     13.670
REMARK INTER + INTRA:          -8.194
REMARK INTER:                  -7.135
REMARK INTRA:                  -1.059
REMARK UNBOUND:                -1.265
REMARK SMILES CCCCCCCCCCCCCC(=O)[O-]
REMARK SMILES IDX 8 1 9 2 10 3 11 4 12 5 13 6 14 7 15 8 16 9 7 10 6 11 5 12
REMARK SMILES IDX 4 13 3 14 2 15 1 16
REMARK H PARENT
REMARK Flexibility Score: inf
ROOT
ATOM      1  C   UNL     1      72.235 -32.685  21.592  1.00  0.00     0.000 C 
ENDROOT
BRANCH   1   2
ATOM      2  C   UNL     1      71.684 -32.555  20.164  1.00  0.00     0.000 C 
BRANCH   2   3
ATOM      3  C   UNL     1      71.967 -31.158  19.592  1.00  0.00     0.000 C 
BRANCH   3   4
ATOM      4  C   UNL     1      72.937 -31.184  18.396  1.00  0.00     0.000 C 
BRANCH   4   5
ATOM      5  C   UNL     1      72.353 -30.657  17.070  1.00  0.00     0.006 C 
BRANCH   5   6
ATOM      6  C   UNL     1      71.619 -29.311  17.185  1.00  0.00     0.053 C 
BRANCH   6   7
ATOM      7  C   UNL     1      72.507 -28.156  16.836  1.00  0.00     0.041 C 
ATOM      8  O   UNL     1      72.515 -27.696  15.664  1.00  0.00    -0.550 OA
ATOM      9  O   UNL     1      73.350 -27.612  17.795  1.00  0.00    -0.550 OA
ENDBRANCH   6   7
ENDBRANCH   5   6
ENDBRANCH   4   5
ENDBRANCH   3   4
ENDBRANCH   2   3
ENDBRANCH   1   2
BRANCH   1  10
ATOM     10  C   UNL     1      73.462 -31.790  21.840  1.00  0.00     0.000 C 
BRANCH  10  11
ATOM     11  C   UNL     1      74.776 -32.450  21.387  1.00  0.00    -0.000 C 
BRANCH  11  12
ATOM     12  C   UNL     1      75.751 -32.682  22.553  1.00  0.00    -0.000 C 
BRANCH  12  13
ATOM     13  C   UNL     1      75.463 -33.982  23.320  1.00  0.00    -0.000 C 
BRANCH  13  14
ATOM     14  C   UNL     1      75.112 -35.122  22.352  1.00  0.00    -0.000 C 
BRANCH  14  15
ATOM     15  C   UNL     1      73.977 -36.014  22.877  1.00  0.00    -0.003 C 
ATOM     16  C   UNL     1      72.959 -36.375  21.795  1.00  0.00     0.004 C 
ENDBRANCH  14  15
ENDBRANCH  13  14
ENDBRANCH  12  13
ENDBRANCH  11  12
ENDBRANCH  10  11
ENDBRANCH   1  10
TORSDOF 12
ENDMDL
MODEL 4
REMARK VINA RESULT:    -4.056      1.596      4.612
REMARK INTER + INTRA:          -8.166
REMARK INTER:                  -6.669
REMARK INTRA:                  -1.497
REMARK UNBOUND:                -1.265
REMARK SMILES CCCCCCCCCCCCCC(=O)[O-]
REMARK SMILES IDX 8 1 9 2 10 3 11 4 12 5 13 6 14 7 15 8 16 9 7 10 6 11 5 12
REMARK SMILES IDX 4 13 3 14 2 15 1 16
REMARK H PARENT
REMARK Flexibility Score: inf
ROOT
ATOM      1  C   UNL     1      71.044 -32.963   6.889  1.00  0.00     0.000 C 
ENDROOT
BRANCH   1   2
ATOM      2  C   UNL     1      72.311 -33.762   7.232  1.00  0.00     0.000 C 
BRANCH   2   3
ATOM      3  C   UNL     1      72.945 -34.353   5.965  1.00  0.00     0.000 C 
BRANCH   3   4
ATOM      4  C   UNL     1      73.416 -35.807   6.150  1.00  0.00     0.000 C 
BRANCH   4   5
ATOM      5  C   UNL     1      73.491 -36.288   7.613  1.00  0.00     0.006 C 
BRANCH   5   6
ATOM      6  C   UNL     1      74.879 -36.781   8.053  1.00  0.00     0.053 C 
BRANCH   6   7
ATOM      7  C   UNL     1      74.992 -36.880   9.544  1.00  0.00     0.041 C 
ATOM      8  O   UNL     1      74.034 -37.332  10.223  1.00  0.00    -0.550 OA
ATOM      9  O   UNL     1      76.143 -36.441  10.185  1.00  0.00    -0.550 OA
ENDBRANCH   6   7
ENDBRANCH   5   6
ENDBRANCH   4   5
ENDBRANCH   3   4
ENDBRANCH   2   3
ENDBRANCH   1   2
BRANCH   1  10
ATOM     10  C   UNL     1      69.903 -33.853   6.365  1.00  0.00     0.000 C 
BRANCH  10  11
ATOM     11  C   UNL     1      68.911 -34.254   7.471  1.00  0.00    -0.000 C 
BRANCH  11  12
ATOM     12  C   UNL     1      68.671 -35.771   7.526  1.00  0.00    -0.000 C 
BRANCH  12  13
ATOM     13  C   UNL     1      69.721 -36.569   6.738  1.00  0.00    -0.000 C 
BRANCH  13  14
ATOM     14  C   UNL     1      70.043 -37.895   7.443  1.00  0.00    -0.000 C 
BRANCH  14  15
ATOM     15  C   UNL     1      69.524 -37.936   8.889  1.00  0.00    -0.003 C 
ATOM     16  C   UNL     1      70.609 -37.615   9.917  1.00  0.00     0.004 C 
ENDBRANCH  14  15
ENDBRANCH  13  14
ENDBRANCH  12  13
ENDBRANCH  11  12
ENDBRANCH  10  11
ENDBRANCH   1  10
TORSDOF 12
ENDMDL
MODEL 5
REMARK VINA RESULT:    -3.964      1.373      5.207
REMARK INTER + INTRA:          -8.010
REMARK INTER:                  -6.817
REMARK INTRA:                  -1.193
REMARK UNBOUND:                -1.265
REMARK SMILES CCCCCCCCCCCCCC(=O)[O-]
REMARK SMILES IDX 8 1 9 2 10 3 11 4 12 5 13 6 14 7 15 8 16 9 7 10 6 11 5 12
REMARK SMILES IDX 4 13 3 14 2 15 1 16
REMARK H PARENT
REMARK Flexibility Score: inf
ROOT
ATOM      1  C   UNL     1      68.648 -34.787   7.455  1.00  0.00     0.000 C 
ENDROOT
BRANCH   1   2
ATOM      2  C   UNL     1      69.613 -33.647   7.096  1.00  0.00     0.000 C 
BRANCH   2   3
ATOM      3  C   UNL     1      70.754 -34.155   6.204  1.00  0.00     0.000 C 
BRANCH   3   4
ATOM      4  C   UNL     1      72.141 -33.996   6.853  1.00  0.00     0.000 C 
BRANCH   4   5
ATOM      5  C   UNL     1      73.046 -35.243   6.776  1.00  0.00     0.006 C 
BRANCH   5   6
ATOM      6  C   UNL     1      73.141 -36.046   8.083  1.00  0.00     0.053 C 
BRANCH   6   7
ATOM      7  C   UNL     1      74.487 -36.681   8.254  1.00  0.00     0.041 C 
ATOM      8  O   UNL     1      74.924 -36.938   9.406  1.00  0.00    -0.550 OA
ATOM      9  O   UNL     1      75.272 -36.958   7.142  1.00  0.00    -0.550 OA
ENDBRANCH   6   7
ENDBRANCH   5   6
ENDBRANCH   4   5
ENDBRANCH   3   4
ENDBRANCH   2   3
ENDBRANCH   1   2
BRANCH   1  10
ATOM     10  C   UNL     1      69.270 -36.179   7.250  1.00  0.00     0.000 C 
BRANCH  10  11
ATOM     11  C   UNL     1      69.572 -36.893   8.580  1.00  0.00    -0.000 C 
BRANCH  11  12
ATOM     12  C   UNL     1      68.875 -38.259   8.687  1.00  0.00    -0.000 C 
BRANCH  12  13
ATOM     13  C   UNL     1      68.916 -38.837  10.111  1.00  0.00    -0.000 C 
BRANCH  13  14
ATOM     14  C   UNL     1      70.195 -39.659  10.331  1.00  0.00    -0.000 C 
BRANCH  14  15
ATOM     15  C   UNL     1      71.022 -39.154  11.524  1.00  0.00    -0.003 C 
ATOM     16  C   UNL     1      72.026 -38.070  11.130  1.00  0.00     0.004 C 
ENDBRANCH  14  15
ENDBRANCH  13  14
ENDBRANCH  12  13
ENDBRANCH  11  12
ENDBRANCH  10  11
ENDBRANCH   1  10
TORSDOF 12
ENDMDL
MODEL 6
REMARK VINA RESULT:    -3.916     11.196     13.980
REMARK INTER + INTRA:          -7.928
REMARK INTER:                  -6.695
REMARK INTRA:                  -1.233
REMARK UNBOUND:                -1.265
REMARK SMILES CCCCCCCCCCCCCC(=O)[O-]
REMARK SMILES IDX 8 1 9 2 10 3 11 4 12 5 13 6 14 7 15 8 16 9 7 10 6 11 5 12
REMARK SMILES IDX 4 13 3 14 2 15 1 16
REMARK H PARENT
REMARK Flexibility Score: inf
ROOT
ATOM      1  C   UNL     1      73.974 -31.936  21.077  1.00  0.00     0.000 C 
ENDROOT
BRANCH   1   2
ATOM      2  C   UNL     1      72.534 -32.351  21.419  1.00  0.00     0.000 C 
BRANCH   2   3
ATOM      3  C   UNL     1      71.646 -32.329  20.166  1.00  0.00     0.000 C 
BRANCH   3   4
ATOM      4  C   UNL     1      72.361 -31.750  18.932  1.00  0.00     0.000 C 
BRANCH   4   5
ATOM      5  C   UNL     1      71.724 -30.474  18.346  1.00  0.00     0.006 C 
BRANCH   5   6
ATOM      6  C   UNL     1      72.252 -30.076  16.959  1.00  0.00     0.053 C 
BRANCH   6   7
ATOM      7  C   UNL     1      72.611 -28.622  16.892  1.00  0.00     0.041 C 
ATOM      8  O   UNL     1      73.048 -28.031  17.913  1.00  0.00    -0.550 OA
ATOM      9  O   UNL     1      72.430 -27.915  15.711  1.00  0.00    -0.550 OA
ENDBRANCH   6   7
ENDBRANCH   5   6
ENDBRANCH   4   5
ENDBRANCH   3   4
ENDBRANCH   2   3
ENDBRANCH   1   2
BRANCH   1  10
ATOM     10  C   UNL     1      74.754 -31.432  22.303  1.00  0.00     0.000 C 
BRANCH  10  11
ATOM     11  C   UNL     1      76.117 -32.128  22.463  1.00  0.00    -0.000 C 
BRANCH  11  12
ATOM     12  C   UNL     1      75.982 -33.639  22.715  1.00  0.00    -0.000 C 
BRANCH  12  13
ATOM     13  C   UNL     1      75.121 -33.962  23.946  1.00  0.00    -0.000 C 
BRANCH  13  14
ATOM     14  C   UNL     1      74.095 -35.058  23.623  1.00  0.00    -0.000 C 
BRANCH  14  15
ATOM     15  C   UNL     1      74.301 -35.669  22.228  1.00  0.00    -0.003 C 
ATOM     16  C   UNL     1      73.069 -36.418  21.722  1.00  0.00     0.004 C 
ENDBRANCH  14  15
ENDBRANCH  13  14
ENDBRANCH  12  13
ENDBRANCH  11  12
ENDBRANCH  10  11
ENDBRANCH   1  10
TORSDOF 12
ENDMDL
MODEL 7
REMARK VINA RESULT:    -3.874     10.178     11.510
REMARK INTER + INTRA:          -7.856
REMARK INTER:                  -6.940
REMARK INTRA:                  -0.916
REMARK UNBOUND:                -1.265
REMARK SMILES CCCCCCCCCCCCCC(=O)[O-]
REMARK SMILES IDX 8 1 9 2 10 3 11 4 12 5 13 6 14 7 15 8 16 9 7 10 6 11 5 12
REMARK SMILES IDX 4 13 3 14 2 15 1 16
REMARK H PARENT
REMARK Flexibility Score: inf
ROOT
ATOM      1  C   UNL     1      62.449 -32.838  14.162  1.00  0.00     0.000 C 
ENDROOT
BRANCH   1   2
ATOM      2  C   UNL     1      62.897 -32.361  12.772  1.00  0.00     0.000 C 
BRANCH   2   3
ATOM      3  C   UNL     1      62.545 -33.399  11.697  1.00  0.00     0.000 C 
BRANCH   3   4
ATOM      4  C   UNL     1      63.755 -33.811  10.839  1.00  0.00     0.000 C 
BRANCH   4   5
ATOM      5  C   UNL     1      64.459 -35.110  11.283  1.00  0.00     0.006 C 
BRANCH   5   6
ATOM      6  C   UNL     1      65.424 -34.940  12.466  1.00  0.00     0.053 C 
BRANCH   6   7
ATOM      7  C   UNL     1      64.875 -35.534  13.728  1.00  0.00     0.041 C 
ATOM      8  O   UNL     1      65.515 -35.431  14.807  1.00  0.00    -0.550 OA
ATOM      9  O   UNL     1      63.673 -36.230  13.704  1.00  0.00    -0.550 OA
ENDBRANCH   6   7
ENDBRANCH   5   6
ENDBRANCH   4   5
ENDBRANCH   3   4
ENDBRANCH   2   3
ENDBRANCH   1   2
BRANCH   1  10
ATOM     10  C   UNL     1      62.204 -31.675  15.139  1.00  0.00     0.000 C 
BRANCH  10  11
ATOM     11  C   UNL     1      62.167 -30.309  14.433  1.00  0.00    -0.000 C 
BRANCH  11  12
ATOM     12  C   UNL     1      63.082 -29.272  15.106  1.00  0.00    -0.000 C 
BRANCH  12  13
ATOM     13  C   UNL     1      62.300 -28.212  15.897  1.00  0.00    -0.000 C 
BRANCH  13  14
ATOM     14  C   UNL     1      61.985 -26.995  15.014  1.00  0.00    -0.000 C 
BRANCH  14  15
ATOM     15  C   UNL     1      63.111 -26.681  14.017  1.00  0.00    -0.003 C 
ATOM     16  C   UNL     1      62.597 -26.469  12.592  1.00  0.00     0.004 C 
ENDBRANCH  14  15
ENDBRANCH  13  14
ENDBRANCH  12  13
ENDBRANCH  11  12
ENDBRANCH  10  11
ENDBRANCH   1  10
TORSDOF 12
ENDMDL
MODEL 8
REMARK VINA RESULT:    -3.871      9.934     11.121
REMARK INTER + INTRA:          -7.852
REMARK INTER:                  -6.838
REMARK INTRA:                  -1.013
REMARK UNBOUND:                -1.265
REMARK SMILES CCCCCCCCCCCCCC(=O)[O-]
REMARK SMILES IDX 8 1 9 2 10 3 11 4 12 5 13 6 14 7 15 8 16 9 7 10 6 11 5 12
REMARK SMILES IDX 4 13 3 14 2 15 1 16
REMARK H PARENT
REMARK Flexibility Score: inf
ROOT
ATOM      1  C   UNL     1      62.340 -32.982  15.782  1.00  0.00     0.000 C 
ENDROOT
BRANCH   1   2
ATOM      2  C   UNL     1      61.807 -33.849  14.631  1.00  0.00     0.000 C 
BRANCH   2   3
ATOM      3  C   UNL     1      62.953 -34.583  13.921  1.00  0.00     0.000 C 
BRANCH   3   4
ATOM      4  C   UNL     1      64.150 -34.865  14.846  1.00  0.00     0.000 C 
BRANCH   4   5
ATOM      5  C   UNL     1      65.343 -35.575  14.174  1.00  0.00     0.006 C 
BRANCH   5   6
ATOM      6  C   UNL     1      64.964 -36.482  12.993  1.00  0.00     0.053 C 
BRANCH   6   7
ATOM      7  C   UNL     1      65.593 -36.028  11.712  1.00  0.00     0.041 C 
ATOM      8  O   UNL     1      65.360 -34.875  11.266  1.00  0.00    -0.550 OA
ATOM      9  O   UNL     1      66.410 -36.891  10.994  1.00  0.00    -0.550 OA
ENDBRANCH   6   7
ENDBRANCH   5   6
ENDBRANCH   4   5
ENDBRANCH   3   4
ENDBRANCH   2   3
ENDBRANCH   1   2
BRANCH   1  10
ATOM     10  C   UNL     1      62.003 -31.491  15.609  1.00  0.00     0.000 C 
BRANCH  10  11
ATOM     11  C   UNL     1      61.778 -31.102  14.138  1.00  0.00    -0.000 C 
BRANCH  11  12
ATOM     12  C   UNL     1      62.956 -30.307  13.551  1.00  0.00    -0.000 C 
BRANCH  12  13
ATOM     13  C   UNL     1      63.247 -29.015  14.331  1.00  0.00    -0.000 C 
BRANCH  13  14
ATOM     14  C   UNL     1      62.745 -27.785  13.559  1.00  0.00    -0.000 C 
BRANCH  14  15
ATOM     15  C   UNL     1      62.042 -26.765  14.467  1.00  0.00    -0.003 C 
ATOM     16  C   UNL     1      61.543 -27.381  15.774  1.00  0.00     0.004 C 
ENDBRANCH  14  15
ENDBRANCH  13  14
ENDBRANCH  12  13
ENDBRANCH  11  12
ENDBRANCH  10  11
ENDBRANCH   1  10
TORSDOF 12
ENDMDL
MODEL 9
REMARK VINA RESULT:    -3.852      2.871      5.481
REMARK INTER + INTRA:          -7.819
REMARK INTER:                  -6.638
REMARK INTRA:                  -1.181
REMARK UNBOUND:                -1.265
REMARK SMILES CCCCCCCCCCCCCC(=O)[O-]
REMARK SMILES IDX 8 1 9 2 10 3 11 4 12 5 13 6 14 7 15 8 16 9 7 10 6 11 5 12
REMARK SMILES IDX 4 13 3 14 2 15 1 16
REMARK H PARENT
REMARK Flexibility Score: inf
ROOT
ATOM      1  C   UNL     1      70.574 -37.494   9.500  1.00  0.00     0.000 C 
ENDROOT
BRANCH   1   2
ATOM      2  C   UNL     1      69.263 -37.558   8.701  1.00  0.00     0.000 C 
BRANCH   2   3
ATOM      3  C   UNL     1      68.976 -36.216   8.011  1.00  0.00     0.000 C 
BRANCH   3   4
ATOM      4  C   UNL     1      69.304 -36.232   6.507  1.00  0.00     0.000 C 
BRANCH   4   5
ATOM      5  C   UNL     1      70.799 -36.070   6.162  1.00  0.00     0.006 C 
BRANCH   5   6
ATOM      6  C   UNL     1      71.498 -34.908   6.884  1.00  0.00     0.053 C 
BRANCH   6   7
ATOM      7  C   UNL     1      71.039 -33.575   6.377  1.00  0.00     0.041 C 
ATOM      8  O   UNL     1      70.801 -32.639   7.184  1.00  0.00    -0.550 OA
ATOM      9  O   UNL     1      70.842 -33.378   5.017  1.00  0.00    -0.550 OA
ENDBRANCH   6   7
ENDBRANCH   5   6
ENDBRANCH   4   5
ENDBRANCH   3   4
ENDBRANCH   2   3
ENDBRANCH   1   2
BRANCH   1  10
ATOM     10  C   UNL     1      70.658 -38.574  10.591  1.00  0.00     0.000 C 
BRANCH  10  11
ATOM     11  C   UNL     1      71.663 -38.217  11.700  1.00  0.00    -0.000 C 
BRANCH  11  12
ATOM     12  C   UNL     1      72.726 -37.209  11.230  1.00  0.00    -0.000 C 
BRANCH  12  13
ATOM     13  C   UNL     1      74.159 -37.742  11.383  1.00  0.00    -0.000 C 
BRANCH  13  14
ATOM     14  C   UNL     1      75.055 -37.236  10.242  1.00  0.00    -0.000 C 
BRANCH  14  15
ATOM     15  C   UNL     1      74.250 -36.807   9.005  1.00  0.00    -0.003 C 
ATOM     16  C   UNL     1      75.040 -36.955   7.705  1.00  0.00     0.004 C 
ENDBRANCH  14  15
ENDBRANCH  13  14
ENDBRANCH  12  13
ENDBRANCH  11  12
ENDBRANCH  10  11
ENDBRANCH   1  10
TORSDOF 12
ENDMDL
