MODEL 1
REMARK VINA RESULT:    -3.907      0.000      0.000
REMARK INTER + INTRA:          -4.957
REMARK INTER:                  -4.820
REMARK INTRA:                  -0.136
REMARK UNBOUND:                -0.136
REMARK SMILES C=CC[C@@H](C)C(=O)CC
REMARK SMILES IDX 4 1 5 2 6 3 7 4 8 5 9 6 3 7 2 8 1 9
REMARK H PARENT
REMARK Flexibility Score: inf
ROOT
ATOM      1  C   UNL     1      16.664  20.363  31.786  1.00  0.00     0.057 C 
ATOM      2  C   UNL     1      18.077  19.881  32.142  1.00  0.00     0.016 C 
ENDROOT
BRANCH   1   3
ATOM      3  C   UNL     1      15.762  19.176  31.530  1.00  0.00     0.135 C 
ATOM      4  O   UNL     1      15.022  18.774  32.418  1.00  0.00    -0.299 OA
BRANCH   3   5
ATOM      5  C   UNL     1      15.758  18.471  30.198  1.00  0.00     0.072 C 
ATOM      6  C   UNL     1      14.339  18.081  29.798  1.00  0.00     0.012 C 
ENDBRANCH   3   5
ENDBRANCH   1   3
BRANCH   1   7
ATOM      7  C   UNL     1      16.065  21.247  32.901  1.00  0.00     0.038 C 
BRANCH   7   8
ATOM      8  C   UNL     1      16.861  22.506  33.125  1.00  0.00    -0.034 C 
ATOM      9  C   UNL     1      16.426  23.698  32.706  1.00  0.00     0.004 C 
ENDBRANCH   7   8
ENDBRANCH   1   7
TORSDOF 4
ENDMDL
MODEL 2
REMARK VINA RESULT:    -3.677     14.374     15.219
REMARK INTER + INTRA:          -4.673
REMARK INTER:                  -4.438
REMARK INTRA:                  -0.236
REMARK UNBOUND:                -0.136
REMARK SMILES C=CC[C@@H](C)C(=O)CC
REMARK SMILES IDX 4 1 5 2 6 3 7 4 8 5 9 6 3 7 2 8 1 9
REMARK H PARENT
REMARK Flexibility Score: inf
ROOT
ATOM      1  C   UNL     1      13.404  19.793  17.762  1.00  0.00     0.057 C 
ATOM      2  C   UNL     1      11.987  19.295  18.079  1.00  0.00     0.016 C 
ENDROOT
BRANCH   1   3
ATOM      3  C   UNL     1      14.369  18.628  17.747  1.00  0.00     0.135 C 
ATOM      4  O   UNL     1      15.407  18.693  18.394  1.00  0.00    -0.299 OA
BRANCH   3   5
ATOM      5  C   UNL     1      14.082  17.385  16.946  1.00  0.00     0.072 C 
ATOM      6  C   UNL     1      15.270  17.026  16.060  1.00  0.00     0.012 C 
ENDBRANCH   3   5
ENDBRANCH   1   3
BRANCH   1   7
ATOM      7  C   UNL     1      13.459  20.538  16.412  1.00  0.00     0.038 C 
BRANCH   7   8
ATOM      8  C   UNL     1      12.177  21.269  16.108  1.00  0.00    -0.034 C 
ATOM      9  C   UNL     1      12.064  22.590  16.276  1.00  0.00     0.004 C 
ENDBRANCH   7   8
ENDBRANCH   1   7
TORSDOF 4
ENDMDL
MODEL 3
REMARK VINA RESULT:    -3.653     14.385     15.958
REMARK INTER + INTRA:          -4.644
REMARK INTER:                  -4.494
REMARK INTRA:                  -0.150
REMARK UNBOUND:                -0.136
REMARK SMILES C=CC[C@@H](C)C(=O)CC
REMARK SMILES IDX 4 1 5 2 6 3 7 4 8 5 9 6 3 7 2 8 1 9
REMARK H PARENT
REMARK Flexibility Score: inf
ROOT
ATOM      1  C   UNL     1      14.293  17.768  17.384  1.00  0.00     0.057 C 
ATOM      2  C   UNL     1      15.292  18.703  18.079  1.00  0.00     0.016 C 
ENDROOT
BRANCH   1   3
ATOM      3  C   UNL     1      13.135  18.568  16.830  1.00  0.00     0.135 C 
ATOM      4  O   UNL     1      13.091  18.819  15.633  1.00  0.00    -0.299 OA
BRANCH   3   5
ATOM      5  C   UNL     1      12.032  19.069  17.725  1.00  0.00     0.072 C 
ATOM      6  C   UNL     1      10.800  19.442  16.907  1.00  0.00     0.012 C 
ENDBRANCH   3   5
ENDBRANCH   1   3
BRANCH   1   7
ATOM      7  C   UNL     1      14.961  16.957  16.253  1.00  0.00     0.038 C 
BRANCH   7   8
ATOM      8  C   UNL     1      14.411  15.559  16.148  1.00  0.00    -0.034 C 
ATOM      9  C   UNL     1      15.206  14.503  15.952  1.00  0.00     0.004 C 
ENDBRANCH   7   8
ENDBRANCH   1   7
TORSDOF 4
ENDMDL
MODEL 4
REMARK VINA RESULT:    -3.592     14.626     15.964
REMARK INTER + INTRA:          -4.568
REMARK INTER:                  -4.070
REMARK INTRA:                  -0.498
REMARK UNBOUND:                -0.136
REMARK SMILES C=CC[C@@H](C)C(=O)CC
REMARK SMILES IDX 4 1 5 2 6 3 7 4 8 5 9 6 3 7 2 8 1 9
REMARK H PARENT
REMARK Flexibility Score: inf
ROOT
ATOM      1  C   UNL     1      11.387  20.211  17.258  1.00  0.00     0.057 C 
ATOM      2  C   UNL     1      12.158  21.264  16.451  1.00  0.00     0.016 C 
ENDROOT
BRANCH   1   3
ATOM      3  C   UNL     1      10.666  19.268  16.320  1.00  0.00     0.135 C 
ATOM      4  O   UNL     1       9.720  18.610  16.732  1.00  0.00    -0.299 OA
BRANCH   3   5
ATOM      5  C   UNL     1      11.093  19.118  14.883  1.00  0.00     0.072 C 
ATOM      6  C   UNL     1      12.024  17.921  14.717  1.00  0.00     0.012 C 
ENDBRANCH   3   5
ENDBRANCH   1   3
BRANCH   1   7
ATOM      7  C   UNL     1      12.320  19.411  18.192  1.00  0.00     0.038 C 
BRANCH   7   8
ATOM      8  C   UNL     1      13.755  19.446  17.735  1.00  0.00    -0.034 C 
ATOM      9  C   UNL     1      14.477  18.330  17.598  1.00  0.00     0.004 C 
ENDBRANCH   7   8
ENDBRANCH   1   7
TORSDOF 4
ENDMDL
MODEL 5
REMARK VINA RESULT:    -3.486     14.103     16.136
REMARK INTER + INTRA:          -4.437
REMARK INTER:                  -4.194
REMARK INTRA:                  -0.243
REMARK UNBOUND:                -0.136
REMARK SMILES C=CC[C@@H](C)C(=O)CC
REMARK SMILES IDX 4 1 5 2 6 3 7 4 8 5 9 6 3 7 2 8 1 9
REMARK H PARENT
REMARK Flexibility Score: inf
ROOT
ATOM      1  C   UNL     1      11.770  18.761  16.186  1.00  0.00     0.057 C 
ATOM      2  C   UNL     1      12.556  18.895  14.876  1.00  0.00     0.016 C 
ENDROOT
BRANCH   1   3
ATOM      3  C   UNL     1      12.719  18.788  17.364  1.00  0.00     0.135 C 
ATOM      4  O   UNL     1      12.457  19.482  18.337  1.00  0.00    -0.299 OA
BRANCH   3   5
ATOM      5  C   UNL     1      13.989  17.977  17.362  1.00  0.00     0.072 C 
ATOM      6  C   UNL     1      15.117  18.738  18.052  1.00  0.00     0.012 C 
ENDBRANCH   3   5
ENDBRANCH   1   3
BRANCH   1   7
ATOM      7  C   UNL     1      10.715  19.878  16.336  1.00  0.00     0.038 C 
BRANCH   7   8
ATOM      8  C   UNL     1       9.319  19.390  16.050  1.00  0.00    -0.034 C 
ATOM      9  C   UNL     1       8.969  18.113  16.229  1.00  0.00     0.004 C 
ENDBRANCH   7   8
ENDBRANCH   1   7
TORSDOF 4
ENDMDL
MODEL 6
REMARK VINA RESULT:    -3.482     14.512     15.655
REMARK INTER + INTRA:          -4.432
REMARK INTER:                  -4.172
REMARK INTRA:                  -0.260
REMARK UNBOUND:                -0.136
REMARK SMILES C=CC[C@@H](C)C(=O)CC
REMARK SMILES IDX 4 1 5 2 6 3 7 4 8 5 9 6 3 7 2 8 1 9
REMARK H PARENT
REMARK Flexibility Score: inf
ROOT
ATOM      1  C   UNL     1      13.125  19.566  17.190  1.00  0.00     0.057 C 
ATOM      2  C   UNL     1      11.930  19.519  18.152  1.00  0.00     0.016 C 
ENDROOT
BRANCH   1   3
ATOM      3  C   UNL     1      13.003  20.762  16.272  1.00  0.00     0.135 C 
ATOM      4  O   UNL     1      13.947  21.077  15.559  1.00  0.00    -0.299 OA
BRANCH   3   5
ATOM      5  C   UNL     1      11.740  21.582  16.220  1.00  0.00     0.072 C 
ATOM      6  C   UNL     1      12.061  23.073  16.248  1.00  0.00     0.012 C 
ENDBRANCH   3   5
ENDBRANCH   1   3
BRANCH   1   7
ATOM      7  C   UNL     1      14.467  19.621  17.950  1.00  0.00     0.038 C 
BRANCH   7   8
ATOM      8  C   UNL     1      15.309  18.394  17.716  1.00  0.00    -0.034 C 
ATOM      9  C   UNL     1      15.921  18.172  16.549  1.00  0.00     0.004 C 
ENDBRANCH   7   8
ENDBRANCH   1   7
TORSDOF 4
ENDMDL
MODEL 7
REMARK VINA RESULT:    -3.478     14.322     15.559
REMARK INTER + INTRA:          -4.428
REMARK INTER:                  -4.199
REMARK INTRA:                  -0.229
REMARK UNBOUND:                -0.136
REMARK SMILES C=CC[C@@H](C)C(=O)CC
REMARK SMILES IDX 4 1 5 2 6 3 7 4 8 5 9 6 3 7 2 8 1 9
REMARK H PARENT
REMARK Flexibility Score: inf
ROOT
ATOM      1  C   UNL     1      14.786  18.405  16.693  1.00  0.00     0.057 C 
ATOM      2  C   UNL     1      15.252  18.674  18.130  1.00  0.00     0.016 C 
ENDROOT
BRANCH   1   3
ATOM      3  C   UNL     1      15.311  17.067  16.221  1.00  0.00     0.135 C 
ATOM      4  O   UNL     1      16.480  16.964  15.872  1.00  0.00    -0.299 OA
BRANCH   3   5
ATOM      5  C   UNL     1      14.420  15.853  16.167  1.00  0.00     0.072 C 
ATOM      6  C   UNL     1      15.241  14.591  15.921  1.00  0.00     0.012 C 
ENDBRANCH   3   5
ENDBRANCH   1   3
BRANCH   1   7
ATOM      7  C   UNL     1      13.247  18.436  16.576  1.00  0.00     0.038 C 
BRANCH   7   8
ATOM      8  C   UNL     1      12.593  19.054  17.785  1.00  0.00    -0.034 C 
ATOM      9  C   UNL     1      11.747  20.082  17.678  1.00  0.00     0.004 C 
ENDBRANCH   7   8
ENDBRANCH   1   7
TORSDOF 4
ENDMDL
MODEL 8
REMARK VINA RESULT:    -3.439     19.524     20.634
REMARK INTER + INTRA:          -4.380
REMARK INTER:                  -4.136
REMARK INTRA:                  -0.244
REMARK UNBOUND:                -0.136
REMARK SMILES C=CC[C@@H](C)C(=O)CC
REMARK SMILES IDX 4 1 5 2 6 3 7 4 8 5 9 6 3 7 2 8 1 9
REMARK H PARENT
REMARK Flexibility Score: inf
ROOT
ATOM      1  C   UNL     1       6.691  28.890  17.319  1.00  0.00     0.057 C 
ATOM      2  C   UNL     1       6.441  27.436  16.895  1.00  0.00     0.016 C 
ENDROOT
BRANCH   1   3
ATOM      3  C   UNL     1       7.617  29.564  16.331  1.00  0.00     0.135 C 
ATOM      4  O   UNL     1       7.840  29.034  15.251  1.00  0.00    -0.299 OA
BRANCH   3   5
ATOM      5  C   UNL     1       8.278  30.879  16.652  1.00  0.00     0.072 C 
ATOM      6  C   UNL     1       9.572  31.041  15.861  1.00  0.00     0.012 C 
ENDBRANCH   3   5
ENDBRANCH   1   3
BRANCH   1   7
ATOM      7  C   UNL     1       5.374  29.687  17.433  1.00  0.00     0.038 C 
BRANCH   7   8
ATOM      8  C   UNL     1       4.264  29.078  16.617  1.00  0.00    -0.034 C 
ATOM      9  C   UNL     1       3.632  29.769  15.664  1.00  0.00     0.004 C 
ENDBRANCH   7   8
ENDBRANCH   1   7
TORSDOF 4
ENDMDL
MODEL 9
REMARK VINA RESULT:    -3.421     14.244     15.701
REMARK INTER + INTRA:          -4.357
REMARK INTER:                  -3.873
REMARK INTRA:                  -0.485
REMARK UNBOUND:                -0.136
REMARK SMILES C=CC[C@@H](C)C(=O)CC
REMARK SMILES IDX 4 1 5 2 6 3 7 4 8 5 9 6 3 7 2 8 1 9
REMARK H PARENT
REMARK Flexibility Score: inf
ROOT
ATOM      1  C   UNL     1      13.848  18.904  17.148  1.00  0.00     0.057 C 
ATOM      2  C   UNL     1      15.043  18.815  18.106  1.00  0.00     0.016 C 
ENDROOT
BRANCH   1   3
ATOM      3  C   UNL     1      13.774  17.655  16.297  1.00  0.00     0.135 C 
ATOM      4  O   UNL     1      14.379  16.649  16.645  1.00  0.00    -0.299 OA
BRANCH   3   5
ATOM      5  C   UNL     1      12.970  17.623  15.024  1.00  0.00     0.072 C 
ATOM      6  C   UNL     1      13.490  18.656  14.030  1.00  0.00     0.012 C 
ENDBRANCH   3   5
ENDBRANCH   1   3
BRANCH   1   7
ATOM      7  C   UNL     1      12.519  19.101  17.908  1.00  0.00     0.038 C 
BRANCH   7   8
ATOM      8  C   UNL     1      11.707  20.243  17.356  1.00  0.00    -0.034 C 
ATOM      9  C   UNL     1      12.250  21.178  16.570  1.00  0.00     0.004 C 
ENDBRANCH   7   8
ENDBRANCH   1   7
TORSDOF 4
ENDMDL
