MODEL 1
REMARK VINA RESULT:    -8.083      0.000      0.000
REMARK INTER + INTRA:         -11.373
REMARK INTER:                 -10.682
REMARK INTRA:                  -0.691
REMARK UNBOUND:                -0.691
REMARK SMILES CC[C@@H](C=C[C@@H](C)[C@@H]1CC[C@@H]2[C@@H]3CC=C4C[C@@H](O)CC[C@@]4(C)[C@@H]3CC[C@]21C)C(C)C
REMARK SMILES IDX 6 1 7 2 5 3 4 4 3 5 2 6 1 7 28 8 29 9 30 10 8 11 9 12 26 13
REMARK SMILES IDX 10 14 11 15 25 16 27 17 12 18 24 19 23 20 13 21 21 22 14 23
REMARK SMILES IDX 15 24 20 25 22 26 16 27 19 28 17 29 18 30
REMARK H PARENT 18 31
REMARK Flexibility Score: inf
ROOT
ATOM      1  C   UNL     1     115.944 126.315 125.906  1.00  0.00     0.012 C 
ATOM      2  C   UNL     1     117.076 126.005 126.903  1.00  0.00     0.012 C 
ENDROOT
BRANCH   1   3
ATOM      3  C   UNL     1     115.808 127.819 125.770  1.00  0.00    -0.028 C 
ATOM      4  C   UNL     1     116.611 128.646 126.457  1.00  0.00    -0.027 C 
BRANCH   4   5
ATOM      5  C   UNL     1     116.672 130.131 126.172  1.00  0.00     0.014 C 
BRANCH   5   6
ATOM      6  C   UNL     1     115.688 130.484 125.022  1.00  0.00     0.004 C 
ATOM      7  C   UNL     1     114.402 131.133 125.534  1.00  0.00     0.004 C 
ENDBRANCH   5   6
BRANCH   5   8
ATOM      8  C   UNL     1     118.142 130.565 125.881  1.00  0.00    -0.011 C 
ATOM      9  C   UNL     1     118.192 131.817 124.992  1.00  0.00     0.008 C 
ATOM     10  C   UNL     1     119.010 129.451 125.269  1.00  0.00     0.008 C 
ENDBRANCH   5   8
ENDBRANCH   4   5
ENDBRANCH   1   3
BRANCH   1  11
ATOM     11  C   UNL     1     114.547 125.683 126.254  1.00  0.00     0.002 C 
ATOM     12  C   UNL     1     114.024 125.854 127.705  1.00  0.00     0.005 C 
ATOM     13  C   UNL     1     114.331 124.177 125.940  1.00  0.00    -0.026 C 
ATOM     14  C   UNL     1     113.038 124.694 127.944  1.00  0.00     0.005 C 
ATOM     15  C   UNL     1     112.962 123.980 126.597  1.00  0.00    -0.001 C 
ATOM     16  C   UNL     1     114.175 123.851 124.440  1.00  0.00     0.007 C 
ATOM     17  C   UNL     1     115.458 123.319 126.583  1.00  0.00     0.012 C 
ATOM     18  C   UNL     1     112.320 122.579 126.481  1.00  0.00     0.000 C 
ATOM     19  C   UNL     1     113.700 122.397 124.237  1.00  0.00     0.005 C 
ATOM     20  C   UNL     1     112.393 122.017 125.016  1.00  0.00     0.003 C 
ATOM     21  C   UNL     1     112.688 121.512 127.530  1.00  0.00     0.031 C 
ATOM     22  C   UNL     1     112.011 120.465 124.915  1.00  0.00    -0.008 C 
ATOM     23  C   UNL     1     111.679 120.405 127.402  1.00  0.00    -0.027 C 
ATOM     24  C   UNL     1     111.276 119.992 126.181  1.00  0.00    -0.065 C 
ATOM     25  C   UNL     1     111.077 120.259 123.686  1.00  0.00     0.014 C 
ATOM     26  C   UNL     1     113.258 119.549 124.762  1.00  0.00     0.016 C 
ATOM     27  C   UNL     1     110.007 119.183 126.058  1.00  0.00     0.063 C 
ATOM     28  C   UNL     1     110.504 118.834 123.555  1.00  0.00     0.033 C 
ATOM     29  C   UNL     1     110.106 118.176 124.903  1.00  0.00     0.118 C 
BRANCH  29  30
ATOM     30  O   UNL     1     108.875 117.516 124.771  1.00  0.00    -0.393 OA
ATOM     31  H   UNL     1     109.032 116.568 125.011  1.00  0.00     0.210 HD
ENDBRANCH  29  30
ENDBRANCH   1  11
TORSDOF 6
ENDMDL
MODEL 2
REMARK VINA RESULT:    -7.597      3.684      9.881
REMARK INTER + INTRA:         -10.730
REMARK INTER:                  -9.305
REMARK INTRA:                  -1.424
REMARK UNBOUND:                -0.691
REMARK SMILES CC[C@@H](C=C[C@@H](C)[C@@H]1CC[C@@H]2[C@@H]3CC=C4C[C@@H](O)CC[C@@]4(C)[C@@H]3CC[C@]21C)C(C)C
REMARK SMILES IDX 6 1 7 2 5 3 4 4 3 5 2 6 1 7 28 8 29 9 30 10 8 11 9 12 26 13
REMARK SMILES IDX 10 14 11 15 25 16 27 17 12 18 24 19 23 20 13 21 21 22 14 23
REMARK SMILES IDX 15 24 20 25 22 26 16 27 19 28 17 29 18 30
REMARK H PARENT 18 31
REMARK Flexibility Score: inf
ROOT
ATOM      1  C   UNL     1     110.584 116.577 125.382  1.00  0.00     0.012 C 
ATOM      2  C   UNL     1     109.636 115.652 124.595  1.00  0.00     0.012 C 
ENDROOT
BRANCH   1   3
ATOM      3  C   UNL     1     110.345 116.378 126.865  1.00  0.00    -0.028 C 
ATOM      4  C   UNL     1     111.340 115.989 127.676  1.00  0.00    -0.027 C 
BRANCH   4   5
ATOM      5  C   UNL     1     111.208 116.011 129.183  1.00  0.00     0.014 C 
BRANCH   5   6
ATOM      6  C   UNL     1     109.982 116.875 129.588  1.00  0.00     0.004 C 
ATOM      7  C   UNL     1     109.882 117.072 131.101  1.00  0.00     0.004 C 
ENDBRANCH   5   6
BRANCH   5   8
ATOM      8  C   UNL     1     112.542 116.491 129.835  1.00  0.00    -0.011 C 
ATOM      9  C   UNL     1     113.548 116.965 128.775  1.00  0.00     0.008 C 
ATOM     10  C   UNL     1     113.199 115.440 130.750  1.00  0.00     0.008 C 
ENDBRANCH   5   8
ENDBRANCH   4   5
ENDBRANCH   1   3
BRANCH   1  11
ATOM     11  C   UNL     1     110.482 118.105 125.026  1.00  0.00     0.002 C 
ATOM     12  C   UNL     1     110.373 118.487 123.526  1.00  0.00     0.005 C 
ATOM     13  C   UNL     1     111.574 119.058 125.588  1.00  0.00    -0.026 C 
ATOM     14  C   UNL     1     110.899 119.932 123.413  1.00  0.00     0.005 C 
ATOM     15  C   UNL     1     111.184 120.344 124.854  1.00  0.00    -0.001 C 
ATOM     16  C   UNL     1     111.462 119.338 127.102  1.00  0.00     0.007 C 
ATOM     17  C   UNL     1     112.993 118.538 125.221  1.00  0.00     0.012 C 
ATOM     18  C   UNL     1     112.013 121.610 125.164  1.00  0.00     0.000 C 
ATOM     19  C   UNL     1     112.402 120.487 127.522  1.00  0.00     0.005 C 
ATOM     20  C   UNL     1     112.222 121.815 126.707  1.00  0.00     0.003 C 
ATOM     21  C   UNL     1     113.308 121.855 124.367  1.00  0.00     0.031 C 
ATOM     22  C   UNL     1     113.312 122.936 127.054  1.00  0.00    -0.008 C 
ATOM     23  C   UNL     1     113.703 123.286 124.599  1.00  0.00    -0.027 C 
ATOM     24  C   UNL     1     113.597 123.828 125.833  1.00  0.00    -0.065 C 
ATOM     25  C   UNL     1     112.763 123.827 128.208  1.00  0.00     0.014 C 
ATOM     26  C   UNL     1     114.677 122.332 127.487  1.00  0.00     0.016 C 
ATOM     27  C   UNL     1     113.613 125.330 125.983  1.00  0.00     0.063 C 
ATOM     28  C   UNL     1     113.644 125.047 128.543  1.00  0.00     0.033 C 
ATOM     29  C   UNL     1     114.271 125.744 127.306  1.00  0.00     0.118 C 
BRANCH  29  30
ATOM     30  O   UNL     1     114.179 127.137 127.442  1.00  0.00    -0.393 OA
ATOM     31  H   UNL     1     113.674 127.469 126.658  1.00  0.00     0.210 HD
ENDBRANCH  29  30
ENDBRANCH   1  11
TORSDOF 6
ENDMDL
MODEL 3
REMARK VINA RESULT:    -7.449      1.372      3.003
REMARK INTER + INTRA:         -10.535
REMARK INTER:                 -10.490
REMARK INTRA:                  -0.045
REMARK UNBOUND:                -0.691
REMARK SMILES CC[C@@H](C=C[C@@H](C)[C@@H]1CC[C@@H]2[C@@H]3CC=C4C[C@@H](O)CC[C@@]4(C)[C@@H]3CC[C@]21C)C(C)C
REMARK SMILES IDX 6 1 7 2 5 3 4 4 3 5 2 6 1 7 28 8 29 9 30 10 8 11 9 12 26 13
REMARK SMILES IDX 10 14 11 15 25 16 27 17 12 18 24 19 23 20 13 21 21 22 14 23
REMARK SMILES IDX 15 24 20 25 22 26 16 27 19 28 17 29 18 30
REMARK H PARENT 18 31
REMARK Flexibility Score: inf
ROOT
ATOM      1  C   UNL     1     115.678 125.574 126.618  1.00  0.00     0.012 C 
ATOM      2  C   UNL     1     114.388 126.064 127.302  1.00  0.00     0.012 C 
ENDROOT
BRANCH   1   3
ATOM      3  C   UNL     1     116.184 126.661 125.690  1.00  0.00    -0.028 C 
ATOM      4  C   UNL     1     115.830 127.942 125.874  1.00  0.00    -0.027 C 
BRANCH   4   5
ATOM      5  C   UNL     1     116.496 129.077 125.128  1.00  0.00     0.014 C 
BRANCH   5   6
ATOM      6  C   UNL     1     117.986 129.181 125.553  1.00  0.00     0.004 C 
ATOM      7  C   UNL     1     118.626 130.500 125.120  1.00  0.00     0.004 C 
ENDBRANCH   5   6
BRANCH   5   8
ATOM      8  C   UNL     1     115.700 130.403 125.340  1.00  0.00    -0.011 C 
ATOM      9  C   UNL     1     114.504 130.196 126.281  1.00  0.00     0.008 C 
ATOM     10  C   UNL     1     115.231 131.062 124.031  1.00  0.00     0.008 C 
ENDBRANCH   5   8
ENDBRANCH   4   5
ENDBRANCH   1   3
BRANCH   1  11
ATOM     11  C   UNL     1     115.550 124.219 125.832  1.00  0.00     0.002 C 
ATOM     12  C   UNL     1     115.599 124.280 124.282  1.00  0.00     0.005 C 
ATOM     13  C   UNL     1     114.330 123.309 126.144  1.00  0.00    -0.026 C 
ATOM     14  C   UNL     1     114.863 123.022 123.780  1.00  0.00     0.005 C 
ATOM     15  C   UNL     1     114.522 122.252 125.053  1.00  0.00    -0.001 C 
ATOM     16  C   UNL     1     114.402 122.585 127.506  1.00  0.00     0.007 C 
ATOM     17  C   UNL     1     113.004 124.109 126.007  1.00  0.00     0.012 C 
ATOM     18  C   UNL     1     113.514 121.081 125.021  1.00  0.00     0.000 C 
ATOM     19  C   UNL     1     113.302 121.509 127.618  1.00  0.00     0.005 C 
ATOM     20  C   UNL     1     113.280 120.466 126.447  1.00  0.00     0.003 C 
ATOM     21  C   UNL     1     112.196 121.267 124.246  1.00  0.00     0.031 C 
ATOM     22  C   UNL     1     112.037 119.459 126.504  1.00  0.00    -0.008 C 
ATOM     23  C   UNL     1     111.593 119.901 124.074  1.00  0.00    -0.027 C 
ATOM     24  C   UNL     1     111.619 119.013 125.092  1.00  0.00    -0.065 C 
ATOM     25  C   UNL     1     112.448 118.201 127.326  1.00  0.00     0.014 C 
ATOM     26  C   UNL     1     110.777 120.097 127.155  1.00  0.00     0.016 C 
ATOM     27  C   UNL     1     111.380 117.551 124.803  1.00  0.00     0.063 C 
ATOM     28  C   UNL     1     111.396 117.074 127.334  1.00  0.00     0.033 C 
ATOM     29  C   UNL     1     110.670 116.866 125.978  1.00  0.00     0.118 C 
BRANCH  29  30
ATOM     30  O   UNL     1     110.554 115.495 125.702  1.00  0.00    -0.393 OA
ATOM     31  H   UNL     1     111.472 115.125 125.697  1.00  0.00     0.210 HD
ENDBRANCH  29  30
ENDBRANCH   1  11
TORSDOF 6
ENDMDL
MODEL 4
REMARK VINA RESULT:    -7.420      4.774      8.402
REMARK INTER + INTRA:         -10.497
REMARK INTER:                  -8.962
REMARK INTRA:                  -1.535
REMARK UNBOUND:                -0.691
REMARK SMILES CC[C@@H](C=C[C@@H](C)[C@@H]1CC[C@@H]2[C@@H]3CC=C4C[C@@H](O)CC[C@@]4(C)[C@@H]3CC[C@]21C)C(C)C
REMARK SMILES IDX 6 1 7 2 5 3 4 4 3 5 2 6 1 7 28 8 29 9 30 10 8 11 9 12 26 13
REMARK SMILES IDX 10 14 11 15 25 16 27 17 12 18 24 19 23 20 13 21 21 22 14 23
REMARK SMILES IDX 15 24 20 25 22 26 16 27 19 28 17 29 18 30
REMARK H PARENT 18 31
REMARK Flexibility Score: inf
ROOT
ATOM      1  C   UNL     1     110.565 119.089 127.130  1.00  0.00     0.012 C 
ATOM      2  C   UNL     1     109.166 119.389 127.701  1.00  0.00     0.012 C 
ENDROOT
BRANCH   1   3
ATOM      3  C   UNL     1     111.369 120.374 127.102  1.00  0.00    -0.028 C 
ATOM      4  C   UNL     1     111.524 121.062 125.961  1.00  0.00    -0.027 C 
BRANCH   4   5
ATOM      5  C   UNL     1     112.107 122.458 125.935  1.00  0.00     0.014 C 
BRANCH   5   6
ATOM      6  C   UNL     1     113.071 122.601 124.725  1.00  0.00     0.004 C 
ATOM      7  C   UNL     1     113.265 121.284 123.974  1.00  0.00     0.004 C 
ENDBRANCH   5   6
BRANCH   5   8
ATOM      8  C   UNL     1     112.782 122.787 127.303  1.00  0.00    -0.011 C 
ATOM      9  C   UNL     1     112.287 124.127 127.867  1.00  0.00     0.008 C 
ATOM     10  C   UNL     1     114.321 122.773 127.255  1.00  0.00     0.008 C 
ENDBRANCH   5   8
ENDBRANCH   4   5
ENDBRANCH   1   3
BRANCH   1  11
ATOM     11  C   UNL     1     110.582 118.418 125.709  1.00  0.00     0.002 C 
ATOM     12  C   UNL     1     109.237 117.883 125.151  1.00  0.00     0.005 C 
ATOM     13  C   UNL     1     111.590 117.261 125.462  1.00  0.00    -0.026 C 
ATOM     14  C   UNL     1     109.603 116.789 124.128  1.00  0.00     0.005 C 
ATOM     15  C   UNL     1     111.128 116.820 124.071  1.00  0.00    -0.001 C 
ATOM     16  C   UNL     1     113.062 117.709 125.339  1.00  0.00     0.007 C 
ATOM     17  C   UNL     1     111.431 116.159 126.548  1.00  0.00     0.012 C 
ATOM     18  C   UNL     1     111.916 115.675 123.397  1.00  0.00     0.000 C 
ATOM     19  C   UNL     1     113.951 116.553 124.833  1.00  0.00     0.005 C 
ATOM     20  C   UNL     1     113.468 115.890 123.496  1.00  0.00     0.003 C 
ATOM     21  C   UNL     1     111.512 114.221 123.708  1.00  0.00     0.031 C 
ATOM     22  C   UNL     1     114.314 114.597 123.076  1.00  0.00    -0.008 C 
ATOM     23  C   UNL     1     112.172 113.352 122.675  1.00  0.00    -0.027 C 
ATOM     24  C   UNL     1     113.445 113.597 122.294  1.00  0.00    -0.065 C 
ATOM     25  C   UNL     1     115.500 115.046 122.172  1.00  0.00     0.014 C 
ATOM     26  C   UNL     1     114.877 113.825 124.303  1.00  0.00     0.016 C 
ATOM     27  C   UNL     1     113.960 112.994 121.009  1.00  0.00     0.063 C 
ATOM     28  C   UNL     1     116.312 113.884 121.566  1.00  0.00     0.033 C 
ATOM     29  C   UNL     1     115.457 112.670 121.114  1.00  0.00     0.118 C 
BRANCH  29  30
ATOM     30  O   UNL     1     115.907 112.201 119.871  1.00  0.00    -0.393 OA
ATOM     31  H   UNL     1     115.941 112.983 119.264  1.00  0.00     0.210 HD
ENDBRANCH  29  30
ENDBRANCH   1  11
TORSDOF 6
ENDMDL
MODEL 5
REMARK VINA RESULT:    -7.373      4.559      8.026
REMARK INTER + INTRA:         -10.434
REMARK INTER:                  -9.136
REMARK INTRA:                  -1.297
REMARK UNBOUND:                -0.691
REMARK SMILES CC[C@@H](C=C[C@@H](C)[C@@H]1CC[C@@H]2[C@@H]3CC=C4C[C@@H](O)CC[C@@]4(C)[C@@H]3CC[C@]21C)C(C)C
REMARK SMILES IDX 6 1 7 2 5 3 4 4 3 5 2 6 1 7 28 8 29 9 30 10 8 11 9 12 26 13
REMARK SMILES IDX 10 14 11 15 25 16 27 17 12 18 24 19 23 20 13 21 21 22 14 23
REMARK SMILES IDX 15 24 20 25 22 26 16 27 19 28 17 29 18 30
REMARK H PARENT 18 31
REMARK Flexibility Score: inf
ROOT
ATOM      1  C   UNL     1     110.355 120.128 125.101  1.00  0.00     0.012 C 
ATOM      2  C   UNL     1     109.201 120.411 124.121  1.00  0.00     0.012 C 
ENDROOT
BRANCH   1   3
ATOM      3  C   UNL     1     111.672 120.391 124.398  1.00  0.00    -0.028 C 
ATOM      4  C   UNL     1     112.438 121.436 124.745  1.00  0.00    -0.027 C 
BRANCH   4   5
ATOM      5  C   UNL     1     113.857 121.597 124.243  1.00  0.00     0.014 C 
BRANCH   5   6
ATOM      6  C   UNL     1     114.858 121.240 125.376  1.00  0.00     0.004 C 
ATOM      7  C   UNL     1     114.298 121.544 126.766  1.00  0.00     0.004 C 
ENDBRANCH   5   6
BRANCH   5   8
ATOM      8  C   UNL     1     114.066 123.031 123.665  1.00  0.00    -0.011 C 
ATOM      9  C   UNL     1     115.553 123.416 123.640  1.00  0.00     0.008 C 
ATOM     10  C   UNL     1     113.253 124.118 124.391  1.00  0.00     0.008 C 
ENDBRANCH   5   8
ENDBRANCH   4   5
ENDBRANCH   1   3
BRANCH   1  11
ATOM     11  C   UNL     1     110.365 118.686 125.729  1.00  0.00     0.002 C 
ATOM     12  C   UNL     1     109.062 118.191 126.409  1.00  0.00     0.005 C 
ATOM     13  C   UNL     1     111.487 118.345 126.749  1.00  0.00    -0.026 C 
ATOM     14  C   UNL     1     109.492 117.114 127.426  1.00  0.00     0.005 C 
ATOM     15  C   UNL     1     110.996 116.970 127.209  1.00  0.00    -0.001 C 
ATOM     16  C   UNL     1     112.884 118.151 126.123  1.00  0.00     0.007 C 
ATOM     17  C   UNL     1     111.528 119.403 127.889  1.00  0.00     0.012 C 
ATOM     18  C   UNL     1     111.873 116.214 128.233  1.00  0.00     0.000 C 
ATOM     19  C   UNL     1     113.872 117.557 127.150  1.00  0.00     0.005 C 
ATOM     20  C   UNL     1     113.391 116.230 127.833  1.00  0.00     0.003 C 
ATOM     21  C   UNL     1     111.665 116.502 129.731  1.00  0.00     0.031 C 
ATOM     22  C   UNL     1     114.358 115.721 129.003  1.00  0.00    -0.008 C 
ATOM     23  C   UNL     1     112.359 115.404 130.489  1.00  0.00    -0.027 C 
ATOM     24  C   UNL     1     113.569 114.959 130.082  1.00  0.00    -0.065 C 
ATOM     25  C   UNL     1     115.424 114.764 128.392  1.00  0.00     0.014 C 
ATOM     26  C   UNL     1     115.084 116.887 129.731  1.00  0.00     0.016 C 
ATOM     27  C   UNL     1     114.072 113.627 130.585  1.00  0.00     0.063 C 
ATOM     28  C   UNL     1     116.331 114.075 129.431  1.00  0.00     0.033 C 
ATOM     29  C   UNL     1     115.600 113.634 130.727  1.00  0.00     0.118 C 
BRANCH  29  30
ATOM     30  O   UNL     1     116.026 112.353 131.108  1.00  0.00    -0.393 OA
ATOM     31  H   UNL     1     116.758 112.099 130.490  1.00  0.00     0.210 HD
ENDBRANCH  29  30
ENDBRANCH   1  11
TORSDOF 6
ENDMDL
MODEL 6
REMARK VINA RESULT:    -7.355      3.964     10.490
REMARK INTER + INTRA:         -10.410
REMARK INTER:                  -9.911
REMARK INTRA:                  -0.500
REMARK UNBOUND:                -0.691
REMARK SMILES CC[C@@H](C=C[C@@H](C)[C@@H]1CC[C@@H]2[C@@H]3CC=C4C[C@@H](O)CC[C@@]4(C)[C@@H]3CC[C@]21C)C(C)C
REMARK SMILES IDX 6 1 7 2 5 3 4 4 3 5 2 6 1 7 28 8 29 9 30 10 8 11 9 12 26 13
REMARK SMILES IDX 10 14 11 15 25 16 27 17 12 18 24 19 23 20 13 21 21 22 14 23
REMARK SMILES IDX 15 24 20 25 22 26 16 27 19 28 17 29 18 30
REMARK H PARENT 18 31
REMARK Flexibility Score: inf
ROOT
ATOM      1  C   UNL     1     109.939 116.015 124.718  1.00  0.00     0.012 C 
ATOM      2  C   UNL     1     109.962 115.652 126.215  1.00  0.00     0.012 C 
ENDROOT
BRANCH   1   3
ATOM      3  C   UNL     1     111.125 115.361 124.036  1.00  0.00    -0.028 C 
ATOM      4  C   UNL     1     111.930 114.525 124.710  1.00  0.00    -0.027 C 
BRANCH   4   5
ATOM      5  C   UNL     1     112.969 113.672 124.016  1.00  0.00     0.014 C 
BRANCH   5   6
ATOM      6  C   UNL     1     114.324 113.781 124.768  1.00  0.00     0.004 C 
ATOM      7  C   UNL     1     114.326 114.903 125.807  1.00  0.00     0.004 C 
ENDBRANCH   5   6
BRANCH   5   8
ATOM      8  C   UNL     1     113.068 114.063 122.508  1.00  0.00    -0.011 C 
ATOM      9  C   UNL     1     112.645 112.901 121.597  1.00  0.00     0.008 C 
ATOM     10  C   UNL     1     114.457 114.580 122.091  1.00  0.00     0.008 C 
ENDBRANCH   5   8
ENDBRANCH   4   5
ENDBRANCH   1   3
BRANCH   1  11
ATOM     11  C   UNL     1     109.923 117.554 124.398  1.00  0.00     0.002 C 
ATOM     12  C   UNL     1     109.907 117.977 122.906  1.00  0.00     0.005 C 
ATOM     13  C   UNL     1     111.025 118.442 125.040  1.00  0.00    -0.026 C 
ATOM     14  C   UNL     1     110.502 119.398 122.857  1.00  0.00     0.005 C 
ATOM     15  C   UNL     1     110.731 119.762 124.322  1.00  0.00    -0.001 C 
ATOM     16  C   UNL     1     110.848 118.690 126.553  1.00  0.00     0.007 C 
ATOM     17  C   UNL     1     112.437 117.868 124.730  1.00  0.00     0.012 C 
ATOM     18  C   UNL     1     111.598 120.982 124.706  1.00  0.00     0.000 C 
ATOM     19  C   UNL     1     111.815 119.785 127.050  1.00  0.00     0.005 C 
ATOM     20  C   UNL     1     111.736 121.139 126.263  1.00  0.00     0.003 C 
ATOM     21  C   UNL     1     112.941 121.187 123.981  1.00  0.00     0.031 C 
ATOM     22  C   UNL     1     112.854 122.201 126.693  1.00  0.00    -0.008 C 
ATOM     23  C   UNL     1     113.386 122.593 124.272  1.00  0.00    -0.027 C 
ATOM     24  C   UNL     1     113.241 123.108 125.513  1.00  0.00    -0.065 C 
ATOM     25  C   UNL     1     112.287 123.087 127.842  1.00  0.00     0.014 C 
ATOM     26  C   UNL     1     114.168 121.526 127.178  1.00  0.00     0.016 C 
ATOM     27  C   UNL     1     113.315 124.604 125.704  1.00  0.00     0.063 C 
ATOM     28  C   UNL     1     113.202 124.258 128.253  1.00  0.00     0.033 C 
ATOM     29  C   UNL     1     113.922 124.956 127.068  1.00  0.00     0.118 C 
BRANCH  29  30
ATOM     30  O   UNL     1     113.884 126.348 127.236  1.00  0.00    -0.393 OA
ATOM     31  H   UNL     1     114.136 126.748 126.367  1.00  0.00     0.210 HD
ENDBRANCH  29  30
ENDBRANCH   1  11
TORSDOF 6
ENDMDL
MODEL 7
REMARK VINA RESULT:    -7.278      3.602     10.194
REMARK INTER + INTRA:         -10.308
REMARK INTER:                  -8.951
REMARK INTRA:                  -1.357
REMARK UNBOUND:                -0.691
REMARK SMILES CC[C@@H](C=C[C@@H](C)[C@@H]1CC[C@@H]2[C@@H]3CC=C4C[C@@H](O)CC[C@@]4(C)[C@@H]3CC[C@]21C)C(C)C
REMARK SMILES IDX 6 1 7 2 5 3 4 4 3 5 2 6 1 7 28 8 29 9 30 10 8 11 9 12 26 13
REMARK SMILES IDX 10 14 11 15 25 16 27 17 12 18 24 19 23 20 13 21 21 22 14 23
REMARK SMILES IDX 15 24 20 25 22 26 16 27 19 28 17 29 18 30
REMARK H PARENT 18 31
REMARK Flexibility Score: inf
ROOT
ATOM      1  C   UNL     1     110.837 116.757 124.862  1.00  0.00     0.012 C 
ATOM      2  C   UNL     1     109.985 115.650 125.511  1.00  0.00     0.012 C 
ENDROOT
BRANCH   1   3
ATOM      3  C   UNL     1     111.761 116.128 123.838  1.00  0.00    -0.028 C 
ATOM      4  C   UNL     1     112.897 115.522 124.218  1.00  0.00    -0.027 C 
BRANCH   4   5
ATOM      5  C   UNL     1     113.718 114.680 123.266  1.00  0.00     0.014 C 
BRANCH   5   6
ATOM      6  C   UNL     1     114.508 115.603 122.298  1.00  0.00     0.004 C 
ATOM      7  C   UNL     1     115.316 116.670 123.038  1.00  0.00     0.004 C 
ENDBRANCH   5   6
BRANCH   5   8
ATOM      8  C   UNL     1     112.804 113.652 122.528  1.00  0.00    -0.011 C 
ATOM      9  C   UNL     1     112.240 112.604 123.499  1.00  0.00     0.008 C 
ATOM     10  C   UNL     1     113.488 112.953 121.339  1.00  0.00     0.008 C 
ENDBRANCH   5   8
ENDBRANCH   4   5
ENDBRANCH   1   3
BRANCH   1  11
ATOM     11  C   UNL     1     111.671 117.637 125.863  1.00  0.00     0.002 C 
ATOM     12  C   UNL     1     111.264 117.604 127.359  1.00  0.00     0.005 C 
ATOM     13  C   UNL     1     111.835 119.148 125.540  1.00  0.00    -0.026 C 
ATOM     14  C   UNL     1     111.766 118.928 127.969  1.00  0.00     0.005 C 
ATOM     15  C   UNL     1     112.522 119.605 126.829  1.00  0.00    -0.001 C 
ATOM     16  C   UNL     1     112.796 119.453 124.371  1.00  0.00     0.007 C 
ATOM     17  C   UNL     1     110.446 119.810 125.308  1.00  0.00     0.012 C 
ATOM     18  C   UNL     1     112.925 121.094 126.923  1.00  0.00     0.000 C 
ATOM     19  C   UNL     1     113.108 120.963 124.292  1.00  0.00     0.005 C 
ATOM     20  C   UNL     1     113.651 121.592 125.623  1.00  0.00     0.003 C 
ATOM     21  C   UNL     1     111.880 122.108 127.428  1.00  0.00     0.031 C 
ATOM     22  C   UNL     1     113.817 123.183 125.562  1.00  0.00    -0.008 C 
ATOM     23  C   UNL     1     112.621 123.373 127.760  1.00  0.00    -0.027 C 
ATOM     24  C   UNL     1     113.606 123.816 126.948  1.00  0.00    -0.065 C 
ATOM     25  C   UNL     1     115.258 123.517 125.072  1.00  0.00     0.014 C 
ATOM     26  C   UNL     1     112.790 123.858 124.609  1.00  0.00     0.016 C 
ATOM     27  C   UNL     1     114.590 124.835 127.470  1.00  0.00     0.063 C 
ATOM     28  C   UNL     1     115.611 125.018 125.112  1.00  0.00     0.033 C 
ATOM     29  C   UNL     1     115.057 125.774 126.349  1.00  0.00     0.118 C 
BRANCH  29  30
ATOM     30  O   UNL     1     116.035 126.639 126.860  1.00  0.00    -0.393 OA
ATOM     31  H   UNL     1     116.377 127.169 126.097  1.00  0.00     0.210 HD
ENDBRANCH  29  30
ENDBRANCH   1  11
TORSDOF 6
ENDMDL
MODEL 8
REMARK VINA RESULT:    -7.168      5.788      9.730
REMARK INTER + INTRA:         -10.164
REMARK INTER:                  -8.642
REMARK INTRA:                  -1.522
REMARK UNBOUND:                -0.691
REMARK SMILES CC[C@@H](C=C[C@@H](C)[C@@H]1CC[C@@H]2[C@@H]3CC=C4C[C@@H](O)CC[C@@]4(C)[C@@H]3CC[C@]21C)C(C)C
REMARK SMILES IDX 6 1 7 2 5 3 4 4 3 5 2 6 1 7 28 8 29 9 30 10 8 11 9 12 26 13
REMARK SMILES IDX 10 14 11 15 25 16 27 17 12 18 24 19 23 20 13 21 21 22 14 23
REMARK SMILES IDX 15 24 20 25 22 26 16 27 19 28 17 29 18 30
REMARK H PARENT 18 31
REMARK Flexibility Score: inf
ROOT
ATOM      1  C   UNL     1     110.123 117.002 128.037  1.00  0.00     0.012 C 
ATOM      2  C   UNL     1     109.319 115.952 128.827  1.00  0.00     0.012 C 
ENDROOT
BRANCH   1   3
ATOM      3  C   UNL     1     109.815 116.845 126.561  1.00  0.00    -0.028 C 
ATOM      4  C   UNL     1     109.289 117.860 125.858  1.00  0.00    -0.027 C 
BRANCH   4   5
ATOM      5  C   UNL     1     109.192 117.829 124.348  1.00  0.00     0.014 C 
BRANCH   5   6
ATOM      6  C   UNL     1     109.690 116.455 123.819  1.00  0.00     0.004 C 
ATOM      7  C   UNL     1     111.021 116.564 123.075  1.00  0.00     0.004 C 
ENDBRANCH   5   6
BRANCH   5   8
ATOM      8  C   UNL     1     109.958 119.041 123.732  1.00  0.00    -0.011 C 
ATOM      9  C   UNL     1     110.211 120.136 124.779  1.00  0.00     0.008 C 
ATOM     10  C   UNL     1     109.272 119.645 122.493  1.00  0.00     0.008 C 
ENDBRANCH   5   8
ENDBRANCH   4   5
ENDBRANCH   1   3
BRANCH   1  11
ATOM     11  C   UNL     1     111.679 116.969 128.263  1.00  0.00     0.002 C 
ATOM     12  C   UNL     1     112.190 116.916 129.727  1.00  0.00     0.005 C 
ATOM     13  C   UNL     1     112.534 118.081 127.596  1.00  0.00    -0.026 C 
ATOM     14  C   UNL     1     113.616 117.500 129.704  1.00  0.00     0.005 C 
ATOM     15  C   UNL     1     113.893 117.762 128.226  1.00  0.00    -0.001 C 
ATOM     16  C   UNL     1     112.690 117.938 126.066  1.00  0.00     0.007 C 
ATOM     17  C   UNL     1     111.990 119.488 127.972  1.00  0.00     0.012 C 
ATOM     18  C   UNL     1     115.094 118.631 127.789  1.00  0.00     0.000 C 
ATOM     19  C   UNL     1     113.760 118.911 125.527  1.00  0.00     0.005 C 
ATOM     20  C   UNL     1     115.159 118.806 126.230  1.00  0.00     0.003 C 
ATOM     21  C   UNL     1     115.351 119.956 128.532  1.00  0.00     0.031 C 
ATOM     22  C   UNL     1     116.201 119.928 125.763  1.00  0.00    -0.008 C 
ATOM     23  C   UNL     1     116.740 120.400 128.168  1.00  0.00    -0.027 C 
ATOM     24  C   UNL     1     117.179 120.281 126.895  1.00  0.00    -0.065 C 
ATOM     25  C   UNL     1     117.012 119.383 124.550  1.00  0.00     0.014 C 
ATOM     26  C   UNL     1     115.507 121.256 125.350  1.00  0.00     0.016 C 
ATOM     27  C   UNL     1     118.662 120.351 126.617  1.00  0.00     0.063 C 
ATOM     28  C   UNL     1     118.163 120.301 124.091  1.00  0.00     0.033 C 
ATOM     29  C   UNL     1     118.935 120.988 125.248  1.00  0.00     0.118 C 
BRANCH  29  30
ATOM     30  O   UNL     1     120.315 120.947 124.996  1.00  0.00    -0.393 OA
ATOM     31  H   UNL     1     120.688 120.226 125.563  1.00  0.00     0.210 HD
ENDBRANCH  29  30
ENDBRANCH   1  11
TORSDOF 6
ENDMDL
MODEL 9
REMARK VINA RESULT:    -6.966      9.204     12.123
REMARK INTER + INTRA:          -9.897
REMARK INTER:                  -8.609
REMARK INTRA:                  -1.288
REMARK UNBOUND:                -0.691
REMARK SMILES CC[C@@H](C=C[C@@H](C)[C@@H]1CC[C@@H]2[C@@H]3CC=C4C[C@@H](O)CC[C@@]4(C)[C@@H]3CC[C@]21C)C(C)C
REMARK SMILES IDX 6 1 7 2 5 3 4 4 3 5 2 6 1 7 28 8 29 9 30 10 8 11 9 12 26 13
REMARK SMILES IDX 10 14 11 15 25 16 27 17 12 18 24 19 23 20 13 21 21 22 14 23
REMARK SMILES IDX 15 24 20 25 22 26 16 27 19 28 17 29 18 30
REMARK H PARENT 18 31
REMARK Flexibility Score: inf
ROOT
ATOM      1  C   UNL     1     117.112 117.470 122.450  1.00  0.00     0.012 C 
ATOM      2  C   UNL     1     115.921 116.499 122.538  1.00  0.00     0.012 C 
ENDROOT
BRANCH   1   3
ATOM      3  C   UNL     1     116.872 118.629 123.397  1.00  0.00    -0.028 C 
ATOM      4  C   UNL     1     116.879 119.894 122.951  1.00  0.00    -0.027 C 
BRANCH   4   5
ATOM      5  C   UNL     1     116.410 121.052 123.805  1.00  0.00     0.014 C 
BRANCH   5   6
ATOM      6  C   UNL     1     116.138 120.559 125.253  1.00  0.00     0.004 C 
ATOM      7  C   UNL     1     116.635 121.546 126.309  1.00  0.00     0.004 C 
ENDBRANCH   5   6
BRANCH   5   8
ATOM      8  C   UNL     1     115.175 121.742 123.147  1.00  0.00    -0.011 C 
ATOM      9  C   UNL     1     115.213 123.266 123.339  1.00  0.00     0.008 C 
ATOM     10  C   UNL     1     113.822 121.185 123.628  1.00  0.00     0.008 C 
ENDBRANCH   5   8
ENDBRANCH   4   5
ENDBRANCH   1   3
BRANCH   1  11
ATOM     11  C   UNL     1     117.431 118.017 121.010  1.00  0.00     0.002 C 
ATOM     12  C   UNL     1     116.345 117.834 119.917  1.00  0.00     0.005 C 
ATOM     13  C   UNL     1     118.747 117.550 120.329  1.00  0.00    -0.026 C 
ATOM     14  C   UNL     1     117.089 117.860 118.567  1.00  0.00     0.005 C 
ATOM     15  C   UNL     1     118.538 118.159 118.940  1.00  0.00    -0.001 C 
ATOM     16  C   UNL     1     120.030 118.174 120.919  1.00  0.00     0.007 C 
ATOM     17  C   UNL     1     118.836 115.997 120.320  1.00  0.00     0.012 C 
ATOM     18  C   UNL     1     119.674 117.969 117.910  1.00  0.00     0.000 C 
ATOM     19  C   UNL     1     121.252 117.874 120.025  1.00  0.00     0.005 C 
ATOM     20  C   UNL     1     121.085 118.289 118.522  1.00  0.00     0.003 C 
ATOM     21  C   UNL     1     119.689 116.684 117.060  1.00  0.00     0.031 C 
ATOM     22  C   UNL     1     122.299 117.825 117.587  1.00  0.00    -0.008 C 
ATOM     23  C   UNL     1     120.649 116.919 115.927  1.00  0.00    -0.027 C 
ATOM     24  C   UNL     1     121.820 117.554 116.151  1.00  0.00    -0.065 C 
ATOM     25  C   UNL     1     123.367 118.959 117.555  1.00  0.00     0.014 C 
ATOM     26  C   UNL     1     122.970 116.513 118.082  1.00  0.00     0.016 C 
ATOM     27  C   UNL     1     122.583 118.129 114.981  1.00  0.00     0.063 C 
ATOM     28  C   UNL     1     124.525 118.713 116.568  1.00  0.00     0.033 C 
ATOM     29  C   UNL     1     124.096 118.064 115.225  1.00  0.00     0.118 C 
BRANCH  29  30
ATOM     30  O   UNL     1     124.755 118.690 114.156  1.00  0.00    -0.393 OA
ATOM     31  H   UNL     1     124.868 119.641 114.407  1.00  0.00     0.210 HD
ENDBRANCH  29  30
ENDBRANCH   1  11
TORSDOF 6
ENDMDL
