MODEL 1
REMARK VINA RESULT:    -3.611      0.000      0.000
REMARK INTER + INTRA:          -4.664
REMARK INTER:                  -4.456
REMARK INTRA:                  -0.208
REMARK UNBOUND:                -0.208
REMARK SMILES [NH3+][C@H](Cc1ccc(O)cc1)C(=O)[O-]
REMARK SMILES IDX 3 1 2 2 1 3 11 7 12 8 13 9 4 10 5 11 10 12 6 13 9 14 7 15
REMARK SMILES IDX 8 16
REMARK H PARENT 1 4 1 5 1 6 8 17
REMARK Flexibility Score: inf
ROOT
ATOM      1  C   UNL     1       2.136   3.530  -5.115  1.00  0.00     0.107 C 
ENDROOT
BRANCH   1   2
ATOM      2  C   UNL     1       3.495   4.111  -4.659  1.00  0.00     0.232 C 
BRANCH   2   3
ATOM      3  N   UNL     1       4.519   3.068  -4.521  1.00  0.00    -0.350 N 
ATOM      4  H   UNL     1       5.439   3.385  -4.903  1.00  0.00     0.345 HD
ATOM      5  H   UNL     1       4.218   2.204  -5.028  1.00  0.00     0.345 HD
ATOM      6  H   UNL     1       4.639   2.826  -3.510  1.00  0.00     0.345 HD
ENDBRANCH   2   3
BRANCH   2   7
ATOM      7  C   UNL     1       3.956   5.220  -5.571  1.00  0.00     0.099 C 
ATOM      8  O   UNL     1       3.139   6.063  -6.027  1.00  0.00    -0.544 OA
ATOM      9  O   UNL     1       5.306   5.348  -5.871  1.00  0.00    -0.544 OA
ENDBRANCH   2   7
ENDBRANCH   1   2
BRANCH   1  10
ATOM     10  C   UNL     1       1.135   3.378  -3.994  1.00  0.00    -0.041 A 
ATOM     11  C   UNL     1       0.023   2.533  -4.144  1.00  0.00     0.008 A 
ATOM     12  C   UNL     1       1.300   4.090  -2.794  1.00  0.00     0.008 A 
ATOM     13  C   UNL     1      -0.909   2.404  -3.111  1.00  0.00     0.046 A 
ATOM     14  C   UNL     1       0.366   3.959  -1.762  1.00  0.00     0.046 A 
ATOM     15  C   UNL     1      -0.741   3.118  -1.917  1.00  0.00     0.115 A 
BRANCH  15  16
ATOM     16  O   UNL     1      -1.665   2.999  -0.881  1.00  0.00    -0.508 OA
ATOM     17  H   UNL     1      -2.596   3.393  -0.954  1.00  0.00     0.293 HD
ENDBRANCH  15  16
ENDBRANCH   1  10
TORSDOF 5
ENDMDL
MODEL 2
REMARK VINA RESULT:    -3.568      0.142      1.351
REMARK INTER + INTRA:          -4.610
REMARK INTER:                  -4.405
REMARK INTRA:                  -0.205
REMARK UNBOUND:                -0.208
REMARK SMILES [NH3+][C@H](Cc1ccc(O)cc1)C(=O)[O-]
REMARK SMILES IDX 3 1 2 2 1 3 11 7 12 8 13 9 4 10 5 11 10 12 6 13 9 14 7 15
REMARK SMILES IDX 8 16
REMARK H PARENT 1 4 1 5 1 6 8 17
REMARK Flexibility Score: inf
ROOT
ATOM      1  C   UNL     1       2.200   3.643  -5.167  1.00  0.00     0.107 C 
ENDROOT
BRANCH   1   2
ATOM      2  C   UNL     1       3.571   4.150  -4.663  1.00  0.00     0.232 C 
BRANCH   2   3
ATOM      3  N   UNL     1       4.539   3.055  -4.511  1.00  0.00    -0.350 N 
ATOM      4  H   UNL     1       4.634   2.507  -5.396  1.00  0.00     0.345 HD
ATOM      5  H   UNL     1       4.233   2.415  -3.742  1.00  0.00     0.345 HD
ATOM      6  H   UNL     1       5.474   3.448  -4.255  1.00  0.00     0.345 HD
ENDBRANCH   2   3
BRANCH   2   7
ATOM      7  C   UNL     1       4.113   5.247  -5.543  1.00  0.00     0.099 C 
ATOM      8  O   UNL     1       3.370   6.182  -5.942  1.00  0.00    -0.544 OA
ATOM      9  O   UNL     1       5.462   5.259  -5.877  1.00  0.00    -0.544 OA
ENDBRANCH   2   7
ENDBRANCH   1   2
BRANCH   1  10
ATOM     10  C   UNL     1       1.176   3.474  -4.070  1.00  0.00    -0.041 A 
ATOM     11  C   UNL     1       1.324   4.151  -2.848  1.00  0.00     0.008 A 
ATOM     12  C   UNL     1       0.071   2.626  -4.255  1.00  0.00     0.008 A 
ATOM     13  C   UNL     1       0.382   3.983  -1.830  1.00  0.00     0.046 A 
ATOM     14  C   UNL     1      -0.869   2.459  -3.234  1.00  0.00     0.046 A 
ATOM     15  C   UNL     1      -0.717   3.135  -2.019  1.00  0.00     0.115 A 
BRANCH  15  16
ATOM     16  O   UNL     1      -1.660   2.958  -1.010  1.00  0.00    -0.508 OA
ATOM     17  H   UNL     1      -1.405   2.573  -0.108  1.00  0.00     0.293 HD
ENDBRANCH  15  16
ENDBRANCH   1  10
TORSDOF 5
ENDMDL
MODEL 3
REMARK VINA RESULT:    -3.263      2.094      5.648
REMARK INTER + INTRA:          -4.234
REMARK INTER:                  -4.065
REMARK INTRA:                  -0.169
REMARK UNBOUND:                -0.208
REMARK SMILES [NH3+][C@H](Cc1ccc(O)cc1)C(=O)[O-]
REMARK SMILES IDX 3 1 2 2 1 3 11 7 12 8 13 9 4 10 5 11 10 12 6 13 9 14 7 15
REMARK SMILES IDX 8 16
REMARK H PARENT 1 4 1 5 1 6 8 17
REMARK Flexibility Score: inf
ROOT
ATOM      1  C   UNL     1       0.358   3.790  -4.520  1.00  0.00     0.107 C 
ENDROOT
BRANCH   1   2
ATOM      2  C   UNL     1       0.013   4.244  -3.083  1.00  0.00     0.232 C 
BRANCH   2   3
ATOM      3  N   UNL     1      -1.101   5.202  -3.064  1.00  0.00    -0.350 N 
ATOM      4  H   UNL     1      -1.646   5.169  -3.955  1.00  0.00     0.345 HD
ATOM      5  H   UNL     1      -0.734   6.170  -2.921  1.00  0.00     0.345 HD
ATOM      6  H   UNL     1      -1.742   4.976  -2.268  1.00  0.00     0.345 HD
ENDBRANCH   2   3
BRANCH   2   7
ATOM      7  C   UNL     1      -0.256   3.067  -2.180  1.00  0.00     0.099 C 
ATOM      8  O   UNL     1       0.078   3.095  -0.966  1.00  0.00    -0.544 OA
ATOM      9  O   UNL     1      -0.927   1.956  -2.677  1.00  0.00    -0.544 OA
ENDBRANCH   2   7
ENDBRANCH   1   2
BRANCH   1  10
ATOM     10  C   UNL     1       1.728   4.230  -4.982  1.00  0.00    -0.041 A 
ATOM     11  C   UNL     1       2.871   3.888  -4.242  1.00  0.00     0.008 A 
ATOM     12  C   UNL     1       1.870   4.998  -6.150  1.00  0.00     0.008 A 
ATOM     13  C   UNL     1       4.136   4.308  -4.663  1.00  0.00     0.046 A 
ATOM     14  C   UNL     1       3.136   5.416  -6.569  1.00  0.00     0.046 A 
ATOM     15  C   UNL     1       4.272   5.074  -5.828  1.00  0.00     0.115 A 
BRANCH  15  16
ATOM     16  O   UNL     1       5.527   5.500  -6.256  1.00  0.00    -0.508 OA
ATOM     17  H   UNL     1       5.687   6.452  -6.565  1.00  0.00     0.293 HD
ENDBRANCH  15  16
ENDBRANCH   1  10
TORSDOF 5
ENDMDL
MODEL 4
REMARK VINA RESULT:    -3.238      2.354      5.600
REMARK INTER + INTRA:          -4.203
REMARK INTER:                  -3.987
REMARK INTRA:                  -0.217
REMARK UNBOUND:                -0.208
REMARK SMILES [NH3+][C@H](Cc1ccc(O)cc1)C(=O)[O-]
REMARK SMILES IDX 3 1 2 2 1 3 11 7 12 8 13 9 4 10 5 11 10 12 6 13 9 14 7 15
REMARK SMILES IDX 8 16
REMARK H PARENT 1 4 1 5 1 6 8 17
REMARK Flexibility Score: inf
ROOT
ATOM      1  C   UNL     1       1.412   2.136  -5.276  1.00  0.00     0.107 C 
ENDROOT
BRANCH   1   2
ATOM      2  C   UNL     1       0.327   3.015  -4.612  1.00  0.00     0.232 C 
BRANCH   2   3
ATOM      3  N   UNL     1      -0.812   3.251  -5.510  1.00  0.00    -0.350 N 
ATOM      4  H   UNL     1      -0.592   2.959  -6.489  1.00  0.00     0.345 HD
ATOM      5  H   UNL     1      -1.064   4.266  -5.504  1.00  0.00     0.345 HD
ATOM      6  H   UNL     1      -1.641   2.708  -5.174  1.00  0.00     0.345 HD
ENDBRANCH   2   3
BRANCH   2   7
ATOM      7  C   UNL     1      -0.121   2.440  -3.292  1.00  0.00     0.099 C 
ATOM      8  O   UNL     1      -0.821   1.393  -3.248  1.00  0.00    -0.544 OA
ATOM      9  O   UNL     1       0.284   3.040  -2.107  1.00  0.00    -0.544 OA
ENDBRANCH   2   7
ENDBRANCH   1   2
BRANCH   1  10
ATOM     10  C   UNL     1       2.801   2.724  -5.197  1.00  0.00    -0.041 A 
ATOM     11  C   UNL     1       2.981   4.075  -4.858  1.00  0.00     0.008 A 
ATOM     12  C   UNL     1       3.925   1.930  -5.476  1.00  0.00     0.008 A 
ATOM     13  C   UNL     1       4.266   4.622  -4.799  1.00  0.00     0.046 A 
ATOM     14  C   UNL     1       5.209   2.479  -5.416  1.00  0.00     0.046 A 
ATOM     15  C   UNL     1       5.384   3.826  -5.079  1.00  0.00     0.115 A 
BRANCH  15  16
ATOM     16  O   UNL     1       6.669   4.360  -5.025  1.00  0.00    -0.508 OA
ATOM     17  H   UNL     1       6.838   5.301  -4.688  1.00  0.00     0.293 HD
ENDBRANCH  15  16
ENDBRANCH   1  10
TORSDOF 5
ENDMDL
MODEL 5
REMARK VINA RESULT:    -3.111     11.508     13.144
REMARK INTER + INTRA:          -4.047
REMARK INTER:                  -3.870
REMARK INTRA:                  -0.177
REMARK UNBOUND:                -0.208
REMARK SMILES [NH3+][C@H](Cc1ccc(O)cc1)C(=O)[O-]
REMARK SMILES IDX 3 1 2 2 1 3 11 7 12 8 13 9 4 10 5 11 10 12 6 13 9 14 7 15
REMARK SMILES IDX 8 16
REMARK H PARENT 1 4 1 5 1 6 8 17
REMARK Flexibility Score: inf
ROOT
ATOM      1  C   UNL     1       3.100   6.422   6.701  1.00  0.00     0.107 C 
ENDROOT
BRANCH   1   2
ATOM      2  C   UNL     1       2.422   5.989   8.021  1.00  0.00     0.232 C 
BRANCH   2   3
ATOM      3  N   UNL     1       1.666   7.088   8.636  1.00  0.00    -0.350 N 
ATOM      4  H   UNL     1       2.300   7.757   9.129  1.00  0.00     0.345 HD
ATOM      5  H   UNL     1       0.974   6.703   9.320  1.00  0.00     0.345 HD
ATOM      6  H   UNL     1       1.138   7.606   7.896  1.00  0.00     0.345 HD
ENDBRANCH   2   3
BRANCH   2   7
ATOM      7  C   UNL     1       1.561   4.767   7.826  1.00  0.00     0.099 C 
ATOM      8  O   UNL     1       1.314   3.991   8.787  1.00  0.00    -0.544 OA
ATOM      9  O   UNL     1       0.988   4.519   6.585  1.00  0.00    -0.544 OA
ENDBRANCH   2   7
ENDBRANCH   1   2
BRANCH   1  10
ATOM     10  C   UNL     1       4.286   7.337   6.901  1.00  0.00    -0.041 A 
ATOM     11  C   UNL     1       5.424   6.885   7.588  1.00  0.00     0.008 A 
ATOM     12  C   UNL     1       4.257   8.654   6.412  1.00  0.00     0.008 A 
ATOM     13  C   UNL     1       6.515   7.737   7.783  1.00  0.00     0.046 A 
ATOM     14  C   UNL     1       5.348   9.504   6.609  1.00  0.00     0.046 A 
ATOM     15  C   UNL     1       6.480   9.050   7.295  1.00  0.00     0.115 A 
BRANCH  15  16
ATOM     16  O   UNL     1       7.560   9.909   7.485  1.00  0.00    -0.508 OA
ATOM     17  H   UNL     1       7.429  10.908   7.594  1.00  0.00     0.293 HD
ENDBRANCH  15  16
ENDBRANCH   1  10
TORSDOF 5
ENDMDL
MODEL 6
REMARK VINA RESULT:    -3.087     10.931     13.127
REMARK INTER + INTRA:          -4.017
REMARK INTER:                  -3.790
REMARK INTRA:                  -0.227
REMARK UNBOUND:                -0.208
REMARK SMILES [NH3+][C@H](Cc1ccc(O)cc1)C(=O)[O-]
REMARK SMILES IDX 3 1 2 2 1 3 11 7 12 8 13 9 4 10 5 11 10 12 6 13 9 14 7 15
REMARK SMILES IDX 8 16
REMARK H PARENT 1 4 1 5 1 6 8 17
REMARK Flexibility Score: inf
ROOT
ATOM      1  C   UNL     1      -0.647   3.375   7.868  1.00  0.00     0.107 C 
ENDROOT
BRANCH   1   2
ATOM      2  C   UNL     1      -0.542   2.975   9.357  1.00  0.00     0.232 C 
BRANCH   2   3
ATOM      3  N   UNL     1      -1.821   3.138  10.061  1.00  0.00    -0.350 N 
ATOM      4  H   UNL     1      -2.069   4.148  10.168  1.00  0.00     0.345 HD
ATOM      5  H   UNL     1      -1.765   2.697  11.007  1.00  0.00     0.345 HD
ATOM      6  H   UNL     1      -2.580   2.660   9.523  1.00  0.00     0.345 HD
ENDBRANCH   2   3
BRANCH   2   7
ATOM      7  C   UNL     1       0.002   1.578   9.519  1.00  0.00     0.099 C 
ATOM      8  O   UNL     1       1.233   1.344   9.387  1.00  0.00    -0.544 OA
ATOM      9  O   UNL     1      -0.855   0.542   9.868  1.00  0.00    -0.544 OA
ENDBRANCH   2   7
ENDBRANCH   1   2
BRANCH   1  10
ATOM     10  C   UNL     1       0.374   4.404   7.443  1.00  0.00    -0.041 A 
ATOM     11  C   UNL     1       1.415   4.772   8.311  1.00  0.00     0.008 A 
ATOM     12  C   UNL     1       0.285   5.012   6.180  1.00  0.00     0.008 A 
ATOM     13  C   UNL     1       2.351   5.734   7.921  1.00  0.00     0.046 A 
ATOM     14  C   UNL     1       1.222   5.975   5.793  1.00  0.00     0.046 A 
ATOM     15  C   UNL     1       2.257   6.339   6.661  1.00  0.00     0.115 A 
BRANCH  15  16
ATOM     16  O   UNL     1       3.182   7.301   6.263  1.00  0.00    -0.508 OA
ATOM     17  H   UNL     1       4.017   7.050   5.746  1.00  0.00     0.293 HD
ENDBRANCH  15  16
ENDBRANCH   1  10
TORSDOF 5
ENDMDL
MODEL 7
REMARK VINA RESULT:    -3.037      2.580      5.272
REMARK INTER + INTRA:          -3.956
REMARK INTER:                  -3.722
REMARK INTRA:                  -0.234
REMARK UNBOUND:                -0.208
REMARK SMILES [NH3+][C@H](Cc1ccc(O)cc1)C(=O)[O-]
REMARK SMILES IDX 3 1 2 2 1 3 11 7 12 8 13 9 4 10 5 11 10 12 6 13 9 14 7 15
REMARK SMILES IDX 8 16
REMARK H PARENT 1 4 1 5 1 6 8 17
REMARK Flexibility Score: inf
ROOT
ATOM      1  C   UNL     1       0.441   3.874  -4.717  1.00  0.00     0.107 C 
ENDROOT
BRANCH   1   2
ATOM      2  C   UNL     1       0.120   4.257  -3.254  1.00  0.00     0.232 C 
BRANCH   2   3
ATOM      3  N   UNL     1      -0.934   5.277  -3.172  1.00  0.00    -0.350 N 
ATOM      4  H   UNL     1      -0.649   6.158  -3.656  1.00  0.00     0.345 HD
ATOM      5  H   UNL     1      -1.147   5.488  -2.171  1.00  0.00     0.345 HD
ATOM      6  H   UNL     1      -1.807   4.914  -3.621  1.00  0.00     0.345 HD
ENDBRANCH   2   3
BRANCH   2   7
ATOM      7  C   UNL     1      -0.220   3.044  -2.425  1.00  0.00     0.099 C 
ATOM      8  O   UNL     1      -0.672   1.999  -2.965  1.00  0.00    -0.544 OA
ATOM      9  O   UNL     1       0.016   3.058  -1.056  1.00  0.00    -0.544 OA
ENDBRANCH   2   7
ENDBRANCH   1   2
BRANCH   1  10
ATOM     10  C   UNL     1       1.857   3.389  -4.920  1.00  0.00    -0.041 A 
ATOM     11  C   UNL     1       2.101   2.126  -5.484  1.00  0.00     0.008 A 
ATOM     12  C   UNL     1       2.944   4.191  -4.536  1.00  0.00     0.008 A 
ATOM     13  C   UNL     1       3.412   1.673  -5.659  1.00  0.00     0.046 A 
ATOM     14  C   UNL     1       4.254   3.736  -4.711  1.00  0.00     0.046 A 
ATOM     15  C   UNL     1       4.493   2.477  -5.272  1.00  0.00     0.115 A 
BRANCH  15  16
ATOM     16  O   UNL     1       5.803   2.036  -5.440  1.00  0.00    -0.508 OA
ATOM     17  H   UNL     1       6.263   1.465  -4.740  1.00  0.00     0.293 HD
ENDBRANCH  15  16
ENDBRANCH   1  10
TORSDOF 5
ENDMDL
MODEL 8
REMARK VINA RESULT:    -2.991     10.975     11.940
REMARK INTER + INTRA:          -3.898
REMARK INTER:                  -3.681
REMARK INTRA:                  -0.218
REMARK UNBOUND:                -0.208
REMARK SMILES [NH3+][C@H](Cc1ccc(O)cc1)C(=O)[O-]
REMARK SMILES IDX 3 1 2 2 1 3 11 7 12 8 13 9 4 10 5 11 10 12 6 13 9 14 7 15
REMARK SMILES IDX 8 16
REMARK H PARENT 1 4 1 5 1 6 8 17
REMARK Flexibility Score: inf
ROOT
ATOM      1  C   UNL     1       3.078   7.680   7.785  1.00  0.00     0.107 C 
ENDROOT
BRANCH   1   2
ATOM      2  C   UNL     1       4.246   7.659   6.772  1.00  0.00     0.232 C 
BRANCH   2   3
ATOM      3  N   UNL     1       4.183   8.791   5.838  1.00  0.00    -0.350 N 
ATOM      4  H   UNL     1       4.967   9.463   6.001  1.00  0.00     0.345 HD
ATOM      5  H   UNL     1       3.272   9.292   5.949  1.00  0.00     0.345 HD
ATOM      6  H   UNL     1       4.242   8.436   4.855  1.00  0.00     0.345 HD
ENDBRANCH   2   3
BRANCH   2   7
ATOM      7  C   UNL     1       5.582   7.592   7.469  1.00  0.00     0.099 C 
ATOM      8  O   UNL     1       6.544   8.310   7.089  1.00  0.00    -0.544 OA
ATOM      9  O   UNL     1       5.740   6.769   8.576  1.00  0.00    -0.544 OA
ENDBRANCH   2   7
ENDBRANCH   1   2
BRANCH   1  10
ATOM     10  C   UNL     1       2.198   6.453   7.722  1.00  0.00    -0.041 A 
ATOM     11  C   UNL     1       2.026   5.643   8.856  1.00  0.00     0.008 A 
ATOM     12  C   UNL     1       1.554   6.103   6.523  1.00  0.00     0.008 A 
ATOM     13  C   UNL     1       1.224   4.502   8.792  1.00  0.00     0.046 A 
ATOM     14  C   UNL     1       0.752   4.960   6.462  1.00  0.00     0.046 A 
ATOM     15  C   UNL     1       0.584   4.156   7.594  1.00  0.00     0.115 A 
BRANCH  15  16
ATOM     16  O   UNL     1      -0.217   3.019   7.518  1.00  0.00    -0.508 OA
ATOM     17  H   UNL     1      -0.121   2.354   6.760  1.00  0.00     0.293 HD
ENDBRANCH  15  16
ENDBRANCH   1  10
TORSDOF 5
ENDMDL
