MODEL 1
REMARK VINA RESULT:    -3.439      0.000      0.000
REMARK INTER + INTRA:         -10.387
REMARK INTER:                  -7.460
REMARK INTRA:                  -2.927
REMARK UNBOUND:                -2.927
REMARK SMILES C[C@H]1O[C@@H](OC[C@@H]2O[C@@H](Oc3c(-c4ccc(OCCO)c(OCCO)c4)oc4cc(OCCO)cc(O)c4c3=O)[C@H](O)[C@H](O)[C@H]2O)[C@H](O)[C@@H](O)[C@@H]1O
REMARK SMILES IDX 11 1 12 2 27 3 28 4 29 5 30 6 35 7 36 8 38 9 39 10 40 11
REMARK SMILES IDX 10 12 9 13 7 14 45 15 8 16 43 17 41 18 6 19 5 20 4 21 1 22
REMARK SMILES IDX 2 23 51 24 3 25 49 26 47 27 52 28 50 30 48 32 46 34 44 36
REMARK SMILES IDX 42 38 13 40 26 41 14 42 21 43 15 44 16 45 22 46 23 47 24 48
REMARK SMILES IDX 25 49 17 51 18 52 19 53 20 54 37 56 31 58 32 59 33 60 34 61
REMARK H PARENT 52 29 50 31 48 33 46 35 44 37 42 39 25 50 20 55 37 57 34 62
REMARK Flexibility Score: inf
ROOT
ATOM      1  C   UNL     1      -3.553   5.307  14.264  1.00  0.00     0.214 A 
ATOM      2  C   UNL     1      -4.876   4.849  14.123  1.00  0.00     0.180 A 
ATOM      3  O   UNL     1      -5.346   3.906  14.933  1.00  0.00    -0.452 OA
ATOM      4  C   UNL     1      -4.616   3.332  15.882  1.00  0.00     0.146 A 
ATOM      5  C   UNL     1      -5.198   2.346  16.683  1.00  0.00     0.094 A 
ATOM      6  C   UNL     1      -4.467   1.723  17.693  1.00  0.00     0.126 A 
ATOM      7  C   UNL     1      -3.126   2.096  17.902  1.00  0.00     0.093 A 
ATOM      8  C   UNL     1      -2.524   3.084  17.108  1.00  0.00     0.134 A 
ATOM      9  C   UNL     1      -3.270   3.713  16.084  1.00  0.00     0.111 A 
ATOM     10  C   UNL     1      -2.743   4.727  15.255  1.00  0.00     0.239 A 
ATOM     11  O   UNL     1      -1.564   5.136  15.417  1.00  0.00    -0.285 OA
ENDROOT
BRANCH   1  12
ATOM     12  O   UNL     1      -3.107   6.378  13.473  1.00  0.00    -0.454 OA
BRANCH  12  13
ATOM     13  C   UNL     1      -2.772   7.674  13.982  1.00  0.00     0.339 C 
ATOM     14  C   UNL     1      -4.940   8.519  13.645  1.00  0.00     0.180 C 
ATOM     15  C   UNL     1      -4.492   9.454  12.495  1.00  0.00     0.177 C 
ATOM     16  O   UNL     1      -3.886   8.319  14.574  1.00  0.00    -0.332 OA
ATOM     17  C   UNL     1      -3.242   8.874  11.813  1.00  0.00     0.180 C 
ATOM     18  C   UNL     1      -2.167   8.541  12.860  1.00  0.00     0.214 C 
BRANCH  14  19
ATOM     19  C   UNL     1      -6.129   9.117  14.415  1.00  0.00     0.198 C 
BRANCH  19  20
ATOM     20  O   UNL     1      -6.076   8.776  15.789  1.00  0.00    -0.347 OA
BRANCH  20  21
ATOM     21  C   UNL     1      -7.097   7.859  16.152  1.00  0.00     0.281 C 
ATOM     22  C   UNL     1      -5.966   9.439  18.586  1.00  0.00     0.041 C 
ATOM     23  C   UNL     1      -6.958   8.268  18.506  1.00  0.00     0.150 C 
ATOM     24  C   UNL     1      -6.307   6.887  18.785  1.00  0.00     0.174 C 
ATOM     25  O   UNL     1      -7.760   8.301  17.331  1.00  0.00    -0.344 OA
ATOM     26  C   UNL     1      -5.633   6.292  17.535  1.00  0.00     0.179 C 
ATOM     27  C   UNL     1      -6.533   6.424  16.298  1.00  0.00     0.202 C 
BRANCH  24  28
ATOM     28  O   UNL     1      -7.284   5.991  19.254  1.00  0.00    -0.388 OA
ATOM     29  H   UNL     1      -7.666   6.382  20.082  1.00  0.00     0.211 HD
ENDBRANCH  24  28
BRANCH  26  30
ATOM     30  O   UNL     1      -4.406   6.931  17.286  1.00  0.00    -0.387 OA
ATOM     31  H   UNL     1      -4.567   7.591  16.562  1.00  0.00     0.211 HD
ENDBRANCH  26  30
BRANCH  27  32
ATOM     32  O   UNL     1      -7.565   5.464  16.321  1.00  0.00    -0.385 OA
ATOM     33  H   UNL     1      -8.176   5.678  17.073  1.00  0.00     0.211 HD
ENDBRANCH  27  32
ENDBRANCH  20  21
ENDBRANCH  19  20
ENDBRANCH  14  19
BRANCH  15  34
ATOM     34  O   UNL     1      -5.525   9.576  11.552  1.00  0.00    -0.387 OA
ATOM     35  H   UNL     1      -5.131   9.379  10.663  1.00  0.00     0.211 HD
ENDBRANCH  15  34
BRANCH  17  36
ATOM     36  O   UNL     1      -2.744   9.793  10.877  1.00  0.00    -0.387 OA
ATOM     37  H   UNL     1      -2.884  10.697  11.265  1.00  0.00     0.211 HD
ENDBRANCH  17  36
BRANCH  18  38
ATOM     38  O   UNL     1      -1.649   9.729  13.401  1.00  0.00    -0.384 OA
ATOM     39  H   UNL     1      -1.026   9.465  14.129  1.00  0.00     0.211 HD
ENDBRANCH  18  38
ENDBRANCH  12  13
ENDBRANCH   1  12
BRANCH   2  40
ATOM     40  C   UNL     1      -5.780   5.389  13.086  1.00  0.00     0.025 A 
ATOM     41  C   UNL     1      -7.161   5.432  13.320  1.00  0.00     0.062 A 
ATOM     42  C   UNL     1      -5.279   5.801  11.846  1.00  0.00     0.016 A 
ATOM     43  C   UNL     1      -8.043   5.914  12.330  1.00  0.00     0.162 A 
ATOM     44  C   UNL     1      -6.141   6.296  10.868  1.00  0.00     0.051 A 
ATOM     45  C   UNL     1      -7.527   6.361  11.104  1.00  0.00     0.161 A 
BRANCH  43  46
ATOM     46  O   UNL     1      -9.436   5.965  12.522  1.00  0.00    -0.487 OA
BRANCH  46  47
ATOM     47  C   UNL     1     -10.104   6.653  13.584  1.00  0.00     0.258 C 
BRANCH  47  48
ATOM     48  C   UNL     1     -10.124   5.807  14.863  1.00  0.00     0.197 C 
BRANCH  48  49
ATOM     49  O   UNL     1     -10.103   6.624  15.998  1.00  0.00    -0.393 OA
ATOM     50  H   UNL     1     -10.496   6.096  16.742  1.00  0.00     0.210 HD
ENDBRANCH  48  49
ENDBRANCH  47  48
ENDBRANCH  46  47
ENDBRANCH  43  46
BRANCH  45  51
ATOM     51  O   UNL     1      -8.422   6.851  10.141  1.00  0.00    -0.487 OA
BRANCH  51  52
ATOM     52  C   UNL     1      -8.641   8.235   9.875  1.00  0.00     0.258 C 
BRANCH  52  53
ATOM     53  C   UNL     1      -9.313   8.891  11.077  1.00  0.00     0.197 C 
BRANCH  53  54
ATOM     54  O   UNL     1      -8.376   9.630  11.814  1.00  0.00    -0.393 OA
ATOM     55  H   UNL     1      -7.477   9.316  11.535  1.00  0.00     0.210 HD
ENDBRANCH  53  54
ENDBRANCH  52  53
ENDBRANCH  51  52
ENDBRANCH  45  51
ENDBRANCH   2  40
BRANCH   8  56
ATOM     56  O   UNL     1      -1.194   3.433  17.343  1.00  0.00    -0.507 OA
ATOM     57  H   UNL     1      -0.533   3.550  16.583  1.00  0.00     0.293 HD
ENDBRANCH   8  56
BRANCH   6  58
ATOM     58  O   UNL     1      -5.107   0.743  18.466  1.00  0.00    -0.491 OA
BRANCH  58  59
ATOM     59  C   UNL     1      -6.403   0.216  18.191  1.00  0.00     0.257 C 
BRANCH  59  60
ATOM     60  C   UNL     1      -6.292  -1.281  17.924  1.00  0.00     0.197 C 
BRANCH  60  61
ATOM     61  O   UNL     1      -6.732  -1.578  16.626  1.00  0.00    -0.393 OA
ATOM     62  H   UNL     1      -6.126  -2.278  16.272  1.00  0.00     0.210 HD
ENDBRANCH  60  61
ENDBRANCH  59  60
ENDBRANCH  58  59
ENDBRANCH   6  58
TORSDOF 25
ENDMDL
MODEL 2
REMARK VINA RESULT:    -3.096      9.827     17.115
REMARK INTER + INTRA:          -9.644
REMARK INTER:                 -11.001
REMARK INTRA:                   1.357
REMARK UNBOUND:                -2.927
REMARK SMILES C[C@H]1O[C@@H](OC[C@@H]2O[C@@H](Oc3c(-c4ccc(OCCO)c(OCCO)c4)oc4cc(OCCO)cc(O)c4c3=O)[C@H](O)[C@H](O)[C@H]2O)[C@H](O)[C@@H](O)[C@@H]1O
REMARK SMILES IDX 11 1 12 2 27 3 28 4 29 5 30 6 35 7 36 8 38 9 39 10 40 11
REMARK SMILES IDX 10 12 9 13 7 14 45 15 8 16 43 17 41 18 6 19 5 20 4 21 1 22
REMARK SMILES IDX 2 23 51 24 3 25 49 26 47 27 52 28 50 30 48 32 46 34 44 36
REMARK SMILES IDX 42 38 13 40 26 41 14 42 21 43 15 44 16 45 22 46 23 47 24 48
REMARK SMILES IDX 25 49 17 51 18 52 19 53 20 54 37 56 31 58 32 59 33 60 34 61
REMARK H PARENT 52 29 50 31 48 33 46 35 44 37 42 39 25 50 20 55 37 57 34 62
REMARK Flexibility Score: inf
ROOT
ATOM      1  C   UNL     1      -5.134  -6.518  24.497  1.00  0.00     0.214 A 
ATOM      2  C   UNL     1      -4.747  -7.443  25.485  1.00  0.00     0.180 A 
ATOM      3  O   UNL     1      -5.670  -8.074  26.206  1.00  0.00    -0.452 OA
ATOM      4  C   UNL     1      -6.972  -7.862  26.067  1.00  0.00     0.146 A 
ATOM      5  C   UNL     1      -7.865  -8.571  26.875  1.00  0.00     0.094 A 
ATOM      6  C   UNL     1      -9.241  -8.381  26.756  1.00  0.00     0.126 A 
ATOM      7  C   UNL     1      -9.729  -7.461  25.811  1.00  0.00     0.093 A 
ATOM      8  C   UNL     1      -8.849  -6.738  24.991  1.00  0.00     0.134 A 
ATOM      9  C   UNL     1      -7.453  -6.935  25.115  1.00  0.00     0.111 A 
ATOM     10  C   UNL     1      -6.504  -6.261  24.316  1.00  0.00     0.239 A 
ATOM     11  O   UNL     1      -6.876  -5.456  23.423  1.00  0.00    -0.285 OA
ENDROOT
BRANCH   1  12
ATOM     12  O   UNL     1      -4.155  -5.943  23.672  1.00  0.00    -0.454 OA
BRANCH  12  13
ATOM     13  C   UNL     1      -3.575  -6.590  22.533  1.00  0.00     0.339 C 
ATOM     14  C   UNL     1      -4.990  -5.488  21.012  1.00  0.00     0.180 C 
ATOM     15  C   UNL     1      -5.770  -6.780  20.667  1.00  0.00     0.177 C 
ATOM     16  O   UNL     1      -3.648  -5.787  21.368  1.00  0.00    -0.332 OA
ATOM     17  C   UNL     1      -5.706  -7.757  21.852  1.00  0.00     0.180 C 
ATOM     18  C   UNL     1      -4.250  -7.957  22.302  1.00  0.00     0.214 C 
BRANCH  14  19
ATOM     19  C   UNL     1      -4.947  -4.527  19.812  1.00  0.00     0.198 C 
BRANCH  19  20
ATOM     20  O   UNL     1      -6.237  -4.030  19.504  1.00  0.00    -0.347 OA
BRANCH  20  21
ATOM     21  C   UNL     1      -6.390  -2.670  19.880  1.00  0.00     0.281 C 
ATOM     22  C   UNL     1      -9.064  -4.265  19.985  1.00  0.00     0.041 C 
ATOM     23  C   UNL     1      -8.765  -2.768  20.164  1.00  0.00     0.150 C 
ATOM     24  C   UNL     1      -9.029  -1.928  18.887  1.00  0.00     0.174 C 
ATOM     25  O   UNL     1      -7.497  -2.525  20.763  1.00  0.00    -0.344 OA
ATOM     26  C   UNL     1      -7.843  -1.962  17.906  1.00  0.00     0.179 C 
ATOM     27  C   UNL     1      -6.507  -1.756  18.636  1.00  0.00     0.202 C 
BRANCH  24  28
ATOM     28  O   UNL     1      -9.294  -0.594  19.245  1.00  0.00    -0.388 OA
ATOM     29  H   UNL     1     -10.110  -0.600  19.812  1.00  0.00     0.211 HD
ENDBRANCH  24  28
BRANCH  26  30
ATOM     30  O   UNL     1      -7.810  -3.184  17.214  1.00  0.00    -0.387 OA
ATOM     31  H   UNL     1      -7.634  -2.972  16.260  1.00  0.00     0.211 HD
ENDBRANCH  26  30
BRANCH  27  32
ATOM     32  O   UNL     1      -6.320  -0.400  18.971  1.00  0.00    -0.385 OA
ATOM     33  H   UNL     1      -6.129   0.106  18.139  1.00  0.00     0.211 HD
ENDBRANCH  27  32
ENDBRANCH  20  21
ENDBRANCH  19  20
ENDBRANCH  14  19
BRANCH  15  34
ATOM     34  O   UNL     1      -7.111  -6.465  20.392  1.00  0.00    -0.387 OA
ATOM     35  H   UNL     1      -7.137  -5.507  20.135  1.00  0.00     0.211 HD
ENDBRANCH  15  34
BRANCH  17  36
ATOM     36  O   UNL     1      -6.277  -8.985  21.485  1.00  0.00    -0.387 OA
ATOM     37  H   UNL     1      -5.751  -9.691  21.947  1.00  0.00     0.211 HD
ENDBRANCH  17  36
BRANCH  18  38
ATOM     38  O   UNL     1      -3.546  -8.678  21.323  1.00  0.00    -0.384 OA
ATOM     39  H   UNL     1      -3.453  -9.607  21.664  1.00  0.00     0.211 HD
ENDBRANCH  18  38
ENDBRANCH  12  13
ENDBRANCH   1  12
BRANCH   2  40
ATOM     40  C   UNL     1      -3.327  -7.745  25.754  1.00  0.00     0.025 A 
ATOM     41  C   UNL     1      -2.755  -7.371  26.978  1.00  0.00     0.062 A 
ATOM     42  C   UNL     1      -2.526  -8.345  24.776  1.00  0.00     0.016 A 
ATOM     43  C   UNL     1      -1.392  -7.622  27.240  1.00  0.00     0.162 A 
ATOM     44  C   UNL     1      -1.182  -8.614  25.033  1.00  0.00     0.051 A 
ATOM     45  C   UNL     1      -0.607  -8.260  26.267  1.00  0.00     0.161 A 
BRANCH  43  46
ATOM     46  O   UNL     1      -0.778  -7.255  28.453  1.00  0.00    -0.487 OA
BRANCH  46  47
ATOM     47  C   UNL     1      -0.741  -5.934  28.999  1.00  0.00     0.258 C 
BRANCH  47  48
ATOM     48  C   UNL     1       0.598  -5.662  29.696  1.00  0.00     0.197 C 
BRANCH  48  49
ATOM     49  O   UNL     1       0.983  -4.327  29.527  1.00  0.00    -0.393 OA
ATOM     50  H   UNL     1       1.901  -4.243  29.895  1.00  0.00     0.210 HD
ENDBRANCH  48  49
ENDBRANCH  47  48
ENDBRANCH  46  47
ENDBRANCH  43  46
BRANCH  45  51
ATOM     51  O   UNL     1       0.742  -8.512  26.558  1.00  0.00    -0.487 OA
BRANCH  51  52
ATOM     52  C   UNL     1       1.781  -7.538  26.473  1.00  0.00     0.258 C 
BRANCH  52  53
ATOM     53  C   UNL     1       2.849  -7.830  27.522  1.00  0.00     0.197 C 
BRANCH  53  54
ATOM     54  O   UNL     1       4.057  -7.210  27.172  1.00  0.00    -0.393 OA
ATOM     55  H   UNL     1       4.050  -7.101  26.186  1.00  0.00     0.210 HD
ENDBRANCH  53  54
ENDBRANCH  52  53
ENDBRANCH  51  52
ENDBRANCH  45  51
ENDBRANCH   2  40
BRANCH   8  56
ATOM     56  O   UNL     1      -9.365  -5.835  24.060  1.00  0.00    -0.507 OA
ATOM     57  H   UNL     1      -8.818  -5.053  23.720  1.00  0.00     0.293 HD
ENDBRANCH   8  56
BRANCH   6  58
ATOM     58  O   UNL     1     -10.087  -9.125  27.593  1.00  0.00    -0.491 OA
BRANCH  58  59
ATOM     59  C   UNL     1     -10.098  -9.035  29.015  1.00  0.00     0.257 C 
BRANCH  59  60
ATOM     60  C   UNL     1      -8.897  -8.220  29.479  1.00  0.00     0.197 C 
BRANCH  60  61
ATOM     61  O   UNL     1      -7.895  -9.067  29.972  1.00  0.00    -0.393 OA
ATOM     62  H   UNL     1      -7.353  -9.353  29.192  1.00  0.00     0.210 HD
ENDBRANCH  60  61
ENDBRANCH  59  60
ENDBRANCH  58  59
ENDBRANCH   6  58
TORSDOF 25
ENDMDL
MODEL 3
REMARK VINA RESULT:    -3.057      1.433      2.071
REMARK INTER + INTRA:          -9.559
REMARK INTER:                  -7.768
REMARK INTRA:                  -1.790
REMARK UNBOUND:                -2.927
REMARK SMILES C[C@H]1O[C@@H](OC[C@@H]2O[C@@H](Oc3c(-c4ccc(OCCO)c(OCCO)c4)oc4cc(OCCO)cc(O)c4c3=O)[C@H](O)[C@H](O)[C@H]2O)[C@H](O)[C@@H](O)[C@@H]1O
REMARK SMILES IDX 11 1 12 2 27 3 28 4 29 5 30 6 35 7 36 8 38 9 39 10 40 11
REMARK SMILES IDX 10 12 9 13 7 14 45 15 8 16 43 17 41 18 6 19 5 20 4 21 1 22
REMARK SMILES IDX 2 23 51 24 3 25 49 26 47 27 52 28 50 30 48 32 46 34 44 36
REMARK SMILES IDX 42 38 13 40 26 41 14 42 21 43 15 44 16 45 22 46 23 47 24 48
REMARK SMILES IDX 25 49 17 51 18 52 19 53 20 54 37 56 31 58 32 59 33 60 34 61
REMARK H PARENT 52 29 50 31 48 33 46 35 44 37 42 39 25 50 20 55 37 57 34 62
REMARK Flexibility Score: inf
ROOT
ATOM      1  C   UNL     1      -2.959   6.284  14.156  1.00  0.00     0.214 A 
ATOM      2  C   UNL     1      -4.022   5.366  14.064  1.00  0.00     0.180 A 
ATOM      3  O   UNL     1      -4.046   4.294  14.850  1.00  0.00    -0.452 OA
ATOM      4  C   UNL     1      -3.090   4.011  15.726  1.00  0.00     0.146 A 
ATOM      5  C   UNL     1      -3.204   2.858  16.506  1.00  0.00     0.094 A 
ATOM      6  C   UNL     1      -2.224   2.528  17.441  1.00  0.00     0.126 A 
ATOM      7  C   UNL     1      -1.108   3.372  17.594  1.00  0.00     0.093 A 
ATOM      8  C   UNL     1      -0.976   4.535  16.820  1.00  0.00     0.134 A 
ATOM      9  C   UNL     1      -1.974   4.864  15.872  1.00  0.00     0.111 A 
ATOM     10  C   UNL     1      -1.923   6.025  15.069  1.00  0.00     0.239 A 
ATOM     11  O   UNL     1      -0.974   6.843  15.186  1.00  0.00    -0.285 OA
ENDROOT
BRANCH   1  12
ATOM     12  O   UNL     1      -3.002   7.465  13.397  1.00  0.00    -0.454 OA
BRANCH  12  13
ATOM     13  C   UNL     1      -3.163   8.776  13.951  1.00  0.00     0.339 C 
ATOM     14  C   UNL     1      -5.493   8.774  13.635  1.00  0.00     0.180 C 
ATOM     15  C   UNL     1      -5.431   9.846  12.520  1.00  0.00     0.177 C 
ATOM     16  O   UNL     1      -4.430   8.945  14.561  1.00  0.00    -0.332 OA
ATOM     17  C   UNL     1      -4.062   9.789  11.823  1.00  0.00     0.180 C 
ATOM     18  C   UNL     1      -2.930   9.841  12.861  1.00  0.00     0.214 C 
BRANCH  14  19
ATOM     19  C   UNL     1      -6.812   8.866  14.421  1.00  0.00     0.198 C 
BRANCH  19  20
ATOM     20  O   UNL     1      -6.885   7.867  15.423  1.00  0.00    -0.347 OA
BRANCH  20  21
ATOM     21  C   UNL     1      -6.040   8.154  16.526  1.00  0.00     0.281 C 
ATOM     22  C   UNL     1      -6.589   5.107  16.180  1.00  0.00     0.041 C 
ATOM     23  C   UNL     1      -5.867   5.891  17.287  1.00  0.00     0.150 C 
ATOM     24  C   UNL     1      -6.752   6.161  18.532  1.00  0.00     0.174 C 
ATOM     25  O   UNL     1      -5.191   7.045  16.798  1.00  0.00    -0.344 OA
ATOM     26  C   UNL     1      -7.650   7.400  18.357  1.00  0.00     0.179 C 
ATOM     27  C   UNL     1      -6.865   8.580  17.765  1.00  0.00     0.202 C 
BRANCH  24  28
ATOM     28  O   UNL     1      -5.936   6.339  19.663  1.00  0.00    -0.388 OA
ATOM     29  H   UNL     1      -6.522   6.660  20.398  1.00  0.00     0.211 HD
ENDBRANCH  24  28
BRANCH  26  30
ATOM     30  O   UNL     1      -8.741   7.104  17.522  1.00  0.00    -0.387 OA
ATOM     31  H   UNL     1      -8.562   7.540  16.648  1.00  0.00     0.211 HD
ENDBRANCH  26  30
BRANCH  27  32
ATOM     32  O   UNL     1      -6.051   9.184  18.745  1.00  0.00    -0.385 OA
ATOM     33  H   UNL     1      -6.638   9.584  19.438  1.00  0.00     0.211 HD
ENDBRANCH  27  32
ENDBRANCH  20  21
ENDBRANCH  19  20
ENDBRANCH  14  19
BRANCH  15  34
ATOM     34  O   UNL     1      -6.445   9.609  11.577  1.00  0.00    -0.387 OA
ATOM     35  H   UNL     1      -6.907   8.775  11.851  1.00  0.00     0.211 HD
ENDBRANCH  15  34
BRANCH  17  36
ATOM     36  O   UNL     1      -3.945  10.858  10.920  1.00  0.00    -0.387 OA
ATOM     37  H   UNL     1      -4.647  10.723  10.229  1.00  0.00     0.211 HD
ENDBRANCH  17  36
BRANCH  18  38
ATOM     38  O   UNL     1      -2.881  11.118  13.445  1.00  0.00    -0.384 OA
ATOM     39  H   UNL     1      -2.114  11.114  14.078  1.00  0.00     0.211 HD
ENDBRANCH  18  38
ENDBRANCH  12  13
ENDBRANCH   1  12
BRANCH   2  40
ATOM     40  C   UNL     1      -5.132   5.554  13.108  1.00  0.00     0.025 A 
ATOM     41  C   UNL     1      -6.449   5.294  13.511  1.00  0.00     0.062 A 
ATOM     42  C   UNL     1      -4.879   5.929  11.784  1.00  0.00     0.016 A 
ATOM     43  C   UNL     1      -7.520   5.437  12.603  1.00  0.00     0.162 A 
ATOM     44  C   UNL     1      -5.932   6.091  10.884  1.00  0.00     0.051 A 
ATOM     45  C   UNL     1      -7.259   5.851  11.288  1.00  0.00     0.161 A 
BRANCH  43  46
ATOM     46  O   UNL     1      -8.855   5.177  12.965  1.00  0.00    -0.487 OA
BRANCH  46  47
ATOM     47  C   UNL     1      -9.480   5.590  14.183  1.00  0.00     0.258 C 
BRANCH  47  48
ATOM     48  C   UNL     1     -10.110   6.980  14.038  1.00  0.00     0.197 C 
BRANCH  48  49
ATOM     49  O   UNL     1      -9.781   7.791  15.130  1.00  0.00    -0.393 OA
ATOM     50  H   UNL     1      -8.893   8.191  14.935  1.00  0.00     0.210 HD
ENDBRANCH  48  49
ENDBRANCH  47  48
ENDBRANCH  46  47
ENDBRANCH  43  46
BRANCH  45  51
ATOM     51  O   UNL     1      -8.342   6.001  10.408  1.00  0.00    -0.487 OA
BRANCH  51  52
ATOM     52  C   UNL     1      -8.780   7.250   9.875  1.00  0.00     0.258 C 
BRANCH  52  53
ATOM     53  C   UNL     1      -9.779   7.895  10.830  1.00  0.00     0.197 C 
BRANCH  53  54
ATOM     54  O   UNL     1      -9.411   9.222  11.095  1.00  0.00    -0.393 OA
ATOM     55  H   UNL     1      -9.600   9.388  12.055  1.00  0.00     0.210 HD
ENDBRANCH  53  54
ENDBRANCH  52  53
ENDBRANCH  51  52
ENDBRANCH  45  51
ENDBRANCH   2  40
BRANCH   8  56
ATOM     56  O   UNL     1       0.141   5.353  16.999  1.00  0.00    -0.507 OA
ATOM     57  H   UNL     1       0.189   6.027  17.754  1.00  0.00     0.293 HD
ENDBRANCH   8  56
BRANCH   6  58
ATOM     58  O   UNL     1      -2.395   1.359  18.196  1.00  0.00    -0.491 OA
BRANCH  58  59
ATOM     59  C   UNL     1      -3.333   1.213  19.259  1.00  0.00     0.257 C 
BRANCH  59  60
ATOM     60  C   UNL     1      -4.745   1.193  18.687  1.00  0.00     0.197 C 
BRANCH  60  61
ATOM     61  O   UNL     1      -5.641   1.802  19.577  1.00  0.00    -0.393 OA
ATOM     62  H   UNL     1      -6.100   1.071  20.065  1.00  0.00     0.210 HD
ENDBRANCH  60  61
ENDBRANCH  59  60
ENDBRANCH  58  59
ENDBRANCH   6  58
TORSDOF 25
ENDMDL
MODEL 4
REMARK VINA RESULT:    -2.625     11.092     17.439
REMARK INTER + INTRA:          -8.622
REMARK INTER:                  -9.198
REMARK INTRA:                   0.576
REMARK UNBOUND:                -2.927
REMARK SMILES C[C@H]1O[C@@H](OC[C@@H]2O[C@@H](Oc3c(-c4ccc(OCCO)c(OCCO)c4)oc4cc(OCCO)cc(O)c4c3=O)[C@H](O)[C@H](O)[C@H]2O)[C@H](O)[C@@H](O)[C@@H]1O
REMARK SMILES IDX 11 1 12 2 27 3 28 4 29 5 30 6 35 7 36 8 38 9 39 10 40 11
REMARK SMILES IDX 10 12 9 13 7 14 45 15 8 16 43 17 41 18 6 19 5 20 4 21 1 22
REMARK SMILES IDX 2 23 51 24 3 25 49 26 47 27 52 28 50 30 48 32 46 34 44 36
REMARK SMILES IDX 42 38 13 40 26 41 14 42 21 43 15 44 16 45 22 46 23 47 24 48
REMARK SMILES IDX 25 49 17 51 18 52 19 53 20 54 37 56 31 58 32 59 33 60 34 61
REMARK H PARENT 52 29 50 31 48 33 46 35 44 37 42 39 25 50 20 55 37 57 34 62
REMARK Flexibility Score: inf
ROOT
ATOM      1  C   UNL     1      -3.230  -8.299  25.140  1.00  0.00     0.214 A 
ATOM      2  C   UNL     1      -3.815  -8.362  26.418  1.00  0.00     0.180 A 
ATOM      3  O   UNL     1      -3.053  -8.279  27.505  1.00  0.00    -0.452 OA
ATOM      4  C   UNL     1      -1.732  -8.163  27.461  1.00  0.00     0.146 A 
ATOM      5  C   UNL     1      -1.017  -8.087  28.659  1.00  0.00     0.094 A 
ATOM      6  C   UNL     1       0.372  -7.958  28.655  1.00  0.00     0.126 A 
ATOM      7  C   UNL     1       1.054  -7.907  27.425  1.00  0.00     0.093 A 
ATOM      8  C   UNL     1       0.354  -7.983  26.212  1.00  0.00     0.134 A 
ATOM      9  C   UNL     1      -1.055  -8.113  26.221  1.00  0.00     0.111 A 
ATOM     10  C   UNL     1      -1.833  -8.177  25.045  1.00  0.00     0.239 A 
ATOM     11  O   UNL     1      -1.288  -8.095  23.913  1.00  0.00    -0.285 OA
ENDROOT
BRANCH   1  12
ATOM     12  O   UNL     1      -4.056  -8.279  24.005  1.00  0.00    -0.454 OA
BRANCH  12  13
ATOM     13  C   UNL     1      -3.813  -7.477  22.843  1.00  0.00     0.339 C 
ATOM     14  C   UNL     1      -5.944  -6.484  22.913  1.00  0.00     0.180 C 
ATOM     15  C   UNL     1      -6.424  -7.218  21.638  1.00  0.00     0.177 C 
ATOM     16  O   UNL     1      -4.542  -6.262  22.872  1.00  0.00    -0.332 OA
ATOM     17  C   UNL     1      -5.650  -8.536  21.476  1.00  0.00     0.180 C 
ATOM     18  C   UNL     1      -4.137  -8.283  21.569  1.00  0.00     0.214 C 
BRANCH  14  19
ATOM     19  C   UNL     1      -6.625  -5.112  23.056  1.00  0.00     0.198 C 
BRANCH  19  20
ATOM     20  O   UNL     1      -7.358  -4.778  21.891  1.00  0.00    -0.347 OA
BRANCH  20  21
ATOM     21  C   UNL     1      -6.912  -3.563  21.309  1.00  0.00     0.281 C 
ATOM     22  C   UNL     1      -9.356  -4.794  19.821  1.00  0.00     0.041 C 
ATOM     23  C   UNL     1      -8.461  -3.591  19.485  1.00  0.00     0.150 C 
ATOM     24  C   UNL     1      -7.353  -3.915  18.449  1.00  0.00     0.174 C 
ATOM     25  O   UNL     1      -7.988  -2.912  20.643  1.00  0.00    -0.344 OA
ATOM     26  C   UNL     1      -6.110  -4.552  19.098  1.00  0.00     0.179 C 
ATOM     27  C   UNL     1      -5.701  -3.803  20.375  1.00  0.00     0.202 C 
BRANCH  24  28
ATOM     28  O   UNL     1      -6.972  -2.739  17.779  1.00  0.00    -0.388 OA
ATOM     29  H   UNL     1      -6.349  -2.250  18.378  1.00  0.00     0.211 HD
ENDBRANCH  24  28
BRANCH  26  30
ATOM     30  O   UNL     1      -6.352  -5.900  19.409  1.00  0.00    -0.387 OA
ATOM     31  H   UNL     1      -5.516  -6.397  19.208  1.00  0.00     0.211 HD
ENDBRANCH  26  30
BRANCH  27  32
ATOM     32  O   UNL     1      -5.043  -2.596  20.062  1.00  0.00    -0.385 OA
ATOM     33  H   UNL     1      -4.600  -2.258  20.883  1.00  0.00     0.211 HD
ENDBRANCH  27  32
ENDBRANCH  20  21
ENDBRANCH  19  20
ENDBRANCH  14  19
BRANCH  15  34
ATOM     34  O   UNL     1      -7.798  -7.492  21.738  1.00  0.00    -0.387 OA
ATOM     35  H   UNL     1      -7.885  -8.391  22.149  1.00  0.00     0.211 HD
ENDBRANCH  15  34
BRANCH  17  36
ATOM     36  O   UNL     1      -5.971  -9.125  20.243  1.00  0.00    -0.387 OA
ATOM     37  H   UNL     1      -5.524 -10.012  20.228  1.00  0.00     0.211 HD
ENDBRANCH  17  36
BRANCH  18  38
ATOM     38  O   UNL     1      -3.704  -7.576  20.435  1.00  0.00    -0.384 OA
ATOM     39  H   UNL     1      -2.722  -7.717  20.367  1.00  0.00     0.211 HD
ENDBRANCH  18  38
ENDBRANCH  12  13
ENDBRANCH   1  12
BRANCH   2  40
ATOM     40  C   UNL     1      -5.272  -8.519  26.600  1.00  0.00     0.025 A 
ATOM     41  C   UNL     1      -6.148  -8.133  25.576  1.00  0.00     0.062 A 
ATOM     42  C   UNL     1      -5.795  -8.990  27.810  1.00  0.00     0.016 A 
ATOM     43  C   UNL     1      -7.544  -8.246  25.743  1.00  0.00     0.162 A 
ATOM     44  C   UNL     1      -7.172  -9.123  27.979  1.00  0.00     0.051 A 
ATOM     45  C   UNL     1      -8.056  -8.756  26.946  1.00  0.00     0.161 A 
BRANCH  43  46
ATOM     46  O   UNL     1      -8.456  -7.862  24.742  1.00  0.00    -0.487 OA
BRANCH  46  47
ATOM     47  C   UNL     1      -9.348  -6.747  24.814  1.00  0.00     0.258 C 
BRANCH  47  48
ATOM     48  C   UNL     1      -8.873  -5.725  25.855  1.00  0.00     0.197 C 
BRANCH  48  49
ATOM     49  O   UNL     1      -9.386  -4.455  25.572  1.00  0.00    -0.393 OA
ATOM     50  H   UNL     1      -8.766  -4.031  24.921  1.00  0.00     0.210 HD
ENDBRANCH  48  49
ENDBRANCH  47  48
ENDBRANCH  46  47
ENDBRANCH  43  46
BRANCH  45  51
ATOM     51  O   UNL     1      -9.447  -8.873  27.083  1.00  0.00    -0.487 OA
BRANCH  51  52
ATOM     52  C   UNL     1     -10.117  -9.125  28.318  1.00  0.00     0.258 C 
BRANCH  52  53
ATOM     53  C   UNL     1      -9.712  -8.076  29.347  1.00  0.00     0.197 C 
BRANCH  53  54
ATOM     54  O   UNL     1      -8.566  -8.492  30.040  1.00  0.00    -0.393 OA
ATOM     55  H   UNL     1      -8.696  -9.451  30.263  1.00  0.00     0.210 HD
ENDBRANCH  53  54
ENDBRANCH  52  53
ENDBRANCH  51  52
ENDBRANCH  45  51
ENDBRANCH   2  40
BRANCH   8  56
ATOM     56  O   UNL     1       1.060  -7.926  25.010  1.00  0.00    -0.507 OA
ATOM     57  H   UNL     1       2.029  -7.629  24.977  1.00  0.00     0.293 HD
ENDBRANCH   8  56
BRANCH   6  58
ATOM     58  O   UNL     1       1.033  -7.884  29.890  1.00  0.00    -0.491 OA
BRANCH  58  59
ATOM     59  C   UNL     1       2.379  -7.447  30.060  1.00  0.00     0.257 C 
BRANCH  59  60
ATOM     60  C   UNL     1       3.328  -8.547  29.600  1.00  0.00     0.197 C 
BRANCH  60  61
ATOM     61  O   UNL     1       4.651  -8.082  29.602  1.00  0.00    -0.393 OA
ATOM     62  H   UNL     1       5.235  -8.881  29.556  1.00  0.00     0.210 HD
ENDBRANCH  60  61
ENDBRANCH  59  60
ENDBRANCH  58  59
ENDBRANCH   6  58
TORSDOF 25
ENDMDL
MODEL 5
REMARK VINA RESULT:    -2.512      2.134      7.376
REMARK INTER + INTRA:          -8.375
REMARK INTER:                  -7.953
REMARK INTRA:                  -0.422
REMARK UNBOUND:                -2.927
REMARK SMILES C[C@H]1O[C@@H](OC[C@@H]2O[C@@H](Oc3c(-c4ccc(OCCO)c(OCCO)c4)oc4cc(OCCO)cc(O)c4c3=O)[C@H](O)[C@H](O)[C@H]2O)[C@H](O)[C@@H](O)[C@@H]1O
REMARK SMILES IDX 11 1 12 2 27 3 28 4 29 5 30 6 35 7 36 8 38 9 39 10 40 11
REMARK SMILES IDX 10 12 9 13 7 14 45 15 8 16 43 17 41 18 6 19 5 20 4 21 1 22
REMARK SMILES IDX 2 23 51 24 3 25 49 26 47 27 52 28 50 30 48 32 46 34 44 36
REMARK SMILES IDX 42 38 13 40 26 41 14 42 21 43 15 44 16 45 22 46 23 47 24 48
REMARK SMILES IDX 25 49 17 51 18 52 19 53 20 54 37 56 31 58 32 59 33 60 34 61
REMARK H PARENT 52 29 50 31 48 33 46 35 44 37 42 39 25 50 20 55 37 57 34 62
REMARK Flexibility Score: inf
ROOT
ATOM      1  C   UNL     1      -3.610   7.402  13.001  1.00  0.00     0.214 A 
ATOM      2  C   UNL     1      -2.934   6.935  14.144  1.00  0.00     0.180 A 
ATOM      3  O   UNL     1      -1.896   7.610  14.627  1.00  0.00    -0.452 OA
ATOM      4  C   UNL     1      -1.425   8.719  14.069  1.00  0.00     0.146 A 
ATOM      5  C   UNL     1      -0.326   9.356  14.649  1.00  0.00     0.094 A 
ATOM      6  C   UNL     1       0.195  10.526  14.097  1.00  0.00     0.126 A 
ATOM      7  C   UNL     1      -0.397  11.062  12.939  1.00  0.00     0.093 A 
ATOM      8  C   UNL     1      -1.501  10.436  12.341  1.00  0.00     0.134 A 
ATOM      9  C   UNL     1      -2.026   9.250  12.906  1.00  0.00     0.111 A 
ATOM     10  C   UNL     1      -3.145   8.571  12.375  1.00  0.00     0.239 A 
ATOM     11  O   UNL     1      -3.747   9.022  11.366  1.00  0.00    -0.285 OA
ENDROOT
BRANCH   1  12
ATOM     12  O   UNL     1      -4.768   6.738  12.567  1.00  0.00    -0.454 OA
BRANCH  12  13
ATOM     13  C   UNL     1      -5.745   7.308  11.688  1.00  0.00     0.339 C 
ATOM     14  C   UNL     1      -7.419   7.331  13.339  1.00  0.00     0.180 C 
ATOM     15  C   UNL     1      -8.241   6.218  12.647  1.00  0.00     0.177 C 
ATOM     16  O   UNL     1      -6.695   8.094  12.386  1.00  0.00    -0.332 OA
ATOM     17  C   UNL     1      -7.308   5.330  11.807  1.00  0.00     0.180 C 
ATOM     18  C   UNL     1      -6.440   6.195  10.879  1.00  0.00     0.214 C 
BRANCH  14  19
ATOM     19  C   UNL     1      -8.333   8.300  14.109  1.00  0.00     0.198 C 
BRANCH  19  20
ATOM     20  O   UNL     1      -7.890   8.475  15.443  1.00  0.00    -0.347 OA
BRANCH  20  21
ATOM     21  C   UNL     1      -6.794   7.631  15.757  1.00  0.00     0.281 C 
ATOM     22  C   UNL     1      -9.489   6.605  16.934  1.00  0.00     0.041 C 
ATOM     23  C   UNL     1      -8.045   6.115  17.123  1.00  0.00     0.150 C 
ATOM     24  C   UNL     1      -7.385   6.627  18.430  1.00  0.00     0.174 C 
ATOM     25  O   UNL     1      -7.242   6.296  15.962  1.00  0.00    -0.344 OA
ATOM     26  C   UNL     1      -6.796   8.041  18.276  1.00  0.00     0.179 C 
ATOM     27  C   UNL     1      -5.999   8.176  16.970  1.00  0.00     0.202 C 
BRANCH  24  28
ATOM     28  O   UNL     1      -6.365   5.742  18.823  1.00  0.00    -0.388 OA
ATOM     29  H   UNL     1      -5.648   5.800  18.137  1.00  0.00     0.211 HD
ENDBRANCH  24  28
BRANCH  26  30
ATOM     30  O   UNL     1      -7.817   9.005  18.297  1.00  0.00    -0.387 OA
ATOM     31  H   UNL     1      -7.375   9.895  18.296  1.00  0.00     0.211 HD
ENDBRANCH  26  30
BRANCH  27  32
ATOM     32  O   UNL     1      -4.739   7.554  17.083  1.00  0.00    -0.385 OA
ATOM     33  H   UNL     1      -4.833   6.602  16.818  1.00  0.00     0.211 HD
ENDBRANCH  27  32
ENDBRANCH  20  21
ENDBRANCH  19  20
ENDBRANCH  14  19
BRANCH  15  34
ATOM     34  O   UNL     1      -8.887   5.432  13.615  1.00  0.00    -0.387 OA
ATOM     35  H   UNL     1      -9.664   5.955  13.942  1.00  0.00     0.211 HD
ENDBRANCH  15  34
BRANCH  17  36
ATOM     36  O   UNL     1      -8.067   4.420  11.057  1.00  0.00    -0.387 OA
ATOM     37  H   UNL     1      -7.487   3.629  10.898  1.00  0.00     0.211 HD
ENDBRANCH  17  36
BRANCH  18  38
ATOM     38  O   UNL     1      -7.242   6.764   9.875  1.00  0.00    -0.384 OA
ATOM     39  H   UNL     1      -8.152   6.868  10.260  1.00  0.00     0.211 HD
ENDBRANCH  18  38
ENDBRANCH  12  13
ENDBRANCH   1  12
BRANCH   2  40
ATOM     40  C   UNL     1      -3.344   5.698  14.839  1.00  0.00     0.025 A 
ATOM     41  C   UNL     1      -2.370   4.826  15.343  1.00  0.00     0.062 A 
ATOM     42  C   UNL     1      -4.697   5.354  14.946  1.00  0.00     0.016 A 
ATOM     43  C   UNL     1      -2.742   3.624  15.982  1.00  0.00     0.162 A 
ATOM     44  C   UNL     1      -5.076   4.178  15.593  1.00  0.00     0.051 A 
ATOM     45  C   UNL     1      -4.102   3.307  16.119  1.00  0.00     0.161 A 
BRANCH  43  46
ATOM     46  O   UNL     1      -1.794   2.718  16.493  1.00  0.00    -0.487 OA
BRANCH  46  47
ATOM     47  C   UNL     1      -1.144   2.824  17.762  1.00  0.00     0.258 C 
BRANCH  47  48
ATOM     48  C   UNL     1      -1.249   1.512  18.549  1.00  0.00     0.197 C 
BRANCH  48  49
ATOM     49  O   UNL     1      -0.207   0.643  18.207  1.00  0.00    -0.393 OA
ATOM     50  H   UNL     1      -0.607  -0.090  17.669  1.00  0.00     0.210 HD
ENDBRANCH  48  49
ENDBRANCH  47  48
ENDBRANCH  46  47
ENDBRANCH  43  46
BRANCH  45  51
ATOM     51  O   UNL     1      -4.448   2.115  16.771  1.00  0.00    -0.487 OA
BRANCH  51  52
ATOM     52  C   UNL     1      -5.269   2.042  17.936  1.00  0.00     0.258 C 
BRANCH  52  53
ATOM     53  C   UNL     1      -5.504   0.583  18.311  1.00  0.00     0.197 C 
BRANCH  53  54
ATOM     54  O   UNL     1      -6.359  -0.026  17.382  1.00  0.00    -0.393 OA
ATOM     55  H   UNL     1      -5.902   0.008  16.502  1.00  0.00     0.210 HD
ENDBRANCH  53  54
ENDBRANCH  52  53
ENDBRANCH  51  52
ENDBRANCH  45  51
ENDBRANCH   2  40
BRANCH   8  56
ATOM     56  O   UNL     1      -2.068  10.997  11.196  1.00  0.00    -0.507 OA
ATOM     57  H   UNL     1      -3.070  10.985  11.039  1.00  0.00     0.293 HD
ENDBRANCH   8  56
BRANCH   6  58
ATOM     58  O   UNL     1       1.299  11.121  14.726  1.00  0.00    -0.491 OA
BRANCH  58  59
ATOM     59  C   UNL     1       1.547  11.082  16.129  1.00  0.00     0.257 C 
BRANCH  59  60
ATOM     60  C   UNL     1       2.129   9.723  16.501  1.00  0.00     0.197 C 
BRANCH  60  61
ATOM     61  O   UNL     1       2.068   9.530  17.888  1.00  0.00    -0.393 OA
ATOM     62  H   UNL     1       2.652   8.756  18.095  1.00  0.00     0.210 HD
ENDBRANCH  60  61
ENDBRANCH  59  60
ENDBRANCH  58  59
ENDBRANCH   6  58
TORSDOF 25
ENDMDL
MODEL 6
REMARK VINA RESULT:    -2.427      3.203      6.950
REMARK INTER + INTRA:          -8.191
REMARK INTER:                  -6.015
REMARK INTRA:                  -2.176
REMARK UNBOUND:                -2.927
REMARK SMILES C[C@H]1O[C@@H](OC[C@@H]2O[C@@H](Oc3c(-c4ccc(OCCO)c(OCCO)c4)oc4cc(OCCO)cc(O)c4c3=O)[C@H](O)[C@H](O)[C@H]2O)[C@H](O)[C@@H](O)[C@@H]1O
REMARK SMILES IDX 11 1 12 2 27 3 28 4 29 5 30 6 35 7 36 8 38 9 39 10 40 11
REMARK SMILES IDX 10 12 9 13 7 14 45 15 8 16 43 17 41 18 6 19 5 20 4 21 1 22
REMARK SMILES IDX 2 23 51 24 3 25 49 26 47 27 52 28 50 30 48 32 46 34 44 36
REMARK SMILES IDX 42 38 13 40 26 41 14 42 21 43 15 44 16 45 22 46 23 47 24 48
REMARK SMILES IDX 25 49 17 51 18 52 19 53 20 54 37 56 31 58 32 59 33 60 34 61
REMARK H PARENT 52 29 50 31 48 33 46 35 44 37 42 39 25 50 20 55 37 57 34 62
REMARK Flexibility Score: inf
ROOT
ATOM      1  C   UNL     1      -1.381   7.429  14.989  1.00  0.00     0.214 A 
ATOM      2  C   UNL     1      -1.366   6.599  16.125  1.00  0.00     0.180 A 
ATOM      3  O   UNL     1      -0.529   6.854  17.126  1.00  0.00    -0.452 OA
ATOM      4  C   UNL     1       0.338   7.858  17.112  1.00  0.00     0.146 A 
ATOM      5  C   UNL     1       1.180   8.043  18.212  1.00  0.00     0.094 A 
ATOM      6  C   UNL     1       2.101   9.089  18.238  1.00  0.00     0.126 A 
ATOM      7  C   UNL     1       2.179   9.964  17.139  1.00  0.00     0.093 A 
ATOM      8  C   UNL     1       1.343   9.794  16.025  1.00  0.00     0.134 A 
ATOM      9  C   UNL     1       0.410   8.731  16.004  1.00  0.00     0.111 A 
ATOM     10  C   UNL     1      -0.478   8.504  14.929  1.00  0.00     0.239 A 
ATOM     11  O   UNL     1      -0.488   9.275  13.935  1.00  0.00    -0.285 OA
ENDROOT
BRANCH   1  12
ATOM     12  O   UNL     1      -2.343   7.211  13.990  1.00  0.00    -0.454 OA
BRANCH  12  13
ATOM     13  C   UNL     1      -3.699   7.667  14.060  1.00  0.00     0.339 C 
ATOM     14  C   UNL     1      -4.025   7.489  11.738  1.00  0.00     0.180 C 
ATOM     15  C   UNL     1      -4.093   9.022  11.541  1.00  0.00     0.177 C 
ATOM     16  O   UNL     1      -4.499   7.122  13.026  1.00  0.00    -0.332 OA
ATOM     17  C   UNL     1      -3.298   9.724  12.655  1.00  0.00     0.180 C 
ATOM     18  C   UNL     1      -3.740   9.208  14.034  1.00  0.00     0.214 C 
BRANCH  14  19
ATOM     19  C   UNL     1      -4.892   6.756  10.700  1.00  0.00     0.198 C 
BRANCH  19  20
ATOM     20  O   UNL     1      -6.260   7.093  10.841  1.00  0.00    -0.347 OA
BRANCH  20  21
ATOM     21  C   UNL     1      -7.077   5.947  11.023  1.00  0.00     0.281 C 
ATOM     22  C   UNL     1      -8.709   8.599  10.945  1.00  0.00     0.041 C 
ATOM     23  C   UNL     1      -9.131   7.154  11.255  1.00  0.00     0.150 C 
ATOM     24  C   UNL     1      -9.228   6.850  12.772  1.00  0.00     0.174 C 
ATOM     25  O   UNL     1      -8.385   6.190  10.519  1.00  0.00    -0.344 OA
ATOM     26  C   UNL     1      -7.862   6.495  13.389  1.00  0.00     0.179 C 
ATOM     27  C   UNL     1      -7.092   5.501  12.505  1.00  0.00     0.202 C 
BRANCH  24  28
ATOM     28  O   UNL     1     -10.121   5.786  12.986  1.00  0.00    -0.388 OA
ATOM     29  H   UNL     1      -9.886   5.378  13.860  1.00  0.00     0.211 HD
ENDBRANCH  24  28
BRANCH  26  30
ATOM     30  O   UNL     1      -7.086   7.652  13.569  1.00  0.00    -0.387 OA
ATOM     31  H   UNL     1      -7.006   8.087  12.680  1.00  0.00     0.211 HD
ENDBRANCH  26  30
BRANCH  27  32
ATOM     32  O   UNL     1      -7.608   4.197  12.647  1.00  0.00    -0.385 OA
ATOM     33  H   UNL     1      -7.449   3.703  11.801  1.00  0.00     0.211 HD
ENDBRANCH  27  32
ENDBRANCH  20  21
ENDBRANCH  19  20
ENDBRANCH  14  19
BRANCH  15  34
ATOM     34  O   UNL     1      -3.549   9.365  10.293  1.00  0.00    -0.387 OA
ATOM     35  H   UNL     1      -3.562   8.544   9.736  1.00  0.00     0.211 HD
ENDBRANCH  15  34
BRANCH  17  36
ATOM     36  O   UNL     1      -3.486  11.111  12.570  1.00  0.00    -0.387 OA
ATOM     37  H   UNL     1      -3.923  11.285  11.694  1.00  0.00     0.211 HD
ENDBRANCH  17  36
BRANCH  18  38
ATOM     38  O   UNL     1      -5.042   9.656  14.312  1.00  0.00    -0.384 OA
ATOM     39  H   UNL     1      -5.312  10.240  13.555  1.00  0.00     0.211 HD
ENDBRANCH  18  38
ENDBRANCH  12  13
ENDBRANCH   1  12
BRANCH   2  40
ATOM     40  C   UNL     1      -2.264   5.433  16.248  1.00  0.00     0.025 A 
ATOM     41  C   UNL     1      -3.641   5.629  16.425  1.00  0.00     0.062 A 
ATOM     42  C   UNL     1      -1.749   4.131  16.255  1.00  0.00     0.016 A 
ATOM     43  C   UNL     1      -4.510   4.528  16.577  1.00  0.00     0.162 A 
ATOM     44  C   UNL     1      -2.602   3.036  16.385  1.00  0.00     0.051 A 
ATOM     45  C   UNL     1      -3.987   3.226  16.542  1.00  0.00     0.161 A 
BRANCH  43  46
ATOM     46  O   UNL     1      -5.896   4.683  16.764  1.00  0.00    -0.487 OA
BRANCH  46  47
ATOM     47  C   UNL     1      -6.613   5.917  16.682  1.00  0.00     0.258 C 
BRANCH  47  48
ATOM     48  C   UNL     1      -6.370   6.781  17.926  1.00  0.00     0.197 C 
BRANCH  48  49
ATOM     49  O   UNL     1      -6.459   6.011  19.090  1.00  0.00    -0.393 OA
ATOM     50  H   UNL     1      -6.850   5.136  18.829  1.00  0.00     0.210 HD
ENDBRANCH  48  49
ENDBRANCH  47  48
ENDBRANCH  46  47
ENDBRANCH  43  46
BRANCH  45  51
ATOM     51  O   UNL     1      -4.874   2.147  16.680  1.00  0.00    -0.487 OA
BRANCH  51  52
ATOM     52  C   UNL     1      -5.250   1.568  17.929  1.00  0.00     0.258 C 
BRANCH  52  53
ATOM     53  C   UNL     1      -5.852   0.186  17.695  1.00  0.00     0.197 C 
BRANCH  53  54
ATOM     54  O   UNL     1      -6.668  -0.177  18.775  1.00  0.00    -0.393 OA
ATOM     55  H   UNL     1      -7.181  -0.979  18.493  1.00  0.00     0.210 HD
ENDBRANCH  53  54
ENDBRANCH  52  53
ENDBRANCH  51  52
ENDBRANCH  45  51
ENDBRANCH   2  40
BRANCH   8  56
ATOM     56  O   UNL     1       1.443  10.682  14.953  1.00  0.00    -0.507 OA
ATOM     57  H   UNL     1       1.745  11.640  15.084  1.00  0.00     0.293 HD
ENDBRANCH   8  56
BRANCH   6  58
ATOM     58  O   UNL     1       2.917   9.225  19.371  1.00  0.00    -0.491 OA
BRANCH  58  59
ATOM     59  C   UNL     1       2.447   9.589  20.667  1.00  0.00     0.257 C 
BRANCH  59  60
ATOM     60  C   UNL     1       2.607   8.405  21.612  1.00  0.00     0.197 C 
BRANCH  60  61
ATOM     61  O   UNL     1       1.530   7.518  21.469  1.00  0.00    -0.393 OA
ATOM     62  H   UNL     1       1.517   6.950  22.282  1.00  0.00     0.210 HD
ENDBRANCH  60  61
ENDBRANCH  59  60
ENDBRANCH  58  59
ENDBRANCH   6  58
TORSDOF 25
ENDMDL
MODEL 7
REMARK VINA RESULT:    -2.073      3.363      6.758
REMARK INTER + INTRA:          -7.424
REMARK INTER:                  -4.142
REMARK INTRA:                  -3.282
REMARK UNBOUND:                -2.927
REMARK SMILES C[C@H]1O[C@@H](OC[C@@H]2O[C@@H](Oc3c(-c4ccc(OCCO)c(OCCO)c4)oc4cc(OCCO)cc(O)c4c3=O)[C@H](O)[C@H](O)[C@H]2O)[C@H](O)[C@@H](O)[C@@H]1O
REMARK SMILES IDX 11 1 12 2 27 3 28 4 29 5 30 6 35 7 36 8 38 9 39 10 40 11
REMARK SMILES IDX 10 12 9 13 7 14 45 15 8 16 43 17 41 18 6 19 5 20 4 21 1 22
REMARK SMILES IDX 2 23 51 24 3 25 49 26 47 27 52 28 50 30 48 32 46 34 44 36
REMARK SMILES IDX 42 38 13 40 26 41 14 42 21 43 15 44 16 45 22 46 23 47 24 48
REMARK SMILES IDX 25 49 17 51 18 52 19 53 20 54 37 56 31 58 32 59 33 60 34 61
REMARK H PARENT 52 29 50 31 48 33 46 35 44 37 42 39 25 50 20 55 37 57 34 62
REMARK Flexibility Score: inf
ROOT
ATOM      1  C   UNL     1      -0.969   7.915  15.052  1.00  0.00     0.214 A 
ATOM      2  C   UNL     1      -1.092   6.993  16.107  1.00  0.00     0.180 A 
ATOM      3  O   UNL     1      -0.342   7.123  17.197  1.00  0.00    -0.452 OA
ATOM      4  C   UNL     1       0.561   8.083  17.349  1.00  0.00     0.146 A 
ATOM      5  C   UNL     1       1.304   8.135  18.531  1.00  0.00     0.094 A 
ATOM      6  C   UNL     1       2.259   9.131  18.731  1.00  0.00     0.126 A 
ATOM      7  C   UNL     1       2.473  10.090  17.724  1.00  0.00     0.093 A 
ATOM      8  C   UNL     1       1.738  10.054  16.530  1.00  0.00     0.134 A 
ATOM      9  C   UNL     1       0.770   9.042  16.332  1.00  0.00     0.111 A 
ATOM     10  C   UNL     1      -0.023   8.948  15.168  1.00  0.00     0.239 A 
ATOM     11  O   UNL     1       0.089   9.799  14.248  1.00  0.00    -0.285 OA
ENDROOT
BRANCH   1  12
ATOM     12  O   UNL     1      -1.842   7.828  13.956  1.00  0.00    -0.454 OA
BRANCH  12  13
ATOM     13  C   UNL     1      -2.989   8.666  13.767  1.00  0.00     0.339 C 
ATOM     14  C   UNL     1      -4.273   6.932  12.830  1.00  0.00     0.180 C 
ATOM     15  C   UNL     1      -4.256   7.565  11.418  1.00  0.00     0.177 C 
ATOM     16  O   UNL     1      -4.200   7.933  13.834  1.00  0.00    -0.332 OA
ATOM     17  C   UNL     1      -3.000   8.436  11.255  1.00  0.00     0.180 C 
ATOM     18  C   UNL     1      -2.877   9.421  12.428  1.00  0.00     0.214 C 
BRANCH  14  19
ATOM     19  C   UNL     1      -5.565   6.133  13.066  1.00  0.00     0.198 C 
BRANCH  19  20
ATOM     20  O   UNL     1      -6.670   6.737  12.419  1.00  0.00    -0.347 OA
BRANCH  20  21
ATOM     21  C   UNL     1      -7.831   6.743  13.236  1.00  0.00     0.281 C 
ATOM     22  C   UNL     1      -8.159   8.452  10.652  1.00  0.00     0.041 C 
ATOM     23  C   UNL     1      -9.070   8.275  11.878  1.00  0.00     0.150 C 
ATOM     24  C   UNL     1      -8.939   9.421  12.915  1.00  0.00     0.174 C 
ATOM     25  O   UNL     1      -8.990   6.971  12.444  1.00  0.00    -0.344 OA
ATOM     26  C   UNL     1      -7.752   9.213  13.873  1.00  0.00     0.179 C 
ATOM     27  C   UNL     1      -7.696   7.767  14.390  1.00  0.00     0.202 C 
BRANCH  24  28
ATOM     28  O   UNL     1     -10.125   9.518  13.665  1.00  0.00    -0.388 OA
ATOM     29  H   UNL     1      -9.943  10.136  14.420  1.00  0.00     0.211 HD
ENDBRANCH  24  28
BRANCH  26  30
ATOM     30  O   UNL     1      -6.541   9.523  13.231  1.00  0.00    -0.387 OA
ATOM     31  H   UNL     1      -6.122  10.262  13.746  1.00  0.00     0.211 HD
ENDBRANCH  26  30
BRANCH  27  32
ATOM     32  O   UNL     1      -8.668   7.552  15.388  1.00  0.00    -0.385 OA
ATOM     33  H   UNL     1      -8.672   8.336  15.997  1.00  0.00     0.211 HD
ENDBRANCH  27  32
ENDBRANCH  20  21
ENDBRANCH  19  20
ENDBRANCH  14  19
BRANCH  15  34
ATOM     34  O   UNL     1      -4.252   6.552  10.444  1.00  0.00    -0.387 OA
ATOM     35  H   UNL     1      -4.262   5.686  10.927  1.00  0.00     0.211 HD
ENDBRANCH  15  34
BRANCH  17  36
ATOM     36  O   UNL     1      -3.061   9.132  10.038  1.00  0.00    -0.387 OA
ATOM     37  H   UNL     1      -3.784   9.807  10.133  1.00  0.00     0.211 HD
ENDBRANCH  17  36
BRANCH  18  38
ATOM     38  O   UNL     1      -3.888  10.392  12.341  1.00  0.00    -0.384 OA
ATOM     39  H   UNL     1      -4.384  10.214  11.498  1.00  0.00     0.211 HD
ENDBRANCH  18  38
ENDBRANCH  12  13
ENDBRANCH   1  12
BRANCH   2  40
ATOM     40  C   UNL     1      -2.043   5.864  16.047  1.00  0.00     0.025 A 
ATOM     41  C   UNL     1      -3.386   6.065  16.392  1.00  0.00     0.062 A 
ATOM     42  C   UNL     1      -1.605   4.578  15.710  1.00  0.00     0.016 A 
ATOM     43  C   UNL     1      -4.302   4.992  16.371  1.00  0.00     0.162 A 
ATOM     44  C   UNL     1      -2.506   3.515  15.669  1.00  0.00     0.051 A 
ATOM     45  C   UNL     1      -3.861   3.715  15.994  1.00  0.00     0.161 A 
BRANCH  43  46
ATOM     46  O   UNL     1      -5.657   5.151  16.718  1.00  0.00    -0.487 OA
BRANCH  46  47
ATOM     47  C   UNL     1      -6.255   6.357  17.201  1.00  0.00     0.258 C 
BRANCH  47  48
ATOM     48  C   UNL     1      -6.392   6.334  18.728  1.00  0.00     0.197 C 
BRANCH  48  49
ATOM     49  O   UNL     1      -7.540   7.024  19.134  1.00  0.00    -0.393 OA
ATOM     50  H   UNL     1      -8.089   6.385  19.660  1.00  0.00     0.210 HD
ENDBRANCH  48  49
ENDBRANCH  47  48
ENDBRANCH  46  47
ENDBRANCH  43  46
BRANCH  45  51
ATOM     51  O   UNL     1      -4.793   2.667  15.967  1.00  0.00    -0.487 OA
BRANCH  51  52
ATOM     52  C   UNL     1      -5.571   2.251  17.088  1.00  0.00     0.258 C 
BRANCH  52  53
ATOM     53  C   UNL     1      -4.649   1.776  18.207  1.00  0.00     0.197 C 
BRANCH  53  54
ATOM     54  O   UNL     1      -5.386   1.540  19.376  1.00  0.00    -0.393 OA
ATOM     55  H   UNL     1      -6.345   1.636  19.138  1.00  0.00     0.210 HD
ENDBRANCH  53  54
ENDBRANCH  52  53
ENDBRANCH  51  52
ENDBRANCH  45  51
ENDBRANCH   2  40
BRANCH   8  56
ATOM     56  O   UNL     1       1.972  11.023  15.553  1.00  0.00    -0.507 OA
ATOM     57  H   UNL     1       1.265  11.268  14.869  1.00  0.00     0.293 HD
ENDBRANCH   8  56
BRANCH   6  58
ATOM     58  O   UNL     1       2.971   9.133  19.940  1.00  0.00    -0.491 OA
BRANCH  58  59
ATOM     59  C   UNL     1       2.374   9.028  21.230  1.00  0.00     0.257 C 
BRANCH  59  60
ATOM     60  C   UNL     1       2.282   7.559  21.625  1.00  0.00     0.197 C 
BRANCH  60  61
ATOM     61  O   UNL     1       0.966   7.231  21.977  1.00  0.00    -0.393 OA
ATOM     62  H   UNL     1       0.404   8.014  21.745  1.00  0.00     0.210 HD
ENDBRANCH  60  61
ENDBRANCH  59  60
ENDBRANCH  58  59
ENDBRANCH   6  58
TORSDOF 25
ENDMDL
MODEL 8
REMARK VINA RESULT:    -1.967      3.683      6.106
REMARK INTER + INTRA:          -7.193
REMARK INTER:                  -4.020
REMARK INTRA:                  -3.173
REMARK UNBOUND:                -2.927
REMARK SMILES C[C@H]1O[C@@H](OC[C@@H]2O[C@@H](Oc3c(-c4ccc(OCCO)c(OCCO)c4)oc4cc(OCCO)cc(O)c4c3=O)[C@H](O)[C@H](O)[C@H]2O)[C@H](O)[C@@H](O)[C@@H]1O
REMARK SMILES IDX 11 1 12 2 27 3 28 4 29 5 30 6 35 7 36 8 38 9 39 10 40 11
REMARK SMILES IDX 10 12 9 13 7 14 45 15 8 16 43 17 41 18 6 19 5 20 4 21 1 22
REMARK SMILES IDX 2 23 51 24 3 25 49 26 47 27 52 28 50 30 48 32 46 34 44 36
REMARK SMILES IDX 42 38 13 40 26 41 14 42 21 43 15 44 16 45 22 46 23 47 24 48
REMARK SMILES IDX 25 49 17 51 18 52 19 53 20 54 37 56 31 58 32 59 33 60 34 61
REMARK H PARENT 52 29 50 31 48 33 46 35 44 37 42 39 25 50 20 55 37 57 34 62
REMARK Flexibility Score: inf
ROOT
ATOM      1  C   UNL     1      -0.157   7.727  16.578  1.00  0.00     0.214 A 
ATOM      2  C   UNL     1      -0.901   6.690  17.171  1.00  0.00     0.180 A 
ATOM      3  O   UNL     1      -0.707   6.377  18.449  1.00  0.00    -0.452 OA
ATOM      4  C   UNL     1       0.188   6.982  19.219  1.00  0.00     0.146 A 
ATOM      5  C   UNL     1       0.320   6.580  20.550  1.00  0.00     0.094 A 
ATOM      6  C   UNL     1       1.246   7.194  21.393  1.00  0.00     0.126 A 
ATOM      7  C   UNL     1       2.054   8.230  20.889  1.00  0.00     0.093 A 
ATOM      8  C   UNL     1       1.936   8.647  19.554  1.00  0.00     0.134 A 
ATOM      9  C   UNL     1       0.996   8.021  18.703  1.00  0.00     0.111 A 
ATOM     10  C   UNL     1       0.804   8.395  17.355  1.00  0.00     0.239 A 
ATOM     11  O   UNL     1       1.465   9.342  16.855  1.00  0.00    -0.285 OA
ENDROOT
BRANCH   1  12
ATOM     12  O   UNL     1      -0.449   8.117  15.261  1.00  0.00    -0.454 OA
BRANCH  12  13
ATOM     13  C   UNL     1      -0.931   9.414  14.890  1.00  0.00     0.339 C 
ATOM     14  C   UNL     1      -2.979   8.575  14.092  1.00  0.00     0.180 C 
ATOM     15  C   UNL     1      -2.629   8.882  12.616  1.00  0.00     0.177 C 
ATOM     16  O   UNL     1      -2.344   9.498  14.965  1.00  0.00    -0.332 OA
ATOM     17  C   UNL     1      -1.103   8.874  12.432  1.00  0.00     0.180 C 
ATOM     18  C   UNL     1      -0.433   9.778  13.478  1.00  0.00     0.214 C 
BRANCH  14  19
ATOM     19  C   UNL     1      -4.494   8.673  14.337  1.00  0.00     0.198 C 
BRANCH  19  20
ATOM     20  O   UNL     1      -5.188   9.001  13.147  1.00  0.00    -0.347 OA
BRANCH  20  21
ATOM     21  C   UNL     1      -6.228   8.078  12.863  1.00  0.00     0.281 C 
ATOM     22  C   UNL     1      -5.954  10.299  10.696  1.00  0.00     0.041 C 
ATOM     23  C   UNL     1      -7.001   9.190  10.890  1.00  0.00     0.150 C 
ATOM     24  C   UNL     1      -8.300   9.680  11.582  1.00  0.00     0.174 C 
ATOM     25  O   UNL     1      -6.454   8.006  11.460  1.00  0.00    -0.344 OA
ATOM     26  C   UNL     1      -8.172   9.712  13.116  1.00  0.00     0.179 C 
ATOM     27  C   UNL     1      -7.515   8.429  13.649  1.00  0.00     0.202 C 
BRANCH  24  28
ATOM     28  O   UNL     1      -9.371   8.842  11.225  1.00  0.00    -0.388 OA
ATOM     29  H   UNL     1      -9.742   9.190  10.372  1.00  0.00     0.211 HD
ENDBRANCH  24  28
BRANCH  26  30
ATOM     30  O   UNL     1      -7.417  10.824  13.525  1.00  0.00    -0.387 OA
ATOM     31  H   UNL     1      -7.375  11.445  12.751  1.00  0.00     0.211 HD
ENDBRANCH  26  30
BRANCH  27  32
ATOM     32  O   UNL     1      -8.430   7.357  13.647  1.00  0.00    -0.385 OA
ATOM     33  H   UNL     1      -8.840   7.296  12.745  1.00  0.00     0.211 HD
ENDBRANCH  27  32
ENDBRANCH  20  21
ENDBRANCH  19  20
ENDBRANCH  14  19
BRANCH  15  34
ATOM     34  O   UNL     1      -3.206   7.913  11.780  1.00  0.00    -0.387 OA
ATOM     35  H   UNL     1      -2.471   7.322  11.471  1.00  0.00     0.211 HD
ENDBRANCH  15  34
BRANCH  17  36
ATOM     36  O   UNL     1      -0.780   9.304  11.136  1.00  0.00    -0.387 OA
ATOM     37  H   UNL     1      -0.360   8.529  10.676  1.00  0.00     0.211 HD
ENDBRANCH  17  36
BRANCH  18  38
ATOM     38  O   UNL     1      -0.728  11.124  13.200  1.00  0.00    -0.384 OA
ATOM     39  H   UNL     1      -1.705  11.238  13.344  1.00  0.00     0.211 HD
ENDBRANCH  18  38
ENDBRANCH  12  13
ENDBRANCH   1  12
BRANCH   2  40
ATOM     40  C   UNL     1      -1.908   5.922  16.411  1.00  0.00     0.025 A 
ATOM     41  C   UNL     1      -3.261   5.999  16.772  1.00  0.00     0.062 A 
ATOM     42  C   UNL     1      -1.521   5.067  15.373  1.00  0.00     0.016 A 
ATOM     43  C   UNL     1      -4.233   5.248  16.079  1.00  0.00     0.162 A 
ATOM     44  C   UNL     1      -2.477   4.335  14.669  1.00  0.00     0.051 A 
ATOM     45  C   UNL     1      -3.839   4.424  15.013  1.00  0.00     0.161 A 
BRANCH  43  46
ATOM     46  O   UNL     1      -5.599   5.291  16.416  1.00  0.00    -0.487 OA
BRANCH  46  47
ATOM     47  C   UNL     1      -6.376   6.479  16.587  1.00  0.00     0.258 C 
BRANCH  47  48
ATOM     48  C   UNL     1      -6.274   7.004  18.024  1.00  0.00     0.197 C 
BRANCH  48  49
ATOM     49  O   UNL     1      -6.560   5.989  18.944  1.00  0.00    -0.393 OA
ATOM     50  H   UNL     1      -5.767   5.391  18.971  1.00  0.00     0.210 HD
ENDBRANCH  48  49
ENDBRANCH  47  48
ENDBRANCH  46  47
ENDBRANCH  43  46
BRANCH  45  51
ATOM     51  O   UNL     1      -4.827   3.699  14.330  1.00  0.00    -0.487 OA
BRANCH  51  52
ATOM     52  C   UNL     1      -5.230   3.957  12.985  1.00  0.00     0.258 C 
BRANCH  52  53
ATOM     53  C   UNL     1      -6.590   4.646  12.979  1.00  0.00     0.197 C 
BRANCH  53  54
ATOM     54  O   UNL     1      -7.324   4.284  14.117  1.00  0.00    -0.393 OA
ATOM     55  H   UNL     1      -6.718   4.385  14.896  1.00  0.00     0.210 HD
ENDBRANCH  53  54
ENDBRANCH  52  53
ENDBRANCH  51  52
ENDBRANCH  45  51
ENDBRANCH   2  40
BRANCH   8  56
ATOM     56  O   UNL     1       2.750   9.680  19.086  1.00  0.00    -0.507 OA
ATOM     57  H   UNL     1       3.599   9.491  18.566  1.00  0.00     0.293 HD
ENDBRANCH   8  56
BRANCH   6  58
ATOM     58  O   UNL     1       1.330   6.748  22.721  1.00  0.00    -0.491 OA
BRANCH  58  59
ATOM     59  C   UNL     1       0.263   6.129  23.435  1.00  0.00     0.257 C 
BRANCH  59  60
ATOM     60  C   UNL     1      -0.986   6.995  23.325  1.00  0.00     0.197 C 
BRANCH  60  61
ATOM     61  O   UNL     1      -2.006   6.484  24.140  1.00  0.00    -0.393 OA
ATOM     62  H   UNL     1      -2.149   7.144  24.866  1.00  0.00     0.210 HD
ENDBRANCH  60  61
ENDBRANCH  59  60
ENDBRANCH  58  59
ENDBRANCH   6  58
TORSDOF 25
ENDMDL
MODEL 9
REMARK VINA RESULT:    -1.708      3.711      6.150
REMARK INTER + INTRA:          -6.632
REMARK INTER:                  -5.061
REMARK INTRA:                  -1.572
REMARK UNBOUND:                -2.927
REMARK SMILES C[C@H]1O[C@@H](OC[C@@H]2O[C@@H](Oc3c(-c4ccc(OCCO)c(OCCO)c4)oc4cc(OCCO)cc(O)c4c3=O)[C@H](O)[C@H](O)[C@H]2O)[C@H](O)[C@@H](O)[C@@H]1O
REMARK SMILES IDX 11 1 12 2 27 3 28 4 29 5 30 6 35 7 36 8 38 9 39 10 40 11
REMARK SMILES IDX 10 12 9 13 7 14 45 15 8 16 43 17 41 18 6 19 5 20 4 21 1 22
REMARK SMILES IDX 2 23 51 24 3 25 49 26 47 27 52 28 50 30 48 32 46 34 44 36
REMARK SMILES IDX 42 38 13 40 26 41 14 42 21 43 15 44 16 45 22 46 23 47 24 48
REMARK SMILES IDX 25 49 17 51 18 52 19 53 20 54 37 56 31 58 32 59 33 60 34 61
REMARK H PARENT 52 29 50 31 48 33 46 35 44 37 42 39 25 50 20 55 37 57 34 62
REMARK Flexibility Score: inf
ROOT
ATOM      1  C   UNL     1      -0.113   7.846  16.549  1.00  0.00     0.214 A 
ATOM      2  C   UNL     1      -0.846   6.773  17.091  1.00  0.00     0.180 A 
ATOM      3  O   UNL     1      -0.675   6.424  18.363  1.00  0.00    -0.452 OA
ATOM      4  C   UNL     1       0.188   7.024  19.173  1.00  0.00     0.146 A 
ATOM      5  C   UNL     1       0.299   6.583  20.494  1.00  0.00     0.094 A 
ATOM      6  C   UNL     1       1.189   7.190  21.378  1.00  0.00     0.126 A 
ATOM      7  C   UNL     1       1.984   8.260  20.926  1.00  0.00     0.093 A 
ATOM      8  C   UNL     1       1.887   8.717  19.604  1.00  0.00     0.134 A 
ATOM      9  C   UNL     1       0.982   8.097  18.710  1.00  0.00     0.111 A 
ATOM     10  C   UNL     1       0.814   8.511  17.371  1.00  0.00     0.239 A 
ATOM     11  O   UNL     1       1.464   9.488  16.916  1.00  0.00    -0.285 OA
ENDROOT
BRANCH   1  12
ATOM     12  O   UNL     1      -0.383   8.271  15.239  1.00  0.00    -0.454 OA
BRANCH  12  13
ATOM     13  C   UNL     1      -0.412   9.643  14.824  1.00  0.00     0.339 C 
ATOM     14  C   UNL     1      -2.664   9.535  14.154  1.00  0.00     0.180 C 
ATOM     15  C   UNL     1      -2.314   9.655  12.652  1.00  0.00     0.177 C 
ATOM     16  O   UNL     1      -1.704  10.210  14.953  1.00  0.00    -0.332 OA
ATOM     17  C   UNL     1      -0.896   9.115  12.405  1.00  0.00     0.180 C 
ATOM     18  C   UNL     1       0.101   9.767  13.376  1.00  0.00     0.214 C 
BRANCH  14  19
ATOM     19  C   UNL     1      -4.038  10.157  14.457  1.00  0.00     0.198 C 
BRANCH  19  20
ATOM     20  O   UNL     1      -5.036   9.646  13.592  1.00  0.00    -0.347 OA
BRANCH  20  21
ATOM     21  C   UNL     1      -5.560   8.410  14.053  1.00  0.00     0.281 C 
ATOM     22  C   UNL     1      -6.413   9.073  11.132  1.00  0.00     0.041 C 
ATOM     23  C   UNL     1      -6.838   7.944  12.084  1.00  0.00     0.150 C 
ATOM     24  C   UNL     1      -8.186   8.215  12.801  1.00  0.00     0.174 C 
ATOM     25  O   UNL     1      -5.791   7.533  12.957  1.00  0.00    -0.344 OA
ATOM     26  C   UNL     1      -8.019   9.094  14.054  1.00  0.00     0.179 C 
ATOM     27  C   UNL     1      -6.832   8.627  14.910  1.00  0.00     0.202 C 
BRANCH  24  28
ATOM     28  O   UNL     1      -8.779   6.994  13.170  1.00  0.00    -0.388 OA
ATOM     29  H   UNL     1      -9.166   7.119  14.076  1.00  0.00     0.211 HD
ENDBRANCH  24  28
BRANCH  26  30
ATOM     30  O   UNL     1      -7.829  10.438  13.691  1.00  0.00    -0.387 OA
ATOM     31  H   UNL     1      -8.400  10.983  14.292  1.00  0.00     0.211 HD
ENDBRANCH  26  30
BRANCH  27  32
ATOM     32  O   UNL     1      -7.164   7.471  15.644  1.00  0.00    -0.385 OA
ATOM     33  H   UNL     1      -6.490   7.349  16.362  1.00  0.00     0.211 HD
ENDBRANCH  27  32
ENDBRANCH  20  21
ENDBRANCH  19  20
ENDBRANCH  14  19
BRANCH  15  34
ATOM     34  O   UNL     1      -3.234   8.917  11.890  1.00  0.00    -0.387 OA
ATOM     35  H   UNL     1      -2.725   8.190  11.445  1.00  0.00     0.211 HD
ENDBRANCH  15  34
BRANCH  17  36
ATOM     36  O   UNL     1      -0.518   9.365  11.077  1.00  0.00    -0.387 OA
ATOM     37  H   UNL     1      -0.985   8.689  10.517  1.00  0.00     0.211 HD
ENDBRANCH  17  36
BRANCH  18  38
ATOM     38  O   UNL     1       0.269  11.121  13.044  1.00  0.00    -0.384 OA
ATOM     39  H   UNL     1      -0.641  11.511  12.959  1.00  0.00     0.211 HD
ENDBRANCH  18  38
ENDBRANCH  12  13
ENDBRANCH   1  12
BRANCH   2  40
ATOM     40  C   UNL     1      -1.816   6.008  16.283  1.00  0.00     0.025 A 
ATOM     41  C   UNL     1      -2.355   4.816  16.787  1.00  0.00     0.062 A 
ATOM     42  C   UNL     1      -2.158   6.425  14.992  1.00  0.00     0.016 A 
ATOM     43  C   UNL     1      -3.259   4.054  16.017  1.00  0.00     0.162 A 
ATOM     44  C   UNL     1      -3.065   5.689  14.230  1.00  0.00     0.051 A 
ATOM     45  C   UNL     1      -3.625   4.502  14.738  1.00  0.00     0.161 A 
BRANCH  43  46
ATOM     46  O   UNL     1      -3.816   2.848  16.483  1.00  0.00    -0.487 OA
BRANCH  46  47
ATOM     47  C   UNL     1      -5.089   2.712  17.119  1.00  0.00     0.258 C 
BRANCH  47  48
ATOM     48  C   UNL     1      -5.037   1.670  18.243  1.00  0.00     0.197 C 
BRANCH  48  49
ATOM     49  O   UNL     1      -3.804   1.713  18.903  1.00  0.00    -0.393 OA
ATOM     50  H   UNL     1      -3.132   2.022  18.240  1.00  0.00     0.210 HD
ENDBRANCH  48  49
ENDBRANCH  47  48
ENDBRANCH  46  47
ENDBRANCH  43  46
BRANCH  45  51
ATOM     51  O   UNL     1      -4.537   3.735  13.998  1.00  0.00    -0.487 OA
BRANCH  51  52
ATOM     52  C   UNL     1      -5.572   4.281  13.181  1.00  0.00     0.258 C 
BRANCH  52  53
ATOM     53  C   UNL     1      -6.843   4.452  14.005  1.00  0.00     0.197 C 
BRANCH  53  54
ATOM     54  O   UNL     1      -7.966   4.087  13.249  1.00  0.00    -0.393 OA
ATOM     55  H   UNL     1      -7.900   4.566  12.383  1.00  0.00     0.210 HD
ENDBRANCH  53  54
ENDBRANCH  52  53
ENDBRANCH  51  52
ENDBRANCH  45  51
ENDBRANCH   2  40
BRANCH   8  56
ATOM     56  O   UNL     1       2.687   9.783  19.188  1.00  0.00    -0.507 OA
ATOM     57  H   UNL     1       2.667  10.678  19.663  1.00  0.00     0.293 HD
ENDBRANCH   8  56
BRANCH   6  58
ATOM     58  O   UNL     1       1.253   6.704  22.692  1.00  0.00    -0.491 OA
BRANCH  58  59
ATOM     59  C   UNL     1       0.190   6.025  23.355  1.00  0.00     0.257 C 
BRANCH  59  60
ATOM     60  C   UNL     1      -1.078   6.866  23.267  1.00  0.00     0.197 C 
BRANCH  60  61
ATOM     61  O   UNL     1      -1.912   6.605  24.363  1.00  0.00    -0.393 OA
ATOM     62  H   UNL     1      -1.344   6.657  25.174  1.00  0.00     0.210 HD
ENDBRANCH  60  61
ENDBRANCH  59  60
ENDBRANCH  58  59
ENDBRANCH   6  58
TORSDOF 25
ENDMDL
