MODEL 1
REMARK VINA RESULT:    -6.278      0.000      0.000
REMARK INTER + INTRA:         -19.605
REMARK INTER:                 -15.819
REMARK INTRA:                  -3.786
REMARK UNBOUND:                -3.786
REMARK SMILES CCCCCCCCCCCCCCCCCCCCCCCCCCCC(=O)[O-]
REMARK SMILES IDX 15 1 16 2 17 3 18 4 19 5 20 6 21 7 22 8 23 9 24 10 25 11
REMARK SMILES IDX 26 12 27 13 28 14 29 15 30 16 14 17 13 18 12 19 11 20 10 21
REMARK SMILES IDX 9 22 8 23 7 24 6 25 5 26 4 27 3 28 2 29 1 30
REMARK H PARENT
REMARK Flexibility Score: inf
ROOT
ATOM      1  C   UNL     1     138.483 138.946 114.370  1.00  0.00     0.000 C 
ENDROOT
BRANCH   1   2
ATOM      2  C   UNL     1     137.811 137.561 114.274  1.00  0.00     0.000 C 
BRANCH   2   3
ATOM      3  C   UNL     1     136.369 137.582 113.729  1.00  0.00     0.000 C 
BRANCH   3   4
ATOM      4  C   UNL     1     136.225 136.907 112.351  1.00  0.00     0.000 C 
BRANCH   4   5
ATOM      5  C   UNL     1     134.908 136.128 112.211  1.00  0.00     0.000 C 
BRANCH   5   6
ATOM      6  C   UNL     1     133.748 136.768 112.994  1.00  0.00     0.000 C 
BRANCH   6   7
ATOM      7  C   UNL     1     132.947 135.749 113.827  1.00  0.00     0.000 C 
BRANCH   7   8
ATOM      8  C   UNL     1     133.259 134.268 113.537  1.00  0.00     0.000 C 
BRANCH   8   9
ATOM      9  C   UNL     1     133.880 133.535 114.739  1.00  0.00     0.000 C 
BRANCH   9  10
ATOM     10  C   UNL     1     135.354 133.155 114.510  1.00  0.00     0.000 C 
BRANCH  10  11
ATOM     11  C   UNL     1     136.378 134.182 115.026  1.00  0.00     0.000 C 
BRANCH  11  12
ATOM     12  C   UNL     1     136.575 134.114 116.547  1.00  0.00     0.006 C 
BRANCH  12  13
ATOM     13  C   UNL     1     136.724 135.518 117.145  1.00  0.00     0.053 C 
BRANCH  13  14
ATOM     14  C   UNL     1     135.400 136.057 117.593  1.00  0.00     0.041 C 
ATOM     15  O   UNL     1     134.585 136.521 116.749  1.00  0.00    -0.550 OA
ATOM     16  O   UNL     1     135.075 136.075 118.946  1.00  0.00    -0.550 OA
ENDBRANCH  13  14
ENDBRANCH  12  13
ENDBRANCH  11  12
ENDBRANCH  10  11
ENDBRANCH   9  10
ENDBRANCH   8   9
ENDBRANCH   7   8
ENDBRANCH   6   7
ENDBRANCH   5   6
ENDBRANCH   4   5
ENDBRANCH   3   4
ENDBRANCH   2   3
ENDBRANCH   1   2
BRANCH   1  17
ATOM     17  C   UNL     1     140.021 138.957 114.290  1.00  0.00     0.000 C 
BRANCH  17  18
ATOM     18  C   UNL     1     140.611 139.291 112.907  1.00  0.00     0.000 C 
BRANCH  18  19
ATOM     19  C   UNL     1     142.128 139.044 112.825  1.00  0.00     0.000 C 
BRANCH  19  20
ATOM     20  C   UNL     1     142.906 140.325 112.477  1.00  0.00     0.000 C 
BRANCH  20  21
ATOM     21  C   UNL     1     143.834 140.775 113.620  1.00  0.00     0.000 C 
BRANCH  21  22
ATOM     22  C   UNL     1     143.057 141.240 114.871  1.00  0.00    -0.000 C 
BRANCH  22  23
ATOM     23  C   UNL     1     142.975 142.770 115.031  1.00  0.00    -0.000 C 
BRANCH  23  24
ATOM     24  C   UNL     1     141.753 143.436 114.368  1.00  0.00    -0.000 C 
BRANCH  24  25
ATOM     25  C   UNL     1     140.436 142.640 114.479  1.00  0.00    -0.000 C 
BRANCH  25  26
ATOM     26  C   UNL     1     139.674 142.815 115.809  1.00  0.00    -0.000 C 
BRANCH  26  27
ATOM     27  C   UNL     1     139.861 141.669 116.819  1.00  0.00    -0.000 C 
BRANCH  27  28
ATOM     28  C   UNL     1     140.782 142.053 117.988  1.00  0.00    -0.000 C 
BRANCH  28  29
ATOM     29  C   UNL     1     141.214 140.809 118.774  1.00  0.00    -0.003 C 
ATOM     30  C   UNL     1     140.310 140.580 119.982  1.00  0.00     0.004 C 
ENDBRANCH  28  29
ENDBRANCH  27  28
ENDBRANCH  26  27
ENDBRANCH  25  26
ENDBRANCH  24  25
ENDBRANCH  23  24
ENDBRANCH  22  23
ENDBRANCH  21  22
ENDBRANCH  20  21
ENDBRANCH  19  20
ENDBRANCH  18  19
ENDBRANCH  17  18
ENDBRANCH   1  17
TORSDOF 26
ENDMDL
MODEL 2
REMARK VINA RESULT:    -6.169      2.027      8.869
REMARK INTER + INTRA:         -19.332
REMARK INTER:                 -15.275
REMARK INTRA:                  -4.058
REMARK UNBOUND:                -3.786
REMARK SMILES CCCCCCCCCCCCCCCCCCCCCCCCCCCC(=O)[O-]
REMARK SMILES IDX 15 1 16 2 17 3 18 4 19 5 20 6 21 7 22 8 23 9 24 10 25 11
REMARK SMILES IDX 26 12 27 13 28 14 29 15 30 16 14 17 13 18 12 19 11 20 10 21
REMARK SMILES IDX 9 22 8 23 7 24 6 25 5 26 4 27 3 28 2 29 1 30
REMARK H PARENT
REMARK Flexibility Score: inf
ROOT
ATOM      1  C   UNL     1     137.459 137.198 113.936  1.00  0.00     0.000 C 
ENDROOT
BRANCH   1   2
ATOM      2  C   UNL     1     138.024 138.482 114.576  1.00  0.00     0.000 C 
BRANCH   2   3
ATOM      3  C   UNL     1     138.925 139.320 113.648  1.00  0.00     0.000 C 
BRANCH   3   4
ATOM      4  C   UNL     1     140.431 139.102 113.894  1.00  0.00     0.000 C 
BRANCH   4   5
ATOM      5  C   UNL     1     141.270 139.284 112.619  1.00  0.00     0.000 C 
BRANCH   5   6
ATOM      6  C   UNL     1     142.710 139.742 112.912  1.00  0.00     0.000 C 
BRANCH   6   7
ATOM      7  C   UNL     1     142.878 140.341 114.321  1.00  0.00     0.000 C 
BRANCH   7   8
ATOM      8  C   UNL     1     143.477 141.760 114.368  1.00  0.00     0.000 C 
BRANCH   8   9
ATOM      9  C   UNL     1     142.492 142.814 114.905  1.00  0.00     0.000 C 
BRANCH   9  10
ATOM     10  C   UNL     1     141.133 142.782 114.183  1.00  0.00     0.000 C 
BRANCH  10  11
ATOM     11  C   UNL     1     139.910 142.644 115.109  1.00  0.00     0.000 C 
BRANCH  11  12
ATOM     12  C   UNL     1     140.296 142.387 116.573  1.00  0.00     0.006 C 
BRANCH  12  13
ATOM     13  C   UNL     1     139.912 140.965 117.000  1.00  0.00     0.053 C 
BRANCH  13  14
ATOM     14  C   UNL     1     140.644 140.559 118.242  1.00  0.00     0.041 C 
ATOM     15  O   UNL     1     141.818 140.103 118.167  1.00  0.00    -0.550 OA
ATOM     16  O   UNL     1     140.020 140.655 119.483  1.00  0.00    -0.550 OA
ENDBRANCH  13  14
ENDBRANCH  12  13
ENDBRANCH  11  12
ENDBRANCH  10  11
ENDBRANCH   9  10
ENDBRANCH   8   9
ENDBRANCH   7   8
ENDBRANCH   6   7
ENDBRANCH   5   6
ENDBRANCH   4   5
ENDBRANCH   3   4
ENDBRANCH   2   3
ENDBRANCH   1   2
BRANCH   1  17
ATOM     17  C   UNL     1     136.464 137.403 112.777  1.00  0.00     0.000 C 
BRANCH  17  18
ATOM     18  C   UNL     1     136.117 136.138 111.970  1.00  0.00     0.000 C 
BRANCH  18  19
ATOM     19  C   UNL     1     134.603 135.876 111.883  1.00  0.00     0.000 C 
BRANCH  19  20
ATOM     20  C   UNL     1     133.793 136.866 112.738  1.00  0.00     0.000 C 
BRANCH  20  21
ATOM     21  C   UNL     1     132.923 136.155 113.791  1.00  0.00     0.000 C 
BRANCH  21  22
ATOM     22  C   UNL     1     132.966 134.618 113.660  1.00  0.00    -0.000 C 
BRANCH  22  23
ATOM     23  C   UNL     1     133.737 133.909 114.791  1.00  0.00    -0.000 C 
BRANCH  23  24
ATOM     24  C   UNL     1     134.990 133.131 114.344  1.00  0.00    -0.000 C 
BRANCH  24  25
ATOM     25  C   UNL     1     136.335 133.780 114.732  1.00  0.00    -0.000 C 
BRANCH  25  26
ATOM     26  C   UNL     1     136.674 133.737 116.236  1.00  0.00    -0.000 C 
BRANCH  26  27
ATOM     27  C   UNL     1     136.817 135.114 116.908  1.00  0.00    -0.000 C 
BRANCH  27  28
ATOM     28  C   UNL     1     136.208 135.153 118.319  1.00  0.00    -0.000 C 
BRANCH  28  29
ATOM     29  C   UNL     1     134.832 135.828 118.301  1.00  0.00    -0.003 C 
ATOM     30  C   UNL     1     134.612 136.598 117.002  1.00  0.00     0.004 C 
ENDBRANCH  28  29
ENDBRANCH  27  28
ENDBRANCH  26  27
ENDBRANCH  25  26
ENDBRANCH  24  25
ENDBRANCH  23  24
ENDBRANCH  22  23
ENDBRANCH  21  22
ENDBRANCH  20  21
ENDBRANCH  19  20
ENDBRANCH  18  19
ENDBRANCH  17  18
ENDBRANCH   1  17
TORSDOF 26
ENDMDL
MODEL 3
REMARK VINA RESULT:    -5.911      1.558      3.444
REMARK INTER + INTRA:         -18.682
REMARK INTER:                 -15.098
REMARK INTRA:                  -3.584
REMARK UNBOUND:                -3.786
REMARK SMILES CCCCCCCCCCCCCCCCCCCCCCCCCCCC(=O)[O-]
REMARK SMILES IDX 15 1 16 2 17 3 18 4 19 5 20 6 21 7 22 8 23 9 24 10 25 11
REMARK SMILES IDX 26 12 27 13 28 14 29 15 30 16 14 17 13 18 12 19 11 20 10 21
REMARK SMILES IDX 9 22 8 23 7 24 6 25 5 26 4 27 3 28 2 29 1 30
REMARK H PARENT
REMARK Flexibility Score: inf
ROOT
ATOM      1  C   UNL     1     136.791 136.758 111.892  1.00  0.00     0.000 C 
ENDROOT
BRANCH   1   2
ATOM      2  C   UNL     1     136.108 137.242 113.187  1.00  0.00     0.000 C 
BRANCH   2   3
ATOM      3  C   UNL     1     134.569 137.290 113.123  1.00  0.00     0.000 C 
BRANCH   3   4
ATOM      4  C   UNL     1     133.975 136.435 111.987  1.00  0.00     0.000 C 
BRANCH   4   5
ATOM      5  C   UNL     1     133.456 135.075 112.481  1.00  0.00     0.000 C 
BRANCH   5   6
ATOM      6  C   UNL     1     132.801 135.155 113.871  1.00  0.00     0.000 C 
BRANCH   6   7
ATOM      7  C   UNL     1     133.545 134.330 114.938  1.00  0.00     0.000 C 
BRANCH   7   8
ATOM      8  C   UNL     1     134.336 133.120 114.404  1.00  0.00     0.000 C 
BRANCH   8   9
ATOM      9  C   UNL     1     135.845 133.391 114.280  1.00  0.00     0.000 C 
BRANCH   9  10
ATOM     10  C   UNL     1     136.501 133.739 115.629  1.00  0.00     0.000 C 
BRANCH  10  11
ATOM     11  C   UNL     1     137.002 135.190 115.752  1.00  0.00     0.000 C 
BRANCH  11  12
ATOM     12  C   UNL     1     136.404 135.928 116.959  1.00  0.00     0.006 C 
BRANCH  12  13
ATOM     13  C   UNL     1     136.895 135.313 118.275  1.00  0.00     0.053 C 
BRANCH  13  14
ATOM     14  C   UNL     1     136.007 135.705 119.417  1.00  0.00     0.041 C 
ATOM     15  O   UNL     1     136.476 135.794 120.584  1.00  0.00    -0.550 OA
ATOM     16  O   UNL     1     134.653 135.945 119.198  1.00  0.00    -0.550 OA
ENDBRANCH  13  14
ENDBRANCH  12  13
ENDBRANCH  11  12
ENDBRANCH  10  11
ENDBRANCH   9  10
ENDBRANCH   8   9
ENDBRANCH   7   8
ENDBRANCH   6   7
ENDBRANCH   5   6
ENDBRANCH   4   5
ENDBRANCH   3   4
ENDBRANCH   2   3
ENDBRANCH   1   2
BRANCH   1  17
ATOM     17  C   UNL     1     137.340 137.861 110.965  1.00  0.00     0.000 C 
BRANCH  17  18
ATOM     18  C   UNL     1     138.840 138.174 111.125  1.00  0.00     0.000 C 
BRANCH  18  19
ATOM     19  C   UNL     1     139.115 139.295 112.142  1.00  0.00     0.000 C 
BRANCH  19  20
ATOM     20  C   UNL     1     139.524 138.743 113.519  1.00  0.00     0.000 C 
BRANCH  20  21
ATOM     21  C   UNL     1     138.810 139.467 114.675  1.00  0.00     0.000 C 
BRANCH  21  22
ATOM     22  C   UNL     1     139.791 140.192 115.621  1.00  0.00    -0.000 C 
BRANCH  22  23
ATOM     23  C   UNL     1     139.576 141.715 115.707  1.00  0.00    -0.000 C 
BRANCH  23  24
ATOM     24  C   UNL     1     140.864 142.561 115.722  1.00  0.00    -0.000 C 
BRANCH  24  25
ATOM     25  C   UNL     1     141.226 143.224 114.377  1.00  0.00    -0.000 C 
BRANCH  25  26
ATOM     26  C   UNL     1     140.926 142.372 113.126  1.00  0.00    -0.000 C 
BRANCH  26  27
ATOM     27  C   UNL     1     142.166 141.948 112.318  1.00  0.00    -0.000 C 
BRANCH  27  28
ATOM     28  C   UNL     1     143.400 141.717 113.203  1.00  0.00    -0.000 C 
BRANCH  28  29
ATOM     29  C   UNL     1     143.726 140.222 113.307  1.00  0.00    -0.003 C 
ATOM     30  C   UNL     1     142.919 139.411 112.297  1.00  0.00     0.004 C 
ENDBRANCH  28  29
ENDBRANCH  27  28
ENDBRANCH  26  27
ENDBRANCH  25  26
ENDBRANCH  24  25
ENDBRANCH  23  24
ENDBRANCH  22  23
ENDBRANCH  21  22
ENDBRANCH  20  21
ENDBRANCH  19  20
ENDBRANCH  18  19
ENDBRANCH  17  18
ENDBRANCH   1  17
TORSDOF 26
ENDMDL
MODEL 4
REMARK VINA RESULT:    -5.845      1.162      2.251
REMARK INTER + INTRA:         -18.515
REMARK INTER:                 -14.647
REMARK INTRA:                  -3.868
REMARK UNBOUND:                -3.786
REMARK SMILES CCCCCCCCCCCCCCCCCCCCCCCCCCCC(=O)[O-]
REMARK SMILES IDX 15 1 16 2 17 3 18 4 19 5 20 6 21 7 22 8 23 9 24 10 25 11
REMARK SMILES IDX 26 12 27 13 28 14 29 15 30 16 14 17 13 18 12 19 11 20 10 21
REMARK SMILES IDX 9 22 8 23 7 24 6 25 5 26 4 27 3 28 2 29 1 30
REMARK H PARENT
REMARK Flexibility Score: inf
ROOT
ATOM      1  C   UNL     1     136.908 136.980 111.507  1.00  0.00     0.000 C 
ENDROOT
BRANCH   1   2
ATOM      2  C   UNL     1     136.793 136.697 113.018  1.00  0.00     0.000 C 
BRANCH   2   3
ATOM      3  C   UNL     1     135.511 137.240 113.679  1.00  0.00     0.000 C 
BRANCH   3   4
ATOM      4  C   UNL     1     134.319 137.350 112.707  1.00  0.00     0.000 C 
BRANCH   4   5
ATOM      5  C   UNL     1     133.373 136.142 112.794  1.00  0.00     0.000 C 
BRANCH   5   6
ATOM      6  C   UNL     1     132.776 135.951 114.200  1.00  0.00     0.000 C 
BRANCH   6   7
ATOM      7  C   UNL     1     133.319 134.703 114.921  1.00  0.00     0.000 C 
BRANCH   7   8
ATOM      8  C   UNL     1     133.948 133.633 114.007  1.00  0.00     0.000 C 
BRANCH   8   9
ATOM      9  C   UNL     1     135.434 133.375 114.313  1.00  0.00     0.000 C 
BRANCH   9  10
ATOM     10  C   UNL     1     135.823 133.767 115.750  1.00  0.00     0.000 C 
BRANCH  10  11
ATOM     11  C   UNL     1     137.043 134.701 115.860  1.00  0.00     0.000 C 
BRANCH  11  12
ATOM     12  C   UNL     1     136.975 135.628 117.082  1.00  0.00     0.006 C 
BRANCH  12  13
ATOM     13  C   UNL     1     135.522 135.944 117.452  1.00  0.00     0.053 C 
BRANCH  13  14
ATOM     14  C   UNL     1     135.315 135.877 118.935  1.00  0.00     0.041 C 
ATOM     15  O   UNL     1     136.287 135.634 119.701  1.00  0.00    -0.550 OA
ATOM     16  O   UNL     1     134.043 136.053 119.471  1.00  0.00    -0.550 OA
ENDBRANCH  13  14
ENDBRANCH  12  13
ENDBRANCH  11  12
ENDBRANCH  10  11
ENDBRANCH   9  10
ENDBRANCH   8   9
ENDBRANCH   7   8
ENDBRANCH   6   7
ENDBRANCH   5   6
ENDBRANCH   4   5
ENDBRANCH   3   4
ENDBRANCH   2   3
ENDBRANCH   1   2
BRANCH   1  17
ATOM     17  C   UNL     1     137.554 138.324 111.119  1.00  0.00     0.000 C 
BRANCH  17  18
ATOM     18  C   UNL     1     139.086 138.388 111.262  1.00  0.00     0.000 C 
BRANCH  18  19
ATOM     19  C   UNL     1     139.559 139.560 112.141  1.00  0.00     0.000 C 
BRANCH  19  20
ATOM     20  C   UNL     1     139.100 139.411 113.602  1.00  0.00     0.000 C 
BRANCH  20  21
ATOM     21  C   UNL     1     140.272 139.119 114.556  1.00  0.00     0.000 C 
BRANCH  21  22
ATOM     22  C   UNL     1     141.637 139.540 113.971  1.00  0.00    -0.000 C 
BRANCH  22  23
ATOM     23  C   UNL     1     142.437 140.505 114.867  1.00  0.00    -0.000 C 
BRANCH  23  24
ATOM     24  C   UNL     1     142.898 141.807 114.183  1.00  0.00    -0.000 C 
BRANCH  24  25
ATOM     25  C   UNL     1     142.008 143.038 114.455  1.00  0.00    -0.000 C 
BRANCH  25  26
ATOM     26  C   UNL     1     140.491 142.759 114.472  1.00  0.00    -0.000 C 
BRANCH  26  27
ATOM     27  C   UNL     1     139.780 143.117 115.789  1.00  0.00    -0.000 C 
BRANCH  27  28
ATOM     28  C   UNL     1     140.379 142.390 117.003  1.00  0.00    -0.000 C 
BRANCH  28  29
ATOM     29  C   UNL     1     139.494 141.210 117.425  1.00  0.00    -0.003 C 
ATOM     30  C   UNL     1     139.881 140.700 118.810  1.00  0.00     0.004 C 
ENDBRANCH  28  29
ENDBRANCH  27  28
ENDBRANCH  26  27
ENDBRANCH  25  26
ENDBRANCH  24  25
ENDBRANCH  23  24
ENDBRANCH  22  23
ENDBRANCH  21  22
ENDBRANCH  20  21
ENDBRANCH  19  20
ENDBRANCH  18  19
ENDBRANCH  17  18
ENDBRANCH   1  17
TORSDOF 26
ENDMDL
MODEL 5
REMARK VINA RESULT:    -5.114      1.661      3.219
REMARK INTER + INTRA:         -16.673
REMARK INTER:                 -13.145
REMARK INTRA:                  -3.527
REMARK UNBOUND:                -3.786
REMARK SMILES CCCCCCCCCCCCCCCCCCCCCCCCCCCC(=O)[O-]
REMARK SMILES IDX 15 1 16 2 17 3 18 4 19 5 20 6 21 7 22 8 23 9 24 10 25 11
REMARK SMILES IDX 26 12 27 13 28 14 29 15 30 16 14 17 13 18 12 19 11 20 10 21
REMARK SMILES IDX 9 22 8 23 7 24 6 25 5 26 4 27 3 28 2 29 1 30
REMARK H PARENT
REMARK Flexibility Score: inf
ROOT
ATOM      1  C   UNL     1     139.563 140.179 115.333  1.00  0.00     0.000 C 
ENDROOT
BRANCH   1   2
ATOM      2  C   UNL     1     139.342 138.812 114.654  1.00  0.00     0.000 C 
BRANCH   2   3
ATOM      3  C   UNL     1     137.932 138.606 114.067  1.00  0.00     0.000 C 
BRANCH   3   4
ATOM      4  C   UNL     1     137.903 137.644 112.863  1.00  0.00     0.000 C 
BRANCH   4   5
ATOM      5  C   UNL     1     136.493 137.474 112.276  1.00  0.00     0.000 C 
BRANCH   5   6
ATOM      6  C   UNL     1     136.091 135.998 112.103  1.00  0.00     0.000 C 
BRANCH   6   7
ATOM      7  C   UNL     1     134.660 135.822 111.564  1.00  0.00     0.000 C 
BRANCH   7   8
ATOM      8  C   UNL     1     133.737 134.932 112.418  1.00  0.00     0.000 C 
BRANCH   8   9
ATOM      9  C   UNL     1     133.045 135.698 113.559  1.00  0.00     0.000 C 
BRANCH   9  10
ATOM     10  C   UNL     1     133.450 135.184 114.953  1.00  0.00     0.000 C 
BRANCH  10  11
ATOM     11  C   UNL     1     134.029 136.254 115.896  1.00  0.00     0.000 C 
BRANCH  11  12
ATOM     12  C   UNL     1     135.539 136.462 115.706  1.00  0.00     0.006 C 
BRANCH  12  13
ATOM     13  C   UNL     1     136.309 135.163 115.970  1.00  0.00     0.053 C 
BRANCH  13  14
ATOM     14  C   UNL     1     136.312 134.825 117.430  1.00  0.00     0.041 C 
ATOM     15  O   UNL     1     135.375 134.141 117.925  1.00  0.00    -0.550 OA
ATOM     16  O   UNL     1     137.335 135.289 118.252  1.00  0.00    -0.550 OA
ENDBRANCH  13  14
ENDBRANCH  12  13
ENDBRANCH  11  12
ENDBRANCH  10  11
ENDBRANCH   9  10
ENDBRANCH   8   9
ENDBRANCH   7   8
ENDBRANCH   6   7
ENDBRANCH   5   6
ENDBRANCH   4   5
ENDBRANCH   3   4
ENDBRANCH   2   3
ENDBRANCH   1   2
BRANCH   1  17
ATOM     17  C   UNL     1     140.510 140.184 116.549  1.00  0.00     0.000 C 
BRANCH  17  18
ATOM     18  C   UNL     1     142.003 139.990 116.227  1.00  0.00     0.000 C 
BRANCH  18  19
ATOM     19  C   UNL     1     142.404 140.575 114.861  1.00  0.00     0.000 C 
BRANCH  19  20
ATOM     20  C   UNL     1     143.920 140.484 114.614  1.00  0.00     0.000 C 
BRANCH  20  21
ATOM     21  C   UNL     1     144.266 140.426 113.114  1.00  0.00     0.000 C 
BRANCH  21  22
ATOM     22  C   UNL     1     143.577 139.251 112.389  1.00  0.00    -0.000 C 
BRANCH  22  23
ATOM     23  C   UNL     1     142.641 139.679 111.241  1.00  0.00    -0.000 C 
BRANCH  23  24
ATOM     24  C   UNL     1     141.140 139.436 111.492  1.00  0.00    -0.000 C 
BRANCH  24  25
ATOM     25  C   UNL     1     140.290 140.713 111.656  1.00  0.00    -0.000 C 
BRANCH  25  26
ATOM     26  C   UNL     1     141.084 142.035 111.638  1.00  0.00    -0.000 C 
BRANCH  26  27
ATOM     27  C   UNL     1     141.335 142.660 113.022  1.00  0.00    -0.000 C 
BRANCH  27  28
ATOM     28  C   UNL     1     140.121 143.443 113.548  1.00  0.00    -0.000 C 
BRANCH  28  29
ATOM     29  C   UNL     1     140.213 143.640 115.066  1.00  0.00    -0.003 C 
ATOM     30  C   UNL     1     139.260 144.733 115.539  1.00  0.00     0.004 C 
ENDBRANCH  28  29
ENDBRANCH  27  28
ENDBRANCH  26  27
ENDBRANCH  25  26
ENDBRANCH  24  25
ENDBRANCH  23  24
ENDBRANCH  22  23
ENDBRANCH  21  22
ENDBRANCH  20  21
ENDBRANCH  19  20
ENDBRANCH  18  19
ENDBRANCH  17  18
ENDBRANCH   1  17
TORSDOF 26
ENDMDL
MODEL 6
REMARK VINA RESULT:    -5.068      4.458      9.029
REMARK INTER + INTRA:         -16.557
REMARK INTER:                 -13.854
REMARK INTRA:                  -2.703
REMARK UNBOUND:                -3.786
REMARK SMILES CCCCCCCCCCCCCCCCCCCCCCCCCCCC(=O)[O-]
REMARK SMILES IDX 15 1 16 2 17 3 18 4 19 5 20 6 21 7 22 8 23 9 24 10 25 11
REMARK SMILES IDX 26 12 27 13 28 14 29 15 30 16 14 17 13 18 12 19 11 20 10 21
REMARK SMILES IDX 9 22 8 23 7 24 6 25 5 26 4 27 3 28 2 29 1 30
REMARK H PARENT
REMARK Flexibility Score: inf
ROOT
ATOM      1  C   UNL     1     139.724 141.669 117.032  1.00  0.00     0.000 C 
ENDROOT
BRANCH   1   2
ATOM      2  C   UNL     1     139.587 142.790 115.982  1.00  0.00     0.000 C 
BRANCH   2   3
ATOM      3  C   UNL     1     140.331 142.525 114.658  1.00  0.00     0.000 C 
BRANCH   3   4
ATOM      4  C   UNL     1     141.562 143.429 114.455  1.00  0.00     0.000 C 
BRANCH   4   5
ATOM      5  C   UNL     1     142.864 142.771 114.937  1.00  0.00     0.000 C 
BRANCH   5   6
ATOM      6  C   UNL     1     142.733 141.248 115.117  1.00  0.00     0.000 C 
BRANCH   6   7
ATOM      7  C   UNL     1     143.963 140.472 114.611  1.00  0.00     0.000 C 
BRANCH   7   8
ATOM      8  C   UNL     1     144.296 140.662 113.119  1.00  0.00     0.000 C 
BRANCH   8   9
ATOM      9  C   UNL     1     143.254 140.027 112.181  1.00  0.00     0.000 C 
BRANCH   9  10
ATOM     10  C   UNL     1     142.440 141.073 111.399  1.00  0.00     0.000 C 
BRANCH  10  11
ATOM     11  C   UNL     1     140.918 140.836 111.389  1.00  0.00     0.000 C 
BRANCH  11  12
ATOM     12  C   UNL     1     140.529 139.438 111.891  1.00  0.00     0.006 C 
BRANCH  12  13
ATOM     13  C   UNL     1     139.127 139.447 112.511  1.00  0.00     0.053 C 
BRANCH  13  14
ATOM     14  C   UNL     1     139.178 139.087 113.964  1.00  0.00     0.041 C 
ATOM     15  O   UNL     1     138.113 139.003 114.635  1.00  0.00    -0.550 OA
ATOM     16  O   UNL     1     140.403 138.870 114.588  1.00  0.00    -0.550 OA
ENDBRANCH  13  14
ENDBRANCH  12  13
ENDBRANCH  11  12
ENDBRANCH  10  11
ENDBRANCH   9  10
ENDBRANCH   8   9
ENDBRANCH   7   8
ENDBRANCH   6   7
ENDBRANCH   5   6
ENDBRANCH   4   5
ENDBRANCH   3   4
ENDBRANCH   2   3
ENDBRANCH   1   2
BRANCH   1  17
ATOM     17  C   UNL     1     140.845 141.852 118.073  1.00  0.00     0.000 C 
BRANCH  17  18
ATOM     18  C   UNL     1     141.098 140.643 118.993  1.00  0.00     0.000 C 
BRANCH  18  19
ATOM     19  C   UNL     1     140.211 140.650 120.251  1.00  0.00     0.000 C 
BRANCH  19  20
ATOM     20  C   UNL     1     141.041 140.679 121.547  1.00  0.00     0.000 C 
BRANCH  20  21
ATOM     21  C   UNL     1     140.172 140.930 122.792  1.00  0.00     0.000 C 
BRANCH  21  22
ATOM     22  C   UNL     1     140.945 141.635 123.927  1.00  0.00    -0.000 C 
BRANCH  22  23
ATOM     23  C   UNL     1     142.474 141.445 123.861  1.00  0.00    -0.000 C 
BRANCH  23  24
ATOM     24  C   UNL     1     143.243 141.868 125.128  1.00  0.00    -0.000 C 
BRANCH  24  25
ATOM     25  C   UNL     1     143.531 143.379 125.243  1.00  0.00    -0.000 C 
BRANCH  25  26
ATOM     26  C   UNL     1     144.186 144.018 124.001  1.00  0.00    -0.000 C 
BRANCH  26  27
ATOM     27  C   UNL     1     145.543 144.697 124.260  1.00  0.00    -0.000 C 
BRANCH  27  28
ATOM     28  C   UNL     1     145.454 146.231 124.237  1.00  0.00    -0.000 C 
BRANCH  28  29
ATOM     29  C   UNL     1     144.609 146.746 125.408  1.00  0.00    -0.003 C 
ATOM     30  C   UNL     1     145.399 147.729 126.267  1.00  0.00     0.004 C 
ENDBRANCH  28  29
ENDBRANCH  27  28
ENDBRANCH  26  27
ENDBRANCH  25  26
ENDBRANCH  24  25
ENDBRANCH  23  24
ENDBRANCH  22  23
ENDBRANCH  21  22
ENDBRANCH  20  21
ENDBRANCH  19  20
ENDBRANCH  18  19
ENDBRANCH  17  18
ENDBRANCH   1  17
TORSDOF 26
ENDMDL
MODEL 7
REMARK VINA RESULT:    -4.936      4.117      7.897
REMARK INTER + INTRA:         -16.224
REMARK INTER:                 -13.713
REMARK INTRA:                  -2.511
REMARK UNBOUND:                -3.786
REMARK SMILES CCCCCCCCCCCCCCCCCCCCCCCCCCCC(=O)[O-]
REMARK SMILES IDX 15 1 16 2 17 3 18 4 19 5 20 6 21 7 22 8 23 9 24 10 25 11
REMARK SMILES IDX 26 12 27 13 28 14 29 15 30 16 14 17 13 18 12 19 11 20 10 21
REMARK SMILES IDX 9 22 8 23 7 24 6 25 5 26 4 27 3 28 2 29 1 30
REMARK H PARENT
REMARK Flexibility Score: inf
ROOT
ATOM      1  C   UNL     1     140.021 141.127 116.959  1.00  0.00     0.000 C 
ENDROOT
BRANCH   1   2
ATOM      2  C   UNL     1     140.007 142.532 116.325  1.00  0.00     0.000 C 
BRANCH   2   3
ATOM      3  C   UNL     1     140.328 142.561 114.818  1.00  0.00     0.000 C 
BRANCH   3   4
ATOM      4  C   UNL     1     141.676 143.234 114.491  1.00  0.00     0.000 C 
BRANCH   4   5
ATOM      5  C   UNL     1     142.570 142.359 113.599  1.00  0.00     0.000 C 
BRANCH   5   6
ATOM      6  C   UNL     1     142.798 140.951 114.177  1.00  0.00     0.000 C 
BRANCH   6   7
ATOM      7  C   UNL     1     142.583 139.832 113.141  1.00  0.00     0.000 C 
BRANCH   7   8
ATOM      8  C   UNL     1     141.113 139.493 112.829  1.00  0.00     0.000 C 
BRANCH   8   9
ATOM      9  C   UNL     1     140.331 139.007 114.062  1.00  0.00     0.000 C 
BRANCH   9  10
ATOM     10  C   UNL     1     138.822 139.299 113.964  1.00  0.00     0.000 C 
BRANCH  10  11
ATOM     11  C   UNL     1     137.962 138.117 113.479  1.00  0.00     0.000 C 
BRANCH  11  12
ATOM     12  C   UNL     1     137.504 137.203 114.626  1.00  0.00     0.006 C 
BRANCH  12  13
ATOM     13  C   UNL     1     135.979 137.054 114.632  1.00  0.00     0.053 C 
BRANCH  13  14
ATOM     14  C   UNL     1     135.517 136.279 115.829  1.00  0.00     0.041 C 
ATOM     15  O   UNL     1     136.122 135.229 116.177  1.00  0.00    -0.550 OA
ATOM     16  O   UNL     1     134.400 136.700 116.544  1.00  0.00    -0.550 OA
ENDBRANCH  13  14
ENDBRANCH  12  13
ENDBRANCH  11  12
ENDBRANCH  10  11
ENDBRANCH   9  10
ENDBRANCH   8   9
ENDBRANCH   7   8
ENDBRANCH   6   7
ENDBRANCH   5   6
ENDBRANCH   4   5
ENDBRANCH   3   4
ENDBRANCH   2   3
ENDBRANCH   1   2
BRANCH   1  17
ATOM     17  C   UNL     1     141.376 140.651 117.518  1.00  0.00     0.000 C 
BRANCH  17  18
ATOM     18  C   UNL     1     141.472 140.583 119.054  1.00  0.00     0.000 C 
BRANCH  18  19
ATOM     19  C   UNL     1     140.098 140.638 119.745  1.00  0.00     0.000 C 
BRANCH  19  20
ATOM     20  C   UNL     1     140.219 140.638 121.279  1.00  0.00     0.000 C 
BRANCH  20  21
ATOM     21  C   UNL     1     141.675 140.468 121.751  1.00  0.00     0.000 C 
BRANCH  21  22
ATOM     22  C   UNL     1     141.846 140.724 123.263  1.00  0.00    -0.000 C 
BRANCH  22  23
ATOM     23  C   UNL     1     143.218 141.306 123.654  1.00  0.00    -0.000 C 
BRANCH  23  24
ATOM     24  C   UNL     1     143.216 142.803 124.020  1.00  0.00    -0.000 C 
BRANCH  24  25
ATOM     25  C   UNL     1     143.548 143.115 125.495  1.00  0.00    -0.000 C 
BRANCH  25  26
ATOM     26  C   UNL     1     145.048 143.295 125.805  1.00  0.00    -0.000 C 
BRANCH  26  27
ATOM     27  C   UNL     1     145.540 144.753 125.808  1.00  0.00    -0.000 C 
BRANCH  27  28
ATOM     28  C   UNL     1     145.893 145.264 124.403  1.00  0.00    -0.000 C 
BRANCH  28  29
ATOM     29  C   UNL     1     145.199 146.600 124.116  1.00  0.00    -0.003 C 
ATOM     30  C   UNL     1     144.042 146.838 125.082  1.00  0.00     0.004 C 
ENDBRANCH  28  29
ENDBRANCH  27  28
ENDBRANCH  26  27
ENDBRANCH  25  26
ENDBRANCH  24  25
ENDBRANCH  23  24
ENDBRANCH  22  23
ENDBRANCH  21  22
ENDBRANCH  20  21
ENDBRANCH  19  20
ENDBRANCH  18  19
ENDBRANCH  17  18
ENDBRANCH   1  17
TORSDOF 26
ENDMDL
MODEL 8
REMARK VINA RESULT:    -4.895      3.219      9.095
REMARK INTER + INTRA:         -16.121
REMARK INTER:                 -13.578
REMARK INTRA:                  -2.543
REMARK UNBOUND:                -3.786
REMARK SMILES CCCCCCCCCCCCCCCCCCCCCCCCCCCC(=O)[O-]
REMARK SMILES IDX 15 1 16 2 17 3 18 4 19 5 20 6 21 7 22 8 23 9 24 10 25 11
REMARK SMILES IDX 26 12 27 13 28 14 29 15 30 16 14 17 13 18 12 19 11 20 10 21
REMARK SMILES IDX 9 22 8 23 7 24 6 25 5 26 4 27 3 28 2 29 1 30
REMARK H PARENT
REMARK Flexibility Score: inf
ROOT
ATOM      1  C   UNL     1     141.918 140.365 112.318  1.00  0.00     0.000 C 
ENDROOT
BRANCH   1   2
ATOM      2  C   UNL     1     141.171 141.652 111.912  1.00  0.00     0.000 C 
BRANCH   2   3
ATOM      3  C   UNL     1     140.981 142.672 113.051  1.00  0.00     0.000 C 
BRANCH   3   4
ATOM      4  C   UNL     1     142.038 142.550 114.166  1.00  0.00     0.000 C 
BRANCH   4   5
ATOM      5  C   UNL     1     141.509 141.806 115.402  1.00  0.00     0.000 C 
BRANCH   5   6
ATOM      6  C   UNL     1     142.449 140.682 115.872  1.00  0.00     0.000 C 
BRANCH   6   7
ATOM      7  C   UNL     1     141.866 139.852 117.031  1.00  0.00     0.000 C 
BRANCH   7   8
ATOM      8  C   UNL     1     140.883 140.602 117.951  1.00  0.00     0.000 C 
BRANCH   8   9
ATOM      9  C   UNL     1     141.398 140.747 119.394  1.00  0.00     0.000 C 
BRANCH   9  10
ATOM     10  C   UNL     1     140.282 140.589 120.443  1.00  0.00     0.000 C 
BRANCH  10  11
ATOM     11  C   UNL     1     140.741 140.737 121.906  1.00  0.00     0.000 C 
BRANCH  11  12
ATOM     12  C   UNL     1     142.158 140.194 122.144  1.00  0.00     0.006 C 
BRANCH  12  13
ATOM     13  C   UNL     1     142.895 141.029 123.197  1.00  0.00     0.053 C 
BRANCH  13  14
ATOM     14  C   UNL     1     142.429 140.688 124.580  1.00  0.00     0.041 C 
ATOM     15  O   UNL     1     142.168 139.493 124.885  1.00  0.00    -0.550 OA
ATOM     16  O   UNL     1     142.254 141.694 125.525  1.00  0.00    -0.550 OA
ENDBRANCH  13  14
ENDBRANCH  12  13
ENDBRANCH  11  12
ENDBRANCH  10  11
ENDBRANCH   9  10
ENDBRANCH   8   9
ENDBRANCH   7   8
ENDBRANCH   6   7
ENDBRANCH   5   6
ENDBRANCH   4   5
ENDBRANCH   3   4
ENDBRANCH   2   3
ENDBRANCH   1   2
BRANCH   1  17
ATOM     17  C   UNL     1     141.033 139.157 112.682  1.00  0.00     0.000 C 
BRANCH  17  18
ATOM     18  C   UNL     1     139.524 139.447 112.784  1.00  0.00     0.000 C 
BRANCH  18  19
ATOM     19  C   UNL     1     138.924 139.044 114.143  1.00  0.00     0.000 C 
BRANCH  19  20
ATOM     20  C   UNL     1     138.311 137.633 114.110  1.00  0.00     0.000 C 
BRANCH  20  21
ATOM     21  C   UNL     1     136.777 137.659 114.239  1.00  0.00     0.000 C 
BRANCH  21  22
ATOM     22  C   UNL     1     136.062 137.316 112.914  1.00  0.00    -0.000 C 
BRANCH  22  23
ATOM     23  C   UNL     1     134.529 137.210 113.034  1.00  0.00    -0.000 C 
BRANCH  23  24
ATOM     24  C   UNL     1     133.883 136.071 112.220  1.00  0.00    -0.000 C 
BRANCH  24  25
ATOM     25  C   UNL     1     133.080 135.049 113.050  1.00  0.00    -0.000 C 
BRANCH  25  26
ATOM     26  C   UNL     1     133.924 133.950 113.730  1.00  0.00    -0.000 C 
BRANCH  26  27
ATOM     27  C   UNL     1     133.790 133.886 115.262  1.00  0.00    -0.000 C 
BRANCH  27  28
ATOM     28  C   UNL     1     134.412 135.104 115.964  1.00  0.00    -0.000 C 
BRANCH  28  29
ATOM     29  C   UNL     1     135.624 134.690 116.806  1.00  0.00    -0.003 C 
ATOM     30  C   UNL     1     136.803 134.299 115.920  1.00  0.00     0.004 C 
ENDBRANCH  28  29
ENDBRANCH  27  28
ENDBRANCH  26  27
ENDBRANCH  25  26
ENDBRANCH  24  25
ENDBRANCH  23  24
ENDBRANCH  22  23
ENDBRANCH  21  22
ENDBRANCH  20  21
ENDBRANCH  19  20
ENDBRANCH  18  19
ENDBRANCH  17  18
ENDBRANCH   1  17
TORSDOF 26
ENDMDL
MODEL 9
REMARK VINA RESULT:    -4.894      4.432      8.122
REMARK INTER + INTRA:         -16.120
REMARK INTER:                 -13.094
REMARK INTRA:                  -3.025
REMARK UNBOUND:                -3.786
REMARK SMILES CCCCCCCCCCCCCCCCCCCCCCCCCCCC(=O)[O-]
REMARK SMILES IDX 15 1 16 2 17 3 18 4 19 5 20 6 21 7 22 8 23 9 24 10 25 11
REMARK SMILES IDX 26 12 27 13 28 14 29 15 30 16 14 17 13 18 12 19 11 20 10 21
REMARK SMILES IDX 9 22 8 23 7 24 6 25 5 26 4 27 3 28 2 29 1 30
REMARK H PARENT
REMARK Flexibility Score: inf
ROOT
ATOM      1  C   UNL     1     136.643 134.064 115.967  1.00  0.00     0.000 C 
ENDROOT
BRANCH   1   2
ATOM      2  C   UNL     1     135.559 134.238 117.050  1.00  0.00     0.000 C 
BRANCH   2   3
ATOM      3  C   UNL     1     135.083 135.689 117.257  1.00  0.00     0.000 C 
BRANCH   3   4
ATOM      4  C   UNL     1     134.998 136.101 118.740  1.00  0.00     0.000 C 
BRANCH   4   5
ATOM      5  C   UNL     1     136.340 135.949 119.472  1.00  0.00     0.000 C 
BRANCH   5   6
ATOM      6  C   UNL     1     136.174 135.739 120.988  1.00  0.00     0.000 C 
BRANCH   6   7
ATOM      7  C   UNL     1     134.762 136.088 121.494  1.00  0.00     0.000 C 
BRANCH   7   8
ATOM      8  C   UNL     1     134.507 135.807 122.988  1.00  0.00     0.000 C 
BRANCH   8   9
ATOM      9  C   UNL     1     135.671 135.066 123.670  1.00  0.00     0.000 C 
BRANCH   9  10
ATOM     10  C   UNL     1     135.400 134.771 125.156  1.00  0.00     0.000 C 
BRANCH  10  11
ATOM     11  C   UNL     1     134.225 135.554 125.770  1.00  0.00     0.000 C 
BRANCH  11  12
ATOM     12  C   UNL     1     133.110 134.640 126.298  1.00  0.00     0.006 C 
BRANCH  12  13
ATOM     13  C   UNL     1     133.323 133.193 125.839  1.00  0.00     0.053 C 
BRANCH  13  14
ATOM     14  C   UNL     1     132.254 132.768 124.879  1.00  0.00     0.041 C 
ATOM     15  O   UNL     1     132.332 133.085 123.661  1.00  0.00    -0.550 OA
ATOM     16  O   UNL     1     131.154 132.047 125.333  1.00  0.00    -0.550 OA
ENDBRANCH  13  14
ENDBRANCH  12  13
ENDBRANCH  11  12
ENDBRANCH  10  11
ENDBRANCH   9  10
ENDBRANCH   8   9
ENDBRANCH   7   8
ENDBRANCH   6   7
ENDBRANCH   5   6
ENDBRANCH   4   5
ENDBRANCH   3   4
ENDBRANCH   2   3
ENDBRANCH   1   2
BRANCH   1  17
ATOM     17  C   UNL     1     136.175 133.449 114.634  1.00  0.00     0.000 C 
BRANCH  17  18
ATOM     18  C   UNL     1     134.693 133.033 114.581  1.00  0.00     0.000 C 
BRANCH  18  19
ATOM     19  C   UNL     1     133.877 133.849 113.562  1.00  0.00     0.000 C 
BRANCH  19  20
ATOM     20  C   UNL     1     133.095 134.994 114.230  1.00  0.00     0.000 C 
BRANCH  20  21
ATOM     21  C   UNL     1     133.350 136.351 113.549  1.00  0.00     0.000 C 
BRANCH  21  22
ATOM     22  C   UNL     1     134.403 136.266 112.424  1.00  0.00    -0.000 C 
BRANCH  22  23
ATOM     23  C   UNL     1     135.689 137.070 112.700  1.00  0.00    -0.000 C 
BRANCH  23  24
ATOM     24  C   UNL     1     136.047 137.245 114.189  1.00  0.00    -0.000 C 
BRANCH  24  25
ATOM     25  C   UNL     1     137.553 137.400 114.484  1.00  0.00    -0.000 C 
BRANCH  25  26
ATOM     26  C   UNL     1     138.149 138.782 114.144  1.00  0.00    -0.000 C 
BRANCH  26  27
ATOM     27  C   UNL     1     139.685 138.860 114.210  1.00  0.00    -0.000 C 
BRANCH  27  28
ATOM     28  C   UNL     1     140.192 140.261 114.585  1.00  0.00    -0.000 C 
BRANCH  28  29
ATOM     29  C   UNL     1     140.598 140.319 116.062  1.00  0.00    -0.003 C 
ATOM     30  C   UNL     1     140.292 141.686 116.665  1.00  0.00     0.004 C 
ENDBRANCH  28  29
ENDBRANCH  27  28
ENDBRANCH  26  27
ENDBRANCH  25  26
ENDBRANCH  24  25
ENDBRANCH  23  24
ENDBRANCH  22  23
ENDBRANCH  21  22
ENDBRANCH  20  21
ENDBRANCH  19  20
ENDBRANCH  18  19
ENDBRANCH  17  18
ENDBRANCH   1  17
TORSDOF 26
ENDMDL
