MODEL 1
REMARK VINA RESULT:    -2.975      0.000      0.000
REMARK INTER + INTRA:          -3.356
REMARK INTER:                  -3.323
REMARK INTRA:                  -0.033
REMARK UNBOUND:                -0.033
REMARK SMILES CCCC(=O)[O-]
REMARK SMILES IDX 3 1 4 2 5 3 6 4 2 5 1 6
REMARK H PARENT
REMARK Flexibility Score: inf
ROOT
ATOM      1  C   UNL     1     -13.854  -9.960   8.177  1.00  0.00     0.052 C 
ENDROOT
BRANCH   1   2
ATOM      2  C   UNL     1     -15.340  -9.816   8.067  1.00  0.00     0.041 C 
ATOM      3  O   UNL     1     -15.916 -10.025   6.967  1.00  0.00    -0.550 OA
ATOM      4  O   UNL     1     -16.082  -9.405   9.166  1.00  0.00    -0.550 OA
ENDBRANCH   1   2
BRANCH   1   5
ATOM      5  C   UNL     1     -13.303 -10.747   6.987  1.00  0.00     0.003 C 
ATOM      6  C   UNL     1     -12.174  -9.985   6.297  1.00  0.00     0.004 C 
ENDBRANCH   1   5
TORSDOF 2
ENDMDL
MODEL 2
REMARK VINA RESULT:    -2.952     13.730     14.167
REMARK INTER + INTRA:          -3.330
REMARK INTER:                  -3.324
REMARK INTRA:                  -0.006
REMARK UNBOUND:                -0.033
REMARK SMILES CCCC(=O)[O-]
REMARK SMILES IDX 3 1 4 2 5 3 6 4 2 5 1 6
REMARK H PARENT
REMARK Flexibility Score: inf
ROOT
ATOM      1  C   UNL     1     -11.000 -21.094  16.337  1.00  0.00     0.052 C 
ENDROOT
BRANCH   1   2
ATOM      2  C   UNL     1     -10.713 -20.532  14.980  1.00  0.00     0.041 C 
ATOM      3  O   UNL     1     -11.652 -20.101  14.261  1.00  0.00    -0.550 OA
ATOM      4  O   UNL     1      -9.413 -20.530  14.489  1.00  0.00    -0.550 OA
ENDBRANCH   1   2
BRANCH   1   5
ATOM      5  C   UNL     1     -11.756 -20.073  17.190  1.00  0.00     0.003 C 
ATOM      6  C   UNL     1     -11.415 -20.230  18.670  1.00  0.00     0.004 C 
ENDBRANCH   1   5
TORSDOF 2
ENDMDL
MODEL 3
REMARK VINA RESULT:    -2.925     14.612     15.044
REMARK INTER + INTRA:          -3.301
REMARK INTER:                  -3.293
REMARK INTRA:                  -0.007
REMARK UNBOUND:                -0.033
REMARK SMILES CCCC(=O)[O-]
REMARK SMILES IDX 3 1 4 2 5 3 6 4 2 5 1 6
REMARK H PARENT
REMARK Flexibility Score: inf
ROOT
ATOM      1  C   UNL     1     -11.931 -19.853  17.535  1.00  0.00     0.052 C 
ENDROOT
BRANCH   1   2
ATOM      2  C   UNL     1     -12.113 -20.063  19.006  1.00  0.00     0.041 C 
ATOM      3  O   UNL     1     -13.213 -19.788  19.554  1.00  0.00    -0.550 OA
ATOM      4  O   UNL     1     -11.052 -20.516  19.780  1.00  0.00    -0.550 OA
ENDBRANCH   1   2
BRANCH   1   5
ATOM      5  C   UNL     1     -11.014 -20.929  16.950  1.00  0.00     0.003 C 
ATOM      6  C   UNL     1     -10.984 -20.858  15.426  1.00  0.00     0.004 C 
ENDBRANCH   1   5
TORSDOF 2
ENDMDL
MODEL 4
REMARK VINA RESULT:    -2.916     14.470     14.982
REMARK INTER + INTRA:          -3.290
REMARK INTER:                  -3.277
REMARK INTRA:                  -0.013
REMARK UNBOUND:                -0.033
REMARK SMILES CCCC(=O)[O-]
REMARK SMILES IDX 3 1 4 2 5 3 6 4 2 5 1 6
REMARK H PARENT
REMARK Flexibility Score: inf
ROOT
ATOM      1  C   UNL     1     -11.796 -20.096  17.092  1.00  0.00     0.052 C 
ENDROOT
BRANCH   1   2
ATOM      2  C   UNL     1     -10.794 -20.806  16.236  1.00  0.00     0.041 C 
ATOM      3  O   UNL     1      -9.709 -21.207  16.733  1.00  0.00    -0.550 OA
ATOM      4  O   UNL     1     -11.036 -20.980  14.880  1.00  0.00    -0.550 OA
ENDBRANCH   1   2
BRANCH   1   5
ATOM      5  C   UNL     1     -11.426 -20.227  18.571  1.00  0.00     0.003 C 
ATOM      6  C   UNL     1     -12.637 -19.977  19.466  1.00  0.00     0.004 C 
ENDBRANCH   1   5
TORSDOF 2
ENDMDL
MODEL 5
REMARK VINA RESULT:    -2.902      0.215      1.326
REMARK INTER + INTRA:          -3.275
REMARK INTER:                  -3.248
REMARK INTRA:                  -0.027
REMARK UNBOUND:                -0.033
REMARK SMILES CCCC(=O)[O-]
REMARK SMILES IDX 3 1 4 2 5 3 6 4 2 5 1 6
REMARK H PARENT
REMARK Flexibility Score: inf
ROOT
ATOM      1  C   UNL     1     -13.690  -9.944   8.148  1.00  0.00     0.052 C 
ENDROOT
BRANCH   1   2
ATOM      2  C   UNL     1     -15.182  -9.824   8.167  1.00  0.00     0.041 C 
ATOM      3  O   UNL     1     -15.791  -9.675   9.259  1.00  0.00    -0.550 OA
ATOM      4  O   UNL     1     -15.903  -9.926   6.984  1.00  0.00    -0.550 OA
ENDBRANCH   1   2
BRANCH   1   5
ATOM      5  C   UNL     1     -13.234 -10.758   6.935  1.00  0.00     0.003 C 
ATOM      6  C   UNL     1     -12.055 -10.089   6.234  1.00  0.00     0.004 C 
ENDBRANCH   1   5
TORSDOF 2
ENDMDL
MODEL 6
REMARK VINA RESULT:    -2.824      1.688      2.963
REMARK INTER + INTRA:          -3.188
REMARK INTER:                  -3.187
REMARK INTRA:                  -0.001
REMARK UNBOUND:                -0.033
REMARK SMILES CCCC(=O)[O-]
REMARK SMILES IDX 3 1 4 2 5 3 6 4 2 5 1 6
REMARK H PARENT
REMARK Flexibility Score: inf
ROOT
ATOM      1  C   UNL     1     -13.543  -9.392   8.314  1.00  0.00     0.052 C 
ENDROOT
BRANCH   1   2
ATOM      2  C   UNL     1     -13.890 -10.138   7.064  1.00  0.00     0.041 C 
ATOM      3  O   UNL     1     -13.002 -10.388   6.208  1.00  0.00    -0.550 OA
ATOM      4  O   UNL     1     -15.206 -10.513   6.821  1.00  0.00    -0.550 OA
ENDBRANCH   1   2
BRANCH   1   5
ATOM      5  C   UNL     1     -14.156 -10.080   9.536  1.00  0.00     0.003 C 
ATOM      6  C   UNL     1     -15.407  -9.345  10.012  1.00  0.00     0.004 C 
ENDBRANCH   1   5
TORSDOF 2
ENDMDL
MODEL 7
REMARK VINA RESULT:    -2.812      1.413      2.146
REMARK INTER + INTRA:          -3.174
REMARK INTER:                  -3.166
REMARK INTRA:                  -0.009
REMARK UNBOUND:                -0.033
REMARK SMILES CCCC(=O)[O-]
REMARK SMILES IDX 3 1 4 2 5 3 6 4 2 5 1 6
REMARK H PARENT
REMARK Flexibility Score: inf
ROOT
ATOM      1  C   UNL     1     -12.897 -10.176   6.483  1.00  0.00     0.052 C 
ENDROOT
BRANCH   1   2
ATOM      2  C   UNL     1     -14.044 -10.214   7.443  1.00  0.00     0.041 C 
ATOM      3  O   UNL     1     -13.832 -10.184   8.684  1.00  0.00    -0.550 OA
ATOM      4  O   UNL     1     -15.344 -10.331   6.969  1.00  0.00    -0.550 OA
ENDBRANCH   1   2
BRANCH   1   5
ATOM      5  C   UNL     1     -11.963  -9.008   6.810  1.00  0.00     0.003 C 
ATOM      6  C   UNL     1     -10.719  -9.032   5.926  1.00  0.00     0.004 C 
ENDBRANCH   1   5
TORSDOF 2
ENDMDL
MODEL 8
REMARK VINA RESULT:    -2.746      2.998      3.979
REMARK INTER + INTRA:          -3.100
REMARK INTER:                  -3.090
REMARK INTRA:                  -0.010
REMARK UNBOUND:                -0.033
REMARK SMILES CCCC(=O)[O-]
REMARK SMILES IDX 3 1 4 2 5 3 6 4 2 5 1 6
REMARK H PARENT
REMARK Flexibility Score: inf
ROOT
ATOM      1  C   UNL     1     -13.016 -10.259   6.414  1.00  0.00     0.052 C 
ENDROOT
BRANCH   1   2
ATOM      2  C   UNL     1     -11.741 -10.849   6.927  1.00  0.00     0.041 C 
ATOM      3  O   UNL     1     -11.366 -10.618   8.107  1.00  0.00    -0.550 OA
ATOM      4  O   UNL     1     -10.941 -11.614   6.088  1.00  0.00    -0.550 OA
ENDBRANCH   1   2
BRANCH   1   5
ATOM      5  C   UNL     1     -14.013 -10.058   7.558  1.00  0.00     0.003 C 
ATOM      6  C   UNL     1     -15.450 -10.065   7.045  1.00  0.00     0.004 C 
ENDBRANCH   1   5
TORSDOF 2
ENDMDL
MODEL 9
REMARK VINA RESULT:    -2.692     14.420     14.949
REMARK INTER + INTRA:          -3.041
REMARK INTER:                  -2.995
REMARK INTRA:                  -0.045
REMARK UNBOUND:                -0.033
REMARK SMILES CCCC(=O)[O-]
REMARK SMILES IDX 3 1 4 2 5 3 6 4 2 5 1 6
REMARK H PARENT
REMARK Flexibility Score: inf
ROOT
ATOM      1  C   UNL     1     -12.860 -19.943  19.648  1.00  0.00     0.052 C 
ENDROOT
BRANCH   1   2
ATOM      2  C   UNL     1     -13.093 -18.469  19.758  1.00  0.00     0.041 C 
ATOM      3  O   UNL     1     -12.122 -17.685  19.926  1.00  0.00    -0.550 OA
ATOM      4  O   UNL     1     -14.387 -17.964  19.724  1.00  0.00    -0.550 OA
ENDBRANCH   1   2
BRANCH   1   5
ATOM      5  C   UNL     1     -11.537 -20.225  18.933  1.00  0.00     0.003 C 
ATOM      6  C   UNL     1     -11.708 -20.171  17.417  1.00  0.00     0.004 C 
ENDBRANCH   1   5
TORSDOF 2
ENDMDL
