MODEL 1
REMARK VINA RESULT:    -3.222      0.000      0.000
REMARK INTER + INTRA:          -3.854
REMARK INTER:                  -3.787
REMARK INTRA:                  -0.068
REMARK UNBOUND:                -0.068
REMARK SMILES CCCCC(=O)[O-]
REMARK SMILES IDX 4 1 5 2 6 3 7 4 3 5 2 6 1 7
REMARK H PARENT
REMARK Flexibility Score: inf
ROOT
ATOM      1  C   UNL     1     -13.682 -26.594 -18.118  1.00  0.00     0.053 C 
ENDROOT
BRANCH   1   2
ATOM      2  C   UNL     1     -14.864 -27.237 -18.773  1.00  0.00     0.041 C 
ATOM      3  O   UNL     1     -14.779 -28.411 -19.221  1.00  0.00    -0.550 OA
ATOM      4  O   UNL     1     -16.043 -26.523 -18.933  1.00  0.00    -0.550 OA
ENDBRANCH   1   2
BRANCH   1   5
ATOM      5  C   UNL     1     -13.338 -27.310 -16.809  1.00  0.00     0.006 C 
BRANCH   5   6
ATOM      6  C   UNL     1     -11.832 -27.572 -16.706  1.00  0.00    -0.003 C 
ATOM      7  C   UNL     1     -11.067 -26.832 -17.799  1.00  0.00     0.004 C 
ENDBRANCH   5   6
ENDBRANCH   1   5
TORSDOF 3
ENDMDL
MODEL 2
REMARK VINA RESULT:    -3.195      2.616      3.758
REMARK INTER + INTRA:          -3.824
REMARK INTER:                  -3.721
REMARK INTRA:                  -0.103
REMARK UNBOUND:                -0.068
REMARK SMILES CCCCC(=O)[O-]
REMARK SMILES IDX 4 1 5 2 6 3 7 4 3 5 2 6 1 7
REMARK H PARENT
REMARK Flexibility Score: inf
ROOT
ATOM      1  C   UNL     1     -12.809 -27.976 -17.200  1.00  0.00     0.053 C 
ENDROOT
BRANCH   1   2
ATOM      2  C   UNL     1     -11.523 -27.213 -17.241  1.00  0.00     0.041 C 
ATOM      3  O   UNL     1     -11.221 -26.532 -18.256  1.00  0.00    -0.550 OA
ATOM      4  O   UNL     1     -10.634 -27.294 -16.177  1.00  0.00    -0.550 OA
ENDBRANCH   1   2
BRANCH   1   5
ATOM      5  C   UNL     1     -13.928 -27.110 -16.613  1.00  0.00     0.006 C 
BRANCH   5   6
ATOM      6  C   UNL     1     -14.695 -26.379 -17.719  1.00  0.00    -0.003 C 
ATOM      7  C   UNL     1     -14.897 -27.276 -18.936  1.00  0.00     0.004 C 
ENDBRANCH   5   6
ENDBRANCH   1   5
TORSDOF 3
ENDMDL
MODEL 3
REMARK VINA RESULT:    -3.136     10.217     11.695
REMARK INTER + INTRA:          -3.754
REMARK INTER:                  -3.722
REMARK INTRA:                  -0.031
REMARK UNBOUND:                -0.068
REMARK SMILES CCCCC(=O)[O-]
REMARK SMILES IDX 4 1 5 2 6 3 7 4 3 5 2 6 1 7
REMARK H PARENT
REMARK Flexibility Score: inf
ROOT
ATOM      1  C   UNL     1     -25.442 -25.651 -18.598  1.00  0.00     0.053 C 
ENDROOT
BRANCH   1   2
ATOM      2  C   UNL     1     -26.617 -24.790 -18.256  1.00  0.00     0.041 C 
ATOM      3  O   UNL     1     -26.443 -23.602 -17.875  1.00  0.00    -0.550 OA
ATOM      4  O   UNL     1     -27.902 -25.314 -18.310  1.00  0.00    -0.550 OA
ENDBRANCH   1   2
BRANCH   1   5
ATOM      5  C   UNL     1     -24.215 -25.235 -17.780  1.00  0.00     0.006 C 
BRANCH   5   6
ATOM      6  C   UNL     1     -22.927 -25.427 -18.587  1.00  0.00    -0.003 C 
ATOM      7  C   UNL     1     -21.746 -25.744 -17.674  1.00  0.00     0.004 C 
ENDBRANCH   5   6
ENDBRANCH   1   5
TORSDOF 3
ENDMDL
MODEL 4
REMARK VINA RESULT:    -3.107      2.322      3.707
REMARK INTER + INTRA:          -3.720
REMARK INTER:                  -3.643
REMARK INTRA:                  -0.076
REMARK UNBOUND:                -0.068
REMARK SMILES CCCCC(=O)[O-]
REMARK SMILES IDX 4 1 5 2 6 3 7 4 3 5 2 6 1 7
REMARK H PARENT
REMARK Flexibility Score: inf
ROOT
ATOM      1  C   UNL     1     -13.377 -26.515 -18.290  1.00  0.00     0.053 C 
ENDROOT
BRANCH   1   2
ATOM      2  C   UNL     1     -12.248 -27.254 -17.644  1.00  0.00     0.041 C 
ATOM      3  O   UNL     1     -12.483 -28.170 -16.813  1.00  0.00    -0.550 OA
ATOM      4  O   UNL     1     -10.935 -26.896 -17.922  1.00  0.00    -0.550 OA
ENDBRANCH   1   2
BRANCH   1   5
ATOM      5  C   UNL     1     -14.499 -27.483 -18.678  1.00  0.00     0.006 C 
BRANCH   5   6
ATOM      6  C   UNL     1     -15.875 -26.840 -18.475  1.00  0.00    -0.003 C 
ATOM      7  C   UNL     1     -15.937 -26.075 -17.155  1.00  0.00     0.004 C 
ENDBRANCH   5   6
ENDBRANCH   1   5
TORSDOF 3
ENDMDL
MODEL 5
REMARK VINA RESULT:    -3.102     10.570     12.428
REMARK INTER + INTRA:          -3.714
REMARK INTER:                  -3.688
REMARK INTRA:                  -0.026
REMARK UNBOUND:                -0.068
REMARK SMILES CCCCC(=O)[O-]
REMARK SMILES IDX 4 1 5 2 6 3 7 4 3 5 2 6 1 7
REMARK H PARENT
REMARK Flexibility Score: inf
ROOT
ATOM      1  C   UNL     1     -24.983 -25.725 -18.657  1.00  0.00     0.053 C 
ENDROOT
BRANCH   1   2
ATOM      2  C   UNL     1     -23.669 -25.316 -18.070  1.00  0.00     0.041 C 
ATOM      3  O   UNL     1     -23.631 -24.549 -17.072  1.00  0.00    -0.550 OA
ATOM      4  O   UNL     1     -22.484 -25.743 -18.655  1.00  0.00    -0.550 OA
ENDBRANCH   1   2
BRANCH   1   5
ATOM      5  C   UNL     1     -26.084 -24.742 -18.246  1.00  0.00     0.006 C 
BRANCH   5   6
ATOM      6  C   UNL     1     -27.462 -25.410 -18.292  1.00  0.00    -0.003 C 
ATOM      7  C   UNL     1     -28.476 -24.640 -17.451  1.00  0.00     0.004 C 
ENDBRANCH   5   6
ENDBRANCH   1   5
TORSDOF 3
ENDMDL
MODEL 6
REMARK VINA RESULT:    -2.911     10.521     11.865
REMARK INTER + INTRA:          -3.490
REMARK INTER:                  -3.402
REMARK INTRA:                  -0.088
REMARK UNBOUND:                -0.068
REMARK SMILES CCCCC(=O)[O-]
REMARK SMILES IDX 4 1 5 2 6 3 7 4 3 5 2 6 1 7
REMARK H PARENT
REMARK Flexibility Score: inf
ROOT
ATOM      1  C   UNL     1     -25.787 -23.852 -17.281  1.00  0.00     0.053 C 
ENDROOT
BRANCH   1   2
ATOM      2  C   UNL     1     -26.338 -24.953 -18.132  1.00  0.00     0.041 C 
ATOM      3  O   UNL     1     -25.563 -25.783 -18.674  1.00  0.00    -0.550 OA
ATOM      4  O   UNL     1     -27.705 -25.032 -18.366  1.00  0.00    -0.550 OA
ENDBRANCH   1   2
BRANCH   1   5
ATOM      5  C   UNL     1     -24.274 -24.012 -17.109  1.00  0.00     0.006 C 
BRANCH   5   6
ATOM      6  C   UNL     1     -23.940 -24.667 -15.764  1.00  0.00    -0.003 C 
ATOM      7  C   UNL     1     -22.913 -25.782 -15.934  1.00  0.00     0.004 C 
ENDBRANCH   5   6
ENDBRANCH   1   5
TORSDOF 3
ENDMDL
MODEL 7
REMARK VINA RESULT:    -2.875     11.087     11.832
REMARK INTER + INTRA:          -3.447
REMARK INTER:                  -3.365
REMARK INTRA:                  -0.083
REMARK UNBOUND:                -0.068
REMARK SMILES CCCCC(=O)[O-]
REMARK SMILES IDX 4 1 5 2 6 3 7 4 3 5 2 6 1 7
REMARK H PARENT
REMARK Flexibility Score: inf
ROOT
ATOM      1  C   UNL     1     -13.495 -35.059 -27.976  1.00  0.00     0.053 C 
ENDROOT
BRANCH   1   2
ATOM      2  C   UNL     1     -14.947 -34.988 -27.618  1.00  0.00     0.041 C 
ATOM      3  O   UNL     1     -15.624 -33.970 -27.918  1.00  0.00    -0.550 OA
ATOM      4  O   UNL     1     -15.539 -36.025 -26.910  1.00  0.00    -0.550 OA
ENDBRANCH   1   2
BRANCH   1   5
ATOM      5  C   UNL     1     -12.707 -33.971 -27.240  1.00  0.00     0.006 C 
BRANCH   5   6
ATOM      6  C   UNL     1     -12.457 -34.367 -25.781  1.00  0.00    -0.003 C 
ATOM      7  C   UNL     1     -11.106 -35.058 -25.620  1.00  0.00     0.004 C 
ENDBRANCH   5   6
ENDBRANCH   1   5
TORSDOF 3
ENDMDL
MODEL 8
REMARK VINA RESULT:    -2.851     11.028     11.605
REMARK INTER + INTRA:          -3.418
REMARK INTER:                  -3.322
REMARK INTRA:                  -0.097
REMARK UNBOUND:                -0.068
REMARK SMILES CCCCC(=O)[O-]
REMARK SMILES IDX 4 1 5 2 6 3 7 4 3 5 2 6 1 7
REMARK H PARENT
REMARK Flexibility Score: inf
ROOT
ATOM      1  C   UNL     1     -11.044 -37.031 -23.989  1.00  0.00     0.053 C 
ENDROOT
BRANCH   1   2
ATOM      2  C   UNL     1     -12.339 -37.652 -23.569  1.00  0.00     0.041 C 
ATOM      3  O   UNL     1     -13.305 -37.708 -24.374  1.00  0.00    -0.550 OA
ATOM      4  O   UNL     1     -12.494 -38.124 -22.273  1.00  0.00    -0.550 OA
ENDBRANCH   1   2
BRANCH   1   5
ATOM      5  C   UNL     1     -11.177 -35.506 -24.058  1.00  0.00     0.006 C 
BRANCH   5   6
ATOM      6  C   UNL     1     -11.111 -35.014 -25.507  1.00  0.00    -0.003 C 
ATOM      7  C   UNL     1     -12.399 -34.301 -25.907  1.00  0.00     0.004 C 
ENDBRANCH   5   6
ENDBRANCH   1   5
TORSDOF 3
ENDMDL
MODEL 9
REMARK VINA RESULT:    -2.819      1.587      2.066
REMARK INTER + INTRA:          -3.381
REMARK INTER:                  -3.322
REMARK INTRA:                  -0.059
REMARK UNBOUND:                -0.068
REMARK SMILES CCCCC(=O)[O-]
REMARK SMILES IDX 4 1 5 2 6 3 7 4 3 5 2 6 1 7
REMARK H PARENT
REMARK Flexibility Score: inf
ROOT
ATOM      1  C   UNL     1     -14.202 -28.006 -18.450  1.00  0.00     0.053 C 
ENDROOT
BRANCH   1   2
ATOM      2  C   UNL     1     -15.197 -28.465 -17.431  1.00  0.00     0.041 C 
ATOM      3  O   UNL     1     -16.195 -27.750 -17.152  1.00  0.00    -0.550 OA
ATOM      4  O   UNL     1     -14.996 -29.662 -16.755  1.00  0.00    -0.550 OA
ENDBRANCH   1   2
BRANCH   1   5
ATOM      5  C   UNL     1     -13.310 -26.904 -17.869  1.00  0.00     0.006 C 
BRANCH   5   6
ATOM      6  C   UNL     1     -12.085 -27.502 -17.169  1.00  0.00    -0.003 C 
ATOM      7  C   UNL     1     -10.799 -26.822 -17.632  1.00  0.00     0.004 C 
ENDBRANCH   5   6
ENDBRANCH   1   5
TORSDOF 3
ENDMDL
