MODEL 1
REMARK VINA RESULT:    -6.877      0.000      0.000
REMARK INTER + INTRA:          -7.480
REMARK INTER:                  -7.480
REMARK INTRA:                   0.000
REMARK UNBOUND:                 0.000
REMARK SMILES Cc1cc(O)c2c(c1)C(=O)c1cc(O)cc(O)c1C2=O
REMARK SMILES IDX 1 1 2 2 8 3 7 4 6 5 4 6 3 7 19 8 20 9 18 10 11 11 9 12 10 13
REMARK SMILES IDX 12 14 13 15 15 16 16 17 5 18 17 20 14 22
REMARK H PARENT 5 19 17 21 14 23
REMARK Flexibility Score: inf
ROOT
ATOM      1  C   UNL     1      -9.529  35.379  -4.370  1.00  0.00     0.044 C 
ATOM      2  C   UNL     1     -10.926  35.420  -3.824  1.00  0.00    -0.047 A 
ATOM      3  C   UNL     1     -11.702  36.575  -3.962  1.00  0.00     0.016 A 
ATOM      4  C   UNL     1     -13.026  36.608  -3.494  1.00  0.00     0.038 A 
ATOM      5  C   UNL     1     -13.593  35.457  -2.901  1.00  0.00     0.076 A 
ATOM      6  C   UNL     1     -12.786  34.303  -2.722  1.00  0.00     0.127 A 
ATOM      7  C   UNL     1     -11.477  34.287  -3.215  1.00  0.00     0.050 A 
ATOM      8  C   UNL     1     -15.038  35.485  -2.554  1.00  0.00     0.201 C 
ATOM      9  O   UNL     1     -15.709  34.419  -2.579  1.00  0.00    -0.288 OA
ATOM     10  C   UNL     1     -15.725  36.788  -2.363  1.00  0.00     0.076 A 
ATOM     11  C   UNL     1     -15.156  37.936  -2.959  1.00  0.00     0.041 A 
ATOM     12  C   UNL     1     -13.831  37.847  -3.617  1.00  0.00     0.194 C 
ATOM     13  O   UNL     1     -13.378  38.834  -4.259  1.00  0.00    -0.289 OA
ATOM     14  C   UNL     1     -15.847  39.159  -2.919  1.00  0.00     0.059 A 
ATOM     15  C   UNL     1     -17.087  39.253  -2.282  1.00  0.00     0.120 A 
ATOM     16  C   UNL     1     -17.633  38.131  -1.658  1.00  0.00     0.093 A 
ATOM     17  C   UNL     1     -16.956  36.907  -1.666  1.00  0.00     0.131 A 
ENDROOT
BRANCH   6  18
ATOM     18  O   UNL     1     -13.229  33.170  -2.037  1.00  0.00    -0.507 OA
ATOM     19  H   UNL     1     -12.839  32.861  -1.157  1.00  0.00     0.293 HD
ENDBRANCH   6  18
BRANCH  17  20
ATOM     20  O   UNL     1     -17.521  35.853  -0.945  1.00  0.00    -0.507 OA
ATOM     21  H   UNL     1     -18.427  35.457  -1.150  1.00  0.00     0.293 HD
ENDBRANCH  17  20
BRANCH  15  22
ATOM     22  O   UNL     1     -17.781  40.460  -2.251  1.00  0.00    -0.508 OA
ATOM     23  H   UNL     1     -18.320  40.783  -3.047  1.00  0.00     0.293 HD
ENDBRANCH  15  22
TORSDOF 3
ENDMDL
MODEL 2
REMARK VINA RESULT:    -6.668      2.706      3.717
REMARK INTER + INTRA:          -7.252
REMARK INTER:                  -7.252
REMARK INTRA:                   0.000
REMARK UNBOUND:                 0.000
REMARK SMILES Cc1cc(O)c2c(c1)C(=O)c1cc(O)cc(O)c1C2=O
REMARK SMILES IDX 1 1 2 2 8 3 7 4 6 5 4 6 3 7 19 8 20 9 18 10 11 11 9 12 10 13
REMARK SMILES IDX 12 14 13 15 15 16 16 17 5 18 17 20 14 22
REMARK H PARENT 5 19 17 21 14 23
REMARK Flexibility Score: inf
ROOT
ATOM      1  C   UNL     1     -12.721  32.933  -2.084  1.00  0.00     0.044 C 
ATOM      2  C   UNL     1     -13.679  33.695  -1.217  1.00  0.00    -0.047 A 
ATOM      3  C   UNL     1     -14.349  34.815  -1.721  1.00  0.00     0.016 A 
ATOM      4  C   UNL     1     -15.280  35.509  -0.931  1.00  0.00     0.038 A 
ATOM      5  C   UNL     1     -15.567  35.059   0.377  1.00  0.00     0.076 A 
ATOM      6  C   UNL     1     -14.851  33.951   0.900  1.00  0.00     0.127 A 
ATOM      7  C   UNL     1     -13.943  33.264   0.088  1.00  0.00     0.050 A 
ATOM      8  C   UNL     1     -16.663  35.729   1.125  1.00  0.00     0.201 C 
ATOM      9  O   UNL     1     -17.333  35.079   1.972  1.00  0.00    -0.288 OA
ATOM     10  C   UNL     1     -17.088  37.100   0.741  1.00  0.00     0.076 A 
ATOM     11  C   UNL     1     -16.800  37.544  -0.569  1.00  0.00     0.041 A 
ATOM     12  C   UNL     1     -15.963  36.712  -1.464  1.00  0.00     0.194 C 
ATOM     13  O   UNL     1     -15.809  37.042  -2.673  1.00  0.00    -0.289 OA
ATOM     14  C   UNL     1     -17.305  38.778  -1.014  1.00  0.00     0.059 A 
ATOM     15  C   UNL     1     -18.079  39.576  -0.167  1.00  0.00     0.120 A 
ATOM     16  C   UNL     1     -18.331  39.158   1.140  1.00  0.00     0.093 A 
ATOM     17  C   UNL     1     -17.823  37.945   1.614  1.00  0.00     0.131 A 
ENDROOT
BRANCH   6  18
ATOM     18  O   UNL     1     -14.985  33.521   2.222  1.00  0.00    -0.507 OA
ATOM     19  H   UNL     1     -15.706  33.853   2.848  1.00  0.00     0.293 HD
ENDBRANCH   6  18
BRANCH  17  20
ATOM     20  O   UNL     1     -18.039  37.636   2.959  1.00  0.00    -0.507 OA
ATOM     21  H   UNL     1     -17.423  37.925   3.705  1.00  0.00     0.293 HD
ENDBRANCH  17  20
BRANCH  15  22
ATOM     22  O   UNL     1     -18.592  40.793  -0.609  1.00  0.00    -0.508 OA
ATOM     23  H   UNL     1     -18.498  41.639  -0.060  1.00  0.00     0.293 HD
ENDBRANCH  15  22
TORSDOF 3
ENDMDL
MODEL 3
REMARK VINA RESULT:    -6.202      2.446      6.455
REMARK INTER + INTRA:          -6.746
REMARK INTER:                  -6.746
REMARK INTRA:                   0.000
REMARK UNBOUND:                 0.000
REMARK SMILES Cc1cc(O)c2c(c1)C(=O)c1cc(O)cc(O)c1C2=O
REMARK SMILES IDX 1 1 2 2 8 3 7 4 6 5 4 6 3 7 19 8 20 9 18 10 11 11 9 12 10 13
REMARK SMILES IDX 12 14 13 15 15 16 16 17 5 18 17 20 14 22
REMARK H PARENT 5 19 17 21 14 23
REMARK Flexibility Score: inf
ROOT
ATOM      1  C   UNL     1     -17.897  35.783   3.125  1.00  0.00     0.044 C 
ATOM      2  C   UNL     1     -17.151  35.939   1.833  1.00  0.00    -0.047 A 
ATOM      3  C   UNL     1     -16.176  35.006   1.465  1.00  0.00     0.016 A 
ATOM      4  C   UNL     1     -15.502  35.119   0.238  1.00  0.00     0.038 A 
ATOM      5  C   UNL     1     -15.830  36.169  -0.650  1.00  0.00     0.076 A 
ATOM      6  C   UNL     1     -16.786  37.138  -0.253  1.00  0.00     0.127 A 
ATOM      7  C   UNL     1     -17.458  36.994   0.965  1.00  0.00     0.050 A 
ATOM      8  C   UNL     1     -15.203  36.169  -1.998  1.00  0.00     0.201 C 
ATOM      9  O   UNL     1     -15.822  36.664  -2.978  1.00  0.00    -0.288 OA
ATOM     10  C   UNL     1     -13.939  35.421  -2.224  1.00  0.00     0.076 A 
ATOM     11  C   UNL     1     -13.617  34.372  -1.334  1.00  0.00     0.041 A 
ATOM     12  C   UNL     1     -14.449  34.143  -0.129  1.00  0.00     0.194 C 
ATOM     13  O   UNL     1     -14.243  33.133   0.598  1.00  0.00    -0.289 OA
ATOM     14  C   UNL     1     -12.504  33.553  -1.593  1.00  0.00     0.059 A 
ATOM     15  C   UNL     1     -11.705  33.777  -2.717  1.00  0.00     0.120 A 
ATOM     16  C   UNL     1     -11.997  34.837  -3.576  1.00  0.00     0.093 A 
ATOM     17  C   UNL     1     -13.086  35.679  -3.329  1.00  0.00     0.131 A 
ENDROOT
BRANCH   6  18
ATOM     18  O   UNL     1     -17.076  38.272  -1.016  1.00  0.00    -0.507 OA
ATOM     19  H   UNL     1     -17.894  38.848  -0.873  1.00  0.00     0.293 HD
ENDBRANCH   6  18
BRANCH  17  20
ATOM     20  O   UNL     1     -13.262  36.772  -4.180  1.00  0.00    -0.507 OA
ATOM     21  H   UNL     1     -13.717  37.629  -3.902  1.00  0.00     0.293 HD
ENDBRANCH  17  20
BRANCH  15  22
ATOM     22  O   UNL     1     -10.609  32.960  -2.984  1.00  0.00    -0.508 OA
ATOM     23  H   UNL     1      -9.664  33.325  -2.989  1.00  0.00     0.293 HD
ENDBRANCH  15  22
TORSDOF 3
ENDMDL
MODEL 4
REMARK VINA RESULT:    -6.123      1.330      1.442
REMARK INTER + INTRA:          -6.660
REMARK INTER:                  -6.660
REMARK INTRA:                   0.000
REMARK UNBOUND:                 0.000
REMARK SMILES Cc1cc(O)c2c(c1)C(=O)c1cc(O)cc(O)c1C2=O
REMARK SMILES IDX 1 1 2 2 8 3 7 4 6 5 4 6 3 7 19 8 20 9 18 10 11 11 9 12 10 13
REMARK SMILES IDX 12 14 13 15 15 16 16 17 5 18 17 20 14 22
REMARK H PARENT 5 19 17 21 14 23
REMARK Flexibility Score: inf
ROOT
ATOM      1  C   UNL     1     -10.585  34.630  -4.032  1.00  0.00     0.044 C 
ATOM      2  C   UNL     1     -11.760  35.007  -3.179  1.00  0.00    -0.047 A 
ATOM      3  C   UNL     1     -12.633  36.020  -3.589  1.00  0.00     0.016 A 
ATOM      4  C   UNL     1     -13.760  36.350  -2.819  1.00  0.00     0.038 A 
ATOM      5  C   UNL     1     -14.034  35.637  -1.630  1.00  0.00     0.076 A 
ATOM      6  C   UNL     1     -13.121  34.642  -1.195  1.00  0.00     0.127 A 
ATOM      7  C   UNL     1     -12.016  34.317  -1.989  1.00  0.00     0.050 A 
ATOM      8  C   UNL     1     -15.312  35.914  -0.923  1.00  0.00     0.201 C 
ATOM      9  O   UNL     1     -15.873  35.002  -0.261  1.00  0.00    -0.288 OA
ATOM     10  C   UNL     1     -16.016  37.203  -1.151  1.00  0.00     0.076 A 
ATOM     11  C   UNL     1     -15.739  37.912  -2.341  1.00  0.00     0.041 A 
ATOM     12  C   UNL     1     -14.663  37.446  -3.246  1.00  0.00     0.194 C 
ATOM     13  O   UNL     1     -14.497  37.999  -4.369  1.00  0.00    -0.289 OA
ATOM     14  C   UNL     1     -16.484  39.061  -2.659  1.00  0.00     0.059 A 
ATOM     15  C   UNL     1     -17.487  39.517  -1.798  1.00  0.00     0.120 A 
ATOM     16  C   UNL     1     -17.735  38.841  -0.603  1.00  0.00     0.093 A 
ATOM     17  C   UNL     1     -16.994  37.708  -0.255  1.00  0.00     0.131 A 
ENDROOT
BRANCH   6  18
ATOM     18  O   UNL     1     -13.252  33.978   0.028  1.00  0.00    -0.507 OA
ATOM     19  H   UNL     1     -13.521  33.007   0.110  1.00  0.00     0.293 HD
ENDBRANCH   6  18
BRANCH  17  20
ATOM     20  O   UNL     1     -17.236  37.139   0.998  1.00  0.00    -0.507 OA
ATOM     21  H   UNL     1     -17.282  36.143   1.160  1.00  0.00     0.293 HD
ENDBRANCH  17  20
BRANCH  15  22
ATOM     22  O   UNL     1     -18.236  40.647  -2.116  1.00  0.00    -0.508 OA
ATOM     23  H   UNL     1     -18.756  40.713  -2.983  1.00  0.00     0.293 HD
ENDBRANCH  15  22
TORSDOF 3
ENDMDL
MODEL 5
REMARK VINA RESULT:    -6.055      1.830      6.399
REMARK INTER + INTRA:          -6.586
REMARK INTER:                  -6.586
REMARK INTRA:                   0.000
REMARK UNBOUND:                 0.000
REMARK SMILES Cc1cc(O)c2c(c1)C(=O)c1cc(O)cc(O)c1C2=O
REMARK SMILES IDX 1 1 2 2 8 3 7 4 6 5 4 6 3 7 19 8 20 9 18 10 11 11 9 12 10 13
REMARK SMILES IDX 12 14 13 15 15 16 16 17 5 18 17 20 14 22
REMARK H PARENT 5 19 17 21 14 23
REMARK Flexibility Score: inf
ROOT
ATOM      1  C   UNL     1     -18.625  38.885   1.984  1.00  0.00     0.044 C 
ATOM      2  C   UNL     1     -17.734  38.583   0.816  1.00  0.00    -0.047 A 
ATOM      3  C   UNL     1     -17.054  37.363   0.746  1.00  0.00     0.016 A 
ATOM      4  C   UNL     1     -16.252  37.052  -0.365  1.00  0.00     0.038 A 
ATOM      5  C   UNL     1     -16.150  37.966  -1.438  1.00  0.00     0.076 A 
ATOM      6  C   UNL     1     -16.805  39.222  -1.341  1.00  0.00     0.127 A 
ATOM      7  C   UNL     1     -17.614  39.500  -0.234  1.00  0.00     0.050 A 
ATOM      8  C   UNL     1     -15.414  37.540  -2.657  1.00  0.00     0.201 C 
ATOM      9  O   UNL     1     -15.747  37.998  -3.782  1.00  0.00    -0.288 OA
ATOM     10  C   UNL     1     -14.419  36.439  -2.570  1.00  0.00     0.076 A 
ATOM     11  C   UNL     1     -14.526  35.527  -1.497  1.00  0.00     0.041 A 
ATOM     12  C   UNL     1     -15.511  35.769  -0.416  1.00  0.00     0.194 C 
ATOM     13  O   UNL     1     -15.699  34.895   0.475  1.00  0.00    -0.289 OA
ATOM     14  C   UNL     1     -13.692  34.396  -1.456  1.00  0.00     0.059 A 
ATOM     15  C   UNL     1     -12.748  34.174  -2.462  1.00  0.00     0.120 A 
ATOM     16  C   UNL     1     -12.613  35.094  -3.502  1.00  0.00     0.093 A 
ATOM     17  C   UNL     1     -13.416  36.238  -3.554  1.00  0.00     0.131 A 
ENDROOT
BRANCH   6  18
ATOM     18  O   UNL     1     -16.656  40.228  -2.298  1.00  0.00    -0.507 OA
ATOM     19  H   UNL     1     -16.706  41.214  -2.083  1.00  0.00     0.293 HD
ENDBRANCH   6  18
BRANCH  17  20
ATOM     20  O   UNL     1     -13.162  37.158  -4.574  1.00  0.00    -0.507 OA
ATOM     21  H   UNL     1     -13.885  37.680  -5.048  1.00  0.00     0.293 HD
ENDBRANCH  17  20
BRANCH  15  22
ATOM     22  O   UNL     1     -11.930  33.048  -2.432  1.00  0.00    -0.508 OA
ATOM     23  H   UNL     1     -11.267  32.853  -3.174  1.00  0.00     0.293 HD
ENDBRANCH  15  22
TORSDOF 3
ENDMDL
MODEL 6
REMARK VINA RESULT:    -6.039      2.145      3.806
REMARK INTER + INTRA:          -6.568
REMARK INTER:                  -6.568
REMARK INTRA:                   0.000
REMARK UNBOUND:                 0.000
REMARK SMILES Cc1cc(O)c2c(c1)C(=O)c1cc(O)cc(O)c1C2=O
REMARK SMILES IDX 1 1 2 2 8 3 7 4 6 5 4 6 3 7 19 8 20 9 18 10 11 11 9 12 10 13
REMARK SMILES IDX 12 14 13 15 15 16 16 17 5 18 17 20 14 22
REMARK H PARENT 5 19 17 21 14 23
REMARK Flexibility Score: inf
ROOT
ATOM      1  C   UNL     1     -12.672  32.772  -2.161  1.00  0.00     0.044 C 
ATOM      2  C   UNL     1     -13.350  34.110  -2.157  1.00  0.00    -0.047 A 
ATOM      3  C   UNL     1     -14.177  34.477  -1.090  1.00  0.00     0.016 A 
ATOM      4  C   UNL     1     -14.781  35.745  -1.056  1.00  0.00     0.038 A 
ATOM      5  C   UNL     1     -14.532  36.672  -2.093  1.00  0.00     0.076 A 
ATOM      6  C   UNL     1     -13.729  36.278  -3.195  1.00  0.00     0.127 A 
ATOM      7  C   UNL     1     -13.123  35.018  -3.197  1.00  0.00     0.050 A 
ATOM      8  C   UNL     1     -15.069  38.050  -1.946  1.00  0.00     0.201 C 
ATOM      9  O   UNL     1     -14.456  39.020  -2.467  1.00  0.00    -0.288 OA
ATOM     10  C   UNL     1     -16.214  38.303  -1.033  1.00  0.00     0.076 A 
ATOM     11  C   UNL     1     -16.458  37.374   0.002  1.00  0.00     0.041 A 
ATOM     12  C   UNL     1     -15.681  36.114   0.063  1.00  0.00     0.194 C 
ATOM     13  O   UNL     1     -15.805  35.343   1.054  1.00  0.00    -0.289 OA
ATOM     14  C   UNL     1     -17.443  37.647   0.968  1.00  0.00     0.059 A 
ATOM     15  C   UNL     1     -18.192  38.825   0.903  1.00  0.00     0.120 A 
ATOM     16  C   UNL     1     -17.981  39.725  -0.142  1.00  0.00     0.093 A 
ATOM     17  C   UNL     1     -17.022  39.467  -1.126  1.00  0.00     0.131 A 
ENDROOT
BRANCH   6  18
ATOM     18  O   UNL     1     -13.535  37.087  -4.316  1.00  0.00    -0.507 OA
ATOM     19  H   UNL     1     -13.762  36.800  -5.258  1.00  0.00     0.293 HD
ENDBRANCH   6  18
BRANCH  17  20
ATOM     20  O   UNL     1     -16.930  40.368  -2.189  1.00  0.00    -0.507 OA
ATOM     21  H   UNL     1     -17.530  41.174  -2.292  1.00  0.00     0.293 HD
ENDBRANCH  17  20
BRANCH  15  22
ATOM     22  O   UNL     1     -19.159  39.105   1.865  1.00  0.00    -0.508 OA
ATOM     23  H   UNL     1     -20.098  38.728   1.800  1.00  0.00     0.293 HD
ENDBRANCH  15  22
TORSDOF 3
ENDMDL
MODEL 7
REMARK VINA RESULT:    -6.006     10.088     12.180
REMARK INTER + INTRA:          -6.533
REMARK INTER:                  -6.533
REMARK INTRA:                   0.000
REMARK UNBOUND:                 0.000
REMARK SMILES Cc1cc(O)c2c(c1)C(=O)c1cc(O)cc(O)c1C2=O
REMARK SMILES IDX 1 1 2 2 8 3 7 4 6 5 4 6 3 7 19 8 20 9 18 10 11 11 9 12 10 13
REMARK SMILES IDX 12 14 13 15 15 16 16 17 5 18 17 20 14 22
REMARK H PARENT 5 19 17 21 14 23
REMARK Flexibility Score: inf
ROOT
ATOM      1  C   UNL     1     -19.754  43.283  -9.642  1.00  0.00     0.044 C 
ATOM      2  C   UNL     1     -21.109  42.863  -9.153  1.00  0.00    -0.047 A 
ATOM      3  C   UNL     1     -21.246  41.732  -8.342  1.00  0.00     0.016 A 
ATOM      4  C   UNL     1     -22.504  41.356  -7.843  1.00  0.00     0.038 A 
ATOM      5  C   UNL     1     -23.641  42.142  -8.138  1.00  0.00     0.076 A 
ATOM      6  C   UNL     1     -23.504  43.262  -8.998  1.00  0.00     0.127 A 
ATOM      7  C   UNL     1     -22.238  43.628  -9.466  1.00  0.00     0.050 A 
ATOM      8  C   UNL     1     -24.924  41.797  -7.471  1.00  0.00     0.201 C 
ATOM      9  O   UNL     1     -25.764  42.702  -7.221  1.00  0.00    -0.288 OA
ATOM     10  C   UNL     1     -25.132  40.426  -6.936  1.00  0.00     0.076 A 
ATOM     11  C   UNL     1     -23.993  39.645  -6.643  1.00  0.00     0.041 A 
ATOM     12  C   UNL     1     -22.644  40.138  -7.010  1.00  0.00     0.194 C 
ATOM     13  O   UNL     1     -21.618  39.506  -6.638  1.00  0.00    -0.289 OA
ATOM     14  C   UNL     1     -24.144  38.400  -6.007  1.00  0.00     0.059 A 
ATOM     15  C   UNL     1     -25.414  37.922  -5.677  1.00  0.00     0.120 A 
ATOM     16  C   UNL     1     -26.544  38.673  -6.002  1.00  0.00     0.093 A 
ATOM     17  C   UNL     1     -26.422  39.905  -6.652  1.00  0.00     0.131 A 
ENDROOT
BRANCH   6  18
ATOM     18  O   UNL     1     -24.595  44.016  -9.436  1.00  0.00    -0.507 OA
ATOM     19  H   UNL     1     -24.727  44.301 -10.397  1.00  0.00     0.293 HD
ENDBRANCH   6  18
BRANCH  17  20
ATOM     20  O   UNL     1     -27.599  40.556  -7.026  1.00  0.00    -0.507 OA
ATOM     21  H   UNL     1     -27.814  40.821  -7.977  1.00  0.00     0.293 HD
ENDBRANCH  17  20
BRANCH  15  22
ATOM     22  O   UNL     1     -25.567  36.695  -5.036  1.00  0.00    -0.508 OA
ATOM     23  H   UNL     1     -26.339  36.520  -4.403  1.00  0.00     0.293 HD
ENDBRANCH  15  22
TORSDOF 3
ENDMDL
MODEL 8
REMARK VINA RESULT:    -5.980      1.434      6.347
REMARK INTER + INTRA:          -6.504
REMARK INTER:                  -6.504
REMARK INTRA:                   0.000
REMARK UNBOUND:                 0.000
REMARK SMILES Cc1cc(O)c2c(c1)C(=O)c1cc(O)cc(O)c1C2=O
REMARK SMILES IDX 1 1 2 2 8 3 7 4 6 5 4 6 3 7 19 8 20 9 18 10 11 11 9 12 10 13
REMARK SMILES IDX 12 14 13 15 15 16 16 17 5 18 17 20 14 22
REMARK H PARENT 5 19 17 21 14 23
REMARK Flexibility Score: inf
ROOT
ATOM      1  C   UNL     1     -18.381  38.687  -2.014  1.00  0.00     0.044 C 
ATOM      2  C   UNL     1     -16.954  38.481  -2.428  1.00  0.00    -0.047 A 
ATOM      3  C   UNL     1     -16.393  37.199  -2.414  1.00  0.00     0.016 A 
ATOM      4  C   UNL     1     -15.072  36.990  -2.842  1.00  0.00     0.038 A 
ATOM      5  C   UNL     1     -14.306  38.078  -3.319  1.00  0.00     0.076 A 
ATOM      6  C   UNL     1     -14.864  39.383  -3.288  1.00  0.00     0.127 A 
ATOM      7  C   UNL     1     -16.188  39.563  -2.876  1.00  0.00     0.050 A 
ATOM      8  C   UNL     1     -12.968  37.794  -3.899  1.00  0.00     0.201 C 
ATOM      9  O   UNL     1     -12.508  38.535  -4.808  1.00  0.00    -0.288 OA
ATOM     10  C   UNL     1     -12.262  36.535  -3.544  1.00  0.00     0.076 A 
ATOM     11  C   UNL     1     -13.032  35.450  -3.069  1.00  0.00     0.041 A 
ATOM     12  C   UNL     1     -14.477  35.634  -2.794  1.00  0.00     0.194 C 
ATOM     13  O   UNL     1     -15.194  34.640  -2.494  1.00  0.00    -0.289 OA
ATOM     14  C   UNL     1     -12.422  34.202  -2.855  1.00  0.00     0.059 A 
ATOM     15  C   UNL     1     -11.057  34.029  -3.093  1.00  0.00     0.120 A 
ATOM     16  C   UNL     1     -10.286  35.109  -3.524  1.00  0.00     0.093 A 
ATOM     17  C   UNL     1     -10.864  36.366  -3.725  1.00  0.00     0.131 A 
ENDROOT
BRANCH   6  18
ATOM     18  O   UNL     1     -14.133  40.525  -3.624  1.00  0.00    -0.507 OA
ATOM     19  H   UNL     1     -13.158  40.652  -3.391  1.00  0.00     0.293 HD
ENDBRANCH   6  18
BRANCH  17  20
ATOM     20  O   UNL     1     -10.014  37.419  -4.068  1.00  0.00    -0.507 OA
ATOM     21  H   UNL     1      -9.269  37.339  -4.745  1.00  0.00     0.293 HD
ENDBRANCH  17  20
BRANCH  15  22
ATOM     22  O   UNL     1     -10.452  32.790  -2.894  1.00  0.00    -0.508 OA
ATOM     23  H   UNL     1      -9.444  32.682  -2.920  1.00  0.00     0.293 HD
ENDBRANCH  15  22
TORSDOF 3
ENDMDL
MODEL 9
REMARK VINA RESULT:    -5.919      2.155      3.553
REMARK INTER + INTRA:          -6.438
REMARK INTER:                  -6.438
REMARK INTRA:                   0.000
REMARK UNBOUND:                 0.000
REMARK SMILES Cc1cc(O)c2c(c1)C(=O)c1cc(O)cc(O)c1C2=O
REMARK SMILES IDX 1 1 2 2 8 3 7 4 6 5 4 6 3 7 19 8 20 9 18 10 11 11 9 12 10 13
REMARK SMILES IDX 12 14 13 15 15 16 16 17 5 18 17 20 14 22
REMARK H PARENT 5 19 17 21 14 23
REMARK Flexibility Score: inf
ROOT
ATOM      1  C   UNL     1     -10.265  39.962  -6.394  1.00  0.00     0.044 C 
ATOM      2  C   UNL     1     -10.727  38.882  -5.462  1.00  0.00    -0.047 A 
ATOM      3  C   UNL     1     -12.083  38.764  -5.137  1.00  0.00     0.016 A 
ATOM      4  C   UNL     1     -12.531  37.729  -4.300  1.00  0.00     0.038 A 
ATOM      5  C   UNL     1     -11.612  36.778  -3.802  1.00  0.00     0.076 A 
ATOM      6  C   UNL     1     -10.232  36.929  -4.097  1.00  0.00     0.127 A 
ATOM      7  C   UNL     1      -9.812  37.956  -4.949  1.00  0.00     0.050 A 
ATOM      8  C   UNL     1     -12.146  35.616  -3.044  1.00  0.00     0.201 C 
ATOM      9  O   UNL     1     -11.537  34.514  -3.075  1.00  0.00    -0.288 OA
ATOM     10  C   UNL     1     -13.486  35.702  -2.408  1.00  0.00     0.076 A 
ATOM     11  C   UNL     1     -14.402  36.654  -2.911  1.00  0.00     0.041 A 
ATOM     12  C   UNL     1     -13.965  37.630  -3.936  1.00  0.00     0.194 C 
ATOM     13  O   UNL     1     -14.809  38.395  -4.480  1.00  0.00    -0.289 OA
ATOM     14  C   UNL     1     -15.723  36.672  -2.431  1.00  0.00     0.059 A 
ATOM     15  C   UNL     1     -16.135  35.767  -1.450  1.00  0.00     0.120 A 
ATOM     16  C   UNL     1     -15.222  34.853  -0.923  1.00  0.00     0.093 A 
ATOM     17  C   UNL     1     -13.897  34.827  -1.369  1.00  0.00     0.131 A 
ENDROOT
BRANCH   6  18
ATOM     18  O   UNL     1      -9.247  36.107  -3.545  1.00  0.00    -0.507 OA
ATOM     19  H   UNL     1      -8.660  35.493  -4.093  1.00  0.00     0.293 HD
ENDBRANCH   6  18
BRANCH  17  20
ATOM     20  O   UNL     1     -13.019  33.948  -0.731  1.00  0.00    -0.507 OA
ATOM     21  H   UNL     1     -12.035  33.882  -0.951  1.00  0.00     0.293 HD
ENDBRANCH  17  20
BRANCH  15  22
ATOM     22  O   UNL     1     -17.446  35.774  -0.981  1.00  0.00    -0.508 OA
ATOM     23  H   UNL     1     -18.214  36.095  -1.560  1.00  0.00     0.293 HD
ENDBRANCH  15  22
TORSDOF 3
ENDMDL
