MODEL 1
REMARK VINA RESULT:    -5.490      0.000      0.000
REMARK INTER + INTRA:          -8.238
REMARK INTER:                  -7.415
REMARK INTRA:                  -0.823
REMARK UNBOUND:                -0.823
REMARK SMILES CC(=O)CCC=C(C)CCC=C(C)C
REMARK SMILES IDX 7 1 6 2 8 3 9 4 10 5 11 6 13 7 12 8 14 9 5 10 4 11 2 12 3 13
REMARK SMILES IDX 1 14
REMARK H PARENT
REMARK Flexibility Score: inf
ROOT
ATOM      1  C   UNL     1      -8.092  23.667  67.235  1.00  0.00    -0.077 C 
ATOM      2  C   UNL     1      -8.387  22.485  66.649  1.00  0.00    -0.028 C 
ATOM      3  C   UNL     1      -8.023  24.954  66.446  1.00  0.00     0.039 C 
ENDROOT
BRANCH   1   4
ATOM      4  C   UNL     1      -7.811  23.701  68.722  1.00  0.00     0.034 C 
BRANCH   4   5
ATOM      5  C   UNL     1      -6.875  22.557  69.127  1.00  0.00     0.032 C 
BRANCH   5   6
ATOM      6  C   UNL     1      -7.347  21.909  70.404  1.00  0.00    -0.028 C 
ATOM      7  C   UNL     1      -7.552  19.639  69.365  1.00  0.00     0.039 C 
ATOM      8  C   UNL     1      -7.633  20.595  70.534  1.00  0.00    -0.080 C 
ATOM      9  C   UNL     1      -8.059  20.080  71.884  1.00  0.00     0.039 C 
ENDBRANCH   5   6
ENDBRANCH   4   5
ENDBRANCH   1   4
BRANCH   2  10
ATOM     10  C   UNL     1      -8.731  22.316  65.190  1.00  0.00     0.035 C 
BRANCH  10  11
ATOM     11  C   UNL     1      -7.759  21.345  64.514  1.00  0.00     0.079 C 
BRANCH  11  12
ATOM     12  C   UNL     1      -8.073  19.924  64.894  1.00  0.00     0.130 C 
ATOM     13  O   UNL     1      -9.125  19.417  64.531  1.00  0.00    -0.300 OA
ATOM     14  C   UNL     1      -7.117  19.133  65.733  1.00  0.00     0.087 C 
ENDBRANCH  11  12
ENDBRANCH  10  11
ENDBRANCH   2  10
TORSDOF 6
ENDMDL
MODEL 2
REMARK VINA RESULT:    -5.414      2.241      5.545
REMARK INTER + INTRA:          -8.136
REMARK INTER:                  -7.328
REMARK INTRA:                  -0.808
REMARK UNBOUND:                -0.823
REMARK SMILES CC(=O)CCC=C(C)CCC=C(C)C
REMARK SMILES IDX 7 1 6 2 8 3 9 4 10 5 11 6 13 7 12 8 14 9 5 10 4 11 2 12 3 13
REMARK SMILES IDX 1 14
REMARK H PARENT
REMARK Flexibility Score: inf
ROOT
ATOM      1  C   UNL     1      -7.634  22.725  67.503  1.00  0.00    -0.077 C 
ATOM      2  C   UNL     1      -7.415  21.406  67.706  1.00  0.00    -0.028 C 
ATOM      3  C   UNL     1      -7.156  23.773  68.481  1.00  0.00     0.039 C 
ENDROOT
BRANCH   1   4
ATOM      4  C   UNL     1      -8.388  23.164  66.266  1.00  0.00     0.034 C 
BRANCH   4   5
ATOM      5  C   UNL     1      -8.878  21.951  65.467  1.00  0.00     0.032 C 
BRANCH   5   6
ATOM      6  C   UNL     1      -8.378  22.011  64.046  1.00  0.00    -0.028 C 
ATOM      7  C   UNL     1      -6.685  20.198  64.396  1.00  0.00     0.039 C 
ATOM      8  C   UNL     1      -7.409  21.214  63.543  1.00  0.00    -0.080 C 
ATOM      9  C   UNL     1      -7.036  21.363  62.091  1.00  0.00     0.039 C 
ENDBRANCH   5   6
ENDBRANCH   4   5
ENDBRANCH   1   4
BRANCH   2  10
ATOM     10  C   UNL     1      -6.640  20.837  68.868  1.00  0.00     0.035 C 
BRANCH  10  11
ATOM     11  C   UNL     1      -7.509  19.868  69.676  1.00  0.00     0.079 C 
BRANCH  11  12
ATOM     12  C   UNL     1      -7.862  20.456  71.014  1.00  0.00     0.130 C 
ATOM     13  O   UNL     1      -7.889  21.671  71.155  1.00  0.00    -0.300 OA
ATOM     14  C   UNL     1      -8.157  19.565  72.182  1.00  0.00     0.087 C 
ENDBRANCH  11  12
ENDBRANCH  10  11
ENDBRANCH   2  10
TORSDOF 6
ENDMDL
MODEL 3
REMARK VINA RESULT:    -5.341      2.240      4.207
REMARK INTER + INTRA:          -8.037
REMARK INTER:                  -7.224
REMARK INTRA:                  -0.813
REMARK UNBOUND:                -0.823
REMARK SMILES CC(=O)CCC=C(C)CCC=C(C)C
REMARK SMILES IDX 7 1 6 2 8 3 9 4 10 5 11 6 13 7 12 8 14 9 5 10 4 11 2 12 3 13
REMARK SMILES IDX 1 14
REMARK H PARENT
REMARK Flexibility Score: inf
ROOT
ATOM      1  C   UNL     1      -7.990  20.725  66.570  1.00  0.00    -0.077 C 
ATOM      2  C   UNL     1      -8.359  21.788  67.319  1.00  0.00    -0.028 C 
ATOM      3  C   UNL     1      -7.615  20.866  65.113  1.00  0.00     0.039 C 
ENDROOT
BRANCH   1   4
ATOM      4  C   UNL     1      -7.962  19.352  67.206  1.00  0.00     0.034 C 
BRANCH   4   5
ATOM      5  C   UNL     1      -6.899  19.283  68.308  1.00  0.00     0.032 C 
BRANCH   5   6
ATOM      6  C   UNL     1      -7.540  19.047  69.653  1.00  0.00    -0.028 C 
ATOM      7  C   UNL     1      -7.045  21.361  70.474  1.00  0.00     0.039 C 
ATOM      8  C   UNL     1      -7.635  19.978  70.628  1.00  0.00    -0.080 C 
ATOM      9  C   UNL     1      -8.337  19.609  71.909  1.00  0.00     0.039 C 
ENDBRANCH   5   6
ENDBRANCH   4   5
ENDBRANCH   1   4
BRANCH   2  10
ATOM     10  C   UNL     1      -8.386  23.214  66.825  1.00  0.00     0.035 C 
BRANCH  10  11
ATOM     11  C   UNL     1      -7.531  24.114  67.723  1.00  0.00     0.079 C 
BRANCH  11  12
ATOM     12  C   UNL     1      -8.394  24.888  68.679  1.00  0.00     0.130 C 
ATOM     13  O   UNL     1      -8.925  24.314  69.619  1.00  0.00    -0.300 OA
ATOM     14  C   UNL     1      -8.626  26.355  68.477  1.00  0.00     0.087 C 
ENDBRANCH  11  12
ENDBRANCH  10  11
ENDBRANCH   2  10
TORSDOF 6
ENDMDL
MODEL 4
REMARK VINA RESULT:    -5.334      2.600      5.923
REMARK INTER + INTRA:          -8.027
REMARK INTER:                  -6.929
REMARK INTRA:                  -1.099
REMARK UNBOUND:                -0.823
REMARK SMILES CC(=O)CCC=C(C)CCC=C(C)C
REMARK SMILES IDX 7 1 6 2 8 3 9 4 10 5 11 6 13 7 12 8 14 9 5 10 4 11 2 12 3 13
REMARK SMILES IDX 1 14
REMARK H PARENT
REMARK Flexibility Score: inf
ROOT
ATOM      1  C   UNL     1      -7.750  20.012  67.668  1.00  0.00    -0.077 C 
ATOM      2  C   UNL     1      -8.780  20.739  68.157  1.00  0.00    -0.028 C 
ATOM      3  C   UNL     1      -6.328  20.232  68.130  1.00  0.00     0.039 C 
ENDROOT
BRANCH   1   4
ATOM      4  C   UNL     1      -8.027  18.955  66.621  1.00  0.00     0.034 C 
BRANCH   4   5
ATOM      5  C   UNL     1      -8.973  19.492  65.541  1.00  0.00     0.032 C 
BRANCH   5   6
ATOM      6  C   UNL     1      -8.200  19.927  64.322  1.00  0.00    -0.028 C 
ATOM      7  C   UNL     1      -8.386  22.363  64.874  1.00  0.00     0.039 C 
ATOM      8  C   UNL     1      -7.907  21.211  64.020  1.00  0.00    -0.080 C 
ATOM      9  C   UNL     1      -7.092  21.493  62.785  1.00  0.00     0.039 C 
ENDBRANCH   5   6
ENDBRANCH   4   5
ENDBRANCH   1   4
BRANCH   2  10
ATOM     10  C   UNL     1      -8.651  21.788  69.233  1.00  0.00     0.035 C 
BRANCH  10  11
ATOM     11  C   UNL     1      -9.123  21.239  70.584  1.00  0.00     0.079 C 
BRANCH  11  12
ATOM     12  C   UNL     1      -7.985  20.591  71.323  1.00  0.00     0.130 C 
ATOM     13  O   UNL     1      -6.945  21.211  71.500  1.00  0.00    -0.300 OA
ATOM     14  C   UNL     1      -8.106  19.185  71.825  1.00  0.00     0.087 C 
ENDBRANCH  11  12
ENDBRANCH  10  11
ENDBRANCH   2  10
TORSDOF 6
ENDMDL
MODEL 5
REMARK VINA RESULT:    -5.304      1.991      3.681
REMARK INTER + INTRA:          -7.987
REMARK INTER:                  -7.238
REMARK INTRA:                  -0.749
REMARK UNBOUND:                -0.823
REMARK SMILES CC(=O)CCC=C(C)CCC=C(C)C
REMARK SMILES IDX 7 1 6 2 8 3 9 4 10 5 11 6 13 7 12 8 14 9 5 10 4 11 2 12 3 13
REMARK SMILES IDX 1 14
REMARK H PARENT
REMARK Flexibility Score: inf
ROOT
ATOM      1  C   UNL     1      -7.684  19.334  66.554  1.00  0.00    -0.077 C 
ATOM      2  C   UNL     1      -7.562  20.555  65.987  1.00  0.00    -0.028 C 
ATOM      3  C   UNL     1      -8.344  18.182  65.833  1.00  0.00     0.039 C 
ENDROOT
BRANCH   1   4
ATOM      4  C   UNL     1      -7.155  19.117  67.955  1.00  0.00     0.034 C 
BRANCH   4   5
ATOM      5  C   UNL     1      -6.435  20.370  68.466  1.00  0.00     0.032 C 
BRANCH   5   6
ATOM      6  C   UNL     1      -7.233  21.034  69.560  1.00  0.00    -0.028 C 
ATOM      7  C   UNL     1      -7.164  23.285  68.464  1.00  0.00     0.039 C 
ATOM      8  C   UNL     1      -7.588  22.338  69.562  1.00  0.00    -0.080 C 
ATOM      9  C   UNL     1      -8.420  22.855  70.707  1.00  0.00     0.039 C 
ENDBRANCH   5   6
ENDBRANCH   4   5
ENDBRANCH   1   4
BRANCH   2  10
ATOM     10  C   UNL     1      -8.004  20.895  64.585  1.00  0.00     0.035 C 
BRANCH  10  11
ATOM     11  C   UNL     1      -6.821  20.828  63.614  1.00  0.00     0.079 C 
BRANCH  11  12
ATOM     12  C   UNL     1      -7.016  21.780  62.468  1.00  0.00     0.130 C 
ATOM     13  O   UNL     1      -6.294  21.703  61.484  1.00  0.00    -0.300 OA
ATOM     14  C   UNL     1      -8.075  22.839  62.530  1.00  0.00     0.087 C 
ENDBRANCH  11  12
ENDBRANCH  10  11
ENDBRANCH   2  10
TORSDOF 6
ENDMDL
MODEL 6
REMARK VINA RESULT:    -5.277      2.372      5.070
REMARK INTER + INTRA:          -7.951
REMARK INTER:                  -6.917
REMARK INTRA:                  -1.034
REMARK UNBOUND:                -0.823
REMARK SMILES CC(=O)CCC=C(C)CCC=C(C)C
REMARK SMILES IDX 7 1 6 2 8 3 9 4 10 5 11 6 13 7 12 8 14 9 5 10 4 11 2 12 3 13
REMARK SMILES IDX 1 14
REMARK H PARENT
REMARK Flexibility Score: inf
ROOT
ATOM      1  C   UNL     1      -8.464  22.661  67.962  1.00  0.00    -0.077 C 
ATOM      2  C   UNL     1      -9.091  21.932  68.913  1.00  0.00    -0.028 C 
ATOM      3  C   UNL     1      -7.267  23.526  68.280  1.00  0.00     0.039 C 
ENDROOT
BRANCH   1   4
ATOM      4  C   UNL     1      -8.982  22.617  66.541  1.00  0.00     0.034 C 
BRANCH   4   5
ATOM      5  C   UNL     1      -7.986  21.902  65.620  1.00  0.00     0.032 C 
BRANCH   5   6
ATOM      6  C   UNL     1      -8.354  20.448  65.463  1.00  0.00    -0.028 C 
ATOM      7  C   UNL     1      -6.671  19.675  67.149  1.00  0.00     0.039 C 
ATOM      8  C   UNL     1      -7.788  19.438  66.160  1.00  0.00    -0.080 C 
ATOM      9  C   UNL     1      -8.284  18.035  65.924  1.00  0.00     0.039 C 
ENDBRANCH   5   6
ENDBRANCH   4   5
ENDBRANCH   1   4
BRANCH   2  10
ATOM     10  C   UNL     1      -8.653  21.849  70.354  1.00  0.00     0.035 C 
BRANCH  10  11
ATOM     11  C   UNL     1      -7.875  20.555  70.610  1.00  0.00     0.079 C 
BRANCH  11  12
ATOM     12  C   UNL     1      -8.291  19.929  71.912  1.00  0.00     0.130 C 
ATOM     13  O   UNL     1      -8.011  18.761  72.141  1.00  0.00    -0.300 OA
ATOM     14  C   UNL     1      -9.067  20.719  72.921  1.00  0.00     0.087 C 
ENDBRANCH  11  12
ENDBRANCH  10  11
ENDBRANCH   2  10
TORSDOF 6
ENDMDL
MODEL 7
REMARK VINA RESULT:    -5.225      1.577      3.869
REMARK INTER + INTRA:          -7.881
REMARK INTER:                  -6.929
REMARK INTRA:                  -0.952
REMARK UNBOUND:                -0.823
REMARK SMILES CC(=O)CCC=C(C)CCC=C(C)C
REMARK SMILES IDX 7 1 6 2 8 3 9 4 10 5 11 6 13 7 12 8 14 9 5 10 4 11 2 12 3 13
REMARK SMILES IDX 1 14
REMARK H PARENT
REMARK Flexibility Score: inf
ROOT
ATOM      1  C   UNL     1      -7.858  20.760  68.361  1.00  0.00    -0.077 C 
ATOM      2  C   UNL     1      -8.769  20.360  67.446  1.00  0.00    -0.028 C 
ATOM      3  C   UNL     1      -6.454  20.201  68.386  1.00  0.00     0.039 C 
ENDROOT
BRANCH   1   4
ATOM      4  C   UNL     1      -8.257  21.788  69.398  1.00  0.00     0.034 C 
BRANCH   4   5
ATOM      5  C   UNL     1      -7.260  22.951  69.425  1.00  0.00     0.032 C 
BRANCH   5   6
ATOM      6  C   UNL     1      -7.302  23.720  68.128  1.00  0.00    -0.028 C 
ATOM      7  C   UNL     1      -9.068  25.301  68.937  1.00  0.00     0.039 C 
ATOM      8  C   UNL     1      -8.092  24.793  67.902  1.00  0.00    -0.080 C 
ATOM      9  C   UNL     1      -8.000  25.485  66.567  1.00  0.00     0.039 C 
ENDBRANCH   5   6
ENDBRANCH   4   5
ENDBRANCH   1   4
BRANCH   2  10
ATOM     10  C   UNL     1      -8.490  19.380  66.334  1.00  0.00     0.035 C 
BRANCH  10  11
ATOM     11  C   UNL     1      -8.961  19.940  64.988  1.00  0.00     0.079 C 
BRANCH  11  12
ATOM     12  C   UNL     1      -7.992  20.966  64.469  1.00  0.00     0.130 C 
ATOM     13  O   UNL     1      -6.875  20.620  64.112  1.00  0.00    -0.300 OA
ATOM     14  C   UNL     1      -8.377  22.413  64.408  1.00  0.00     0.087 C 
ENDBRANCH  11  12
ENDBRANCH  10  11
ENDBRANCH   2  10
TORSDOF 6
ENDMDL
MODEL 8
REMARK VINA RESULT:    -5.211      2.080      2.897
REMARK INTER + INTRA:          -7.862
REMARK INTER:                  -7.255
REMARK INTRA:                  -0.606
REMARK UNBOUND:                -0.823
REMARK SMILES CC(=O)CCC=C(C)CCC=C(C)C
REMARK SMILES IDX 7 1 6 2 8 3 9 4 10 5 11 6 13 7 12 8 14 9 5 10 4 11 2 12 3 13
REMARK SMILES IDX 1 14
REMARK H PARENT
REMARK Flexibility Score: inf
ROOT
ATOM      1  C   UNL     1      -7.592  20.388  67.709  1.00  0.00    -0.077 C 
ATOM      2  C   UNL     1      -7.704  20.756  66.412  1.00  0.00    -0.028 C 
ATOM      3  C   UNL     1      -6.879  19.120  68.119  1.00  0.00     0.039 C 
ENDROOT
BRANCH   1   4
ATOM      4  C   UNL     1      -8.205  21.265  68.779  1.00  0.00     0.034 C 
BRANCH   4   5
ATOM      5  C   UNL     1      -7.258  21.408  69.976  1.00  0.00     0.032 C 
BRANCH   5   6
ATOM      6  C   UNL     1      -8.037  21.641  71.246  1.00  0.00    -0.028 C 
ATOM      7  C   UNL     1      -8.042  19.218  71.879  1.00  0.00     0.039 C 
ATOM      8  C   UNL     1      -8.376  20.671  72.123  1.00  0.00    -0.080 C 
ATOM      9  C   UNL     1      -9.125  21.060  73.372  1.00  0.00     0.039 C 
ENDBRANCH   5   6
ENDBRANCH   4   5
ENDBRANCH   1   4
BRANCH   2  10
ATOM     10  C   UNL     1      -7.102  20.001  65.254  1.00  0.00     0.035 C 
BRANCH  10  11
ATOM     11  C   UNL     1      -8.023  20.061  64.031  1.00  0.00     0.079 C 
BRANCH  11  12
ATOM     12  C   UNL     1      -7.699  21.255  63.177  1.00  0.00     0.130 C 
ATOM     13  O   UNL     1      -8.522  22.151  63.049  1.00  0.00    -0.300 OA
ATOM     14  C   UNL     1      -6.385  21.345  62.463  1.00  0.00     0.087 C 
ENDBRANCH  11  12
ENDBRANCH  10  11
ENDBRANCH   2  10
TORSDOF 6
ENDMDL
MODEL 9
REMARK VINA RESULT:    -5.188      2.129      3.181
REMARK INTER + INTRA:          -7.831
REMARK INTER:                  -7.250
REMARK INTRA:                  -0.581
REMARK UNBOUND:                -0.823
REMARK SMILES CC(=O)CCC=C(C)CCC=C(C)C
REMARK SMILES IDX 7 1 6 2 8 3 9 4 10 5 11 6 13 7 12 8 14 9 5 10 4 11 2 12 3 13
REMARK SMILES IDX 1 14
REMARK H PARENT
REMARK Flexibility Score: inf
ROOT
ATOM      1  C   UNL     1      -7.330  20.486  66.492  1.00  0.00    -0.077 C 
ATOM      2  C   UNL     1      -7.146  19.920  65.278  1.00  0.00    -0.028 C 
ATOM      3  C   UNL     1      -7.982  21.841  66.649  1.00  0.00     0.039 C 
ENDROOT
BRANCH   1   4
ATOM      4  C   UNL     1      -6.862  19.748  67.727  1.00  0.00     0.034 C 
BRANCH   4   5
ATOM      5  C   UNL     1      -6.472  20.732  68.835  1.00  0.00     0.032 C 
BRANCH   5   6
ATOM      6  C   UNL     1      -7.271  20.469  70.087  1.00  0.00    -0.028 C 
ATOM      7  C   UNL     1      -7.940  22.868  70.357  1.00  0.00     0.039 C 
ATOM      8  C   UNL     1      -7.955  21.414  70.769  1.00  0.00    -0.080 C 
ATOM      9  C   UNL     1      -8.741  20.996  71.985  1.00  0.00     0.039 C 
ENDBRANCH   5   6
ENDBRANCH   4   5
ENDBRANCH   1   4
BRANCH   2  10
ATOM     10  C   UNL     1      -7.605  20.524  63.974  1.00  0.00     0.035 C 
BRANCH  10  11
ATOM     11  C   UNL     1      -6.406  20.989  63.141  1.00  0.00     0.079 C 
BRANCH  11  12
ATOM     12  C   UNL     1      -6.860  21.580  61.835  1.00  0.00     0.130 C 
ATOM     13  O   UNL     1      -7.588  22.562  61.834  1.00  0.00    -0.300 OA
ATOM     14  C   UNL     1      -6.445  20.960  60.536  1.00  0.00     0.087 C 
ENDBRANCH  11  12
ENDBRANCH  10  11
ENDBRANCH   2  10
TORSDOF 6
ENDMDL
