MODEL 1
REMARK VINA RESULT:     4.063      0.000      0.000
REMARK INTER + INTRA:           5.131
REMARK INTER:                   4.420
REMARK INTRA:                   0.711
REMARK UNBOUND:                 0.711
REMARK SMILES C[C@H]1[C@H]2C3=CC[C@H]4[C@]5(C)CC[C@@H](O)C(C)(C)[C@H]5CC[C@]4(C)[C@]3(C)CC[C@]2(C(=O)[O-])CC[C@@H]1C
REMARK SMILES IDX 26 1 30 2 25 3 3 4 31 5 24 6 4 7 2 8 32 9 22 10 5 11 1 12
REMARK SMILES IDX 33 13 23 14 20 15 6 16 7 17 19 18 21 19 8 20 18 21 17 22
REMARK SMILES IDX 10 23 9 24 14 25 11 26 12 27 15 28 16 29 27 30 28 31 29 32
REMARK SMILES IDX 13 33
REMARK H PARENT 13 34
REMARK Flexibility Score: inf
ROOT
ATOM      1  C   UNL     1      84.006   9.316   4.184  1.00  0.00     0.017 C 
ATOM      2  C   UNL     1      83.889   9.880   2.727  1.00  0.00     0.014 C 
ATOM      3  C   UNL     1      83.213   7.980   4.300  1.00  0.00     0.014 C 
ATOM      4  C   UNL     1      85.508   8.956   4.434  1.00  0.00     0.030 C 
ATOM      5  C   UNL     1      85.104  10.725   2.257  1.00  0.00     0.004 C 
ATOM      6  C   UNL     1      83.353   7.225   5.659  1.00  0.00     0.013 C 
ATOM      7  C   UNL     1      85.780   7.890   5.509  1.00  0.00    -0.063 C 
ATOM      8  C   UNL     1      86.540  10.126   4.299  1.00  0.00    -0.003 C 
ATOM      9  C   UNL     1      85.986  11.280   3.403  1.00  0.00    -0.011 C 
ATOM     10  C   UNL     1      84.666   7.479   6.512  1.00  0.00    -0.006 C 
ATOM     11  C   UNL     1      86.871   7.110   5.277  1.00  0.00    -0.027 C 
ATOM     12  C   UNL     1      87.122  10.629   5.637  1.00  0.00     0.008 C 
ATOM     13  C   UNL     1      87.125  12.125   2.809  1.00  0.00     0.008 C 
ATOM     14  C   UNL     1      84.378   8.662   7.498  1.00  0.00     0.017 C 
ATOM     15  C   UNL     1      85.110   6.185   7.389  1.00  0.00    -0.020 C 
ATOM     16  C   UNL     1      87.109   5.759   5.881  1.00  0.00     0.032 C 
ATOM     17  C   UNL     1      85.800   5.145   6.421  1.00  0.00     0.006 C 
ATOM     18  C   UNL     1      83.874   5.543   8.108  1.00  0.00     0.008 C 
ATOM     19  C   UNL     1      86.130   6.629   8.502  1.00  0.00     0.012 C 
ATOM     20  C   UNL     1      85.937   3.622   6.891  1.00  0.00    -0.025 C 
ATOM     21  C   UNL     1      84.142   4.146   8.666  1.00  0.00     0.005 C 
ATOM     22  C   UNL     1      84.570   3.185   7.529  1.00  0.00     0.003 C 
ATOM     23  C   UNL     1      86.226   2.732   5.616  1.00  0.00     0.010 C 
ATOM     24  C   UNL     1      87.125   3.406   7.883  1.00  0.00     0.012 C 
ATOM     25  C   UNL     1      84.423   1.642   7.879  1.00  0.00    -0.006 C 
ATOM     26  C   UNL     1      85.373   1.456   5.493  1.00  0.00     0.033 C 
ATOM     27  C   UNL     1      85.184   0.737   6.832  1.00  0.00     0.120 C 
ATOM     28  C   UNL     1      84.882   1.315   9.326  1.00  0.00     0.014 C 
ATOM     29  C   UNL     1      82.915   1.263   7.803  1.00  0.00     0.014 C 
ENDROOT
BRANCH   1  30
ATOM     30  C   UNL     1      83.363  10.356   5.097  1.00  0.00     0.048 C 
ATOM     31  O   UNL     1      82.210  10.145   5.563  1.00  0.00    -0.550 OA
ATOM     32  O   UNL     1      83.973  11.561   5.400  1.00  0.00    -0.550 OA
ENDBRANCH   1  30
BRANCH  27  33
ATOM     33  O   UNL     1      86.439   0.304   7.297  1.00  0.00    -0.393 OA
ATOM     34  H   UNL     1      86.501   0.543   8.259  1.00  0.00     0.210 HD
ENDBRANCH  27  33
TORSDOF 2
ENDMDL
