MODEL 1
REMARK VINA RESULT:    -6.803      0.000      0.000
REMARK INTER + INTRA:         -10.688
REMARK INTER:                  -9.190
REMARK INTRA:                  -1.499
REMARK UNBOUND:                -1.499
REMARK SMILES CC[C@@H](CC[C@@H](C)[C@@H]1CC[C@@H]2[C@H]3CC(=O)C4=CC(=O)CC[C@]4(C)[C@H]3CC[C@]21C)C(C)C
REMARK SMILES IDX 4 1 3 2 2 3 1 4 29 5 30 6 31 7 5 8 6 9 7 10 8 11 9 12 27 13
REMARK SMILES IDX 10 14 11 15 26 16 28 17 12 18 25 19 24 20 13 21 22 22 14 23
REMARK SMILES IDX 16 24 21 25 23 26 15 27 17 28 20 29 18 30 19 31
REMARK H PARENT
REMARK Flexibility Score: inf
ROOT
ATOM      1  C   UNL     1      -8.120  74.516  22.497  1.00  0.00     0.004 C 
ENDROOT
BRANCH   1   2
ATOM      2  C   UNL     1      -9.131  73.588  23.230  1.00  0.00    -0.009 C 
BRANCH   2   3
ATOM      3  C   UNL     1     -10.502  73.615  22.495  1.00  0.00     0.000 C 
ATOM      4  C   UNL     1     -10.605  74.645  21.371  1.00  0.00     0.004 C 
ENDBRANCH   2   3
BRANCH   2   5
ATOM      5  C   UNL     1      -9.181  73.964  24.755  1.00  0.00    -0.014 C 
ATOM      6  C   UNL     1      -8.826  72.796  25.693  1.00  0.00     0.007 C 
ATOM      7  C   UNL     1     -10.499  74.625  25.186  1.00  0.00     0.007 C 
ENDBRANCH   2   5
ENDBRANCH   1   2
BRANCH   1   8
ATOM      8  C   UNL     1      -6.738  73.872  22.264  1.00  0.00     0.004 C 
BRANCH   8   9
ATOM      9  C   UNL     1      -6.765  72.599  21.372  1.00  0.00    -0.011 C 
ATOM     10  C   UNL     1      -6.746  72.974  19.877  1.00  0.00     0.008 C 
BRANCH   9  11
ATOM     11  C   UNL     1      -5.702  71.525  21.817  1.00  0.00    -0.002 C 
ATOM     12  C   UNL     1      -5.501  70.278  20.917  1.00  0.00     0.005 C 
ATOM     13  C   UNL     1      -5.879  70.934  23.244  1.00  0.00    -0.026 C 
ATOM     14  C   UNL     1      -4.994  69.155  21.839  1.00  0.00     0.005 C 
ATOM     15  C   UNL     1      -4.815  69.824  23.201  1.00  0.00    -0.001 C 
ATOM     16  C   UNL     1      -5.546  71.927  24.399  1.00  0.00     0.007 C 
ATOM     17  C   UNL     1      -7.322  70.365  23.437  1.00  0.00     0.012 C 
ATOM     18  C   UNL     1      -4.821  68.924  24.458  1.00  0.00     0.004 C 
ATOM     19  C   UNL     1      -4.661  71.312  25.516  1.00  0.00     0.005 C 
ATOM     20  C   UNL     1      -4.918  69.792  25.779  1.00  0.00     0.003 C 
ATOM     21  C   UNL     1      -3.611  67.975  24.432  1.00  0.00     0.085 C 
ATOM     22  C   UNL     1      -4.122  69.236  27.041  1.00  0.00    -0.000 C 
ATOM     23  C   UNL     1      -3.618  67.110  25.647  1.00  0.00     0.159 C 
ATOM     24  C   UNL     1      -3.949  67.712  26.959  1.00  0.00     0.005 C 
ATOM     25  C   UNL     1      -4.930  69.604  28.330  1.00  0.00     0.020 C 
ATOM     26  C   UNL     1      -2.698  69.852  27.147  1.00  0.00     0.017 C 
ATOM     27  O   UNL     1      -3.297  65.894  25.545  1.00  0.00    -0.295 OA
ATOM     28  C   UNL     1      -3.943  66.941  28.064  1.00  0.00     0.055 C 
ATOM     29  C   UNL     1      -4.359  68.969  29.599  1.00  0.00     0.081 C 
ATOM     30  C   UNL     1      -4.159  67.498  29.406  1.00  0.00     0.156 C 
ATOM     31  O   UNL     1      -4.120  66.735  30.409  1.00  0.00    -0.295 OA
ENDBRANCH   9  11
ENDBRANCH   8   9
ENDBRANCH   1   8
TORSDOF 6
ENDMDL
MODEL 2
REMARK VINA RESULT:    -6.700      0.609      1.519
REMARK INTER + INTRA:         -10.548
REMARK INTER:                  -9.586
REMARK INTRA:                  -0.962
REMARK UNBOUND:                -1.499
REMARK SMILES CC[C@@H](CC[C@@H](C)[C@@H]1CC[C@@H]2[C@H]3CC(=O)C4=CC(=O)CC[C@]4(C)[C@H]3CC[C@]21C)C(C)C
REMARK SMILES IDX 4 1 3 2 2 3 1 4 29 5 30 6 31 7 5 8 6 9 7 10 8 11 9 12 27 13
REMARK SMILES IDX 10 14 11 15 26 16 28 17 12 18 25 19 24 20 13 21 22 22 14 23
REMARK SMILES IDX 16 24 21 25 23 26 15 27 17 28 20 29 18 30 19 31
REMARK H PARENT
REMARK Flexibility Score: inf
ROOT
ATOM      1  C   UNL     1      -7.939  74.335  22.205  1.00  0.00     0.004 C 
ENDROOT
BRANCH   1   2
ATOM      2  C   UNL     1      -9.049  74.250  23.293  1.00  0.00    -0.009 C 
BRANCH   2   3
ATOM      3  C   UNL     1      -8.814  73.002  24.191  1.00  0.00     0.000 C 
ATOM      4  C   UNL     1      -8.960  73.256  25.691  1.00  0.00     0.004 C 
ENDBRANCH   2   3
BRANCH   2   5
ATOM      5  C   UNL     1     -10.463  74.328  22.611  1.00  0.00    -0.014 C 
ATOM      6  C   UNL     1     -11.348  73.099  22.878  1.00  0.00     0.007 C 
ATOM      7  C   UNL     1     -10.408  74.643  21.108  1.00  0.00     0.007 C 
ENDBRANCH   2   5
ENDBRANCH   1   2
BRANCH   1   8
ATOM      8  C   UNL     1      -6.713  73.445  22.495  1.00  0.00     0.004 C 
BRANCH   8   9
ATOM      9  C   UNL     1      -6.542  72.250  21.516  1.00  0.00    -0.011 C 
ATOM     10  C   UNL     1      -6.358  72.747  20.068  1.00  0.00     0.008 C 
BRANCH   9  11
ATOM     11  C   UNL     1      -5.474  71.205  22.017  1.00  0.00    -0.002 C 
ATOM     12  C   UNL     1      -5.233  69.937  21.157  1.00  0.00     0.005 C 
ATOM     13  C   UNL     1      -5.679  70.651  23.455  1.00  0.00    -0.026 C 
ATOM     14  C   UNL     1      -4.733  68.848  22.123  1.00  0.00     0.005 C 
ATOM     15  C   UNL     1      -4.598  69.557  23.470  1.00  0.00    -0.001 C 
ATOM     16  C   UNL     1      -5.389  71.681  24.589  1.00  0.00     0.007 C 
ATOM     17  C   UNL     1      -7.118  70.066  23.628  1.00  0.00     0.012 C 
ATOM     18  C   UNL     1      -4.622  68.692  24.750  1.00  0.00     0.004 C 
ATOM     19  C   UNL     1      -4.524  71.111  25.745  1.00  0.00     0.005 C 
ATOM     20  C   UNL     1      -4.765  69.595  26.044  1.00  0.00     0.003 C 
ATOM     21  C   UNL     1      -3.399  67.762  24.781  1.00  0.00     0.085 C 
ATOM     22  C   UNL     1      -3.993  69.086  27.341  1.00  0.00    -0.000 C 
ATOM     23  C   UNL     1      -3.424  66.930  26.019  1.00  0.00     0.159 C 
ATOM     24  C   UNL     1      -3.796  67.563  27.305  1.00  0.00     0.005 C 
ATOM     25  C   UNL     1      -4.839  69.477  28.598  1.00  0.00     0.020 C 
ATOM     26  C   UNL     1      -2.582  69.726  27.465  1.00  0.00     0.017 C 
ATOM     27  O   UNL     1      -3.082  65.717  25.960  1.00  0.00    -0.295 OA
ATOM     28  C   UNL     1      -3.807  66.823  28.431  1.00  0.00     0.055 C 
ATOM     29  C   UNL     1      -4.291  68.886  29.899  1.00  0.00     0.081 C 
ATOM     30  C   UNL     1      -4.064  67.414  29.752  1.00  0.00     0.156 C 
ATOM     31  O   UNL     1      -4.039  66.680  30.776  1.00  0.00    -0.295 OA
ENDBRANCH   9  11
ENDBRANCH   8   9
ENDBRANCH   1   8
TORSDOF 6
ENDMDL
MODEL 3
REMARK VINA RESULT:    -6.385      4.319      8.474
REMARK INTER + INTRA:         -10.123
REMARK INTER:                  -8.502
REMARK INTRA:                  -1.622
REMARK UNBOUND:                -1.499
REMARK SMILES CC[C@@H](CC[C@@H](C)[C@@H]1CC[C@@H]2[C@H]3CC(=O)C4=CC(=O)CC[C@]4(C)[C@H]3CC[C@]21C)C(C)C
REMARK SMILES IDX 4 1 3 2 2 3 1 4 29 5 30 6 31 7 5 8 6 9 7 10 8 11 9 12 27 13
REMARK SMILES IDX 10 14 11 15 26 16 28 17 12 18 25 19 24 20 13 21 22 22 14 23
REMARK SMILES IDX 16 24 21 25 23 26 15 27 17 28 20 29 18 30 19 31
REMARK H PARENT
REMARK Flexibility Score: inf
ROOT
ATOM      1  C   UNL     1      -4.564  69.761  27.087  1.00  0.00     0.004 C 
ENDROOT
BRANCH   1   2
ATOM      2  C   UNL     1      -4.621  70.526  25.733  1.00  0.00    -0.009 C 
BRANCH   2   3
ATOM      3  C   UNL     1      -5.505  69.741  24.720  1.00  0.00     0.000 C 
ATOM      4  C   UNL     1      -6.450  70.608  23.890  1.00  0.00     0.004 C 
ENDBRANCH   2   3
BRANCH   2   5
ATOM      5  C   UNL     1      -3.162  70.842  25.243  1.00  0.00    -0.014 C 
ATOM      6  C   UNL     1      -2.649  69.877  24.159  1.00  0.00     0.007 C 
ATOM      7  C   UNL     1      -2.141  70.971  26.384  1.00  0.00     0.007 C 
ENDBRANCH   2   5
ENDBRANCH   1   2
BRANCH   1   8
ATOM      8  C   UNL     1      -4.497  68.228  26.935  1.00  0.00     0.004 C 
BRANCH   8   9
ATOM      9  C   UNL     1      -3.501  67.531  27.904  1.00  0.00    -0.011 C 
ATOM     10  C   UNL     1      -2.123  67.345  27.237  1.00  0.00     0.008 C 
BRANCH   9  11
ATOM     11  C   UNL     1      -3.481  68.195  29.332  1.00  0.00    -0.002 C 
ATOM     12  C   UNL     1      -2.117  68.669  29.899  1.00  0.00     0.005 C 
ATOM     13  C   UNL     1      -4.098  67.357  30.487  1.00  0.00    -0.026 C 
ATOM     14  C   UNL     1      -2.245  68.620  31.432  1.00  0.00     0.005 C 
ATOM     15  C   UNL     1      -3.701  68.234  31.687  1.00  0.00    -0.001 C 
ATOM     16  C   UNL     1      -5.650  67.226  30.431  1.00  0.00     0.007 C 
ATOM     17  C   UNL     1      -3.451  65.935  30.552  1.00  0.00     0.012 C 
ATOM     18  C   UNL     1      -4.055  67.599  33.051  1.00  0.00     0.004 C 
ATOM     19  C   UNL     1      -6.348  67.471  31.795  1.00  0.00     0.005 C 
ATOM     20  C   UNL     1      -5.521  67.000  33.036  1.00  0.00     0.003 C 
ATOM     21  C   UNL     1      -3.815  68.611  34.182  1.00  0.00     0.085 C 
ATOM     22  C   UNL     1      -6.334  67.107  34.402  1.00  0.00    -0.000 C 
ATOM     23  C   UNL     1      -4.159  67.996  35.497  1.00  0.00     0.159 C 
ATOM     24  C   UNL     1      -5.384  67.171  35.607  1.00  0.00     0.005 C 
ATOM     25  C   UNL     1      -7.253  65.846  34.524  1.00  0.00     0.020 C 
ATOM     26  C   UNL     1      -7.221  68.383  34.451  1.00  0.00     0.017 C 
ATOM     27  O   UNL     1      -3.431  68.227  36.501  1.00  0.00    -0.295 OA
ATOM     28  C   UNL     1      -5.711  66.624  36.795  1.00  0.00     0.055 C 
ATOM     29  C   UNL     1      -7.954  65.742  35.880  1.00  0.00     0.081 C 
ATOM     30  C   UNL     1      -6.965  65.884  36.995  1.00  0.00     0.156 C 
ATOM     31  O   UNL     1      -7.233  65.413  38.132  1.00  0.00    -0.295 OA
ENDBRANCH   9  11
ENDBRANCH   8   9
ENDBRANCH   1   8
TORSDOF 6
ENDMDL
MODEL 4
REMARK VINA RESULT:    -6.135      8.130     12.106
REMARK INTER + INTRA:          -9.786
REMARK INTER:                  -9.704
REMARK INTRA:                  -0.082
REMARK UNBOUND:                -1.499
REMARK SMILES CC[C@@H](CC[C@@H](C)[C@@H]1CC[C@@H]2[C@H]3CC(=O)C4=CC(=O)CC[C@]4(C)[C@H]3CC[C@]21C)C(C)C
REMARK SMILES IDX 4 1 3 2 2 3 1 4 29 5 30 6 31 7 5 8 6 9 7 10 8 11 9 12 27 13
REMARK SMILES IDX 10 14 11 15 26 16 28 17 12 18 25 19 24 20 13 21 22 22 14 23
REMARK SMILES IDX 16 24 21 25 23 26 15 27 17 28 20 29 18 30 19 31
REMARK H PARENT
REMARK Flexibility Score: inf
ROOT
ATOM      1  C   UNL     1     -10.138  71.187  37.766  1.00  0.00     0.004 C 
ENDROOT
BRANCH   1   2
ATOM      2  C   UNL     1     -11.619  71.622  37.573  1.00  0.00    -0.009 C 
BRANCH   2   3
ATOM      3  C   UNL     1     -11.695  72.806  36.566  1.00  0.00     0.000 C 
ATOM      4  C   UNL     1     -10.494  72.926  35.628  1.00  0.00     0.004 C 
ENDBRANCH   2   3
BRANCH   2   5
ATOM      5  C   UNL     1     -12.277  71.891  38.974  1.00  0.00    -0.014 C 
ATOM      6  C   UNL     1     -12.398  73.384  39.326  1.00  0.00     0.007 C 
ATOM      7  C   UNL     1     -11.621  71.113  40.125  1.00  0.00     0.007 C 
ENDBRANCH   2   5
ENDBRANCH   1   2
BRANCH   1   8
ATOM      8  C   UNL     1      -9.849  69.740  37.316  1.00  0.00     0.004 C 
BRANCH   8   9
ATOM      9  C   UNL     1      -8.867  68.965  38.238  1.00  0.00    -0.011 C 
ATOM     10  C   UNL     1      -9.504  67.654  38.742  1.00  0.00     0.008 C 
BRANCH   9  11
ATOM     11  C   UNL     1      -7.430  68.824  37.610  1.00  0.00    -0.002 C 
ATOM     12  C   UNL     1      -6.457  70.026  37.733  1.00  0.00     0.005 C 
ATOM     13  C   UNL     1      -7.374  68.447  36.103  1.00  0.00    -0.026 C 
ATOM     14  C   UNL     1      -5.490  69.923  36.540  1.00  0.00     0.005 C 
ATOM     15  C   UNL     1      -5.866  68.615  35.847  1.00  0.00    -0.001 C 
ATOM     16  C   UNL     1      -7.792  66.979  35.790  1.00  0.00     0.007 C 
ATOM     17  C   UNL     1      -8.234  69.434  35.248  1.00  0.00     0.012 C 
ATOM     18  C   UNL     1      -5.476  68.442  34.362  1.00  0.00     0.004 C 
ATOM     19  C   UNL     1      -6.832  66.249  34.813  1.00  0.00     0.005 C 
ATOM     20  C   UNL     1      -6.188  67.175  33.730  1.00  0.00     0.003 C 
ATOM     21  C   UNL     1      -3.946  68.424  34.217  1.00  0.00     0.085 C 
ATOM     22  C   UNL     1      -5.347  66.370  32.643  1.00  0.00    -0.000 C 
ATOM     23  C   UNL     1      -3.572  68.254  32.784  1.00  0.00     0.159 C 
ATOM     24  C   UNL     1      -4.319  67.280  31.955  1.00  0.00     0.005 C 
ATOM     25  C   UNL     1      -6.343  65.802  31.578  1.00  0.00     0.020 C 
ATOM     26  C   UNL     1      -4.560  65.189  33.276  1.00  0.00     0.017 C 
ATOM     27  O   UNL     1      -2.599  68.906  32.313  1.00  0.00    -0.295 OA
ATOM     28  C   UNL     1      -3.978  67.110  30.662  1.00  0.00     0.055 C 
ATOM     29  C   UNL     1      -5.639  65.159  30.381  1.00  0.00     0.081 C 
ATOM     30  C   UNL     1      -4.608  66.086  29.817  1.00  0.00     0.156 C 
ATOM     31  O   UNL     1      -4.236  65.953  28.620  1.00  0.00    -0.295 OA
ENDBRANCH   9  11
ENDBRANCH   8   9
ENDBRANCH   1   8
TORSDOF 6
ENDMDL
MODEL 5
REMARK VINA RESULT:    -6.002      6.686     11.472
REMARK INTER + INTRA:          -9.605
REMARK INTER:                  -8.646
REMARK INTRA:                  -0.959
REMARK UNBOUND:                -1.499
REMARK SMILES CC[C@@H](CC[C@@H](C)[C@@H]1CC[C@@H]2[C@H]3CC(=O)C4=CC(=O)CC[C@]4(C)[C@H]3CC[C@]21C)C(C)C
REMARK SMILES IDX 4 1 3 2 2 3 1 4 29 5 30 6 31 7 5 8 6 9 7 10 8 11 9 12 27 13
REMARK SMILES IDX 10 14 11 15 26 16 28 17 12 18 25 19 24 20 13 21 22 22 14 23
REMARK SMILES IDX 16 24 21 25 23 26 15 27 17 28 20 29 18 30 19 31
REMARK H PARENT
REMARK Flexibility Score: inf
ROOT
ATOM      1  C   UNL     1      -8.894  70.385  36.388  1.00  0.00     0.004 C 
ENDROOT
BRANCH   1   2
ATOM      2  C   UNL     1      -9.835  71.278  37.246  1.00  0.00    -0.009 C 
BRANCH   2   3
ATOM      3  C   UNL     1     -10.728  70.384  38.155  1.00  0.00     0.000 C 
ATOM      4  C   UNL     1     -11.410  71.122  39.307  1.00  0.00     0.004 C 
ENDBRANCH   2   3
BRANCH   2   5
ATOM      5  C   UNL     1     -10.614  72.273  36.312  1.00  0.00    -0.014 C 
ATOM      6  C   UNL     1     -10.286  72.107  34.818  1.00  0.00     0.007 C 
ATOM      7  C   UNL     1     -10.489  73.745  36.736  1.00  0.00     0.007 C 
ENDBRANCH   2   5
ENDBRANCH   1   2
BRANCH   1   8
ATOM      8  C   UNL     1      -8.872  68.904  36.822  1.00  0.00     0.004 C 
BRANCH   8   9
ATOM      9  C   UNL     1      -7.552  68.456  37.508  1.00  0.00    -0.011 C 
ATOM     10  C   UNL     1      -7.789  68.124  38.995  1.00  0.00     0.008 C 
BRANCH   9  11
ATOM     11  C   UNL     1      -6.783  67.357  36.681  1.00  0.00    -0.002 C 
ATOM     12  C   UNL     1      -5.660  66.558  37.392  1.00  0.00     0.005 C 
ATOM     13  C   UNL     1      -6.124  67.833  35.355  1.00  0.00    -0.026 C 
ATOM     14  C   UNL     1      -4.683  66.110  36.291  1.00  0.00     0.005 C 
ATOM     15  C   UNL     1      -5.335  66.565  34.986  1.00  0.00    -0.001 C 
ATOM     16  C   UNL     1      -7.134  68.164  34.216  1.00  0.00     0.007 C 
ATOM     17  C   UNL     1      -5.190  69.061  35.606  1.00  0.00     0.012 C 
ATOM     18  C   UNL     1      -4.428  66.749  33.748  1.00  0.00     0.004 C 
ATOM     19  C   UNL     1      -6.741  67.567  32.838  1.00  0.00     0.005 C 
ATOM     20  C   UNL     1      -5.200  67.494  32.583  1.00  0.00     0.003 C 
ATOM     21  C   UNL     1      -3.832  65.396  33.325  1.00  0.00     0.085 C 
ATOM     22  C   UNL     1      -4.836  67.040  31.100  1.00  0.00    -0.000 C 
ATOM     23  C   UNL     1      -2.960  65.577  32.129  1.00  0.00     0.159 C 
ATOM     24  C   UNL     1      -3.414  66.462  31.033  1.00  0.00     0.005 C 
ATOM     25  C   UNL     1      -4.940  68.291  30.166  1.00  0.00     0.020 C 
ATOM     26  C   UNL     1      -5.801  65.940  30.577  1.00  0.00     0.017 C 
ATOM     27  O   UNL     1      -1.875  64.937  32.049  1.00  0.00    -0.295 OA
ATOM     28  C   UNL     1      -2.639  66.619  29.941  1.00  0.00     0.055 C 
ATOM     29  C   UNL     1      -4.440  68.024  28.745  1.00  0.00     0.081 C 
ATOM     30  C   UNL     1      -3.080  67.398  28.776  1.00  0.00     0.156 C 
ATOM     31  O   UNL     1      -2.325  67.494  27.772  1.00  0.00    -0.295 OA
ENDBRANCH   9  11
ENDBRANCH   8   9
ENDBRANCH   1   8
TORSDOF 6
ENDMDL
MODEL 6
REMARK VINA RESULT:    -5.834      1.398      2.631
REMARK INTER + INTRA:          -9.379
REMARK INTER:                  -8.343
REMARK INTRA:                  -1.036
REMARK UNBOUND:                -1.499
REMARK SMILES CC[C@@H](CC[C@@H](C)[C@@H]1CC[C@@H]2[C@H]3CC(=O)C4=CC(=O)CC[C@]4(C)[C@H]3CC[C@]21C)C(C)C
REMARK SMILES IDX 4 1 3 2 2 3 1 4 29 5 30 6 31 7 5 8 6 9 7 10 8 11 9 12 27 13
REMARK SMILES IDX 10 14 11 15 26 16 28 17 12 18 25 19 24 20 13 21 22 22 14 23
REMARK SMILES IDX 16 24 21 25 23 26 15 27 17 28 20 29 18 30 19 31
REMARK H PARENT
REMARK Flexibility Score: inf
ROOT
ATOM      1  C   UNL     1      -7.473  72.140  23.518  1.00  0.00     0.004 C 
ENDROOT
BRANCH   1   2
ATOM      2  C   UNL     1      -8.188  73.014  22.446  1.00  0.00    -0.009 C 
BRANCH   2   3
ATOM      3  C   UNL     1      -7.138  73.857  21.667  1.00  0.00     0.000 C 
ATOM      4  C   UNL     1      -7.245  73.765  20.145  1.00  0.00     0.004 C 
ENDBRANCH   2   3
BRANCH   2   5
ATOM      5  C   UNL     1      -9.342  73.839  23.122  1.00  0.00    -0.014 C 
ATOM      6  C   UNL     1      -9.917  73.179  24.388  1.00  0.00     0.007 C 
ATOM      7  C   UNL     1     -10.468  74.233  22.155  1.00  0.00     0.007 C 
ENDBRANCH   2   5
ENDBRANCH   1   2
BRANCH   1   8
ATOM      8  C   UNL     1      -5.952  72.008  23.301  1.00  0.00     0.004 C 
BRANCH   8   9
ATOM      9  C   UNL     1      -5.510  70.660  22.665  1.00  0.00    -0.011 C 
ATOM     10  C   UNL     1      -5.201  70.834  21.165  1.00  0.00     0.008 C 
BRANCH   9  11
ATOM     11  C   UNL     1      -4.397  69.929  23.508  1.00  0.00    -0.002 C 
ATOM     12  C   UNL     1      -3.553  68.832  22.809  1.00  0.00     0.005 C 
ATOM     13  C   UNL     1      -4.868  69.258  24.829  1.00  0.00    -0.026 C 
ATOM     14  C   UNL     1      -3.086  67.873  23.919  1.00  0.00     0.005 C 
ATOM     15  C   UNL     1      -3.579  68.512  25.216  1.00  0.00    -0.001 C 
ATOM     16  C   UNL     1      -5.246  70.259  25.962  1.00  0.00     0.007 C 
ATOM     17  C   UNL     1      -6.061  68.283  24.566  1.00  0.00     0.012 C 
ATOM     18  C   UNL     1      -3.749  67.602  26.454  1.00  0.00     0.004 C 
ATOM     19  C   UNL     1      -4.654  69.889  27.348  1.00  0.00     0.005 C 
ATOM     20  C   UNL     1      -4.533  68.352  27.608  1.00  0.00     0.003 C 
ATOM     21  C   UNL     1      -2.383  67.052  26.895  1.00  0.00     0.085 C 
ATOM     22  C   UNL     1      -4.086  68.006  29.097  1.00  0.00    -0.000 C 
ATOM     23  C   UNL     1      -2.549  66.177  28.091  1.00  0.00     0.159 C 
ATOM     24  C   UNL     1      -3.463  66.604  29.175  1.00  0.00     0.005 C 
ATOM     25  C   UNL     1      -5.352  68.071  30.015  1.00  0.00     0.020 C 
ATOM     26  C   UNL     1      -3.025  69.008  29.632  1.00  0.00     0.017 C 
ATOM     27  O   UNL     1      -1.876  65.113  28.182  1.00  0.00    -0.295 OA
ATOM     28  C   UNL     1      -3.608  65.827  30.267  1.00  0.00     0.055 C 
ATOM     29  C   UNL     1      -5.085  67.583  31.440  1.00  0.00     0.081 C 
ATOM     30  C   UNL     1      -4.416  66.244  31.421  1.00  0.00     0.156 C 
ATOM     31  O   UNL     1      -4.499  65.489  32.426  1.00  0.00    -0.295 OA
ENDBRANCH   9  11
ENDBRANCH   8   9
ENDBRANCH   1   8
TORSDOF 6
ENDMDL
MODEL 7
REMARK VINA RESULT:    -5.800      4.692      9.676
REMARK INTER + INTRA:          -9.334
REMARK INTER:                  -7.728
REMARK INTRA:                  -1.606
REMARK UNBOUND:                -1.499
REMARK SMILES CC[C@@H](CC[C@@H](C)[C@@H]1CC[C@@H]2[C@H]3CC(=O)C4=CC(=O)CC[C@]4(C)[C@H]3CC[C@]21C)C(C)C
REMARK SMILES IDX 4 1 3 2 2 3 1 4 29 5 30 6 31 7 5 8 6 9 7 10 8 11 9 12 27 13
REMARK SMILES IDX 10 14 11 15 26 16 28 17 12 18 25 19 24 20 13 21 22 22 14 23
REMARK SMILES IDX 16 24 21 25 23 26 15 27 17 28 20 29 18 30 19 31
REMARK H PARENT
REMARK Flexibility Score: inf
ROOT
ATOM      1  C   UNL     1      -6.784  68.266  34.417  1.00  0.00     0.004 C 
ENDROOT
BRANCH   1   2
ATOM      2  C   UNL     1      -7.658  67.581  35.507  1.00  0.00    -0.009 C 
BRANCH   2   3
ATOM      3  C   UNL     1      -8.191  66.219  34.976  1.00  0.00     0.000 C 
ATOM      4  C   UNL     1      -7.857  65.014  35.856  1.00  0.00     0.004 C 
ENDBRANCH   2   3
BRANCH   2   5
ATOM      5  C   UNL     1      -8.761  68.583  36.006  1.00  0.00    -0.014 C 
ATOM      6  C   UNL     1      -8.307  70.053  36.006  1.00  0.00     0.007 C 
ATOM      7  C   UNL     1      -9.372  68.202  37.363  1.00  0.00     0.007 C 
ENDBRANCH   2   5
ENDBRANCH   1   2
BRANCH   1   8
ATOM      8  C   UNL     1      -5.267  68.128  34.657  1.00  0.00     0.004 C 
BRANCH   8   9
ATOM      9  C   UNL     1      -4.586  67.003  33.829  1.00  0.00    -0.011 C 
ATOM     10  C   UNL     1      -4.434  65.718  34.668  1.00  0.00     0.008 C 
BRANCH   9  11
ATOM     11  C   UNL     1      -5.243  66.813  32.410  1.00  0.00    -0.002 C 
ATOM     12  C   UNL     1      -5.896  65.445  32.083  1.00  0.00     0.005 C 
ATOM     13  C   UNL     1      -4.326  67.096  31.186  1.00  0.00    -0.026 C 
ATOM     14  C   UNL     1      -5.826  65.287  30.553  1.00  0.00     0.005 C 
ATOM     15  C   UNL     1      -5.246  66.609  30.053  1.00  0.00    -0.001 C 
ATOM     16  C   UNL     1      -3.988  68.601  30.969  1.00  0.00     0.007 C 
ATOM     17  C   UNL     1      -3.005  66.265  31.276  1.00  0.00     0.012 C 
ATOM     18  C   UNL     1      -4.565  66.624  28.666  1.00  0.00     0.004 C 
ATOM     19  C   UNL     1      -4.132  69.068  29.496  1.00  0.00     0.005 C 
ATOM     20  C   UNL     1      -3.774  67.977  28.435  1.00  0.00     0.003 C 
ATOM     21  C   UNL     1      -5.598  66.320  27.569  1.00  0.00     0.085 C 
ATOM     22  C   UNL     1      -3.766  68.537  26.944  1.00  0.00    -0.000 C 
ATOM     23  C   UNL     1      -4.939  66.338  26.231  1.00  0.00     0.159 C 
ATOM     24  C   UNL     1      -3.955  67.402  25.926  1.00  0.00     0.005 C 
ATOM     25  C   UNL     1      -2.392  69.243  26.694  1.00  0.00     0.020 C 
ATOM     26  C   UNL     1      -4.910  69.561  26.703  1.00  0.00     0.017 C 
ATOM     27  O   UNL     1      -5.263  65.477  25.367  1.00  0.00    -0.295 OA
ATOM     28  C   UNL     1      -3.366  67.434  24.714  1.00  0.00     0.055 C 
ATOM     29  C   UNL     1      -2.191  69.668  25.238  1.00  0.00     0.081 C 
ATOM     30  C   UNL     1      -2.463  68.522  24.314  1.00  0.00     0.156 C 
ATOM     31  O   UNL     1      -1.956  68.516  23.160  1.00  0.00    -0.295 OA
ENDBRANCH   9  11
ENDBRANCH   8   9
ENDBRANCH   1   8
TORSDOF 6
ENDMDL
MODEL 8
REMARK VINA RESULT:    -5.799      3.809      9.243
REMARK INTER + INTRA:          -9.331
REMARK INTER:                  -8.983
REMARK INTRA:                  -0.349
REMARK UNBOUND:                -1.499
REMARK SMILES CC[C@@H](CC[C@@H](C)[C@@H]1CC[C@@H]2[C@H]3CC(=O)C4=CC(=O)CC[C@]4(C)[C@H]3CC[C@]21C)C(C)C
REMARK SMILES IDX 4 1 3 2 2 3 1 4 29 5 30 6 31 7 5 8 6 9 7 10 8 11 9 12 27 13
REMARK SMILES IDX 10 14 11 15 26 16 28 17 12 18 25 19 24 20 13 21 22 22 14 23
REMARK SMILES IDX 16 24 21 25 23 26 15 27 17 28 20 29 18 30 19 31
REMARK H PARENT
REMARK Flexibility Score: inf
ROOT
ATOM      1  C   UNL     1      -6.567  67.394  33.417  1.00  0.00     0.004 C 
ENDROOT
BRANCH   1   2
ATOM      2  C   UNL     1      -6.837  68.273  34.672  1.00  0.00    -0.009 C 
BRANCH   2   3
ATOM      3  C   UNL     1      -5.489  68.777  35.264  1.00  0.00     0.000 C 
ATOM      4  C   UNL     1      -5.627  69.827  36.366  1.00  0.00     0.004 C 
ENDBRANCH   2   3
BRANCH   2   5
ATOM      5  C   UNL     1      -7.759  67.492  35.676  1.00  0.00    -0.014 C 
ATOM      6  C   UNL     1      -8.099  66.062  35.220  1.00  0.00     0.007 C 
ATOM      7  C   UNL     1      -9.033  68.256  36.068  1.00  0.00     0.007 C 
ENDBRANCH   2   5
ENDBRANCH   1   2
BRANCH   1   8
ATOM      8  C   UNL     1      -5.078  67.051  33.205  1.00  0.00     0.004 C 
BRANCH   8   9
ATOM      9  C   UNL     1      -4.792  66.193  31.941  1.00  0.00    -0.011 C 
ATOM     10  C   UNL     1      -6.101  65.637  31.344  1.00  0.00     0.008 C 
BRANCH   9  11
ATOM     11  C   UNL     1      -3.835  66.919  30.921  1.00  0.00    -0.002 C 
ATOM     12  C   UNL     1      -2.878  68.011  31.466  1.00  0.00     0.005 C 
ATOM     13  C   UNL     1      -4.520  67.594  29.699  1.00  0.00    -0.026 C 
ATOM     14  C   UNL     1      -2.603  68.969  30.293  1.00  0.00     0.005 C 
ATOM     15  C   UNL     1      -3.313  68.334  29.098  1.00  0.00    -0.001 C 
ATOM     16  C   UNL     1      -5.092  66.595  28.648  1.00  0.00     0.007 C 
ATOM     17  C   UNL     1      -5.647  68.574  30.163  1.00  0.00     0.012 C 
ATOM     18  C   UNL     1      -3.687  69.246  27.908  1.00  0.00     0.004 C 
ATOM     19  C   UNL     1      -4.742  66.964  27.181  1.00  0.00     0.005 C 
ATOM     20  C   UNL     1      -4.660  68.501  26.905  1.00  0.00     0.003 C 
ATOM     21  C   UNL     1      -2.413  69.790  27.240  1.00  0.00     0.085 C 
ATOM     22  C   UNL     1      -4.472  68.846  25.361  1.00  0.00    -0.000 C 
ATOM     23  C   UNL     1      -2.777  70.667  26.090  1.00  0.00     0.159 C 
ATOM     24  C   UNL     1      -3.864  70.245  25.178  1.00  0.00     0.005 C 
ATOM     25  C   UNL     1      -5.876  68.789  24.672  1.00  0.00     0.020 C 
ATOM     26  C   UNL     1      -3.522  67.840  24.653  1.00  0.00     0.017 C 
ATOM     27  O   UNL     1      -2.123  71.727  25.886  1.00  0.00    -0.295 OA
ATOM     28  C   UNL     1      -4.189  71.024  24.127  1.00  0.00     0.055 C 
ATOM     29  C   UNL     1      -5.854  69.277  23.222  1.00  0.00     0.081 C 
ATOM     30  C   UNL     1      -5.184  70.612  23.128  1.00  0.00     0.156 C 
ATOM     31  O   UNL     1      -5.434  71.369  22.152  1.00  0.00    -0.295 OA
ENDBRANCH   9  11
ENDBRANCH   8   9
ENDBRANCH   1   8
TORSDOF 6
ENDMDL
MODEL 9
REMARK VINA RESULT:    -5.792      2.947      8.522
REMARK INTER + INTRA:          -9.322
REMARK INTER:                  -7.778
REMARK INTRA:                  -1.544
REMARK UNBOUND:                -1.499
REMARK SMILES CC[C@@H](CC[C@@H](C)[C@@H]1CC[C@@H]2[C@H]3CC(=O)C4=CC(=O)CC[C@]4(C)[C@H]3CC[C@]21C)C(C)C
REMARK SMILES IDX 4 1 3 2 2 3 1 4 29 5 30 6 31 7 5 8 6 9 7 10 8 11 9 12 27 13
REMARK SMILES IDX 10 14 11 15 26 16 28 17 12 18 25 19 24 20 13 21 22 22 14 23
REMARK SMILES IDX 16 24 21 25 23 26 15 27 17 28 20 29 18 30 19 31
REMARK H PARENT
REMARK Flexibility Score: inf
ROOT
ATOM      1  C   UNL     1      -5.051  67.750  31.523  1.00  0.00     0.004 C 
ENDROOT
BRANCH   1   2
ATOM      2  C   UNL     1      -5.222  66.994  32.872  1.00  0.00    -0.009 C 
BRANCH   2   3
ATOM      3  C   UNL     1      -5.840  65.589  32.616  1.00  0.00     0.000 C 
ATOM      4  C   UNL     1      -6.193  65.302  31.157  1.00  0.00     0.004 C 
ENDBRANCH   2   3
BRANCH   2   5
ATOM      5  C   UNL     1      -6.010  67.897  33.888  1.00  0.00    -0.014 C 
ATOM      6  C   UNL     1      -5.119  68.546  34.962  1.00  0.00     0.007 C 
ATOM      7  C   UNL     1      -7.216  67.196  34.533  1.00  0.00     0.007 C 
ENDBRANCH   2   5
ENDBRANCH   1   2
BRANCH   1   8
ATOM      8  C   UNL     1      -3.603  68.195  31.237  1.00  0.00     0.004 C 
BRANCH   8   9
ATOM      9  C   UNL     1      -2.959  67.522  29.993  1.00  0.00    -0.011 C 
ATOM     10  C   UNL     1      -2.172  66.259  30.396  1.00  0.00     0.008 C 
BRANCH   9  11
ATOM     11  C   UNL     1      -3.981  67.336  28.809  1.00  0.00    -0.002 C 
ATOM     12  C   UNL     1      -4.132  65.922  28.187  1.00  0.00     0.005 C 
ATOM     13  C   UNL     1      -3.785  68.268  27.580  1.00  0.00    -0.026 C 
ATOM     14  C   UNL     1      -4.597  66.135  26.736  1.00  0.00     0.005 C 
ATOM     15  C   UNL     1      -4.805  67.643  26.613  1.00  0.00    -0.001 C 
ATOM     16  C   UNL     1      -4.159  69.759  27.836  1.00  0.00     0.007 C 
ATOM     17  C   UNL     1      -2.321  68.176  27.039  1.00  0.00     0.012 C 
ATOM     18  C   UNL     1      -4.767  68.268  25.199  1.00  0.00     0.004 C 
ATOM     19  C   UNL     1      -5.021  70.389  26.710  1.00  0.00     0.005 C 
ATOM     20  C   UNL     1      -4.707  69.849  25.277  1.00  0.00     0.003 C 
ATOM     21  C   UNL     1      -5.939  67.737  24.357  1.00  0.00     0.085 C 
ATOM     22  C   UNL     1      -5.484  70.636  24.131  1.00  0.00    -0.000 C 
ATOM     23  C   UNL     1      -5.902  68.343  22.995  1.00  0.00     0.159 C 
ATOM     24  C   UNL     1      -5.598  69.786  22.856  1.00  0.00     0.005 C 
ATOM     25  C   UNL     1      -4.694  71.950  23.818  1.00  0.00     0.020 C 
ATOM     26  C   UNL     1      -6.930  71.009  24.561  1.00  0.00     0.017 C 
ATOM     27  O   UNL     1      -6.176  67.631  21.990  1.00  0.00    -0.295 OA
ATOM     28  C   UNL     1      -5.576  70.345  21.630  1.00  0.00     0.055 C 
ATOM     29  C   UNL     1      -5.243  72.707  22.607  1.00  0.00     0.081 C 
ATOM     30  C   UNL     1      -5.385  71.789  21.434  1.00  0.00     0.156 C 
ATOM     31  O   UNL     1      -5.397  72.264  20.266  1.00  0.00    -0.295 OA
ENDBRANCH   9  11
ENDBRANCH   8   9
ENDBRANCH   1   8
TORSDOF 6
ENDMDL
