MODEL 1
REMARK VINA RESULT:    -2.120      0.000      0.000
REMARK INTER + INTRA:          -2.120
REMARK INTER:                  -2.120
REMARK INTRA:                   0.000
REMARK UNBOUND:                 0.000
REMARK SMILES CC(=O)[O-]
REMARK SMILES IDX 1 1 2 2 3 3 4 4
REMARK H PARENT
REMARK Flexibility Score: inf
ROOT
ATOM      1  C   UNL     1      19.534 124.529  62.599  1.00  0.00     0.063 C 
ATOM      2  C   UNL     1      18.346 125.402  62.815  1.00  0.00     0.038 C 
ATOM      3  O   UNL     1      17.191 124.975  62.553  1.00  0.00    -0.550 OA
ATOM      4  O   UNL     1      18.513 126.709  63.257  1.00  0.00    -0.550 OA
ENDROOT
TORSDOF 0
ENDMDL
MODEL 2
REMARK VINA RESULT:    -1.965      2.071      2.312
REMARK INTER + INTRA:          -1.965
REMARK INTER:                  -1.965
REMARK INTRA:                   0.000
REMARK UNBOUND:                 0.000
REMARK SMILES CC(=O)[O-]
REMARK SMILES IDX 1 1 2 2 3 3 4 4
REMARK H PARENT
REMARK Flexibility Score: inf
ROOT
ATOM      1  C   UNL     1      18.593 125.704  62.979  1.00  0.00     0.063 C 
ATOM      2  C   UNL     1      19.452 124.501  62.778  1.00  0.00     0.038 C 
ATOM      3  O   UNL     1      19.321 123.797  61.742  1.00  0.00    -0.550 OA
ATOM      4  O   UNL     1      20.362 124.124  63.757  1.00  0.00    -0.550 OA
ENDROOT
TORSDOF 0
ENDMDL
MODEL 3
REMARK VINA RESULT:    -1.912      1.371      1.788
REMARK INTER + INTRA:          -1.912
REMARK INTER:                  -1.912
REMARK INTRA:                   0.000
REMARK UNBOUND:                 0.000
REMARK SMILES CC(=O)[O-]
REMARK SMILES IDX 1 1 2 2 3 3 4 4
REMARK H PARENT
REMARK Flexibility Score: inf
ROOT
ATOM      1  C   UNL     1      18.243 126.976  63.317  1.00  0.00     0.063 C 
ATOM      2  C   UNL     1      18.200 125.564  62.841  1.00  0.00     0.038 C 
ATOM      3  O   UNL     1      17.098 125.025  62.559  1.00  0.00    -0.550 OA
ATOM      4  O   UNL     1      19.371 124.821  62.757  1.00  0.00    -0.550 OA
ENDROOT
TORSDOF 0
ENDMDL
MODEL 4
REMARK VINA RESULT:    -1.849     15.140     15.309
REMARK INTER + INTRA:          -1.849
REMARK INTER:                  -1.849
REMARK INTRA:                   0.000
REMARK UNBOUND:                 0.000
REMARK SMILES CC(=O)[O-]
REMARK SMILES IDX 1 1 2 2 3 3 4 4
REMARK H PARENT
REMARK Flexibility Score: inf
ROOT
ATOM      1  C   UNL     1      17.375 130.214  48.622  1.00  0.00     0.063 C 
ATOM      2  C   UNL     1      18.312 129.155  48.149  1.00  0.00     0.038 C 
ATOM      3  O   UNL     1      19.473 129.461  47.770  1.00  0.00    -0.550 OA
ATOM      4  O   UNL     1      17.888 127.834  48.075  1.00  0.00    -0.550 OA
ENDROOT
TORSDOF 0
ENDMDL
MODEL 5
REMARK VINA RESULT:    -1.830     15.335     15.391
REMARK INTER + INTRA:          -1.830
REMARK INTER:                  -1.830
REMARK INTRA:                   0.000
REMARK UNBOUND:                 0.000
REMARK SMILES CC(=O)[O-]
REMARK SMILES IDX 1 1 2 2 3 3 4 4
REMARK H PARENT
REMARK Flexibility Score: inf
ROOT
ATOM      1  C   UNL     1      17.628 128.098  47.721  1.00  0.00     0.063 C 
ATOM      2  C   UNL     1      18.316 129.390  48.005  1.00  0.00     0.038 C 
ATOM      3  O   UNL     1      19.519 129.552  47.671  1.00  0.00    -0.550 OA
ATOM      4  O   UNL     1      17.649 130.400  48.686  1.00  0.00    -0.550 OA
ENDROOT
TORSDOF 0
ENDMDL
MODEL 6
REMARK VINA RESULT:    -1.785     15.493     15.666
REMARK INTER + INTRA:          -1.785
REMARK INTER:                  -1.785
REMARK INTRA:                   0.000
REMARK UNBOUND:                 0.000
REMARK SMILES CC(=O)[O-]
REMARK SMILES IDX 1 1 2 2 3 3 4 4
REMARK H PARENT
REMARK Flexibility Score: inf
ROOT
ATOM      1  C   UNL     1      17.821 130.000  47.272  1.00  0.00     0.063 C 
ATOM      2  C   UNL     1      17.099 128.768  47.702  1.00  0.00     0.038 C 
ATOM      3  O   UNL     1      17.740 127.712  47.945  1.00  0.00    -0.550 OA
ATOM      4  O   UNL     1      15.712 128.766  47.785  1.00  0.00    -0.550 OA
ENDROOT
TORSDOF 0
ENDMDL
MODEL 7
REMARK VINA RESULT:    -1.777      3.211      3.564
REMARK INTER + INTRA:          -1.777
REMARK INTER:                  -1.777
REMARK INTRA:                   0.000
REMARK UNBOUND:                 0.000
REMARK SMILES CC(=O)[O-]
REMARK SMILES IDX 1 1 2 2 3 3 4 4
REMARK H PARENT
REMARK Flexibility Score: inf
ROOT
ATOM      1  C   UNL     1      18.256 127.246  63.011  1.00  0.00     0.063 C 
ATOM      2  C   UNL     1      18.891 128.529  62.591  1.00  0.00     0.038 C 
ATOM      3  O   UNL     1      18.516 129.617  63.102  1.00  0.00    -0.550 OA
ATOM      4  O   UNL     1      19.861 128.533  61.596  1.00  0.00    -0.550 OA
ENDROOT
TORSDOF 0
ENDMDL
MODEL 8
REMARK VINA RESULT:    -1.766      9.169      9.445
REMARK INTER + INTRA:          -1.766
REMARK INTER:                  -1.766
REMARK INTRA:                   0.000
REMARK UNBOUND:                 0.000
REMARK SMILES CC(=O)[O-]
REMARK SMILES IDX 1 1 2 2 3 3 4 4
REMARK H PARENT
REMARK Flexibility Score: inf
ROOT
ATOM      1  C   UNL     1      16.256 127.469  55.382  1.00  0.00     0.063 C 
ATOM      2  C   UNL     1      16.818 127.853  54.056  1.00  0.00     0.038 C 
ATOM      3  O   UNL     1      17.837 128.590  53.990  1.00  0.00    -0.550 OA
ATOM      4  O   UNL     1      16.187 127.444  52.887  1.00  0.00    -0.550 OA
ENDROOT
TORSDOF 0
ENDMDL
MODEL 9
REMARK VINA RESULT:    -1.723      8.739      8.906
REMARK INTER + INTRA:          -1.723
REMARK INTER:                  -1.723
REMARK INTRA:                   0.000
REMARK UNBOUND:                 0.000
REMARK SMILES CC(=O)[O-]
REMARK SMILES IDX 1 1 2 2 3 3 4 4
REMARK H PARENT
REMARK Flexibility Score: inf
ROOT
ATOM      1  C   UNL     1      15.843 127.736  55.555  1.00  0.00     0.063 C 
ATOM      2  C   UNL     1      16.865 127.763  54.470  1.00  0.00     0.038 C 
ATOM      3  O   UNL     1      16.554 127.420  53.299  1.00  0.00    -0.550 OA
ATOM      4  O   UNL     1      18.178 128.116  54.758  1.00  0.00    -0.550 OA
ENDROOT
TORSDOF 0
ENDMDL
