MODEL 1
REMARK VINA RESULT:    -2.742      0.000      0.000
REMARK INTER + INTRA:          -3.538
REMARK INTER:                  -3.464
REMARK INTRA:                  -0.074
REMARK UNBOUND:                -0.074
REMARK SMILES CSCC[C@H]([NH3+])C(=O)[O-]
REMARK SMILES IDX 4 1 5 2 6 3 7 7 8 8 9 9 3 10 2 11 1 12
REMARK H PARENT 6 4 6 5 6 6
REMARK Flexibility Score: inf
ROOT
ATOM      1  C   UNL     1       4.468  10.095   2.983  1.00  0.00     0.082 C 
ENDROOT
BRANCH   1   2
ATOM      2  C   UNL     1       3.648   8.786   2.936  1.00  0.00     0.228 C 
BRANCH   2   3
ATOM      3  N   UNL     1       4.490   7.631   2.596  1.00  0.00    -0.350 N 
ATOM      4  H   UNL     1       4.915   7.227   3.460  1.00  0.00     0.345 HD
ATOM      5  H   UNL     1       3.907   6.884   2.153  1.00  0.00     0.345 HD
ATOM      6  H   UNL     1       5.250   7.907   1.932  1.00  0.00     0.345 HD
ENDBRANCH   2   3
BRANCH   2   7
ATOM      7  C   UNL     1       2.536   8.927   1.931  1.00  0.00     0.099 C 
ATOM      8  O   UNL     1       2.228  10.062   1.484  1.00  0.00    -0.544 OA
ATOM      9  O   UNL     1       1.856   7.804   1.476  1.00  0.00    -0.544 OA
ENDBRANCH   2   7
ENDBRANCH   1   2
BRANCH   1  10
ATOM     10  C   UNL     1       5.855   9.901   3.605  1.00  0.00     0.076 C 
BRANCH  10  11
ATOM     11  S   UNL     1       7.088  10.972   2.781  1.00  0.00    -0.165 SA
ATOM     12  C   UNL     1       5.911  12.271   2.279  1.00  0.00     0.085 C 
ENDBRANCH  10  11
ENDBRANCH   1  10
TORSDOF 5
ENDMDL
MODEL 2
REMARK VINA RESULT:    -2.736     10.449     10.896
REMARK INTER + INTRA:          -3.530
REMARK INTER:                  -3.401
REMARK INTRA:                  -0.128
REMARK UNBOUND:                -0.074
REMARK SMILES CSCC[C@H]([NH3+])C(=O)[O-]
REMARK SMILES IDX 4 1 5 2 6 3 7 7 8 8 9 9 3 10 2 11 1 12
REMARK H PARENT 6 4 6 5 6 6
REMARK Flexibility Score: inf
ROOT
ATOM      1  C   UNL     1       4.444  10.653  -9.201  1.00  0.00     0.082 C 
ENDROOT
BRANCH   1   2
ATOM      2  C   UNL     1       3.373  10.359  -8.127  1.00  0.00     0.228 C 
BRANCH   2   3
ATOM      3  N   UNL     1       2.120   9.883  -8.727  1.00  0.00    -0.350 N 
ATOM      4  H   UNL     1       1.370  10.601  -8.613  1.00  0.00     0.345 HD
ATOM      5  H   UNL     1       2.253   9.728  -9.753  1.00  0.00     0.345 HD
ATOM      6  H   UNL     1       1.812   8.986  -8.284  1.00  0.00     0.345 HD
ENDBRANCH   2   3
BRANCH   2   7
ATOM      7  C   UNL     1       3.118  11.604  -7.320  1.00  0.00     0.099 C 
ATOM      8  O   UNL     1       2.258  11.597  -6.401  1.00  0.00    -0.544 OA
ATOM      9  O   UNL     1       3.842  12.763  -7.571  1.00  0.00    -0.544 OA
ENDBRANCH   2   7
ENDBRANCH   1   2
BRANCH   1  10
ATOM     10  C   UNL     1       5.744   9.874  -8.968  1.00  0.00     0.076 C 
BRANCH  10  11
ATOM     11  S   UNL     1       7.035  10.967  -8.271  1.00  0.00    -0.165 SA
ATOM     12  C   UNL     1       8.036   9.636  -7.531  1.00  0.00     0.085 C 
ENDBRANCH  10  11
ENDBRANCH   1  10
TORSDOF 5
ENDMDL
MODEL 3
REMARK VINA RESULT:    -2.708      4.291      5.492
REMARK INTER + INTRA:          -3.494
REMARK INTER:                  -3.349
REMARK INTRA:                  -0.145
REMARK UNBOUND:                -0.074
REMARK SMILES CSCC[C@H]([NH3+])C(=O)[O-]
REMARK SMILES IDX 4 1 5 2 6 3 7 7 8 8 9 9 3 10 2 11 1 12
REMARK H PARENT 6 4 6 5 6 6
REMARK Flexibility Score: inf
ROOT
ATOM      1  C   UNL     1       1.078   6.629   2.254  1.00  0.00     0.082 C 
ENDROOT
BRANCH   1   2
ATOM      2  C   UNL     1       2.262   7.110   3.122  1.00  0.00     0.228 C 
BRANCH   2   3
ATOM      3  N   UNL     1       1.802   7.713   4.380  1.00  0.00    -0.350 N 
ATOM      4  H   UNL     1       2.586   7.750   5.070  1.00  0.00     0.345 HD
ATOM      5  H   UNL     1       1.487   8.696   4.210  1.00  0.00     0.345 HD
ATOM      6  H   UNL     1       1.008   7.167   4.787  1.00  0.00     0.345 HD
ENDBRANCH   2   3
BRANCH   2   7
ATOM      7  C   UNL     1       3.081   8.105   2.344  1.00  0.00     0.099 C 
ATOM      8  O   UNL     1       2.520   8.899   1.544  1.00  0.00    -0.544 OA
ATOM      9  O   UNL     1       4.459   8.168   2.516  1.00  0.00    -0.544 OA
ENDBRANCH   2   7
ENDBRANCH   1   2
BRANCH   1  10
ATOM     10  C   UNL     1       0.189   5.612   2.980  1.00  0.00     0.076 C 
BRANCH  10  11
ATOM     11  S   UNL     1      -1.573   6.081   2.843  1.00  0.00    -0.165 SA
ATOM     12  C   UNL     1      -1.276   7.774   2.236  1.00  0.00     0.085 C 
ENDBRANCH  10  11
ENDBRANCH   1  10
TORSDOF 5
ENDMDL
MODEL 4
REMARK VINA RESULT:    -2.670     10.330     10.603
REMARK INTER + INTRA:          -3.446
REMARK INTER:                  -3.384
REMARK INTRA:                  -0.062
REMARK UNBOUND:                -0.074
REMARK SMILES CSCC[C@H]([NH3+])C(=O)[O-]
REMARK SMILES IDX 4 1 5 2 6 3 7 7 8 8 9 9 3 10 2 11 1 12
REMARK H PARENT 6 4 6 5 6 6
REMARK Flexibility Score: inf
ROOT
ATOM      1  C   UNL     1       3.937  11.822  -8.052  1.00  0.00     0.082 C 
ENDROOT
BRANCH   1   2
ATOM      2  C   UNL     1       2.875  10.801  -7.585  1.00  0.00     0.228 C 
BRANCH   2   3
ATOM      3  N   UNL     1       2.550   9.835  -8.643  1.00  0.00    -0.350 N 
ATOM      4  H   UNL     1       1.762   9.220  -8.340  1.00  0.00     0.345 HD
ATOM      5  H   UNL     1       2.239  10.342  -9.504  1.00  0.00     0.345 HD
ATOM      6  H   UNL     1       3.381   9.245  -8.877  1.00  0.00     0.345 HD
ENDBRANCH   2   3
BRANCH   2   7
ATOM      7  C   UNL     1       1.632  11.533  -7.155  1.00  0.00     0.099 C 
ATOM      8  O   UNL     1       0.497  11.097  -7.481  1.00  0.00    -0.544 OA
ATOM      9  O   UNL     1       1.727  12.682  -6.380  1.00  0.00    -0.544 OA
ENDBRANCH   2   7
ENDBRANCH   1   2
BRANCH   1  10
ATOM     10  C   UNL     1       5.084  11.167  -8.829  1.00  0.00     0.076 C 
BRANCH  10  11
ATOM     11  S   UNL     1       6.700  11.799  -8.250  1.00  0.00    -0.165 SA
ATOM     12  C   UNL     1       6.054  13.337  -7.514  1.00  0.00     0.085 C 
ENDBRANCH  10  11
ENDBRANCH   1  10
TORSDOF 5
ENDMDL
MODEL 5
REMARK VINA RESULT:    -2.629      4.047      5.350
REMARK INTER + INTRA:          -3.395
REMARK INTER:                  -3.234
REMARK INTRA:                  -0.161
REMARK UNBOUND:                -0.074
REMARK SMILES CSCC[C@H]([NH3+])C(=O)[O-]
REMARK SMILES IDX 4 1 5 2 6 3 7 7 8 8 9 9 3 10 2 11 1 12
REMARK H PARENT 6 4 6 5 6 6
REMARK Flexibility Score: inf
ROOT
ATOM      1  C   UNL     1       1.510   7.491   4.101  1.00  0.00     0.082 C 
ENDROOT
BRANCH   1   2
ATOM      2  C   UNL     1       2.123   7.049   2.753  1.00  0.00     0.228 C 
BRANCH   2   3
ATOM      3  N   UNL     1       2.896   5.807   2.890  1.00  0.00    -0.350 N 
ATOM      4  H   UNL     1       3.912   5.996   2.736  1.00  0.00     0.345 HD
ATOM      5  H   UNL     1       2.791   5.427   3.860  1.00  0.00     0.345 HD
ATOM      6  H   UNL     1       2.569   5.087   2.205  1.00  0.00     0.345 HD
ENDBRANCH   2   3
BRANCH   2   7
ATOM      7  C   UNL     1       3.003   8.147   2.219  1.00  0.00     0.099 C 
ATOM      8  O   UNL     1       2.508   9.073   1.525  1.00  0.00    -0.544 OA
ATOM      9  O   UNL     1       4.363   8.158   2.505  1.00  0.00    -0.544 OA
ENDBRANCH   2   7
ENDBRANCH   1   2
BRANCH   1  10
ATOM     10  C   UNL     1       0.015   7.166   4.205  1.00  0.00     0.076 C 
BRANCH  10  11
ATOM     11  S   UNL     1      -0.767   7.195   2.552  1.00  0.00    -0.165 SA
ATOM     12  C   UNL     1      -1.697   5.640   2.751  1.00  0.00     0.085 C 
ENDBRANCH  10  11
ENDBRANCH   1  10
TORSDOF 5
ENDMDL
MODEL 6
REMARK VINA RESULT:    -2.620      5.874      6.476
REMARK INTER + INTRA:          -3.383
REMARK INTER:                  -3.261
REMARK INTRA:                  -0.121
REMARK UNBOUND:                -0.074
REMARK SMILES CSCC[C@H]([NH3+])C(=O)[O-]
REMARK SMILES IDX 4 1 5 2 6 3 7 7 8 8 9 9 3 10 2 11 1 12
REMARK H PARENT 6 4 6 5 6 6
REMARK Flexibility Score: inf
ROOT
ATOM      1  C   UNL     1      -1.075   8.696   2.999  1.00  0.00     0.082 C 
ENDROOT
BRANCH   1   2
ATOM      2  C   UNL     1      -0.985   7.405   2.155  1.00  0.00     0.228 C 
BRANCH   2   3
ATOM      3  N   UNL     1      -2.033   6.444   2.522  1.00  0.00    -0.350 N 
ATOM      4  H   UNL     1      -2.663   6.267   1.707  1.00  0.00     0.345 HD
ATOM      5  H   UNL     1      -1.600   5.529   2.788  1.00  0.00     0.345 HD
ATOM      6  H   UNL     1      -2.600   6.799   3.327  1.00  0.00     0.345 HD
ENDBRANCH   2   3
BRANCH   2   7
ATOM      7  C   UNL     1       0.373   6.782   2.337  1.00  0.00     0.099 C 
ATOM      8  O   UNL     1       0.556   5.915   3.232  1.00  0.00    -0.544 OA
ATOM      9  O   UNL     1       1.428   7.144   1.509  1.00  0.00    -0.544 OA
ENDBRANCH   2   7
ENDBRANCH   1   2
BRANCH   1  10
ATOM     10  C   UNL     1      -1.312   9.946   2.143  1.00  0.00     0.076 C 
BRANCH  10  11
ATOM     11  S   UNL     1      -3.048  10.019   1.573  1.00  0.00    -0.165 SA
ATOM     12  C   UNL     1      -2.669   9.962  -0.209  1.00  0.00     0.085 C 
ENDBRANCH  10  11
ENDBRANCH   1  10
TORSDOF 5
ENDMDL
MODEL 7
REMARK VINA RESULT:    -2.614      4.425      5.280
REMARK INTER + INTRA:          -3.375
REMARK INTER:                  -3.230
REMARK INTRA:                  -0.145
REMARK UNBOUND:                -0.074
REMARK SMILES CSCC[C@H]([NH3+])C(=O)[O-]
REMARK SMILES IDX 4 1 5 2 6 3 7 7 8 8 9 9 3 10 2 11 1 12
REMARK H PARENT 6 4 6 5 6 6
REMARK Flexibility Score: inf
ROOT
ATOM      1  C   UNL     1      -0.688   9.797   2.797  1.00  0.00     0.082 C 
ENDROOT
BRANCH   1   2
ATOM      2  C   UNL     1      -1.984   9.561   1.989  1.00  0.00     0.228 C 
BRANCH   2   3
ATOM      3  N   UNL     1      -2.218   8.132   1.743  1.00  0.00    -0.350 N 
ATOM      4  H   UNL     1      -3.005   8.006   1.067  1.00  0.00     0.345 HD
ATOM      5  H   UNL     1      -1.365   7.701   1.316  1.00  0.00     0.345 HD
ATOM      6  H   UNL     1      -2.442   7.633   2.634  1.00  0.00     0.345 HD
ENDBRANCH   2   3
BRANCH   2   7
ATOM      7  C   UNL     1      -1.900  10.303   0.681  1.00  0.00     0.099 C 
ATOM      8  O   UNL     1      -1.433  11.471   0.645  1.00  0.00    -0.544 OA
ATOM      9  O   UNL     1      -2.318   9.696  -0.497  1.00  0.00    -0.544 OA
ENDBRANCH   2   7
ENDBRANCH   1   2
BRANCH   1  10
ATOM     10  C   UNL     1       0.469   8.905   2.330  1.00  0.00     0.076 C 
BRANCH  10  11
ATOM     11  S   UNL     1       1.926   9.918   1.889  1.00  0.00    -0.165 SA
ATOM     12  C   UNL     1       3.171   8.640   2.263  1.00  0.00     0.085 C 
ENDBRANCH  10  11
ENDBRANCH   1  10
TORSDOF 5
ENDMDL
MODEL 8
REMARK VINA RESULT:    -2.571      3.832      4.910
REMARK INTER + INTRA:          -3.321
REMARK INTER:                  -3.104
REMARK INTRA:                  -0.217
REMARK UNBOUND:                -0.074
REMARK SMILES CSCC[C@H]([NH3+])C(=O)[O-]
REMARK SMILES IDX 4 1 5 2 6 3 7 7 8 8 9 9 3 10 2 11 1 12
REMARK H PARENT 6 4 6 5 6 6
REMARK Flexibility Score: inf
ROOT
ATOM      1  C   UNL     1       1.627   7.405   4.202  1.00  0.00     0.082 C 
ENDROOT
BRANCH   1   2
ATOM      2  C   UNL     1       2.187   6.982   2.826  1.00  0.00     0.228 C 
BRANCH   2   3
ATOM      3  N   UNL     1       2.994   5.758   2.922  1.00  0.00    -0.350 N 
ATOM      4  H   UNL     1       2.372   4.919   2.969  1.00  0.00     0.345 HD
ATOM      5  H   UNL     1       3.592   5.658   2.070  1.00  0.00     0.345 HD
ATOM      6  H   UNL     1       3.608   5.782   3.768  1.00  0.00     0.345 HD
ENDBRANCH   2   3
BRANCH   2   7
ATOM      7  C   UNL     1       3.017   8.102   2.257  1.00  0.00     0.099 C 
ATOM      8  O   UNL     1       2.476   8.995   1.553  1.00  0.00    -0.544 OA
ATOM      9  O   UNL     1       4.379   8.169   2.520  1.00  0.00    -0.544 OA
ENDBRANCH   2   7
ENDBRANCH   1   2
BRANCH   1  10
ATOM     10  C   UNL     1       0.150   7.812   4.139  1.00  0.00     0.076 C 
BRANCH  10  11
ATOM     11  S   UNL     1      -0.666   7.055   2.687  1.00  0.00    -0.165 SA
ATOM     12  C   UNL     1      -1.363   8.605   2.027  1.00  0.00     0.085 C 
ENDBRANCH  10  11
ENDBRANCH   1  10
TORSDOF 5
ENDMDL
MODEL 9
REMARK VINA RESULT:    -2.522      3.916      4.833
REMARK INTER + INTRA:          -3.259
REMARK INTER:                  -3.124
REMARK INTRA:                  -0.135
REMARK UNBOUND:                -0.074
REMARK SMILES CSCC[C@H]([NH3+])C(=O)[O-]
REMARK SMILES IDX 4 1 5 2 6 3 7 7 8 8 9 9 3 10 2 11 1 12
REMARK H PARENT 6 4 6 5 6 6
REMARK Flexibility Score: inf
ROOT
ATOM      1  C   UNL     1       0.500   6.823   2.308  1.00  0.00     0.082 C 
ENDROOT
BRANCH   1   2
ATOM      2  C   UNL     1      -0.882   7.314   2.794  1.00  0.00     0.228 C 
BRANCH   2   3
ATOM      3  N   UNL     1      -1.955   6.391   2.401  1.00  0.00    -0.350 N 
ATOM      4  H   UNL     1      -1.950   6.251   1.366  1.00  0.00     0.345 HD
ATOM      5  H   UNL     1      -1.800   5.456   2.845  1.00  0.00     0.345 HD
ATOM      6  H   UNL     1      -2.889   6.758   2.697  1.00  0.00     0.345 HD
ENDBRANCH   2   3
BRANCH   2   7
ATOM      7  C   UNL     1      -1.152   8.685   2.233  1.00  0.00     0.099 C 
ATOM      8  O   UNL     1      -1.598   8.814   1.063  1.00  0.00    -0.544 OA
ATOM      9  O   UNL     1      -0.929   9.817   3.009  1.00  0.00    -0.544 OA
ENDBRANCH   2   7
ENDBRANCH   1   2
BRANCH   1  10
ATOM     10  C   UNL     1       1.645   7.295   3.211  1.00  0.00     0.076 C 
BRANCH  10  11
ATOM     11  S   UNL     1       2.763   8.420   2.301  1.00  0.00    -0.165 SA
ATOM     12  C   UNL     1       4.308   7.803   3.047  1.00  0.00     0.085 C 
ENDBRANCH  10  11
ENDBRANCH   1  10
TORSDOF 5
ENDMDL
