MODEL 1
REMARK VINA RESULT:    -6.069      0.000      0.000
REMARK INTER + INTRA:          -7.430
REMARK INTER:                  -7.133
REMARK INTRA:                  -0.297
REMARK UNBOUND:                -0.297
REMARK SMILES O=c1c(O)c(-c2ccc(O)c(O)c2)oc2cc(O)ccc12
REMARK SMILES IDX 5 1 3 2 2 3 1 4 21 5 15 6 14 7 16 8 17 9 19 10 20 11 6 12
REMARK SMILES IDX 7 13 8 14 9 15 13 16 11 17 10 18 12 20 4 22 18 24
REMARK H PARENT 10 19 12 21 4 23 18 25
REMARK Flexibility Score: inf
ROOT
ATOM      1  C   UNL     1      -2.027   8.760 -10.580  1.00  0.00     0.180 A 
ATOM      2  C   UNL     1      -2.992   7.897 -11.136  1.00  0.00     0.208 A 
ATOM      3  C   UNL     1      -4.185   8.445 -11.632  1.00  0.00     0.235 A 
ATOM      4  O   UNL     1      -5.069   7.692 -12.125  1.00  0.00    -0.285 OA
ATOM      5  C   UNL     1      -4.379   9.835 -11.580  1.00  0.00     0.069 A 
ATOM      6  C   UNL     1      -3.354  10.634 -11.030  1.00  0.00     0.142 A 
ATOM      7  O   UNL     1      -2.244  10.074 -10.563  1.00  0.00    -0.452 OA
ATOM      8  C   UNL     1      -3.505  12.024 -10.969  1.00  0.00     0.094 A 
ATOM      9  C   UNL     1      -4.671  12.628 -11.453  1.00  0.00     0.119 A 
ATOM     10  C   UNL     1      -5.692  11.837 -11.998  1.00  0.00     0.047 A 
ATOM     11  C   UNL     1      -5.550  10.448 -12.064  1.00  0.00     0.020 A 
ENDROOT
BRANCH   1  12
ATOM     12  C   UNL     1      -0.751   8.257 -10.019  1.00  0.00     0.025 A 
ATOM     13  C   UNL     1      -0.578   8.083  -8.638  1.00  0.00     0.016 A 
ATOM     14  C   UNL     1       0.642   7.630  -8.131  1.00  0.00     0.051 A 
ATOM     15  C   UNL     1       1.714   7.355  -8.987  1.00  0.00     0.157 A 
ATOM     16  C   UNL     1       0.329   8.004 -10.879  1.00  0.00     0.062 A 
ATOM     17  C   UNL     1       1.556   7.549 -10.380  1.00  0.00     0.158 A 
BRANCH  15  18
ATOM     18  O   UNL     1       2.905   6.902  -8.418  1.00  0.00    -0.504 OA
ATOM     19  H   UNL     1       3.455   6.141  -8.789  1.00  0.00     0.293 HD
ENDBRANCH  15  18
BRANCH  17  20
ATOM     20  O   UNL     1       2.582   7.306 -11.296  1.00  0.00    -0.504 OA
ATOM     21  H   UNL     1       2.867   7.960 -12.011  1.00  0.00     0.293 HD
ENDBRANCH  17  20
ENDBRANCH   1  12
BRANCH   2  22
ATOM     22  O   UNL     1      -2.749   6.523 -11.218  1.00  0.00    -0.502 OA
ATOM     23  H   UNL     1      -3.425   5.834 -10.909  1.00  0.00     0.293 HD
ENDBRANCH   2  22
BRANCH   9  24
ATOM     24  O   UNL     1      -4.805  14.012 -11.384  1.00  0.00    -0.508 OA
ATOM     25  H   UNL     1      -4.993  14.483 -10.506  1.00  0.00     0.293 HD
ENDBRANCH   9  24
TORSDOF 5
ENDMDL
MODEL 2
REMARK VINA RESULT:    -5.357      1.918      6.554
REMARK INTER + INTRA:          -6.594
REMARK INTER:                  -6.438
REMARK INTRA:                  -0.156
REMARK UNBOUND:                -0.297
REMARK SMILES O=c1c(O)c(-c2ccc(O)c(O)c2)oc2cc(O)ccc12
REMARK SMILES IDX 5 1 3 2 2 3 1 4 21 5 15 6 14 7 16 8 17 9 19 10 20 11 6 12
REMARK SMILES IDX 7 13 8 14 9 15 13 16 11 17 10 18 12 20 4 22 18 24
REMARK H PARENT 10 19 12 21 4 23 18 25
REMARK Flexibility Score: inf
ROOT
ATOM      1  C   UNL     1      -1.940   8.812 -10.480  1.00  0.00     0.180 A 
ATOM      2  C   UNL     1      -1.752   7.546  -9.889  1.00  0.00     0.208 A 
ATOM      3  C   UNL     1      -0.445   7.126  -9.593  1.00  0.00     0.235 A 
ATOM      4  O   UNL     1      -0.249   5.992  -9.075  1.00  0.00    -0.285 OA
ATOM      5  C   UNL     1       0.634   7.979  -9.871  1.00  0.00     0.069 A 
ATOM      6  C   UNL     1       0.359   9.242 -10.440  1.00  0.00     0.142 A 
ATOM      7  O   UNL     1      -0.891   9.597 -10.713  1.00  0.00    -0.452 OA
ATOM      8  C   UNL     1       1.407  10.126 -10.722  1.00  0.00     0.094 A 
ATOM      9  C   UNL     1       2.729   9.764 -10.444  1.00  0.00     0.119 A 
ATOM     10  C   UNL     1       3.006   8.511  -9.880  1.00  0.00     0.047 A 
ATOM     11  C   UNL     1       1.966   7.621  -9.594  1.00  0.00     0.020 A 
ENDROOT
BRANCH   1  12
ATOM     12  C   UNL     1      -3.285   9.319 -10.839  1.00  0.00     0.025 A 
ATOM     13  C   UNL     1      -4.086   8.660 -11.784  1.00  0.00     0.016 A 
ATOM     14  C   UNL     1      -5.340   9.170 -12.125  1.00  0.00     0.051 A 
ATOM     15  C   UNL     1      -5.814  10.351 -11.541  1.00  0.00     0.157 A 
ATOM     16  C   UNL     1      -3.748  10.515 -10.269  1.00  0.00     0.062 A 
ATOM     17  C   UNL     1      -5.005  11.034 -10.603  1.00  0.00     0.158 A 
BRANCH  15  18
ATOM     18  O   UNL     1      -7.078  10.805 -11.921  1.00  0.00    -0.504 OA
ATOM     19  H   UNL     1      -7.594  10.444 -12.709  1.00  0.00     0.293 HD
ENDBRANCH  15  18
BRANCH  17  20
ATOM     20  O   UNL     1      -5.404  12.221  -9.986  1.00  0.00    -0.504 OA
ATOM     21  H   UNL     1      -6.111  12.273  -9.266  1.00  0.00     0.293 HD
ENDBRANCH  17  20
ENDBRANCH   1  12
BRANCH   2  22
ATOM     22  O   UNL     1      -2.848   6.738  -9.580  1.00  0.00    -0.502 OA
ATOM     23  H   UNL     1      -3.798   7.000  -9.817  1.00  0.00     0.293 HD
ENDBRANCH   2  22
BRANCH   9  24
ATOM     24  O   UNL     1       3.760  10.655 -10.732  1.00  0.00    -0.508 OA
ATOM     25  H   UNL     1       3.626  11.658 -10.669  1.00  0.00     0.293 HD
ENDBRANCH   9  24
TORSDOF 5
ENDMDL
MODEL 3
REMARK VINA RESULT:    -5.023      2.175      3.026
REMARK INTER + INTRA:          -6.201
REMARK INTER:                  -6.202
REMARK INTRA:                   0.001
REMARK UNBOUND:                -0.297
REMARK SMILES O=c1c(O)c(-c2ccc(O)c(O)c2)oc2cc(O)ccc12
REMARK SMILES IDX 5 1 3 2 2 3 1 4 21 5 15 6 14 7 16 8 17 9 19 10 20 11 6 12
REMARK SMILES IDX 7 13 8 14 9 15 13 16 11 17 10 18 12 20 4 22 18 24
REMARK H PARENT 10 19 12 21 4 23 18 25
REMARK Flexibility Score: inf
ROOT
ATOM      1  C   UNL     1      -0.122   8.908 -11.044  1.00  0.00     0.180 A 
ATOM      2  C   UNL     1      -0.702   7.730 -10.529  1.00  0.00     0.208 A 
ATOM      3  C   UNL     1      -2.093   7.685 -10.347  1.00  0.00     0.235 A 
ATOM      4  O   UNL     1      -2.635   6.647  -9.877  1.00  0.00    -0.285 OA
ATOM      5  C   UNL     1      -2.872   8.799 -10.699  1.00  0.00     0.069 A 
ATOM      6  C   UNL     1      -2.218   9.931 -11.232  1.00  0.00     0.142 A 
ATOM      7  O   UNL     1      -0.898   9.937 -11.379  1.00  0.00    -0.452 OA
ATOM      8  C   UNL     1      -2.960  11.058 -11.604  1.00  0.00     0.094 A 
ATOM      9  C   UNL     1      -4.350  11.069 -11.451  1.00  0.00     0.119 A 
ATOM     10  C   UNL     1      -5.003   9.947 -10.921  1.00  0.00     0.047 A 
ATOM     11  C   UNL     1      -4.271   8.817 -10.546  1.00  0.00     0.020 A 
ENDROOT
BRANCH   1  12
ATOM     12  C   UNL     1       1.339   9.041 -11.248  1.00  0.00     0.025 A 
ATOM     13  C   UNL     1       2.069   8.072 -11.954  1.00  0.00     0.016 A 
ATOM     14  C   UNL     1       3.450   8.207 -12.113  1.00  0.00     0.051 A 
ATOM     15  C   UNL     1       4.130   9.299 -11.562  1.00  0.00     0.157 A 
ATOM     16  C   UNL     1       2.021  10.125 -10.675  1.00  0.00     0.062 A 
ATOM     17  C   UNL     1       3.405  10.270 -10.830  1.00  0.00     0.158 A 
BRANCH  15  18
ATOM     18  O   UNL     1       5.509   9.377 -11.760  1.00  0.00    -0.504 OA
ATOM     19  H   UNL     1       5.941   9.821 -12.558  1.00  0.00     0.293 HD
ENDBRANCH  15  18
BRANCH  17  20
ATOM     20  O   UNL     1       4.014  11.380 -10.244  1.00  0.00    -0.504 OA
ATOM     21  H   UNL     1       3.535  12.035  -9.641  1.00  0.00     0.293 HD
ENDBRANCH  17  20
ENDBRANCH   1  12
BRANCH   2  22
ATOM     22  O   UNL     1       0.093   6.621 -10.233  1.00  0.00    -0.502 OA
ATOM     23  H   UNL     1       0.793   6.269 -10.876  1.00  0.00     0.293 HD
ENDBRANCH   2  22
BRANCH   9  24
ATOM     24  O   UNL     1      -5.073  12.199 -11.826  1.00  0.00    -0.508 OA
ATOM     25  H   UNL     1      -5.096  13.029 -11.245  1.00  0.00     0.293 HD
ENDBRANCH   9  24
TORSDOF 5
ENDMDL
MODEL 4
REMARK VINA RESULT:    -5.016     16.064     17.290
REMARK INTER + INTRA:          -6.193
REMARK INTER:                  -5.908
REMARK INTRA:                  -0.285
REMARK UNBOUND:                -0.297
REMARK SMILES O=c1c(O)c(-c2ccc(O)c(O)c2)oc2cc(O)ccc12
REMARK SMILES IDX 5 1 3 2 2 3 1 4 21 5 15 6 14 7 16 8 17 9 19 10 20 11 6 12
REMARK SMILES IDX 7 13 8 14 9 15 13 16 11 17 10 18 12 20 4 22 18 24
REMARK H PARENT 10 19 12 21 4 23 18 25
REMARK Flexibility Score: inf
ROOT
ATOM      1  C   UNL     1      -4.149  10.552   5.724  1.00  0.00     0.180 A 
ATOM      2  C   UNL     1      -4.761  11.776   5.385  1.00  0.00     0.208 A 
ATOM      3  C   UNL     1      -3.947  12.868   5.048  1.00  0.00     0.235 A 
ATOM      4  O   UNL     1      -4.470  13.978   4.752  1.00  0.00    -0.285 OA
ATOM      5  C   UNL     1      -2.551  12.712   5.037  1.00  0.00     0.069 A 
ATOM      6  C   UNL     1      -2.017  11.447   5.364  1.00  0.00     0.142 A 
ATOM      7  O   UNL     1      -2.822  10.441   5.686  1.00  0.00    -0.452 OA
ATOM      8  C   UNL     1      -0.632  11.248   5.355  1.00  0.00     0.094 A 
ATOM      9  C   UNL     1       0.229  12.299   5.022  1.00  0.00     0.119 A 
ATOM     10  C   UNL     1      -0.298  13.557   4.698  1.00  0.00     0.047 A 
ATOM     11  C   UNL     1      -1.680  13.766   4.704  1.00  0.00     0.020 A 
ENDROOT
BRANCH   1  12
ATOM     12  C   UNL     1      -4.937   9.358   6.108  1.00  0.00     0.025 A 
ATOM     13  C   UNL     1      -5.078   8.978   7.452  1.00  0.00     0.016 A 
ATOM     14  C   UNL     1      -5.807   7.835   7.789  1.00  0.00     0.051 A 
ATOM     15  C   UNL     1      -6.396   7.044   6.795  1.00  0.00     0.157 A 
ATOM     16  C   UNL     1      -5.508   8.556   5.109  1.00  0.00     0.062 A 
ATOM     17  C   UNL     1      -6.241   7.408   5.436  1.00  0.00     0.158 A 
BRANCH  15  18
ATOM     18  O   UNL     1      -7.114   5.918   7.198  1.00  0.00    -0.504 OA
ATOM     19  H   UNL     1      -8.020   5.954   7.643  1.00  0.00     0.293 HD
ENDBRANCH  15  18
BRANCH  17  20
ATOM     20  O   UNL     1      -6.791   6.665   4.390  1.00  0.00    -0.504 OA
ATOM     21  H   UNL     1      -7.759   6.380   4.347  1.00  0.00     0.293 HD
ENDBRANCH  17  20
ENDBRANCH   1  12
BRANCH   2  22
ATOM     22  O   UNL     1      -6.153  11.888   5.358  1.00  0.00    -0.502 OA
ATOM     23  H   UNL     1      -6.713  11.894   6.203  1.00  0.00     0.293 HD
ENDBRANCH   2  22
BRANCH   9  24
ATOM     24  O   UNL     1       1.605  12.084   5.019  1.00  0.00    -0.508 OA
ATOM     25  H   UNL     1       2.080  11.707   4.207  1.00  0.00     0.293 HD
ENDBRANCH   9  24
TORSDOF 5
ENDMDL
MODEL 5
REMARK VINA RESULT:    -4.970     14.319     15.410
REMARK INTER + INTRA:          -6.139
REMARK INTER:                  -6.381
REMARK INTRA:                   0.242
REMARK UNBOUND:                -0.297
REMARK SMILES O=c1c(O)c(-c2ccc(O)c(O)c2)oc2cc(O)ccc12
REMARK SMILES IDX 5 1 3 2 2 3 1 4 21 5 15 6 14 7 16 8 17 9 19 10 20 11 6 12
REMARK SMILES IDX 7 13 8 14 9 15 13 16 11 17 10 18 12 20 4 22 18 24
REMARK H PARENT 10 19 12 21 4 23 18 25
REMARK Flexibility Score: inf
ROOT
ATOM      1  C   UNL     1      -4.248  -5.041  -6.037  1.00  0.00     0.180 A 
ATOM      2  C   UNL     1      -5.584  -4.709  -6.342  1.00  0.00     0.208 A 
ATOM      3  C   UNL     1      -5.937  -4.492  -7.683  1.00  0.00     0.235 A 
ATOM      4  O   UNL     1      -7.124  -4.183  -7.981  1.00  0.00    -0.285 OA
ATOM      5  C   UNL     1      -4.963  -4.631  -8.685  1.00  0.00     0.069 A 
ATOM      6  C   UNL     1      -3.653  -4.990  -8.299  1.00  0.00     0.142 A 
ATOM      7  O   UNL     1      -3.358  -5.177  -7.018  1.00  0.00    -0.452 OA
ATOM      8  C   UNL     1      -2.657  -5.148  -9.269  1.00  0.00     0.094 A 
ATOM      9  C   UNL     1      -2.952  -4.950 -10.622  1.00  0.00     0.119 A 
ATOM     10  C   UNL     1      -4.250  -4.591 -11.008  1.00  0.00     0.047 A 
ATOM     11  C   UNL     1      -5.253  -4.432 -10.047  1.00  0.00     0.020 A 
ENDROOT
BRANCH   1  12
ATOM     12  C   UNL     1      -3.792  -5.267  -4.646  1.00  0.00     0.025 A 
ATOM     13  C   UNL     1      -4.643  -5.826  -3.680  1.00  0.00     0.016 A 
ATOM     14  C   UNL     1      -4.199  -6.008  -2.369  1.00  0.00     0.051 A 
ATOM     15  C   UNL     1      -2.906  -5.625  -1.992  1.00  0.00     0.157 A 
ATOM     16  C   UNL     1      -2.504  -4.862  -4.266  1.00  0.00     0.062 A 
ATOM     17  C   UNL     1      -2.048  -5.041  -2.954  1.00  0.00     0.158 A 
BRANCH  15  18
ATOM     18  O   UNL     1      -2.522  -5.838  -0.667  1.00  0.00    -0.504 OA
ATOM     19  H   UNL     1      -3.058  -6.377  -0.004  1.00  0.00     0.293 HD
ENDBRANCH  15  18
BRANCH  17  20
ATOM     20  O   UNL     1      -0.750  -4.625  -2.652  1.00  0.00    -0.504 OA
ATOM     21  H   UNL     1      -0.532  -3.785  -2.135  1.00  0.00     0.293 HD
ENDBRANCH  17  20
ENDBRANCH   1  12
BRANCH   2  22
ATOM     22  O   UNL     1      -6.542  -4.626  -5.329  1.00  0.00    -0.502 OA
ATOM     23  H   UNL     1      -6.290  -4.539  -4.351  1.00  0.00     0.293 HD
ENDBRANCH   2  22
BRANCH   9  24
ATOM     24  O   UNL     1      -1.947  -5.110 -11.573  1.00  0.00    -0.508 OA
ATOM     25  H   UNL     1      -1.397  -4.324 -11.900  1.00  0.00     0.293 HD
ENDBRANCH   9  24
TORSDOF 5
ENDMDL
MODEL 6
REMARK VINA RESULT:    -4.839     11.903     14.105
REMARK INTER + INTRA:          -5.985
REMARK INTER:                  -5.666
REMARK INTRA:                  -0.319
REMARK UNBOUND:                -0.297
REMARK SMILES O=c1c(O)c(-c2ccc(O)c(O)c2)oc2cc(O)ccc12
REMARK SMILES IDX 5 1 3 2 2 3 1 4 21 5 15 6 14 7 16 8 17 9 19 10 20 11 6 12
REMARK SMILES IDX 7 13 8 14 9 15 13 16 11 17 10 18 12 20 4 22 18 24
REMARK H PARENT 10 19 12 21 4 23 18 25
REMARK Flexibility Score: inf
ROOT
ATOM      1  C   UNL     1      10.091  11.248  -7.446  1.00  0.00     0.180 A 
ATOM      2  C   UNL     1      10.128  11.866  -8.712  1.00  0.00     0.208 A 
ATOM      3  C   UNL     1      10.693  11.166  -9.789  1.00  0.00     0.235 A 
ATOM      4  O   UNL     1      10.749  11.702 -10.931  1.00  0.00    -0.285 OA
ATOM      5  C   UNL     1      11.188   9.867  -9.586  1.00  0.00     0.069 A 
ATOM      6  C   UNL     1      11.091   9.310  -8.293  1.00  0.00     0.142 A 
ATOM      7  O   UNL     1      10.557  10.009  -7.298  1.00  0.00    -0.452 OA
ATOM      8  C   UNL     1      11.562   8.015  -8.052  1.00  0.00     0.094 A 
ATOM      9  C   UNL     1      12.131   7.267  -9.088  1.00  0.00     0.119 A 
ATOM     10  C   UNL     1      12.231   7.818 -10.373  1.00  0.00     0.047 A 
ATOM     11  C   UNL     1      11.762   9.111 -10.624  1.00  0.00     0.020 A 
ENDROOT
BRANCH   1  12
ATOM     12  C   UNL     1       9.527  11.927  -6.256  1.00  0.00     0.025 A 
ATOM     13  C   UNL     1      10.343  12.657  -5.377  1.00  0.00     0.016 A 
ATOM     14  C   UNL     1       9.793  13.269  -4.248  1.00  0.00     0.051 A 
ATOM     15  C   UNL     1       8.427  13.156  -3.968  1.00  0.00     0.157 A 
ATOM     16  C   UNL     1       8.161  11.793  -5.966  1.00  0.00     0.062 A 
ATOM     17  C   UNL     1       7.600  12.404  -4.837  1.00  0.00     0.158 A 
BRANCH  15  18
ATOM     18  O   UNL     1       7.939  13.794  -2.827  1.00  0.00    -0.504 OA
ATOM     19  H   UNL     1       7.515  13.313  -2.048  1.00  0.00     0.293 HD
ENDBRANCH  15  18
BRANCH  17  20
ATOM     20  O   UNL     1       6.232  12.238  -4.619  1.00  0.00    -0.504 OA
ATOM     21  H   UNL     1       5.514  12.614  -5.222  1.00  0.00     0.293 HD
ENDBRANCH  17  20
ENDBRANCH   1  12
BRANCH   2  22
ATOM     22  O   UNL     1       9.585  13.140  -8.895  1.00  0.00    -0.502 OA
ATOM     23  H   UNL     1       9.759  13.901  -8.249  1.00  0.00     0.293 HD
ENDBRANCH   2  22
BRANCH   9  24
ATOM     24  O   UNL     1      12.597   5.980  -8.830  1.00  0.00    -0.508 OA
ATOM     25  H   UNL     1      11.960   5.202  -8.706  1.00  0.00     0.293 HD
ENDBRANCH   9  24
TORSDOF 5
ENDMDL
MODEL 7
REMARK VINA RESULT:    -4.831      3.131      4.566
REMARK INTER + INTRA:          -5.975
REMARK INTER:                  -5.755
REMARK INTRA:                  -0.220
REMARK UNBOUND:                -0.297
REMARK SMILES O=c1c(O)c(-c2ccc(O)c(O)c2)oc2cc(O)ccc12
REMARK SMILES IDX 5 1 3 2 2 3 1 4 21 5 15 6 14 7 16 8 17 9 19 10 20 11 6 12
REMARK SMILES IDX 7 13 8 14 9 15 13 16 11 17 10 18 12 20 4 22 18 24
REMARK H PARENT 10 19 12 21 4 23 18 25
REMARK Flexibility Score: inf
ROOT
ATOM      1  C   UNL     1       1.063   9.324 -10.761  1.00  0.00     0.180 A 
ATOM      2  C   UNL     1       1.041   8.035 -10.191  1.00  0.00     0.208 A 
ATOM      3  C   UNL     1      -0.196   7.398 -10.007  1.00  0.00     0.235 A 
ATOM      4  O   UNL     1      -0.242   6.248  -9.488  1.00  0.00    -0.285 OA
ATOM      5  C   UNL     1      -1.374   8.047 -10.411  1.00  0.00     0.069 A 
ATOM      6  C   UNL     1      -1.265   9.327 -10.996  1.00  0.00     0.142 A 
ATOM      7  O   UNL     1      -0.076   9.899 -11.144  1.00  0.00    -0.452 OA
ATOM      8  C   UNL     1      -2.414  10.002 -11.421  1.00  0.00     0.094 A 
ATOM      9  C   UNL     1      -3.675   9.415 -11.268  1.00  0.00     0.119 A 
ATOM     10  C   UNL     1      -3.786   8.145 -10.685  1.00  0.00     0.047 A 
ATOM     11  C   UNL     1      -2.644   7.462 -10.258  1.00  0.00     0.020 A 
ENDROOT
BRANCH   1  12
ATOM     12  C   UNL     1       2.326  10.070 -10.971  1.00  0.00     0.025 A 
ATOM     13  C   UNL     1       3.253   9.675 -11.948  1.00  0.00     0.016 A 
ATOM     14  C   UNL     1       4.448  10.380 -12.112  1.00  0.00     0.051 A 
ATOM     15  C   UNL     1       4.746  11.480 -11.300  1.00  0.00     0.157 A 
ATOM     16  C   UNL     1       2.632  11.158 -10.140  1.00  0.00     0.062 A 
ATOM     17  C   UNL     1       3.827  11.872 -10.297  1.00  0.00     0.158 A 
BRANCH  15  18
ATOM     18  O   UNL     1       5.955  12.143 -11.517  1.00  0.00    -0.504 OA
ATOM     19  H   UNL     1       6.061  12.936 -12.133  1.00  0.00     0.293 HD
ENDBRANCH  15  18
BRANCH  17  20
ATOM     20  O   UNL     1       4.059  12.951  -9.443  1.00  0.00    -0.504 OA
ATOM     21  H   UNL     1       3.340  13.405  -8.898  1.00  0.00     0.293 HD
ENDBRANCH  17  20
ENDBRANCH   1  12
BRANCH   2  22
ATOM     22  O   UNL     1       2.233   7.394  -9.843  1.00  0.00    -0.502 OA
ATOM     23  H   UNL     1       3.009   7.887  -9.417  1.00  0.00     0.293 HD
ENDBRANCH   2  22
BRANCH   9  24
ATOM     24  O   UNL     1      -4.808  10.102 -11.695  1.00  0.00    -0.508 OA
ATOM     25  H   UNL     1      -4.855  11.114 -11.671  1.00  0.00     0.293 HD
ENDBRANCH   9  24
TORSDOF 5
ENDMDL
MODEL 8
REMARK VINA RESULT:    -4.800     16.309     17.319
REMARK INTER + INTRA:          -5.939
REMARK INTER:                  -5.969
REMARK INTRA:                   0.030
REMARK UNBOUND:                -0.297
REMARK SMILES O=c1c(O)c(-c2ccc(O)c(O)c2)oc2cc(O)ccc12
REMARK SMILES IDX 5 1 3 2 2 3 1 4 21 5 15 6 14 7 16 8 17 9 19 10 20 11 6 12
REMARK SMILES IDX 7 13 8 14 9 15 13 16 11 17 10 18 12 20 4 22 18 24
REMARK H PARENT 10 19 12 21 4 23 18 25
REMARK Flexibility Score: inf
ROOT
ATOM      1  C   UNL     1      -1.267  11.475   5.703  1.00  0.00     0.180 A 
ATOM      2  C   UNL     1      -2.412  12.178   5.275  1.00  0.00     0.208 A 
ATOM      3  C   UNL     1      -3.646  11.508   5.249  1.00  0.00     0.235 A 
ATOM      4  O   UNL     1      -4.683  12.112   4.859  1.00  0.00    -0.285 OA
ATOM      5  C   UNL     1      -3.713  10.169   5.665  1.00  0.00     0.069 A 
ATOM      6  C   UNL     1      -2.526   9.543   6.102  1.00  0.00     0.142 A 
ATOM      7  O   UNL     1      -1.377  10.210   6.103  1.00  0.00    -0.452 OA
ATOM      8  C   UNL     1      -2.553   8.213   6.534  1.00  0.00     0.094 A 
ATOM      9  C   UNL     1      -3.755   7.496   6.534  1.00  0.00     0.119 A 
ATOM     10  C   UNL     1      -4.935   8.114   6.099  1.00  0.00     0.047 A 
ATOM     11  C   UNL     1      -4.918   9.442   5.666  1.00  0.00     0.020 A 
ENDROOT
BRANCH   1  12
ATOM     12  C   UNL     1       0.073  12.106   5.742  1.00  0.00     0.025 A 
ATOM     13  C   UNL     1       0.556  12.861   4.662  1.00  0.00     0.016 A 
ATOM     14  C   UNL     1       1.833  13.426   4.713  1.00  0.00     0.051 A 
ATOM     15  C   UNL     1       2.654  13.239   5.831  1.00  0.00     0.157 A 
ATOM     16  C   UNL     1       0.902  11.898   6.854  1.00  0.00     0.062 A 
ATOM     17  C   UNL     1       2.183  12.461   6.915  1.00  0.00     0.158 A 
BRANCH  15  18
ATOM     18  O   UNL     1       3.916  13.833   5.820  1.00  0.00    -0.504 OA
ATOM     19  H   UNL     1       4.430  14.084   6.652  1.00  0.00     0.293 HD
ENDBRANCH  15  18
BRANCH  17  20
ATOM     20  O   UNL     1       2.947  12.222   8.058  1.00  0.00    -0.504 OA
ATOM     21  H   UNL     1       3.471  11.373   8.221  1.00  0.00     0.293 HD
ENDBRANCH  17  20
ENDBRANCH   1  12
BRANCH   2  22
ATOM     22  O   UNL     1      -2.323  13.524   4.914  1.00  0.00    -0.502 OA
ATOM     23  H   UNL     1      -1.441  13.965   4.681  1.00  0.00     0.293 HD
ENDBRANCH   2  22
BRANCH   9  24
ATOM     24  O   UNL     1      -3.764   6.172   6.966  1.00  0.00    -0.508 OA
ATOM     25  H   UNL     1      -3.704   5.936   7.950  1.00  0.00     0.293 HD
ENDBRANCH   9  24
TORSDOF 5
ENDMDL
