MODEL 1
REMARK VINA RESULT:    -4.268      0.000      0.000
REMARK INTER + INTRA:          -9.643
REMARK INTER:                  -8.011
REMARK INTRA:                  -1.632
REMARK UNBOUND:                -1.632
REMARK SMILES O=C([O-])CCCCCCCCCCCCCCC(=O)[O-]
REMARK SMILES IDX 10 1 9 2 8 3 7 4 6 5 5 6 4 7 2 8 1 9 3 10 11 11 12 12 13 13
REMARK SMILES IDX 14 14 15 15 16 16 17 17 18 18 19 19 20 20
REMARK H PARENT
REMARK Flexibility Score: inf
ROOT
ATOM      1  C   UNL     1      13.460  38.078  22.294  1.00  0.00     0.000 C 
ENDROOT
BRANCH   1   2
ATOM      2  C   UNL     1      12.818  38.076  23.693  1.00  0.00     0.000 C 
BRANCH   2   3
ATOM      3  C   UNL     1      11.434  38.744  23.706  1.00  0.00     0.000 C 
BRANCH   3   4
ATOM      4  C   UNL     1      10.414  37.971  24.562  1.00  0.00     0.000 C 
BRANCH   4   5
ATOM      5  C   UNL     1       9.028  37.893  23.900  1.00  0.00     0.000 C 
BRANCH   5   6
ATOM      6  C   UNL     1       7.988  38.787  24.593  1.00  0.00     0.006 C 
BRANCH   6   7
ATOM      7  C   UNL     1       8.195  38.791  26.110  1.00  0.00     0.053 C 
BRANCH   7   8
ATOM      8  C   UNL     1       8.477  40.176  26.597  1.00  0.00     0.041 C 
ATOM      9  O   UNL     1       7.981  40.582  27.681  1.00  0.00    -0.550 OA
ATOM     10  O   UNL     1       9.327  41.006  25.877  1.00  0.00    -0.550 OA
ENDBRANCH   7   8
ENDBRANCH   6   7
ENDBRANCH   5   6
ENDBRANCH   4   5
ENDBRANCH   3   4
ENDBRANCH   2   3
ENDBRANCH   1   2
BRANCH   1  11
ATOM     11  C   UNL     1      12.788  37.090  21.323  1.00  0.00     0.000 C 
BRANCH  11  12
ATOM     12  C   UNL     1      13.349  35.655  21.351  1.00  0.00     0.000 C 
BRANCH  12  13
ATOM     13  C   UNL     1      12.326  34.622  21.852  1.00  0.00     0.000 C 
BRANCH  13  14
ATOM     14  C   UNL     1      10.944  35.242  22.118  1.00  0.00     0.000 C 
BRANCH  14  15
ATOM     15  C   UNL     1      10.286  34.700  23.399  1.00  0.00     0.000 C 
BRANCH  15  16
ATOM     16  C   UNL     1      10.777  33.289  23.762  1.00  0.00     0.006 C 
BRANCH  16  17
ATOM     17  C   UNL     1      11.155  33.159  25.243  1.00  0.00     0.053 C 
BRANCH  17  18
ATOM     18  C   UNL     1      11.820  34.409  25.724  1.00  0.00     0.041 C 
ATOM     19  O   UNL     1      12.953  34.735  25.280  1.00  0.00    -0.550 OA
ATOM     20  O   UNL     1      11.170  35.239  26.628  1.00  0.00    -0.550 OA
ENDBRANCH  17  18
ENDBRANCH  16  17
ENDBRANCH  15  16
ENDBRANCH  14  15
ENDBRANCH  13  14
ENDBRANCH  12  13
ENDBRANCH  11  12
ENDBRANCH   1  11
TORSDOF 15
ENDMDL
MODEL 2
REMARK VINA RESULT:    -4.231     16.945     20.026
REMARK INTER + INTRA:          -9.574
REMARK INTER:                  -7.940
REMARK INTRA:                  -1.634
REMARK UNBOUND:                -1.632
REMARK SMILES O=C([O-])CCCCCCCCCCCCCCC(=O)[O-]
REMARK SMILES IDX 10 1 9 2 8 3 7 4 6 5 5 6 4 7 2 8 1 9 3 10 11 11 12 12 13 13
REMARK SMILES IDX 14 14 15 15 16 16 17 17 18 18 19 19 20 20
REMARK H PARENT
REMARK Flexibility Score: inf
ROOT
ATOM      1  C   UNL     1      23.656  25.845  21.208  1.00  0.00     0.000 C 
ENDROOT
BRANCH   1   2
ATOM      2  C   UNL     1      24.283  24.449  21.049  1.00  0.00     0.000 C 
BRANCH   2   3
ATOM      3  C   UNL     1      23.887  23.492  22.184  1.00  0.00     0.000 C 
BRANCH   3   4
ATOM      4  C   UNL     1      24.950  22.408  22.441  1.00  0.00     0.000 C 
BRANCH   4   5
ATOM      5  C   UNL     1      26.196  22.962  23.154  1.00  0.00     0.000 C 
BRANCH   5   6
ATOM      6  C   UNL     1      27.499  22.635  22.409  1.00  0.00     0.006 C 
BRANCH   6   7
ATOM      7  C   UNL     1      28.042  23.873  21.689  1.00  0.00     0.053 C 
BRANCH   7   8
ATOM      8  C   UNL     1      27.699  23.826  20.234  1.00  0.00     0.041 C 
ATOM      9  O   UNL     1      27.679  24.884  19.552  1.00  0.00    -0.550 OA
ATOM     10  O   UNL     1      27.449  22.606  19.619  1.00  0.00    -0.550 OA
ENDBRANCH   7   8
ENDBRANCH   6   7
ENDBRANCH   5   6
ENDBRANCH   4   5
ENDBRANCH   3   4
ENDBRANCH   2   3
ENDBRANCH   1   2
BRANCH   1  11
ATOM     11  C   UNL     1      24.382  26.715  22.250  1.00  0.00     0.000 C 
BRANCH  11  12
ATOM     12  C   UNL     1      25.916  26.573  22.272  1.00  0.00     0.000 C 
BRANCH  12  13
ATOM     13  C   UNL     1      26.487  26.468  23.696  1.00  0.00     0.000 C 
BRANCH  13  14
ATOM     14  C   UNL     1      27.637  27.459  23.944  1.00  0.00     0.000 C 
BRANCH  14  15
ATOM     15  C   UNL     1      27.335  28.867  23.401  1.00  0.00     0.000 C 
BRANCH  15  16
ATOM     16  C   UNL     1      28.122  29.964  24.136  1.00  0.00     0.006 C 
BRANCH  16  17
ATOM     17  C   UNL     1      27.701  30.109  25.604  1.00  0.00     0.053 C 
BRANCH  17  18
ATOM     18  C   UNL     1      26.993  31.409  25.819  1.00  0.00     0.041 C 
ATOM     19  O   UNL     1      25.888  31.628  25.256  1.00  0.00    -0.550 OA
ATOM     20  O   UNL     1      27.530  32.359  26.678  1.00  0.00    -0.550 OA
ENDBRANCH  17  18
ENDBRANCH  16  17
ENDBRANCH  15  16
ENDBRANCH  14  15
ENDBRANCH  13  14
ENDBRANCH  12  13
ENDBRANCH  11  12
ENDBRANCH   1  11
TORSDOF 15
ENDMDL
MODEL 3
REMARK VINA RESULT:    -4.171      2.208      5.961
REMARK INTER + INTRA:          -9.461
REMARK INTER:                  -8.328
REMARK INTRA:                  -1.133
REMARK UNBOUND:                -1.632
REMARK SMILES O=C([O-])CCCCCCCCCCCCCCC(=O)[O-]
REMARK SMILES IDX 10 1 9 2 8 3 7 4 6 5 5 6 4 7 2 8 1 9 3 10 11 11 12 12 13 13
REMARK SMILES IDX 14 14 15 15 16 16 17 17 18 18 19 19 20 20
REMARK H PARENT
REMARK Flexibility Score: inf
ROOT
ATOM      1  C   UNL     1       9.692  32.555  23.374  1.00  0.00     0.000 C 
ENDROOT
BRANCH   1   2
ATOM      2  C   UNL     1      10.902  32.444  24.318  1.00  0.00     0.000 C 
BRANCH   2   3
ATOM      3  C   UNL     1      10.887  33.512  25.423  1.00  0.00     0.000 C 
BRANCH   3   4
ATOM      4  C   UNL     1      12.127  34.423  25.380  1.00  0.00     0.000 C 
BRANCH   4   5
ATOM      5  C   UNL     1      12.911  34.291  24.063  1.00  0.00     0.000 C 
BRANCH   5   6
ATOM      6  C   UNL     1      12.808  35.545  23.183  1.00  0.00     0.006 C 
BRANCH   6   7
ATOM      7  C   UNL     1      12.961  35.187  21.702  1.00  0.00     0.053 C 
BRANCH   7   8
ATOM      8  C   UNL     1      12.532  36.332  20.840  1.00  0.00     0.041 C 
ATOM      9  O   UNL     1      11.572  36.197  20.037  1.00  0.00    -0.550 OA
ATOM     10  O   UNL     1      13.163  37.564  20.956  1.00  0.00    -0.550 OA
ENDBRANCH   7   8
ENDBRANCH   6   7
ENDBRANCH   5   6
ENDBRANCH   4   5
ENDBRANCH   3   4
ENDBRANCH   2   3
ENDBRANCH   1   2
BRANCH   1  11
ATOM     11  C   UNL     1       9.397  34.004  22.943  1.00  0.00     0.000 C 
BRANCH  11  12
ATOM     12  C   UNL     1       8.286  34.163  21.888  1.00  0.00     0.000 C 
BRANCH  12  13
ATOM     13  C   UNL     1       8.077  35.624  21.455  1.00  0.00     0.000 C 
BRANCH  13  14
ATOM     14  C   UNL     1       8.185  36.609  22.632  1.00  0.00     0.000 C 
BRANCH  14  15
ATOM     15  C   UNL     1       9.639  36.848  23.075  1.00  0.00     0.000 C 
BRANCH  15  16
ATOM     16  C   UNL     1       9.743  37.830  24.253  1.00  0.00     0.006 C 
BRANCH  16  17
ATOM     17  C   UNL     1       8.397  38.476  24.602  1.00  0.00     0.053 C 
BRANCH  17  18
ATOM     18  C   UNL     1       8.542  39.376  25.788  1.00  0.00     0.041 C 
ATOM     19  O   UNL     1       8.110  39.013  26.915  1.00  0.00    -0.550 OA
ATOM     20  O   UNL     1       9.194  40.595  25.661  1.00  0.00    -0.550 OA
ENDBRANCH  17  18
ENDBRANCH  16  17
ENDBRANCH  15  16
ENDBRANCH  14  15
ENDBRANCH  13  14
ENDBRANCH  12  13
ENDBRANCH  11  12
ENDBRANCH   1  11
TORSDOF 15
ENDMDL
MODEL 4
REMARK VINA RESULT:    -4.085     16.784     18.883
REMARK INTER + INTRA:          -9.300
REMARK INTER:                  -8.441
REMARK INTRA:                  -0.860
REMARK UNBOUND:                -1.632
REMARK SMILES O=C([O-])CCCCCCCCCCCCCCC(=O)[O-]
REMARK SMILES IDX 10 1 9 2 8 3 7 4 6 5 5 6 4 7 2 8 1 9 3 10 11 11 12 12 13 13
REMARK SMILES IDX 14 14 15 15 16 16 17 17 18 18 19 19 20 20
REMARK H PARENT
REMARK Flexibility Score: inf
ROOT
ATOM      1  C   UNL     1      23.912  26.941  21.895  1.00  0.00     0.000 C 
ENDROOT
BRANCH   1   2
ATOM      2  C   UNL     1      25.291  26.982  22.576  1.00  0.00     0.000 C 
BRANCH   2   3
ATOM      3  C   UNL     1      25.572  28.331  23.258  1.00  0.00     0.000 C 
BRANCH   3   4
ATOM      4  C   UNL     1      27.073  28.667  23.306  1.00  0.00     0.000 C 
BRANCH   4   5
ATOM      5  C   UNL     1      27.632  28.665  24.739  1.00  0.00     0.000 C 
BRANCH   5   6
ATOM      6  C   UNL     1      28.017  30.069  25.228  1.00  0.00     0.006 C 
BRANCH   6   7
ATOM      7  C   UNL     1      26.802  31.001  25.226  1.00  0.00     0.053 C 
BRANCH   7   8
ATOM      8  C   UNL     1      27.190  32.368  25.691  1.00  0.00     0.041 C 
ATOM      9  O   UNL     1      26.916  32.742  26.862  1.00  0.00    -0.550 OA
ATOM     10  O   UNL     1      27.899  33.214  24.847  1.00  0.00    -0.550 OA
ENDBRANCH   7   8
ENDBRANCH   6   7
ENDBRANCH   5   6
ENDBRANCH   4   5
ENDBRANCH   3   4
ENDBRANCH   2   3
ENDBRANCH   1   2
BRANCH   1  11
ATOM     11  C   UNL     1      23.572  25.558  21.309  1.00  0.00     0.000 C 
BRANCH  11  12
ATOM     12  C   UNL     1      24.266  24.365  21.993  1.00  0.00     0.000 C 
BRANCH  12  13
ATOM     13  C   UNL     1      25.160  23.562  21.034  1.00  0.00     0.000 C 
BRANCH  13  14
ATOM     14  C   UNL     1      25.797  22.335  21.710  1.00  0.00     0.000 C 
BRANCH  14  15
ATOM     15  C   UNL     1      25.869  22.472  23.241  1.00  0.00     0.000 C 
BRANCH  15  16
ATOM     16  C   UNL     1      27.296  22.753  23.741  1.00  0.00     0.006 C 
BRANCH  16  17
ATOM     17  C   UNL     1      27.373  22.865  25.269  1.00  0.00     0.053 C 
BRANCH  17  18
ATOM     18  C   UNL     1      27.735  24.259  25.672  1.00  0.00     0.041 C 
ATOM     19  O   UNL     1      27.969  24.528  26.881  1.00  0.00    -0.550 OA
ATOM     20  O   UNL     1      27.858  25.252  24.710  1.00  0.00    -0.550 OA
ENDBRANCH  17  18
ENDBRANCH  16  17
ENDBRANCH  15  16
ENDBRANCH  14  15
ENDBRANCH  13  14
ENDBRANCH  12  13
ENDBRANCH  11  12
ENDBRANCH   1  11
TORSDOF 15
ENDMDL
MODEL 5
REMARK VINA RESULT:    -4.076     16.540     18.944
REMARK INTER + INTRA:          -9.282
REMARK INTER:                  -8.061
REMARK INTRA:                  -1.221
REMARK UNBOUND:                -1.632
REMARK SMILES O=C([O-])CCCCCCCCCCCCCCC(=O)[O-]
REMARK SMILES IDX 10 1 9 2 8 3 7 4 6 5 5 6 4 7 2 8 1 9 3 10 11 11 12 12 13 13
REMARK SMILES IDX 14 14 15 15 16 16 17 17 18 18 19 19 20 20
REMARK H PARENT
REMARK Flexibility Score: inf
ROOT
ATOM      1  C   UNL     1      23.904  26.789  21.876  1.00  0.00     0.000 C 
ENDROOT
BRANCH   1   2
ATOM      2  C   UNL     1      25.327  26.545  22.408  1.00  0.00     0.000 C 
BRANCH   2   3
ATOM      3  C   UNL     1      25.958  27.813  23.005  1.00  0.00     0.000 C 
BRANCH   3   4
ATOM      4  C   UNL     1      27.496  27.768  22.996  1.00  0.00     0.000 C 
BRANCH   4   5
ATOM      5  C   UNL     1      28.125  28.925  23.791  1.00  0.00     0.000 C 
BRANCH   5   6
ATOM      6  C   UNL     1      27.154  29.544  24.807  1.00  0.00     0.006 C 
BRANCH   6   7
ATOM      7  C   UNL     1      27.736  30.826  25.409  1.00  0.00     0.053 C 
BRANCH   7   8
ATOM      8  C   UNL     1      26.642  31.780  25.769  1.00  0.00     0.041 C 
ATOM      9  O   UNL     1      25.508  31.678  25.231  1.00  0.00    -0.550 OA
ATOM     10  O   UNL     1      26.860  32.754  26.735  1.00  0.00    -0.550 OA
ENDBRANCH   7   8
ENDBRANCH   6   7
ENDBRANCH   5   6
ENDBRANCH   4   5
ENDBRANCH   3   4
ENDBRANCH   2   3
ENDBRANCH   1   2
BRANCH   1  11
ATOM     11  C   UNL     1      23.327  25.574  21.127  1.00  0.00     0.000 C 
BRANCH  11  12
ATOM     12  C   UNL     1      24.162  24.283  21.223  1.00  0.00     0.000 C 
BRANCH  12  13
ATOM     13  C   UNL     1      25.147  24.119  20.054  1.00  0.00     0.000 C 
BRANCH  13  14
ATOM     14  C   UNL     1      26.442  23.401  20.470  1.00  0.00     0.000 C 
BRANCH  14  15
ATOM     15  C   UNL     1      26.230  22.427  21.643  1.00  0.00     0.000 C 
BRANCH  15  16
ATOM     16  C   UNL     1      27.415  22.418  22.623  1.00  0.00     0.006 C 
BRANCH  16  17
ATOM     17  C   UNL     1      27.817  23.828  23.076  1.00  0.00     0.053 C 
BRANCH  17  18
ATOM     18  C   UNL     1      27.602  23.985  24.547  1.00  0.00     0.041 C 
ATOM     19  O   UNL     1      27.648  25.128  25.076  1.00  0.00    -0.550 OA
ATOM     20  O   UNL     1      27.305  22.877  25.329  1.00  0.00    -0.550 OA
ENDBRANCH  17  18
ENDBRANCH  16  17
ENDBRANCH  15  16
ENDBRANCH  14  15
ENDBRANCH  13  14
ENDBRANCH  12  13
ENDBRANCH  11  12
ENDBRANCH   1  11
TORSDOF 15
ENDMDL
MODEL 6
REMARK VINA RESULT:    -4.041     16.907     19.927
REMARK INTER + INTRA:          -9.216
REMARK INTER:                  -7.934
REMARK INTRA:                  -1.282
REMARK UNBOUND:                -1.632
REMARK SMILES O=C([O-])CCCCCCCCCCCCCCC(=O)[O-]
REMARK SMILES IDX 10 1 9 2 8 3 7 4 6 5 5 6 4 7 2 8 1 9 3 10 11 11 12 12 13 13
REMARK SMILES IDX 14 14 15 15 16 16 17 17 18 18 19 19 20 20
REMARK H PARENT
REMARK Flexibility Score: inf
ROOT
ATOM      1  C   UNL     1      23.926  26.101  21.810  1.00  0.00     0.000 C 
ENDROOT
BRANCH   1   2
ATOM      2  C   UNL     1      24.255  24.598  21.846  1.00  0.00     0.000 C 
BRANCH   2   3
ATOM      3  C   UNL     1      24.634  24.045  20.463  1.00  0.00     0.000 C 
BRANCH   3   4
ATOM      4  C   UNL     1      26.110  24.300  20.108  1.00  0.00     0.000 C 
BRANCH   4   5
ATOM      5  C   UNL     1      26.941  23.007  20.074  1.00  0.00     0.000 C 
BRANCH   5   6
ATOM      6  C   UNL     1      26.789  22.170  21.353  1.00  0.00     0.006 C 
BRANCH   6   7
ATOM      7  C   UNL     1      27.574  22.794  22.511  1.00  0.00     0.053 C 
BRANCH   7   8
ATOM      8  C   UNL     1      26.793  22.705  23.782  1.00  0.00     0.041 C 
ATOM      9  O   UNL     1      25.708  22.065  23.818  1.00  0.00    -0.550 OA
ATOM     10  O   UNL     1      27.285  23.288  24.943  1.00  0.00    -0.550 OA
ENDBRANCH   7   8
ENDBRANCH   6   7
ENDBRANCH   5   6
ENDBRANCH   4   5
ENDBRANCH   3   4
ENDBRANCH   2   3
ENDBRANCH   1   2
BRANCH   1  11
ATOM     11  C   UNL     1      25.109  26.986  22.242  1.00  0.00     0.000 C 
BRANCH  11  12
ATOM     12  C   UNL     1      26.180  26.282  23.097  1.00  0.00     0.000 C 
BRANCH  12  13
ATOM     13  C   UNL     1      27.605  26.778  22.800  1.00  0.00     0.000 C 
BRANCH  13  14
ATOM     14  C   UNL     1      27.799  28.262  23.159  1.00  0.00     0.000 C 
BRANCH  14  15
ATOM     15  C   UNL     1      27.092  28.653  24.469  1.00  0.00     0.000 C 
BRANCH  15  16
ATOM     16  C   UNL     1      27.609  29.980  25.045  1.00  0.00     0.006 C 
BRANCH  16  17
ATOM     17  C   UNL     1      26.495  31.019  25.227  1.00  0.00     0.053 C 
BRANCH  17  18
ATOM     18  C   UNL     1      27.064  32.315  25.712  1.00  0.00     0.041 C 
ATOM     19  O   UNL     1      26.839  32.704  26.889  1.00  0.00    -0.550 OA
ATOM     20  O   UNL     1      27.879  33.071  24.881  1.00  0.00    -0.550 OA
ENDBRANCH  17  18
ENDBRANCH  16  17
ENDBRANCH  15  16
ENDBRANCH  14  15
ENDBRANCH  13  14
ENDBRANCH  12  13
ENDBRANCH  11  12
ENDBRANCH   1  11
TORSDOF 15
ENDMDL
MODEL 7
REMARK VINA RESULT:    -4.026     16.887     19.380
REMARK INTER + INTRA:          -9.189
REMARK INTER:                  -8.145
REMARK INTRA:                  -1.044
REMARK UNBOUND:                -1.632
REMARK SMILES O=C([O-])CCCCCCCCCCCCCCC(=O)[O-]
REMARK SMILES IDX 10 1 9 2 8 3 7 4 6 5 5 6 4 7 2 8 1 9 3 10 11 11 12 12 13 13
REMARK SMILES IDX 14 14 15 15 16 16 17 17 18 18 19 19 20 20
REMARK H PARENT
REMARK Flexibility Score: inf
ROOT
ATOM      1  C   UNL     1      24.493  26.265  21.838  1.00  0.00     0.000 C 
ENDROOT
BRANCH   1   2
ATOM      2  C   UNL     1      25.874  26.096  22.495  1.00  0.00     0.000 C 
BRANCH   2   3
ATOM      3  C   UNL     1      26.310  27.343  23.280  1.00  0.00     0.000 C 
BRANCH   3   4
ATOM      4  C   UNL     1      27.253  27.006  24.449  1.00  0.00     0.000 C 
BRANCH   4   5
ATOM      5  C   UNL     1      28.125  28.202  24.868  1.00  0.00     0.000 C 
BRANCH   5   6
ATOM      6  C   UNL     1      27.429  29.552  24.640  1.00  0.00     0.006 C 
BRANCH   6   7
ATOM      7  C   UNL     1      27.661  30.493  25.826  1.00  0.00     0.053 C 
BRANCH   7   8
ATOM      8  C   UNL     1      26.791  31.704  25.712  1.00  0.00     0.041 C 
ATOM      9  O   UNL     1      25.613  31.601  25.279  1.00  0.00    -0.550 OA
ATOM     10  O   UNL     1      27.265  32.941  26.128  1.00  0.00    -0.550 OA
ENDBRANCH   7   8
ENDBRANCH   6   7
ENDBRANCH   5   6
ENDBRANCH   4   5
ENDBRANCH   3   4
ENDBRANCH   2   3
ENDBRANCH   1   2
BRANCH   1  11
ATOM     11  C   UNL     1      23.955  24.959  21.225  1.00  0.00     0.000 C 
BRANCH  11  12
ATOM     12  C   UNL     1      23.725  23.810  22.224  1.00  0.00     0.000 C 
BRANCH  12  13
ATOM     13  C   UNL     1      24.662  22.613  21.987  1.00  0.00     0.000 C 
BRANCH  13  14
ATOM     14  C   UNL     1      25.969  22.720  22.790  1.00  0.00     0.000 C 
BRANCH  14  15
ATOM     15  C   UNL     1      27.139  21.978  22.120  1.00  0.00     0.000 C 
BRANCH  15  16
ATOM     16  C   UNL     1      28.125  22.933  21.428  1.00  0.00     0.006 C 
BRANCH  16  17
ATOM     17  C   UNL     1      27.893  23.025  19.915  1.00  0.00     0.053 C 
BRANCH  17  18
ATOM     18  C   UNL     1      27.519  24.421  19.527  1.00  0.00     0.041 C 
ATOM     19  O   UNL     1      27.998  25.402  20.155  1.00  0.00    -0.550 OA
ATOM     20  O   UNL     1      26.679  24.640  18.444  1.00  0.00    -0.550 OA
ENDBRANCH  17  18
ENDBRANCH  16  17
ENDBRANCH  15  16
ENDBRANCH  14  15
ENDBRANCH  13  14
ENDBRANCH  12  13
ENDBRANCH  11  12
ENDBRANCH   1  11
TORSDOF 15
ENDMDL
MODEL 8
REMARK VINA RESULT:    -3.936     16.856     20.168
REMARK INTER + INTRA:          -9.019
REMARK INTER:                  -7.742
REMARK INTRA:                  -1.277
REMARK UNBOUND:                -1.632
REMARK SMILES O=C([O-])CCCCCCCCCCCCCCC(=O)[O-]
REMARK SMILES IDX 10 1 9 2 8 3 7 4 6 5 5 6 4 7 2 8 1 9 3 10 11 11 12 12 13 13
REMARK SMILES IDX 14 14 15 15 16 16 17 17 18 18 19 19 20 20
REMARK H PARENT
REMARK Flexibility Score: inf
ROOT
ATOM      1  C   UNL     1      26.907  23.822  24.530  1.00  0.00     0.000 C 
ENDROOT
BRANCH   1   2
ATOM      2  C   UNL     1      26.775  22.319  24.227  1.00  0.00     0.000 C 
BRANCH   2   3
ATOM      3  C   UNL     1      25.969  22.044  22.947  1.00  0.00     0.000 C 
BRANCH   3   4
ATOM      4  C   UNL     1      24.490  22.449  23.082  1.00  0.00     0.000 C 
BRANCH   4   5
ATOM      5  C   UNL     1      24.086  23.546  22.083  1.00  0.00     0.000 C 
BRANCH   5   6
ATOM      6  C   UNL     1      24.873  23.470  20.767  1.00  0.00     0.006 C 
BRANCH   6   7
ATOM      7  C   UNL     1      25.746  24.714  20.579  1.00  0.00     0.053 C 
BRANCH   7   8
ATOM      8  C   UNL     1      27.031  24.355  19.904  1.00  0.00     0.041 C 
ATOM      9  O   UNL     1      27.979  25.184  19.861  1.00  0.00    -0.550 OA
ATOM     10  O   UNL     1      27.202  23.087  19.363  1.00  0.00    -0.550 OA
ENDBRANCH   7   8
ENDBRANCH   6   7
ENDBRANCH   5   6
ENDBRANCH   4   5
ENDBRANCH   3   4
ENDBRANCH   2   3
ENDBRANCH   1   2
BRANCH   1  11
ATOM     11  C   UNL     1      27.926  24.531  23.620  1.00  0.00     0.000 C 
BRANCH  11  12
ATOM     12  C   UNL     1      28.088  26.043  23.868  1.00  0.00     0.000 C 
BRANCH  12  13
ATOM     13  C   UNL     1      27.268  26.901  22.889  1.00  0.00     0.000 C 
BRANCH  13  14
ATOM     14  C   UNL     1      27.460  28.409  23.124  1.00  0.00     0.000 C 
BRANCH  14  15
ATOM     15  C   UNL     1      26.541  28.959  24.229  1.00  0.00     0.000 C 
BRANCH  15  16
ATOM     16  C   UNL     1      27.193  30.102  25.024  1.00  0.00     0.006 C 
BRANCH  16  17
ATOM     17  C   UNL     1      26.243  31.286  25.243  1.00  0.00     0.053 C 
BRANCH  17  18
ATOM     18  C   UNL     1      26.993  32.467  25.771  1.00  0.00     0.041 C 
ATOM     19  O   UNL     1      26.817  32.851  26.958  1.00  0.00    -0.550 OA
ATOM     20  O   UNL     1      27.921  33.116  24.968  1.00  0.00    -0.550 OA
ENDBRANCH  17  18
ENDBRANCH  16  17
ENDBRANCH  15  16
ENDBRANCH  14  15
ENDBRANCH  13  14
ENDBRANCH  12  13
ENDBRANCH  11  12
ENDBRANCH   1  11
TORSDOF 15
ENDMDL
MODEL 9
REMARK VINA RESULT:    -3.763     17.091     19.313
REMARK INTER + INTRA:          -8.695
REMARK INTER:                  -7.270
REMARK INTRA:                  -1.425
REMARK UNBOUND:                -1.632
REMARK SMILES O=C([O-])CCCCCCCCCCCCCCC(=O)[O-]
REMARK SMILES IDX 10 1 9 2 8 3 7 4 6 5 5 6 4 7 2 8 1 9 3 10 11 11 12 12 13 13
REMARK SMILES IDX 14 14 15 15 16 16 17 17 18 18 19 19 20 20
REMARK H PARENT
REMARK Flexibility Score: inf
ROOT
ATOM      1  C   UNL     1      27.254  25.570  24.746  1.00  0.00     0.000 C 
ENDROOT
BRANCH   1   2
ATOM      2  C   UNL     1      27.966  25.685  23.387  1.00  0.00     0.000 C 
BRANCH   2   3
ATOM      3  C   UNL     1      27.909  27.109  22.811  1.00  0.00     0.000 C 
BRANCH   3   4
ATOM      4  C   UNL     1      27.198  28.099  23.751  1.00  0.00     0.000 C 
BRANCH   4   5
ATOM      5  C   UNL     1      28.081  29.304  24.116  1.00  0.00     0.000 C 
BRANCH   5   6
ATOM      6  C   UNL     1      27.675  29.955  25.446  1.00  0.00     0.006 C 
BRANCH   6   7
ATOM      7  C   UNL     1      26.593  31.017  25.227  1.00  0.00     0.053 C 
BRANCH   7   8
ATOM      8  C   UNL     1      27.071  32.356  25.691  1.00  0.00     0.041 C 
ATOM      9  O   UNL     1      26.777  32.772  26.843  1.00  0.00    -0.550 OA
ATOM     10  O   UNL     1      27.884  33.126  24.869  1.00  0.00    -0.550 OA
ENDBRANCH   7   8
ENDBRANCH   6   7
ENDBRANCH   5   6
ENDBRANCH   4   5
ENDBRANCH   3   4
ENDBRANCH   2   3
ENDBRANCH   1   2
BRANCH   1  11
ATOM     11  C   UNL     1      27.823  24.445  25.630  1.00  0.00     0.000 C 
BRANCH  11  12
ATOM     12  C   UNL     1      27.846  23.047  24.982  1.00  0.00     0.000 C 
BRANCH  12  13
ATOM     13  C   UNL     1      26.518  22.289  25.147  1.00  0.00     0.000 C 
BRANCH  13  14
ATOM     14  C   UNL     1      25.890  21.899  23.798  1.00  0.00     0.000 C 
BRANCH  14  15
ATOM     15  C   UNL     1      26.715  22.389  22.595  1.00  0.00     0.000 C 
BRANCH  15  16
ATOM     16  C   UNL     1      25.833  22.887  21.439  1.00  0.00     0.006 C 
BRANCH  16  17
ATOM     17  C   UNL     1      24.517  23.507  21.925  1.00  0.00     0.053 C 
BRANCH  17  18
ATOM     18  C   UNL     1      24.214  24.756  21.159  1.00  0.00     0.041 C 
ATOM     19  O   UNL     1      23.196  24.813  20.419  1.00  0.00    -0.550 OA
ATOM     20  O   UNL     1      25.028  25.872  21.298  1.00  0.00    -0.550 OA
ENDBRANCH  17  18
ENDBRANCH  16  17
ENDBRANCH  15  16
ENDBRANCH  14  15
ENDBRANCH  13  14
ENDBRANCH  12  13
ENDBRANCH  11  12
ENDBRANCH   1  11
TORSDOF 15
ENDMDL
