MODEL 1
REMARK VINA RESULT:    -4.216      0.000      0.000
REMARK INTER + INTRA:          -5.522
REMARK INTER:                  -5.448
REMARK INTRA:                  -0.074
REMARK UNBOUND:                -0.074
REMARK SMILES CCCCCCC(=O)[O-]
REMARK SMILES IDX 5 1 6 2 7 3 8 4 9 5 4 6 3 7 2 8 1 9
REMARK H PARENT
REMARK Flexibility Score: inf
ROOT
ATOM      1  C   UNL     1      12.978   4.010  -5.039  1.00  0.00     0.006 C 
ENDROOT
BRANCH   1   2
ATOM      2  C   UNL     1      11.896   3.669  -6.069  1.00  0.00     0.053 C 
BRANCH   2   3
ATOM      3  C   UNL     1      12.332   4.075  -7.441  1.00  0.00     0.041 C 
ATOM      4  O   UNL     1      12.898   3.243  -8.198  1.00  0.00    -0.550 OA
ATOM      5  O   UNL     1      12.068   5.358  -7.903  1.00  0.00    -0.550 OA
ENDBRANCH   2   3
ENDBRANCH   1   2
BRANCH   1   6
ATOM      6  C   UNL     1      12.373   4.179  -3.640  1.00  0.00     0.000 C 
BRANCH   6   7
ATOM      7  C   UNL     1      13.080   5.303  -2.868  1.00  0.00    -0.000 C 
BRANCH   7   8
ATOM      8  C   UNL     1      12.250   5.818  -1.682  1.00  0.00    -0.003 C 
ATOM      9  C   UNL     1      12.721   7.181  -1.177  1.00  0.00     0.004 C 
ENDBRANCH   7   8
ENDBRANCH   6   7
ENDBRANCH   1   6
TORSDOF 5
ENDMDL
MODEL 2
REMARK VINA RESULT:    -3.660     15.789     17.186
REMARK INTER + INTRA:          -4.805
REMARK INTER:                  -4.716
REMARK INTRA:                  -0.088
REMARK UNBOUND:                -0.074
REMARK SMILES CCCCCCC(=O)[O-]
REMARK SMILES IDX 5 1 6 2 7 3 8 4 9 5 4 6 3 7 2 8 1 9
REMARK H PARENT
REMARK Flexibility Score: inf
ROOT
ATOM      1  C   UNL     1       3.043   2.945   8.784  1.00  0.00     0.006 C 
ENDROOT
BRANCH   1   2
ATOM      2  C   UNL     1       3.941   1.704   8.809  1.00  0.00     0.053 C 
BRANCH   2   3
ATOM      3  C   UNL     1       4.553   1.474   7.464  1.00  0.00     0.041 C 
ATOM      4  O   UNL     1       5.796   1.302   7.355  1.00  0.00    -0.550 OA
ATOM      5  O   UNL     1       3.747   1.400   6.335  1.00  0.00    -0.550 OA
ENDBRANCH   2   3
ENDBRANCH   1   2
BRANCH   1   6
ATOM      6  C   UNL     1       1.823   2.760   9.695  1.00  0.00     0.000 C 
BRANCH   6   7
ATOM      7  C   UNL     1       0.747   3.814   9.393  1.00  0.00    -0.000 C 
BRANCH   7   8
ATOM      8  C   UNL     1      -0.666   3.215   9.333  1.00  0.00    -0.003 C 
ATOM      9  C   UNL     1      -1.691   4.178   8.734  1.00  0.00     0.004 C 
ENDBRANCH   7   8
ENDBRANCH   6   7
ENDBRANCH   1   6
TORSDOF 5
ENDMDL
MODEL 3
REMARK VINA RESULT:    -3.591     15.314     16.717
REMARK INTER + INTRA:          -4.715
REMARK INTER:                  -4.566
REMARK INTRA:                  -0.148
REMARK UNBOUND:                -0.074
REMARK SMILES CCCCCCC(=O)[O-]
REMARK SMILES IDX 5 1 6 2 7 3 8 4 9 5 4 6 3 7 2 8 1 9
REMARK H PARENT
REMARK Flexibility Score: inf
ROOT
ATOM      1  C   UNL     1       3.866   3.408   8.198  1.00  0.00     0.006 C 
ENDROOT
BRANCH   1   2
ATOM      2  C   UNL     1       3.823   1.885   8.036  1.00  0.00     0.053 C 
BRANCH   2   3
ATOM      3  C   UNL     1       5.152   1.368   7.584  1.00  0.00     0.041 C 
ATOM      4  O   UNL     1       5.252   0.748   6.492  1.00  0.00    -0.550 OA
ATOM      5  O   UNL     1       6.289   1.614   8.343  1.00  0.00    -0.550 OA
ENDBRANCH   2   3
ENDBRANCH   1   2
BRANCH   1   6
ATOM      6  C   UNL     1       3.047   3.855   9.415  1.00  0.00     0.000 C 
BRANCH   6   7
ATOM      7  C   UNL     1       1.691   3.134   9.459  1.00  0.00    -0.000 C 
BRANCH   7   8
ATOM      8  C   UNL     1       0.526   4.087   9.768  1.00  0.00    -0.003 C 
ATOM      9  C   UNL     1      -0.752   3.724   9.012  1.00  0.00     0.004 C 
ENDBRANCH   7   8
ENDBRANCH   6   7
ENDBRANCH   1   6
TORSDOF 5
ENDMDL
MODEL 4
REMARK VINA RESULT:    -3.583     14.245     14.952
REMARK INTER + INTRA:          -4.705
REMARK INTER:                  -4.587
REMARK INTRA:                  -0.118
REMARK UNBOUND:                -0.074
REMARK SMILES CCCCCCC(=O)[O-]
REMARK SMILES IDX 5 1 6 2 7 3 8 4 9 5 4 6 3 7 2 8 1 9
REMARK H PARENT
REMARK Flexibility Score: inf
ROOT
ATOM      1  C   UNL     1       6.059   3.157   8.716  1.00  0.00     0.006 C 
ENDROOT
BRANCH   1   2
ATOM      2  C   UNL     1       5.475   1.743   8.634  1.00  0.00     0.053 C 
BRANCH   2   3
ATOM      3  C   UNL     1       4.803   1.528   7.315  1.00  0.00     0.041 C 
ATOM      4  O   UNL     1       5.226   0.643   6.526  1.00  0.00    -0.550 OA
ATOM      5  O   UNL     1       3.679   2.271   6.978  1.00  0.00    -0.550 OA
ENDBRANCH   2   3
ENDBRANCH   1   2
BRANCH   1   6
ATOM      6  C   UNL     1       7.272   3.198   9.653  1.00  0.00     0.000 C 
BRANCH   6   7
ATOM      7  C   UNL     1       7.611   4.643  10.049  1.00  0.00    -0.000 C 
BRANCH   7   8
ATOM      8  C   UNL     1       8.953   5.115   9.469  1.00  0.00    -0.003 C 
ATOM      9  C   UNL     1       8.818   6.378   8.619  1.00  0.00     0.004 C 
ENDBRANCH   7   8
ENDBRANCH   6   7
ENDBRANCH   1   6
TORSDOF 5
ENDMDL
MODEL 5
REMARK VINA RESULT:    -3.190     17.035     18.586
REMARK INTER + INTRA:          -4.196
REMARK INTER:                  -4.096
REMARK INTRA:                  -0.100
REMARK UNBOUND:                -0.074
REMARK SMILES CCCCCCC(=O)[O-]
REMARK SMILES IDX 5 1 6 2 7 3 8 4 9 5 4 6 3 7 2 8 1 9
REMARK H PARENT
REMARK Flexibility Score: inf
ROOT
ATOM      1  C   UNL     1       0.497   3.674   9.365  1.00  0.00     0.006 C 
ENDROOT
BRANCH   1   2
ATOM      2  C   UNL     1      -0.473   4.805   9.718  1.00  0.00     0.053 C 
BRANCH   2   3
ATOM      3  C   UNL     1      -1.697   4.732   8.861  1.00  0.00     0.041 C 
ATOM      4  O   UNL     1      -2.274   3.628   8.674  1.00  0.00    -0.550 OA
ATOM      5  O   UNL     1      -2.231   5.890   8.310  1.00  0.00    -0.550 OA
ENDBRANCH   2   3
ENDBRANCH   1   2
BRANCH   1   6
ATOM      6  C   UNL     1       1.951   4.102   9.603  1.00  0.00     0.000 C 
BRANCH   6   7
ATOM      7  C   UNL     1       2.911   2.919   9.407  1.00  0.00    -0.000 C 
BRANCH   7   8
ATOM      8  C   UNL     1       3.850   3.113   8.207  1.00  0.00    -0.003 C 
ATOM      9  C   UNL     1       4.182   1.801   7.497  1.00  0.00     0.004 C 
ENDBRANCH   7   8
ENDBRANCH   6   7
ENDBRANCH   1   6
TORSDOF 5
ENDMDL
MODEL 6
REMARK VINA RESULT:    -3.158      3.690      5.607
REMARK INTER + INTRA:          -4.155
REMARK INTER:                  -4.053
REMARK INTRA:                  -0.103
REMARK UNBOUND:                -0.074
REMARK SMILES CCCCCCC(=O)[O-]
REMARK SMILES IDX 5 1 6 2 7 3 8 4 9 5 4 6 3 7 2 8 1 9
REMARK H PARENT
REMARK Flexibility Score: inf
ROOT
ATOM      1  C   UNL     1      12.364   4.660  -2.854  1.00  0.00     0.006 C 
ENDROOT
BRANCH   1   2
ATOM      2  C   UNL     1      13.125   5.968  -2.622  1.00  0.00     0.053 C 
BRANCH   2   3
ATOM      3  C   UNL     1      12.594   6.676  -1.416  1.00  0.00     0.041 C 
ATOM      4  O   UNL     1      13.119   7.755  -1.032  1.00  0.00    -0.550 OA
ATOM      5  O   UNL     1      11.487   6.172  -0.744  1.00  0.00    -0.550 OA
ENDBRANCH   2   3
ENDBRANCH   1   2
BRANCH   1   6
ATOM      6  C   UNL     1      12.970   3.870  -4.021  1.00  0.00     0.000 C 
BRANCH   6   7
ATOM      7  C   UNL     1      12.092   3.984  -5.277  1.00  0.00    -0.000 C 
BRANCH   7   8
ATOM      8  C   UNL     1      12.916   4.000  -6.573  1.00  0.00    -0.003 C 
ATOM      9  C   UNL     1      12.044   4.010  -7.828  1.00  0.00     0.004 C 
ENDBRANCH   7   8
ENDBRANCH   6   7
ENDBRANCH   1   6
TORSDOF 5
ENDMDL
MODEL 7
REMARK VINA RESULT:    -2.900     14.198     15.273
REMARK INTER + INTRA:          -3.822
REMARK INTER:                  -3.624
REMARK INTRA:                  -0.197
REMARK UNBOUND:                -0.074
REMARK SMILES CCCCCCC(=O)[O-]
REMARK SMILES IDX 5 1 6 2 7 3 8 4 9 5 4 6 3 7 2 8 1 9
REMARK H PARENT
REMARK Flexibility Score: inf
ROOT
ATOM      1  C   UNL     1       8.938   8.632   8.051  1.00  0.00     0.006 C 
ENDROOT
BRANCH   1   2
ATOM      2  C   UNL     1       7.976   8.932   9.205  1.00  0.00     0.053 C 
BRANCH   2   3
ATOM      3  C   UNL     1       7.471  10.337   9.113  1.00  0.00     0.041 C 
ATOM      4  O   UNL     1       7.695  11.153  10.047  1.00  0.00    -0.550 OA
ATOM      5  O   UNL     1       6.795  10.761   7.976  1.00  0.00    -0.550 OA
ENDBRANCH   2   3
ENDBRANCH   1   2
BRANCH   1   6
ATOM      6  C   UNL     1       9.206   7.126   7.936  1.00  0.00     0.000 C 
BRANCH   6   7
ATOM      7  C   UNL     1       9.266   6.471   9.324  1.00  0.00    -0.000 C 
BRANCH   7   8
ATOM      8  C   UNL     1      10.398   5.439   9.441  1.00  0.00    -0.003 C 
ATOM      9  C   UNL     1      11.677   5.881   8.730  1.00  0.00     0.004 C 
ENDBRANCH   7   8
ENDBRANCH   6   7
ENDBRANCH   1   6
TORSDOF 5
ENDMDL
MODEL 8
REMARK VINA RESULT:    -2.882     17.096     18.551
REMARK INTER + INTRA:          -3.798
REMARK INTER:                  -3.659
REMARK INTRA:                  -0.139
REMARK UNBOUND:                -0.074
REMARK SMILES CCCCCCC(=O)[O-]
REMARK SMILES IDX 5 1 6 2 7 3 8 4 9 5 4 6 3 7 2 8 1 9
REMARK H PARENT
REMARK Flexibility Score: inf
ROOT
ATOM      1  C   UNL     1       0.986   2.960   9.809  1.00  0.00     0.006 C 
ENDROOT
BRANCH   1   2
ATOM      2  C   UNL     1       2.271   3.633   9.318  1.00  0.00     0.053 C 
BRANCH   2   3
ATOM      3  C   UNL     1       3.187   2.625   8.699  1.00  0.00     0.041 C 
ATOM      4  O   UNL     1       3.623   2.800   7.530  1.00  0.00    -0.550 OA
ATOM      5  O   UNL     1       3.599   1.518   9.429  1.00  0.00    -0.550 OA
ENDBRANCH   2   3
ENDBRANCH   1   2
BRANCH   1   6
ATOM      6  C   UNL     1      -0.171   3.965   9.874  1.00  0.00     0.000 C 
BRANCH   6   7
ATOM      7  C   UNL     1      -1.310   3.553   8.929  1.00  0.00    -0.000 C 
BRANCH   7   8
ATOM      8  C   UNL     1      -2.208   4.736   8.537  1.00  0.00    -0.003 C 
ATOM      9  C   UNL     1      -2.020   5.949   9.449  1.00  0.00     0.004 C 
ENDBRANCH   7   8
ENDBRANCH   6   7
ENDBRANCH   1   6
TORSDOF 5
ENDMDL
MODEL 9
REMARK VINA RESULT:    -2.864     13.805     14.912
REMARK INTER + INTRA:          -3.775
REMARK INTER:                  -3.571
REMARK INTRA:                  -0.204
REMARK UNBOUND:                -0.074
REMARK SMILES CCCCCCC(=O)[O-]
REMARK SMILES IDX 5 1 6 2 7 3 8 4 9 5 4 6 3 7 2 8 1 9
REMARK H PARENT
REMARK Flexibility Score: inf
ROOT
ATOM      1  C   UNL     1       9.330   7.342   7.835  1.00  0.00     0.006 C 
ENDROOT
BRANCH   1   2
ATOM      2  C   UNL     1       8.932   6.380   8.959  1.00  0.00     0.053 C 
BRANCH   2   3
ATOM      3  C   UNL     1      10.054   5.439   9.265  1.00  0.00     0.041 C 
ATOM      4  O   UNL     1       9.825   4.353   9.860  1.00  0.00    -0.550 OA
ATOM      5  O   UNL     1      11.345   5.738   8.850  1.00  0.00    -0.550 OA
ENDBRANCH   2   3
ENDBRANCH   1   2
BRANCH   1   6
ATOM      6  C   UNL     1       8.953   8.786   8.189  1.00  0.00     0.000 C 
BRANCH   6   7
ATOM      7  C   UNL     1       7.896   8.821   9.303  1.00  0.00    -0.000 C 
BRANCH   7   8
ATOM      8  C   UNL     1       7.295  10.221   9.503  1.00  0.00    -0.003 C 
ATOM      9  C   UNL     1       6.857  10.870   8.190  1.00  0.00     0.004 C 
ENDBRANCH   7   8
ENDBRANCH   6   7
ENDBRANCH   1   6
TORSDOF 5
ENDMDL
