MODEL 1
REMARK VINA RESULT:    -4.454      0.000      0.000
REMARK INTER + INTRA:          -5.719
REMARK INTER:                  -6.276
REMARK INTRA:                   0.557
REMARK UNBOUND:                 0.557
REMARK SMILES CC1=CCC(=C(C)C)C(=O)CC(C)=CCC1
REMARK SMILES IDX 12 1 14 2 13 3 15 4 16 5 2 6 1 7 3 8 11 10 9 11 10 12 5 13
REMARK SMILES IDX 6 14 7 15 8 16 4 17
REMARK H PARENT
REMARK Flexibility Score: 60.00
ROOT
ATOM      1  C   UNL     1      14.648 -12.206  64.607  1.00  0.00    -0.070 C 
ATOM      2  C   UNL     1      15.254 -11.499  65.589  1.00  0.00    -0.027 C 
ATOM      3  C   UNL     1      13.145 -12.144  64.513  1.00  0.00     0.039 C 
ENDROOT
BRANCH   2   4
ATOM      4  C   UNL     1      16.740 -11.492  65.868  1.00  0.00     0.032 C 
BRANCH   4   5
ATOM      5  C   UNL     1      17.358 -10.109  65.618  1.00  0.00     0.034 C 
BRANCH   5   6
ATOM      6  C   UNL     1      18.111 -10.008  64.299  1.00  0.00    -0.077 C 
ATOM      7  C   UNL     1      19.611 -10.171  64.304  1.00  0.00     0.039 C 
ATOM      8  C   UNL     1      17.508  -9.760  63.115  1.00  0.00    -0.023 CG0
ATOM      9  G   UNL     1      16.018  -9.636  62.899  1.00  0.00     0.000 G0
ENDBRANCH   5   6
ENDBRANCH   4   5
ENDBRANCH   2   4
BRANCH   1  10
ATOM     10  C   UNL     1      15.413 -13.048  63.603  1.00  0.00     0.111 C 
BRANCH  10  11
ATOM     11  C   UNL     1      15.916 -12.206  62.465  1.00  0.00     0.163 C 
ATOM     12  O   UNL     1      16.835 -12.650  61.725  1.00  0.00    -0.294 OA
BRANCH  11  13
ATOM     13  C   UNL     1      15.366 -10.851  62.206  1.00  0.00    -0.002 C 
ATOM     14  C   UNL     1      14.310 -10.687  61.362  1.00  0.00    -0.069 C 
ATOM     15  C   UNL     1      13.732 -11.857  60.597  1.00  0.00     0.039 C 
ATOM     16  C   UNL     1      13.704  -9.323  61.127  1.00  0.00     0.039 C 
BRANCH  13  17
ATOM     17  C   UNL     1      16.001  -9.647  62.896  1.00  0.00     0.066 CG0
ATOM     18  G   UNL     1      17.492  -9.781  63.103  1.00  0.00     0.000 G0
ENDBRANCH  13  17
ENDBRANCH  11  13
ENDBRANCH  10  11
ENDBRANCH   1  10
TORSDOF 0
ENDMDL
MODEL 2
REMARK VINA RESULT:    -4.424      3.404      5.439
REMARK INTER + INTRA:          -5.678
REMARK INTER:                  -6.313
REMARK INTRA:                   0.635
REMARK UNBOUND:                 0.557
REMARK SMILES CC1=CCC(=C(C)C)C(=O)CC(C)=CCC1
REMARK SMILES IDX 12 1 14 2 13 3 15 4 16 5 2 6 1 7 3 8 11 10 9 11 10 12 5 13
REMARK SMILES IDX 6 14 7 15 8 16 4 17
REMARK H PARENT
REMARK Flexibility Score: 60.00
ROOT
ATOM      1  C   UNL     1      16.974 -11.743  65.865  1.00  0.00    -0.070 C 
ATOM      2  C   UNL     1      16.986 -10.904  64.804  1.00  0.00    -0.027 C 
ATOM      3  C   UNL     1      15.869 -11.589  66.879  1.00  0.00     0.039 C 
ENDROOT
BRANCH   2   4
ATOM      4  C   UNL     1      18.047 -10.875  63.727  1.00  0.00     0.032 C 
BRANCH   4   5
ATOM      5  C   UNL     1      18.764  -9.518  63.674  1.00  0.00     0.034 C 
BRANCH   5   6
ATOM      6  C   UNL     1      20.200  -9.569  64.175  1.00  0.00    -0.077 C 
ATOM      7  C   UNL     1      21.324  -9.521  63.170  1.00  0.00     0.039 C 
ATOM      8  C   UNL     1      20.529  -9.675  65.483  1.00  0.00    -0.023 CG0
ATOM      9  G   UNL     1      19.552  -9.667  66.635  1.00  0.00     0.000 G0
ENDBRANCH   5   6
ENDBRANCH   4   5
ENDBRANCH   2   4
BRANCH   1  10
ATOM     10  C   UNL     1      18.015 -12.826  66.073  1.00  0.00     0.111 C 
BRANCH  10  11
ATOM     11  C   UNL     1      19.329 -12.237  66.505  1.00  0.00     0.163 C 
ATOM     12  O   UNL     1      20.402 -12.813  66.180  1.00  0.00    -0.294 OA
BRANCH  11  13
ATOM     13  C   UNL     1      19.387 -11.002  67.327  1.00  0.00    -0.002 C 
ATOM     14  C   UNL     1      19.292 -11.073  68.684  1.00  0.00    -0.069 C 
ATOM     15  C   UNL     1      19.033 -12.390  69.380  1.00  0.00     0.039 C 
ATOM     16  C   UNL     1      19.402  -9.833  69.539  1.00  0.00     0.039 C 
BRANCH  13  17
ATOM     17  C   UNL     1      19.551  -9.654  66.631  1.00  0.00     0.066 CG0
ATOM     18  G   UNL     1      20.527  -9.680  65.478  1.00  0.00     0.000 G0
ENDBRANCH  13  17
ENDBRANCH  11  13
ENDBRANCH  10  11
ENDBRANCH   1  10
TORSDOF 0
ENDMDL
MODEL 3
REMARK VINA RESULT:    -4.376      2.879      6.081
REMARK INTER + INTRA:          -5.610
REMARK INTER:                  -6.120
REMARK INTRA:                   0.510
REMARK UNBOUND:                 0.557
REMARK SMILES CC1=CCC(=C(C)C)C(=O)CC(C)=CCC1
REMARK SMILES IDX 12 1 14 2 13 3 15 4 16 5 2 6 1 7 3 8 11 10 9 11 10 12 5 13
REMARK SMILES IDX 6 14 7 15 8 16 4 17
REMARK H PARENT
REMARK Flexibility Score: 60.00
ROOT
ATOM      1  C   UNL     1      20.152  -9.996  65.733  1.00  0.00    -0.070 C 
ATOM      2  C   UNL     1      19.744 -10.077  64.445  1.00  0.00    -0.027 C 
ATOM      3  C   UNL     1      21.469 -10.628  66.101  1.00  0.00     0.039 C 
ENDROOT
BRANCH   2   4
ATOM      4  C   UNL     1      18.429  -9.554  63.912  1.00  0.00     0.032 C 
BRANCH   4   5
ATOM      5  C   UNL     1      17.536 -10.691  63.394  1.00  0.00     0.034 C 
BRANCH   5   6
ATOM      6  C   UNL     1      16.332 -10.972  64.283  1.00  0.00    -0.077 C 
ATOM      7  C   UNL     1      14.985 -10.429  63.875  1.00  0.00     0.039 C 
ATOM      8  C   UNL     1      16.406 -11.671  65.438  1.00  0.00    -0.023 CG0
ATOM      9  G   UNL     1      17.646 -12.349  65.974  1.00  0.00     0.000 G0
ENDBRANCH   5   6
ENDBRANCH   4   5
ENDBRANCH   2   4
BRANCH   1  10
ATOM     10  C   UNL     1      19.346  -9.297  66.812  1.00  0.00     0.111 C 
BRANCH  10  11
ATOM     11  C   UNL     1      18.207 -10.159  67.279  1.00  0.00     0.163 C 
ATOM     12  O   UNL     1      17.179  -9.616  67.767  1.00  0.00    -0.294 OA
BRANCH  11  13
ATOM     13  C   UNL     1      18.278 -11.640  67.199  1.00  0.00    -0.002 C 
ATOM     14  C   UNL     1      18.894 -12.353  68.182  1.00  0.00    -0.069 C 
ATOM     15  C   UNL     1      19.600 -11.659  69.325  1.00  0.00     0.039 C 
ATOM     16  C   UNL     1      18.930 -13.863  68.144  1.00  0.00     0.039 C 
BRANCH  13  17
ATOM     17  C   UNL     1      17.654 -12.350  66.001  1.00  0.00     0.066 CG0
ATOM     18  G   UNL     1      16.425 -11.658  65.457  1.00  0.00     0.000 G0
ENDBRANCH  13  17
ENDBRANCH  11  13
ENDBRANCH  10  11
ENDBRANCH   1  10
TORSDOF 0
ENDMDL
MODEL 4
REMARK VINA RESULT:    -4.341      2.177      4.085
REMARK INTER + INTRA:          -5.561
REMARK INTER:                  -6.103
REMARK INTRA:                   0.543
REMARK UNBOUND:                 0.557
REMARK SMILES CC1=CCC(=C(C)C)C(=O)CC(C)=CCC1
REMARK SMILES IDX 12 1 14 2 13 3 15 4 16 5 2 6 1 7 3 8 11 10 9 11 10 12 5 13
REMARK SMILES IDX 6 14 7 15 8 16 4 17
REMARK H PARENT
REMARK Flexibility Score: 60.00
ROOT
ATOM      1  C   UNL     1      19.239  -9.649  64.986  1.00  0.00    -0.070 C 
ATOM      2  C   UNL     1      19.539  -9.811  66.296  1.00  0.00    -0.027 C 
ATOM      3  C   UNL     1      20.369  -9.686  63.989  1.00  0.00     0.039 C 
ENDROOT
BRANCH   2   4
ATOM      4  C   UNL     1      18.545  -9.743  67.433  1.00  0.00     0.032 C 
BRANCH   4   5
ATOM      5  C   UNL     1      18.422 -11.090  68.160  1.00  0.00     0.034 C 
BRANCH   5   6
ATOM      6  C   UNL     1      18.536 -12.293  67.235  1.00  0.00    -0.077 C 
ATOM      7  C   UNL     1      19.779 -13.146  67.301  1.00  0.00     0.039 C 
ATOM      8  C   UNL     1      17.586 -12.633  66.334  1.00  0.00    -0.023 CG0
ATOM      9  G   UNL     1      16.251 -11.946  66.169  1.00  0.00     0.000 G0
ENDBRANCH   5   6
ENDBRANCH   4   5
ENDBRANCH   2   4
BRANCH   1  10
ATOM     10  C   UNL     1      17.823  -9.437  64.484  1.00  0.00     0.111 C 
BRANCH  10  11
ATOM     11  C   UNL     1      17.205 -10.736  64.047  1.00  0.00     0.163 C 
ATOM     12  O   UNL     1      17.672 -11.336  63.040  1.00  0.00    -0.294 OA
BRANCH  11  13
ATOM     13  C   UNL     1      16.042 -11.317  64.764  1.00  0.00    -0.002 C 
ATOM     14  C   UNL     1      14.805 -11.300  64.194  1.00  0.00    -0.069 C 
ATOM     15  C   UNL     1      14.565 -10.610  62.870  1.00  0.00     0.039 C 
ATOM     16  C   UNL     1      13.620 -11.932  64.885  1.00  0.00     0.039 C 
BRANCH  13  17
ATOM     17  C   UNL     1      16.251 -11.931  66.145  1.00  0.00     0.066 CG0
ATOM     18  G   UNL     1      17.594 -12.603  66.315  1.00  0.00     0.000 G0
ENDBRANCH  13  17
ENDBRANCH  11  13
ENDBRANCH  10  11
ENDBRANCH   1  10
TORSDOF 0
ENDMDL
MODEL 5
REMARK VINA RESULT:    -4.338      2.906      5.321
REMARK INTER + INTRA:          -5.557
REMARK INTER:                  -5.998
REMARK INTRA:                   0.441
REMARK UNBOUND:                 0.557
REMARK SMILES CC1=CCC(=C(C)C)C(=O)CC(C)=CCC1
REMARK SMILES IDX 12 1 14 2 13 3 15 4 16 5 2 6 1 7 3 8 11 10 9 11 10 12 5 13
REMARK SMILES IDX 6 14 7 15 8 16 4 17
REMARK H PARENT
REMARK Flexibility Score: 60.00
ROOT
ATOM      1  C   UNL     1      21.420 -10.840  65.358  1.00  0.00    -0.070 C 
ATOM      2  C   UNL     1      21.893 -11.704  66.285  1.00  0.00    -0.027 C 
ATOM      3  C   UNL     1      22.245 -10.608  64.118  1.00  0.00     0.039 C 
ENDROOT
BRANCH   2   4
ATOM      4  C   UNL     1      21.231 -12.010  67.610  1.00  0.00     0.032 C 
BRANCH   4   5
ATOM      5  C   UNL     1      20.236 -13.174  67.490  1.00  0.00     0.034 C 
BRANCH   5   6
ATOM      6  C   UNL     1      18.824 -12.815  67.933  1.00  0.00    -0.077 C 
ATOM      7  C   UNL     1      18.532 -12.701  69.409  1.00  0.00     0.039 C 
ATOM      8  C   UNL     1      17.803 -12.609  67.071  1.00  0.00    -0.023 CG0
ATOM      9  G   UNL     1      17.915 -12.611  65.565  1.00  0.00     0.000 G0
ENDBRANCH   5   6
ENDBRANCH   4   5
ENDBRANCH   2   4
BRANCH   1  10
ATOM     10  C   UNL     1      20.102 -10.104  65.511  1.00  0.00     0.111 C 
BRANCH  10  11
ATOM     11  C   UNL     1      19.101 -10.572  64.493  1.00  0.00     0.163 C 
ATOM     12  O   UNL     1      19.325 -10.375  63.267  1.00  0.00    -0.294 OA
BRANCH  11  13
ATOM     13  C   UNL     1      17.841 -11.242  64.902  1.00  0.00    -0.002 C 
ATOM     14  C   UNL     1      16.641 -10.630  64.704  1.00  0.00    -0.069 C 
ATOM     15  C   UNL     1      16.563  -9.223  64.156  1.00  0.00     0.039 C 
ATOM     16  C   UNL     1      15.345 -11.318  65.066  1.00  0.00     0.039 C 
BRANCH  13  17
ATOM     17  C   UNL     1      17.909 -12.623  65.546  1.00  0.00     0.066 CG0
ATOM     18  G   UNL     1      17.809 -12.597  67.053  1.00  0.00     0.000 G0
ENDBRANCH  13  17
ENDBRANCH  11  13
ENDBRANCH  10  11
ENDBRANCH   1  10
TORSDOF 0
ENDMDL
MODEL 6
REMARK VINA RESULT:    -4.200      3.084      5.641
REMARK INTER + INTRA:          -5.362
REMARK INTER:                  -5.868
REMARK INTRA:                   0.506
REMARK UNBOUND:                 0.557
REMARK SMILES CC1=CCC(=C(C)C)C(=O)CC(C)=CCC1
REMARK SMILES IDX 12 1 14 2 13 3 15 4 16 5 2 6 1 7 3 8 11 10 9 11 10 12 5 13
REMARK SMILES IDX 6 14 7 15 8 16 4 17
REMARK H PARENT
REMARK Flexibility Score: 60.00
ROOT
ATOM      1  C   UNL     1      18.051 -12.515  67.690  1.00  0.00    -0.070 C 
ATOM      2  C   UNL     1      16.875 -11.883  67.471  1.00  0.00    -0.027 C 
ATOM      3  C   UNL     1      18.330 -13.032  69.078  1.00  0.00     0.039 C 
ENDROOT
BRANCH   2   4
ATOM      4  C   UNL     1      16.456 -11.250  66.163  1.00  0.00     0.032 C 
BRANCH   4   5
ATOM      5  C   UNL     1      17.182  -9.919  65.920  1.00  0.00     0.034 C 
BRANCH   5   6
ATOM      6  C   UNL     1      17.848  -9.830  64.554  1.00  0.00    -0.077 C 
ATOM      7  C   UNL     1      16.979  -9.826  63.320  1.00  0.00     0.039 C 
ATOM      8  C   UNL     1      19.187  -9.771  64.380  1.00  0.00    -0.023 CG0
ATOM      9  G   UNL     1      20.211  -9.694  65.489  1.00  0.00     0.000 G0
ENDBRANCH   5   6
ENDBRANCH   4   5
ENDBRANCH   2   4
BRANCH   1  10
ATOM     10  C   UNL     1      19.090 -12.726  66.605  1.00  0.00     0.111 C 
BRANCH  10  11
ATOM     11  C   UNL     1      20.318 -11.900  66.866  1.00  0.00     0.163 C 
ATOM     12  O   UNL     1      20.860 -11.939  68.004  1.00  0.00    -0.294 OA
BRANCH  11  13
ATOM     13  C   UNL     1      20.894 -11.022  65.816  1.00  0.00    -0.002 C 
ATOM     14  C   UNL     1      22.016 -11.400  65.143  1.00  0.00    -0.069 C 
ATOM     15  C   UNL     1      22.754 -12.669  65.506  1.00  0.00     0.039 C 
ATOM     16  C   UNL     1      22.586 -10.545  64.036  1.00  0.00     0.039 C 
BRANCH  13  17
ATOM     17  C   UNL     1      20.214  -9.692  65.505  1.00  0.00     0.066 CG0
ATOM     18  G   UNL     1      19.197  -9.776  64.391  1.00  0.00     0.000 G0
ENDBRANCH  13  17
ENDBRANCH  11  13
ENDBRANCH  10  11
ENDBRANCH   1  10
TORSDOF 0
ENDMDL
MODEL 7
REMARK VINA RESULT:    -4.199      2.014      4.891
REMARK INTER + INTRA:          -5.360
REMARK INTER:                  -5.940
REMARK INTRA:                   0.580
REMARK UNBOUND:                 0.557
REMARK SMILES CC1=CCC(=C(C)C)C(=O)CC(C)=CCC1
REMARK SMILES IDX 12 1 14 2 13 3 15 4 16 5 2 6 1 7 3 8 11 10 9 11 10 12 5 13
REMARK SMILES IDX 6 14 7 15 8 16 4 17
REMARK H PARENT
REMARK Flexibility Score: 60.00
ROOT
ATOM      1  C   UNL     1      15.788  -9.423  63.278  1.00  0.00    -0.070 C 
ATOM      2  C   UNL     1      14.705 -10.216  63.441  1.00  0.00    -0.027 C 
ATOM      3  C   UNL     1      15.963  -8.724  61.954  1.00  0.00     0.039 C 
ENDROOT
BRANCH   2   4
ATOM      4  C   UNL     1      14.403 -11.037  64.675  1.00  0.00     0.032 C 
BRANCH   4   5
ATOM      5  C   UNL     1      14.334 -12.537  64.354  1.00  0.00     0.034 C 
BRANCH   5   6
ATOM      6  C   UNL     1      15.547 -13.053  63.592  1.00  0.00    -0.077 C 
ATOM      7  C   UNL     1      15.341 -13.676  62.234  1.00  0.00     0.039 C 
ATOM      8  C   UNL     1      16.808 -13.000  64.076  1.00  0.00    -0.023 CG0
ATOM      9  G   UNL     1      17.220 -12.355  65.379  1.00  0.00     0.000 G0
ENDBRANCH   5   6
ENDBRANCH   4   5
ENDBRANCH   2   4
BRANCH   1  10
ATOM     10  C   UNL     1      16.824  -9.205  64.365  1.00  0.00     0.111 C 
BRANCH  10  11
ATOM     11  C   UNL     1      17.978 -10.155  64.209  1.00  0.00     0.163 C 
ATOM     12  O   UNL     1      18.727 -10.059  63.199  1.00  0.00    -0.294 OA
BRANCH  11  13
ATOM     13  C   UNL     1      18.242 -11.220  65.210  1.00  0.00    -0.002 C 
ATOM     14  C   UNL     1      19.377 -11.191  65.962  1.00  0.00    -0.069 C 
ATOM     15  C   UNL     1      20.437 -10.137  65.735  1.00  0.00     0.039 C 
ATOM     16  C   UNL     1      19.637 -12.236  67.021  1.00  0.00     0.039 C 
BRANCH  13  17
ATOM     17  C   UNL     1      17.226 -12.345  65.383  1.00  0.00     0.066 CG0
ATOM     18  G   UNL     1      16.811 -12.995  64.084  1.00  0.00     0.000 G0
ENDBRANCH  13  17
ENDBRANCH  11  13
ENDBRANCH  10  11
ENDBRANCH   1  10
TORSDOF 0
ENDMDL
MODEL 8
REMARK VINA RESULT:    -4.158      3.782      5.988
REMARK INTER + INTRA:          -5.303
REMARK INTER:                  -5.971
REMARK INTRA:                   0.668
REMARK UNBOUND:                 0.557
REMARK SMILES CC1=CCC(=C(C)C)C(=O)CC(C)=CCC1
REMARK SMILES IDX 12 1 14 2 13 3 15 4 16 5 2 6 1 7 3 8 11 10 9 11 10 12 5 13
REMARK SMILES IDX 6 14 7 15 8 16 4 17
REMARK H PARENT
REMARK Flexibility Score: 60.00
ROOT
ATOM      1  C   UNL     1      17.845  -9.902  66.186  1.00  0.00    -0.070 C 
ATOM      2  C   UNL     1      17.863 -10.359  67.460  1.00  0.00    -0.027 C 
ATOM      3  C   UNL     1      16.554 -10.003  65.414  1.00  0.00     0.039 C 
ENDROOT
BRANCH   2   4
ATOM      4  C   UNL     1      19.080 -10.392  68.357  1.00  0.00     0.032 C 
BRANCH   4   5
ATOM      5  C   UNL     1      19.403 -11.820  68.820  1.00  0.00     0.034 C 
BRANCH   5   6
ATOM      6  C   UNL     1      19.526 -12.817  67.676  1.00  0.00    -0.077 C 
ATOM      7  C   UNL     1      18.638 -14.037  67.676  1.00  0.00     0.039 C 
ATOM      8  C   UNL     1      20.408 -12.680  66.660  1.00  0.00    -0.023 CG0
ATOM      9  G   UNL     1      21.326 -11.499  66.451  1.00  0.00     0.000 G0
ENDBRANCH   5   6
ENDBRANCH   4   5
ENDBRANCH   2   4
BRANCH   1  10
ATOM     10  C   UNL     1      19.059  -9.293  65.510  1.00  0.00     0.111 C 
BRANCH  10  11
ATOM     11  C   UNL     1      19.802 -10.322  64.705  1.00  0.00     0.163 C 
ATOM     12  O   UNL     1      19.261 -10.811  63.676  1.00  0.00    -0.294 OA
BRANCH  11  13
ATOM     13  C   UNL     1      21.151 -10.791  65.109  1.00  0.00    -0.002 C 
ATOM     14  C   UNL     1      22.220 -10.602  64.287  1.00  0.00    -0.069 C 
ATOM     15  C   UNL     1      22.048 -10.000  62.910  1.00  0.00     0.039 C 
ATOM     16  C   UNL     1      23.609 -11.026  64.703  1.00  0.00     0.039 C 
BRANCH  13  17
ATOM     17  C   UNL     1      21.323 -11.488  66.455  1.00  0.00     0.066 CG0
ATOM     18  G   UNL     1      20.397 -12.666  66.654  1.00  0.00     0.000 G0
ENDBRANCH  13  17
ENDBRANCH  11  13
ENDBRANCH  10  11
ENDBRANCH   1  10
TORSDOF 0
ENDMDL
MODEL 9
REMARK VINA RESULT:    -4.091      2.532      5.047
REMARK INTER + INTRA:          -5.208
REMARK INTER:                  -5.769
REMARK INTRA:                   0.561
REMARK UNBOUND:                 0.557
REMARK SMILES CC1=CCC(=C(C)C)C(=O)CC(C)=CCC1
REMARK SMILES IDX 12 1 14 2 13 3 15 4 16 5 2 6 1 7 3 8 11 10 9 11 10 12 5 13
REMARK SMILES IDX 6 14 7 15 8 16 4 17
REMARK H PARENT
REMARK Flexibility Score: 60.00
ROOT
ATOM      1  C   UNL     1      18.104 -10.706  67.622  1.00  0.00    -0.070 C 
ATOM      2  C   UNL     1      16.810 -10.479  67.298  1.00  0.00    -0.027 C 
ATOM      3  C   UNL     1      18.923  -9.546  68.128  1.00  0.00     0.039 C 
ENDROOT
BRANCH   2   4
ATOM      4  C   UNL     1      15.862 -11.507  66.721  1.00  0.00     0.032 C 
BRANCH   4   5
ATOM      5  C   UNL     1      15.432 -11.141  65.293  1.00  0.00     0.034 C 
BRANCH   5   6
ATOM      6  C   UNL     1      16.028 -12.049  64.226  1.00  0.00    -0.077 C 
ATOM      7  C   UNL     1      15.180 -13.162  63.662  1.00  0.00     0.039 C 
ATOM      8  C   UNL     1      17.293 -11.926  63.765  1.00  0.00    -0.023 CG0
ATOM      9  G   UNL     1      18.266 -10.838  64.157  1.00  0.00     0.000 G0
ENDBRANCH   5   6
ENDBRANCH   4   5
ENDBRANCH   2   4
BRANCH   1  10
ATOM     10  C   UNL     1      18.758 -12.070  67.502  1.00  0.00     0.111 C 
BRANCH  10  11
ATOM     11  C   UNL     1      19.112 -12.376  66.074  1.00  0.00     0.163 C 
ATOM     12  O   UNL     1      19.194 -13.578  65.700  1.00  0.00    -0.294 OA
BRANCH  11  13
ATOM     13  C   UNL     1      19.387 -11.291  65.099  1.00  0.00    -0.002 C 
ATOM     14  C   UNL     1      20.619 -10.713  65.044  1.00  0.00    -0.069 C 
ATOM     15  C   UNL     1      21.703 -11.089  66.029  1.00  0.00     0.039 C 
ATOM     16  C   UNL     1      20.934  -9.644  64.023  1.00  0.00     0.039 C 
BRANCH  13  17
ATOM     17  C   UNL     1      18.274 -10.833  64.161  1.00  0.00     0.066 CG0
ATOM     18  G   UNL     1      17.318 -11.936  63.769  1.00  0.00     0.000 G0
ENDBRANCH  13  17
ENDBRANCH  11  13
ENDBRANCH  10  11
ENDBRANCH   1  10
TORSDOF 0
ENDMDL
