MODEL 1
REMARK VINA RESULT:    12.552      0.000      0.000
REMARK INTER + INTRA:          12.919
REMARK INTER:                  12.919
REMARK INTRA:                   0.000
REMARK UNBOUND:                 0.000
REMARK SMILES C=C1[C@H]2C[C@]3(C[C@@H]1O)[C@@H](C)CC[C@H]3C2(C)C
REMARK SMILES IDX 10 1 9 2 11 3 12 4 13 5 5 6 4 7 3 8 14 9 15 10 16 11 2 12
REMARK SMILES IDX 1 13 7 14 6 15 8 16
REMARK H PARENT 8 17
REMARK Flexibility Score: inf
ROOT
ATOM      1  C   UNL     1      97.124  10.898  61.877  1.00  0.00     0.008 C 
ATOM      2  C   UNL     1      96.797   9.792  62.890  1.00  0.00    -0.008 C 
ATOM      3  C   UNL     1      96.869  10.271  64.371  1.00  0.00     0.004 C 
ATOM      4  C   UNL     1      95.831   9.433  65.165  1.00  0.00     0.005 C 
ATOM      5  C   UNL     1      95.391   8.412  64.132  1.00  0.00     0.002 C 
ATOM      6  C   UNL     1      95.391   9.156  62.800  1.00  0.00    -0.020 C 
ATOM      7  C   UNL     1      95.094   7.986  61.875  1.00  0.00     0.016 C 
ATOM      8  C   UNL     1      93.846   7.395  62.591  1.00  0.00     0.023 C 
ATOM      9  C   UNL     1      94.143   7.510  64.141  1.00  0.00    -0.025 C 
ATOM     10  C   UNL     1      93.003   8.095  65.013  1.00  0.00     0.012 C 
ATOM     11  C   UNL     1      94.479   6.106  64.700  1.00  0.00     0.012 C 
ATOM     12  C   UNL     1      92.671   8.254  62.183  1.00  0.00    -0.045 C 
ATOM     13  C   UNL     1      91.489   7.695  61.880  1.00  0.00     0.011 C 
ATOM     14  C   UNL     1      92.866   9.755  62.083  1.00  0.00     0.140 C 
ATOM     15  C   UNL     1      94.242  10.245  62.646  1.00  0.00     0.044 C 
ENDROOT
BRANCH  14  16
ATOM     16  O   UNL     1      91.818  10.415  62.745  1.00  0.00    -0.389 OA
ATOM     17  H   UNL     1      91.392  11.014  62.078  1.00  0.00     0.211 HD
ENDBRANCH  14  16
TORSDOF 1
ENDMDL
