MODEL 1
REMARK VINA RESULT:    -3.917      0.000      0.000
REMARK INTER + INTRA:          -6.278
REMARK INTER:                  -5.979
REMARK INTRA:                  -0.299
REMARK UNBOUND:                -0.299
REMARK SMILES CC1=CCC[C@@H](C)C(=O)C[C@@H](C(C)C)C(=O)C1
REMARK SMILES IDX 8 1 9 2 6 3 7 4 5 5 4 6 3 7 2 8 1 9 10 11 11 12 15 13 16 14
REMARK SMILES IDX 17 15 12 17 13 18 14 19
REMARK H PARENT
REMARK Flexibility Score: 70.00
ROOT
ATOM      1  C   UNL     1      14.084 111.004  20.929  1.00  0.00     0.136 C 
ATOM      2  O   UNL     1      14.975 111.002  21.767  1.00  0.00    -0.299 OA
ENDROOT
BRANCH   1   3
ATOM      3  C   UNL     1      13.313 109.734  20.641  1.00  0.00     0.053 C 
ATOM      4  C   UNL     1      12.391 109.422  21.823  1.00  0.00     0.016 C 
BRANCH   3   5
ATOM      5  C   UNL     1      14.238 108.528  20.351  1.00  0.00     0.015 C 
BRANCH   5   6
ATOM      6  C   UNL     1      14.639 108.397  18.868  1.00  0.00     0.028 C 
BRANCH   6   7
ATOM      7  C   UNL     1      15.950 109.097  18.582  1.00  0.00    -0.028 C 
ATOM      8  C   UNL     1      16.132 110.156  17.759  1.00  0.00    -0.070 CG0
ATOM      9  C   UNL     1      17.535 110.683  17.591  1.00  0.00     0.039 C 
ATOM     10  G   UNL     1      15.003 110.883  17.057  1.00  0.00     0.000 G0
ENDBRANCH   6   7
ENDBRANCH   5   6
ENDBRANCH   3   5
ENDBRANCH   1   3
BRANCH   1  11
ATOM     11  C   UNL     1      13.741 112.288  20.213  1.00  0.00     0.087 C 
BRANCH  11  12
ATOM     12  C   UNL     1      13.343 112.045  18.739  1.00  0.00     0.066 C 
BRANCH  12  13
ATOM     13  C   UNL     1      14.566 112.082  17.841  1.00  0.00     0.140 C 
ATOM     14  O   UNL     1      15.237 113.101  17.768  1.00  0.00    -0.299 OA
BRANCH  13  15
ATOM     15  C   UNL     1      14.997 110.872  17.058  1.00  0.00     0.106 CG0
ATOM     16  G   UNL     1      16.130 110.165  17.774  1.00  0.00     0.000 G0
ENDBRANCH  13  15
ENDBRANCH  12  13
BRANCH  12  17
ATOM     17  C   UNL     1      12.233 113.012  18.218  1.00  0.00    -0.006 C 
ATOM     18  C   UNL     1      11.204 113.421  19.285  1.00  0.00     0.008 C 
ATOM     19  C   UNL     1      11.509 112.432  16.991  1.00  0.00     0.008 C 
ENDBRANCH  12  17
ENDBRANCH  11  12
ENDBRANCH   1  11
TORSDOF 1
ENDMDL
MODEL 2
REMARK VINA RESULT:    -3.723      6.508      8.706
REMARK INTER + INTRA:          -5.981
REMARK INTER:                  -5.927
REMARK INTRA:                  -0.054
REMARK UNBOUND:                -0.299
REMARK SMILES CC1=CCC[C@@H](C)C(=O)C[C@@H](C(C)C)C(=O)C1
REMARK SMILES IDX 8 1 9 2 6 3 7 4 5 5 4 6 3 7 2 8 1 9 10 11 11 12 15 13 16 14
REMARK SMILES IDX 17 15 12 17 13 18 14 19
REMARK H PARENT
REMARK Flexibility Score: 70.00
ROOT
ATOM      1  C   UNL     1       9.131 119.190  19.709  1.00  0.00     0.136 C 
ATOM      2  O   UNL     1       9.009 120.394  19.879  1.00  0.00    -0.299 OA
ENDROOT
BRANCH   1   3
ATOM      3  C   UNL     1       7.908 118.300  19.688  1.00  0.00     0.053 C 
ATOM      4  C   UNL     1       6.689 119.122  19.258  1.00  0.00     0.016 C 
BRANCH   3   5
ATOM      5  C   UNL     1       7.641 117.621  21.053  1.00  0.00     0.015 C 
BRANCH   5   6
ATOM      6  C   UNL     1       8.731 117.898  22.107  1.00  0.00     0.028 C 
BRANCH   6   7
ATOM      7  C   UNL     1       9.298 116.615  22.673  1.00  0.00    -0.028 C 
ATOM      8  C   UNL     1      10.432 115.992  22.274  1.00  0.00    -0.070 CG0
ATOM      9  C   UNL     1      10.801 114.697  22.954  1.00  0.00     0.039 C 
ATOM     10  G   UNL     1      11.383 116.554  21.237  1.00  0.00     0.000 G0
ENDBRANCH   6   7
ENDBRANCH   5   6
ENDBRANCH   3   5
ENDBRANCH   1   3
BRANCH   1  11
ATOM     11  C   UNL     1      10.506 118.609  19.485  1.00  0.00     0.087 C 
BRANCH  11  12
ATOM     12  C   UNL     1      10.446 117.190  18.871  1.00  0.00     0.066 C 
BRANCH  12  13
ATOM     13  C   UNL     1      10.989 116.162  19.846  1.00  0.00     0.140 C 
ATOM     14  O   UNL     1      11.107 114.996  19.498  1.00  0.00    -0.299 OA
BRANCH  13  15
ATOM     15  C   UNL     1      11.423 116.553  21.233  1.00  0.00     0.106 CG0
ATOM     16  G   UNL     1      10.441 116.017  22.255  1.00  0.00     0.000 G0
ENDBRANCH  13  15
ENDBRANCH  12  13
BRANCH  12  17
ATOM     17  C   UNL     1      11.148 117.074  17.482  1.00  0.00    -0.006 C 
ATOM     18  C   UNL     1      12.640 117.450  17.498  1.00  0.00     0.008 C 
ATOM     19  C   UNL     1      10.416 117.896  16.408  1.00  0.00     0.008 C 
ENDBRANCH  12  17
ENDBRANCH  11  12
ENDBRANCH   1  11
TORSDOF 1
ENDMDL
MODEL 3
REMARK VINA RESULT:    -3.653     12.679     14.555
REMARK INTER + INTRA:          -5.874
REMARK INTER:                  -5.550
REMARK INTRA:                  -0.324
REMARK UNBOUND:                -0.299
REMARK SMILES CC1=CCC[C@@H](C)C(=O)C[C@@H](C(C)C)C(=O)C1
REMARK SMILES IDX 8 1 9 2 6 3 7 4 5 5 4 6 3 7 2 8 1 9 10 11 11 12 15 13 16 14
REMARK SMILES IDX 17 15 12 17 13 18 14 19
REMARK H PARENT
REMARK Flexibility Score: 70.00
ROOT
ATOM      1  C   UNL     1      18.722 123.739  15.646  1.00  0.00     0.136 C 
ATOM      2  O   UNL     1      19.696 123.446  16.325  1.00  0.00    -0.299 OA
ENDROOT
BRANCH   1   3
ATOM      3  C   UNL     1      18.677 125.067  14.921  1.00  0.00     0.053 C 
ATOM      4  C   UNL     1      19.748 125.083  13.827  1.00  0.00     0.016 C 
BRANCH   3   5
ATOM      5  C   UNL     1      18.865 126.272  15.872  1.00  0.00     0.015 C 
BRANCH   5   6
ATOM      6  C   UNL     1      17.579 126.683  16.615  1.00  0.00     0.028 C 
BRANCH   6   7
ATOM      7  C   UNL     1      17.545 126.125  18.022  1.00  0.00    -0.028 C 
ATOM      8  C   UNL     1      16.587 125.326  18.548  1.00  0.00    -0.070 CG0
ATOM      9  C   UNL     1      16.732 124.907  19.989  1.00  0.00     0.039 C 
ATOM     10  G   UNL     1      15.420 124.775  17.754  1.00  0.00     0.000 G0
ENDBRANCH   6   7
ENDBRANCH   5   6
ENDBRANCH   3   5
ENDBRANCH   1   3
BRANCH   1  11
ATOM     11  C   UNL     1      17.587 122.753  15.512  1.00  0.00     0.087 C 
BRANCH  11  12
ATOM     12  C   UNL     1      16.205 123.434  15.646  1.00  0.00     0.066 C 
BRANCH  12  13
ATOM     13  C   UNL     1      15.769 123.476  17.099  1.00  0.00     0.140 C 
ATOM     14  O   UNL     1      15.736 122.444  17.754  1.00  0.00    -0.299 OA
BRANCH  13  15
ATOM     15  C   UNL     1      15.404 124.773  17.768  1.00  0.00     0.106 CG0
ATOM     16  G   UNL     1      16.593 125.314  18.536  1.00  0.00     0.000 G0
ENDBRANCH  13  15
ENDBRANCH  12  13
BRANCH  12  17
ATOM     17  C   UNL     1      15.099 122.801  14.744  1.00  0.00    -0.006 C 
ATOM     18  C   UNL     1      15.561 121.559  13.962  1.00  0.00     0.008 C 
ATOM     19  C   UNL     1      14.500 123.834  13.775  1.00  0.00     0.008 C 
ENDBRANCH  12  17
ENDBRANCH  11  12
ENDBRANCH   1  11
TORSDOF 1
ENDMDL
MODEL 4
REMARK VINA RESULT:    -3.570      6.109      9.172
REMARK INTER + INTRA:          -5.748
REMARK INTER:                  -5.284
REMARK INTRA:                  -0.464
REMARK UNBOUND:                -0.299
REMARK SMILES CC1=CCC[C@@H](C)C(=O)C[C@@H](C(C)C)C(=O)C1
REMARK SMILES IDX 8 1 9 2 6 3 7 4 5 5 4 6 3 7 2 8 1 9 10 11 11 12 15 13 16 14
REMARK SMILES IDX 17 15 12 17 13 18 14 19
REMARK H PARENT
REMARK Flexibility Score: 70.00
ROOT
ATOM      1  C   UNL     1       9.633 118.614  19.460  1.00  0.00     0.136 C 
ATOM      2  O   UNL     1       9.554 119.690  18.883  1.00  0.00    -0.299 OA
ENDROOT
BRANCH   1   3
ATOM      3  C   UNL     1       8.385 117.802  19.722  1.00  0.00     0.053 C 
ATOM      4  C   UNL     1       7.540 117.744  18.446  1.00  0.00     0.016 C 
BRANCH   3   5
ATOM      5  C   UNL     1       7.545 118.360  20.895  1.00  0.00     0.015 C 
BRANCH   5   6
ATOM      6  C   UNL     1       7.777 117.625  22.229  1.00  0.00     0.028 C 
BRANCH   6   7
ATOM      7  C   UNL     1       8.812 118.329  23.080  1.00  0.00    -0.028 C 
ATOM      8  C   UNL     1      10.003 117.825  23.479  1.00  0.00    -0.070 CG0
ATOM      9  C   UNL     1      10.875 118.688  24.356  1.00  0.00     0.039 C 
ATOM     10  G   UNL     1      10.538 116.477  23.039  1.00  0.00     0.000 G0
ENDBRANCH   6   7
ENDBRANCH   5   6
ENDBRANCH   3   5
ENDBRANCH   1   3
BRANCH   1  11
ATOM     11  C   UNL     1      10.989 118.093  19.873  1.00  0.00     0.087 C 
BRANCH  11  12
ATOM     12  C   UNL     1      10.911 116.657  20.441  1.00  0.00     0.066 C 
BRANCH  12  13
ATOM     13  C   UNL     1      11.454 116.612  21.858  1.00  0.00     0.140 C 
ATOM     14  O   UNL     1      12.656 116.731  22.053  1.00  0.00    -0.299 OA
BRANCH  13  15
ATOM     15  C   UNL     1      10.538 116.457  23.041  1.00  0.00     0.106 CG0
ATOM     16  G   UNL     1      10.001 117.810  23.463  1.00  0.00     0.000 G0
ENDBRANCH  13  15
ENDBRANCH  12  13
BRANCH  12  17
ATOM     17  C   UNL     1      11.601 115.585  19.540  1.00  0.00    -0.006 C 
ATOM     18  C   UNL     1      11.664 115.962  18.050  1.00  0.00     0.008 C 
ATOM     19  C   UNL     1      10.942 114.204  19.700  1.00  0.00     0.008 C 
ENDBRANCH  12  17
ENDBRANCH  11  12
ENDBRANCH   1  11
TORSDOF 1
ENDMDL
MODEL 5
REMARK VINA RESULT:    -3.385      6.063      9.366
REMARK INTER + INTRA:          -5.464
REMARK INTER:                  -5.574
REMARK INTRA:                   0.110
REMARK UNBOUND:                -0.299
REMARK SMILES CC1=CCC[C@@H](C)C(=O)C[C@@H](C(C)C)C(=O)C1
REMARK SMILES IDX 8 1 9 2 6 3 7 4 5 5 4 6 3 7 2 8 1 9 10 11 11 12 15 13 16 14
REMARK SMILES IDX 17 15 12 17 13 18 14 19
REMARK H PARENT
REMARK Flexibility Score: 70.00
ROOT
ATOM      1  C   UNL     1       9.706 117.793  18.343  1.00  0.00     0.136 C 
ATOM      2  O   UNL     1       9.660 117.622  17.133  1.00  0.00    -0.299 OA
ENDROOT
BRANCH   1   3
ATOM      3  C   UNL     1       8.499 118.330  19.079  1.00  0.00     0.053 C 
ATOM      4  C   UNL     1       7.227 117.937  18.321  1.00  0.00     0.016 C 
BRANCH   3   5
ATOM      5  C   UNL     1       8.553 119.864  19.274  1.00  0.00     0.015 C 
BRANCH   5   6
ATOM      6  C   UNL     1       9.298 120.301  20.550  1.00  0.00     0.028 C 
BRANCH   6   7
ATOM      7  C   UNL     1       8.842 119.512  21.759  1.00  0.00    -0.028 C 
ATOM      8  C   UNL     1       9.491 118.471  22.332  1.00  0.00    -0.070 CG0
ATOM      9  C   UNL     1       8.841 117.803  23.517  1.00  0.00     0.039 C 
ATOM     10  G   UNL     1      10.859 117.989  21.896  1.00  0.00     0.000 G0
ENDBRANCH   6   7
ENDBRANCH   5   6
ENDBRANCH   3   5
ENDBRANCH   1   3
BRANCH   1  11
ATOM     11  C   UNL     1      10.964 117.430  19.096  1.00  0.00     0.087 C 
BRANCH  11  12
ATOM     12  C   UNL     1      10.774 116.171  19.974  1.00  0.00     0.066 C 
BRANCH  12  13
ATOM     13  C   UNL     1      10.784 116.539  21.446  1.00  0.00     0.140 C 
ATOM     14  O   UNL     1      10.753 115.658  22.294  1.00  0.00    -0.299 OA
BRANCH  13  15
ATOM     15  C   UNL     1      10.865 117.974  21.892  1.00  0.00     0.106 CG0
ATOM     16  G   UNL     1       9.496 118.464  22.318  1.00  0.00     0.000 G0
ENDBRANCH  13  15
ENDBRANCH  12  13
BRANCH  12  17
ATOM     17  C   UNL     1      11.798 115.032  19.672  1.00  0.00    -0.006 C 
ATOM     18  C   UNL     1      13.196 115.533  19.270  1.00  0.00     0.008 C 
ATOM     19  C   UNL     1      11.265 114.061  18.604  1.00  0.00     0.008 C 
ENDBRANCH  12  17
ENDBRANCH  11  12
ENDBRANCH   1  11
TORSDOF 1
ENDMDL
MODEL 6
REMARK VINA RESULT:    -3.381      4.452      7.456
REMARK INTER + INTRA:          -5.459
REMARK INTER:                  -5.874
REMARK INTRA:                   0.415
REMARK UNBOUND:                -0.299
REMARK SMILES CC1=CCC[C@@H](C)C(=O)C[C@@H](C(C)C)C(=O)C1
REMARK SMILES IDX 8 1 9 2 6 3 7 4 5 5 4 6 3 7 2 8 1 9 10 11 11 12 15 13 16 14
REMARK SMILES IDX 17 15 12 17 13 18 14 19
REMARK H PARENT
REMARK Flexibility Score: 70.00
ROOT
ATOM      1  C   UNL     1      10.444 117.240  18.149  1.00  0.00     0.136 C 
ATOM      2  O   UNL     1      10.176 117.759  17.075  1.00  0.00    -0.299 OA
ENDROOT
BRANCH   1   3
ATOM      3  C   UNL     1       9.482 117.364  19.310  1.00  0.00     0.053 C 
ATOM      4  C   UNL     1       8.065 117.590  18.773  1.00  0.00     0.016 C 
BRANCH   3   5
ATOM      5  C   UNL     1       9.870 118.498  20.288  1.00  0.00     0.015 C 
BRANCH   5   6
ATOM      6  C   UNL     1      11.109 118.178  21.148  1.00  0.00     0.028 C 
BRANCH   6   7
ATOM      7  C   UNL     1      10.860 117.003  22.068  1.00  0.00    -0.028 C 
ATOM      8  C   UNL     1      11.359 115.752  21.927  1.00  0.00    -0.070 CG0
ATOM      9  C   UNL     1      10.957 114.715  22.946  1.00  0.00     0.039 C 
ATOM     10  G   UNL     1      12.350 115.356  20.852  1.00  0.00     0.000 G0
ENDBRANCH   6   7
ENDBRANCH   5   6
ENDBRANCH   3   5
ENDBRANCH   1   3
BRANCH   1  11
ATOM     11  C   UNL     1      11.721 116.449  18.293  1.00  0.00     0.087 C 
BRANCH  11  12
ATOM     12  C   UNL     1      11.455 114.929  18.410  1.00  0.00     0.066 C 
BRANCH  12  13
ATOM     13  C   UNL     1      11.698 114.451  19.830  1.00  0.00     0.140 C 
ATOM     14  O   UNL     1      11.370 113.320  20.155  1.00  0.00    -0.299 OA
BRANCH  13  15
ATOM     15  C   UNL     1      12.371 115.333  20.847  1.00  0.00     0.106 CG0
ATOM     16  G   UNL     1      11.376 115.750  21.911  1.00  0.00     0.000 G0
ENDBRANCH  13  15
ENDBRANCH  12  13
BRANCH  12  17
ATOM     17  C   UNL     1      12.255 114.069  17.382  1.00  0.00    -0.006 C 
ATOM     18  C   UNL     1      11.657 112.675  17.129  1.00  0.00     0.008 C 
ATOM     19  C   UNL     1      13.733 113.936  17.785  1.00  0.00     0.008 C 
ENDBRANCH  12  17
ENDBRANCH  11  12
ENDBRANCH   1  11
TORSDOF 1
ENDMDL
MODEL 7
REMARK VINA RESULT:    -3.329     12.807     14.337
REMARK INTER + INTRA:          -5.380
REMARK INTER:                  -5.417
REMARK INTRA:                   0.037
REMARK UNBOUND:                -0.299
REMARK SMILES CC1=CCC[C@@H](C)C(=O)C[C@@H](C(C)C)C(=O)C1
REMARK SMILES IDX 8 1 9 2 6 3 7 4 5 5 4 6 3 7 2 8 1 9 10 11 11 12 15 13 16 14
REMARK SMILES IDX 17 15 12 17 13 18 14 19
REMARK H PARENT
REMARK Flexibility Score: 70.00
ROOT
ATOM      1  C   UNL     1      17.127 125.114  16.470  1.00  0.00     0.136 C 
ATOM      2  O   UNL     1      16.231 124.792  17.236  1.00  0.00    -0.299 OA
ENDROOT
BRANCH   1   3
ATOM      3  C   UNL     1      18.216 126.058  16.930  1.00  0.00     0.053 C 
ATOM      4  C   UNL     1      17.620 127.452  17.145  1.00  0.00     0.016 C 
BRANCH   3   5
ATOM      5  C   UNL     1      19.402 126.129  15.939  1.00  0.00     0.015 C 
BRANCH   5   6
ATOM      6  C   UNL     1      20.543 125.146  16.267  1.00  0.00     0.028 C 
BRANCH   6   7
ATOM      7  C   UNL     1      21.096 124.498  15.016  1.00  0.00    -0.028 C 
ATOM      8  C   UNL     1      20.783 123.269  14.542  1.00  0.00    -0.070 CG0
ATOM      9  C   UNL     1      21.477 122.801  13.288  1.00  0.00     0.039 C 
ATOM     10  G   UNL     1      19.727 122.372  15.156  1.00  0.00     0.000 G0
ENDBRANCH   6   7
ENDBRANCH   5   6
ENDBRANCH   3   5
ENDBRANCH   1   3
BRANCH   1  11
ATOM     11  C   UNL     1      17.154 124.533  15.076  1.00  0.00     0.087 C 
BRANCH  11  12
ATOM     12  C   UNL     1      17.173 122.987  15.089  1.00  0.00     0.066 C 
BRANCH  12  13
ATOM     13  C   UNL     1      18.427 122.462  14.413  1.00  0.00     0.140 C 
ATOM     14  O   UNL     1      18.393 122.141  13.234  1.00  0.00    -0.299 OA
BRANCH  13  15
ATOM     15  C   UNL     1      19.730 122.356  15.158  1.00  0.00     0.106 CG0
ATOM     16  G   UNL     1      20.761 123.274  14.533  1.00  0.00     0.000 G0
ENDBRANCH  13  15
ENDBRANCH  12  13
BRANCH  12  17
ATOM     17  C   UNL     1      15.892 122.335  14.482  1.00  0.00    -0.006 C 
ATOM     18  C   UNL     1      14.751 123.330  14.206  1.00  0.00     0.008 C 
ATOM     19  C   UNL     1      15.375 121.181  15.358  1.00  0.00     0.008 C 
ENDBRANCH  12  17
ENDBRANCH  11  12
ENDBRANCH   1  11
TORSDOF 1
ENDMDL
MODEL 8
REMARK VINA RESULT:    -3.313      8.057     10.063
REMARK INTER + INTRA:          -5.355
REMARK INTER:                  -4.969
REMARK INTRA:                  -0.386
REMARK UNBOUND:                -0.299
REMARK SMILES CC1=CCC[C@@H](C)C(=O)C[C@@H](C(C)C)C(=O)C1
REMARK SMILES IDX 8 1 9 2 6 3 7 4 5 5 4 6 3 7 2 8 1 9 10 11 11 12 15 13 16 14
REMARK SMILES IDX 17 15 12 17 13 18 14 19
REMARK H PARENT
REMARK Flexibility Score: 70.00
ROOT
ATOM      1  C   UNL     1       8.990 120.489  21.266  1.00  0.00     0.136 C 
ATOM      2  O   UNL     1       9.159 121.670  20.997  1.00  0.00    -0.299 OA
ENDROOT
BRANCH   1   3
ATOM      3  C   UNL     1       7.865 120.077  22.191  1.00  0.00     0.053 C 
ATOM      4  C   UNL     1       6.670 121.012  21.984  1.00  0.00     0.016 C 
BRANCH   3   5
ATOM      5  C   UNL     1       8.288 120.070  23.679  1.00  0.00     0.015 C 
BRANCH   5   6
ATOM      6  C   UNL     1       8.471 118.656  24.265  1.00  0.00     0.028 C 
BRANCH   6   7
ATOM      7  C   UNL     1       9.931 118.260  24.317  1.00  0.00    -0.028 C 
ATOM      8  C   UNL     1      10.519 117.263  23.615  1.00  0.00    -0.070 CG0
ATOM      9  C   UNL     1      11.989 117.014  23.842  1.00  0.00     0.039 C 
ATOM     10  G   UNL     1       9.803 116.433  22.568  1.00  0.00     0.000 G0
ENDBRANCH   6   7
ENDBRANCH   5   6
ENDBRANCH   3   5
ENDBRANCH   1   3
BRANCH   1  11
ATOM     11  C   UNL     1       9.889 119.450  20.642  1.00  0.00     0.087 C 
BRANCH  11  12
ATOM     12  C   UNL     1       9.210 118.062  20.566  1.00  0.00     0.066 C 
BRANCH  12  13
ATOM     13  C   UNL     1      10.096 116.998  21.187  1.00  0.00     0.140 C 
ATOM     14  O   UNL     1      11.081 116.598  20.583  1.00  0.00    -0.299 OA
BRANCH  13  15
ATOM     15  C   UNL     1       9.808 116.443  22.556  1.00  0.00     0.106 CG0
ATOM     16  G   UNL     1      10.518 117.267  23.611  1.00  0.00     0.000 G0
ENDBRANCH  13  15
ENDBRANCH  12  13
BRANCH  12  17
ATOM     17  C   UNL     1       8.767 117.655  19.126  1.00  0.00    -0.006 C 
ATOM     18  C   UNL     1       9.606 118.293  18.006  1.00  0.00     0.008 C 
ATOM     19  C   UNL     1       7.276 117.946  18.889  1.00  0.00     0.008 C 
ENDBRANCH  12  17
ENDBRANCH  11  12
ENDBRANCH   1  11
TORSDOF 1
ENDMDL
MODEL 9
REMARK VINA RESULT:    -3.300     12.780     14.064
REMARK INTER + INTRA:          -5.336
REMARK INTER:                  -5.432
REMARK INTRA:                   0.096
REMARK UNBOUND:                -0.299
REMARK SMILES CC1=CCC[C@@H](C)C(=O)C[C@@H](C(C)C)C(=O)C1
REMARK SMILES IDX 8 1 9 2 6 3 7 4 5 5 4 6 3 7 2 8 1 9 10 11 11 12 15 13 16 14
REMARK SMILES IDX 17 15 12 17 13 18 14 19
REMARK H PARENT
REMARK Flexibility Score: 70.00
ROOT
ATOM      1  C   UNL     1      15.438 123.105  15.790  1.00  0.00     0.136 C 
ATOM      2  O   UNL     1      15.205 121.918  15.971  1.00  0.00    -0.299 OA
ENDROOT
BRANCH   1   3
ATOM      3  C   UNL     1      15.620 123.635  14.386  1.00  0.00     0.053 C 
ATOM      4  C   UNL     1      14.292 123.536  13.629  1.00  0.00     0.016 C 
BRANCH   3   5
ATOM      5  C   UNL     1      16.735 122.895  13.608  1.00  0.00     0.015 C 
BRANCH   5   6
ATOM      6  C   UNL     1      18.114 123.578  13.701  1.00  0.00     0.028 C 
BRANCH   6   7
ATOM      7  C   UNL     1      19.073 122.782  14.558  1.00  0.00    -0.028 C 
ATOM      8  C   UNL     1      19.607 123.169  15.741  1.00  0.00    -0.070 CG0
ATOM      9  C   UNL     1      20.573 122.230  16.419  1.00  0.00     0.039 C 
ATOM     10  G   UNL     1      19.237 124.455  16.452  1.00  0.00     0.000 G0
ENDBRANCH   6   7
ENDBRANCH   5   6
ENDBRANCH   3   5
ENDBRANCH   1   3
BRANCH   1  11
ATOM     11  C   UNL     1      15.506 124.036  16.977  1.00  0.00     0.087 C 
BRANCH  11  12
ATOM     12  C   UNL     1      16.714 124.998  16.893  1.00  0.00     0.066 C 
BRANCH  12  13
ATOM     13  C   UNL     1      17.997 124.279  17.271  1.00  0.00     0.140 C 
ATOM     14  O   UNL     1      18.009 123.521  18.230  1.00  0.00    -0.299 OA
BRANCH  13  15
ATOM     15  C   UNL     1      19.256 124.454  16.467  1.00  0.00     0.106 CG0
ATOM     16  G   UNL     1      19.593 123.166  15.744  1.00  0.00     0.000 G0
ENDBRANCH  13  15
ENDBRANCH  12  13
BRANCH  12  17
ATOM     17  C   UNL     1      16.536 126.307  17.725  1.00  0.00    -0.006 C 
ATOM     18  C   UNL     1      17.528 127.424  17.358  1.00  0.00     0.008 C 
ATOM     19  C   UNL     1      16.600 126.030  19.236  1.00  0.00     0.008 C 
ENDBRANCH  12  17
ENDBRANCH  11  12
ENDBRANCH   1  11
TORSDOF 1
ENDMDL
