MODEL 1
REMARK VINA RESULT:    -4.510      0.000      0.000
REMARK INTER + INTRA:          -6.007
REMARK INTER:                  -5.828
REMARK INTRA:                  -0.179
REMARK UNBOUND:                -0.179
REMARK SMILES C=CC(=O)CCCCC
REMARK SMILES IDX 6 1 7 2 8 3 9 4 5 5 3 6 4 7 2 8 1 9
REMARK H PARENT
REMARK Flexibility Score: inf
ROOT
ATOM      1  C   UNL     1      12.328  15.367  12.794  1.00  0.00     0.008 C 
ENDROOT
BRANCH   1   2
ATOM      2  C   UNL     1      11.125  16.113  12.192  1.00  0.00     0.000 C 
BRANCH   2   3
ATOM      3  C   UNL     1      10.266  16.849  13.242  1.00  0.00    -0.003 C 
ATOM      4  C   UNL     1       9.244  17.789  12.602  1.00  0.00     0.004 C 
ENDBRANCH   2   3
ENDBRANCH   1   2
BRANCH   1   5
ATOM      5  C   UNL     1      12.300  15.330  14.327  1.00  0.00     0.080 C 
BRANCH   5   6
ATOM      6  C   UNL     1      13.182  14.231  14.841  1.00  0.00     0.155 C 
ATOM      7  O   UNL     1      12.659  13.158  15.248  1.00  0.00    -0.295 OA
BRANCH   6   8
ATOM      8  C   UNL     1      14.649  14.393  14.829  1.00  0.00     0.039 C 
ATOM      9  C   UNL     1      15.308  15.012  15.808  1.00  0.00     0.012 C 
ENDBRANCH   6   8
ENDBRANCH   5   6
ENDBRANCH   1   5
TORSDOF 5
ENDMDL
MODEL 2
REMARK VINA RESULT:    -4.423      1.859      2.687
REMARK INTER + INTRA:          -5.894
REMARK INTER:                  -5.589
REMARK INTRA:                  -0.305
REMARK UNBOUND:                -0.179
REMARK SMILES C=CC(=O)CCCCC
REMARK SMILES IDX 6 1 7 2 8 3 9 4 5 5 3 6 4 7 2 8 1 9
REMARK H PARENT
REMARK Flexibility Score: inf
ROOT
ATOM      1  C   UNL     1      13.028  14.220  14.643  1.00  0.00     0.008 C 
ENDROOT
BRANCH   1   2
ATOM      2  C   UNL     1      13.444  14.972  13.368  1.00  0.00     0.000 C 
BRANCH   2   3
ATOM      3  C   UNL     1      12.256  15.337  12.451  1.00  0.00    -0.003 C 
ATOM      4  C   UNL     1      11.161  16.100  13.196  1.00  0.00     0.004 C 
ENDBRANCH   2   3
ENDBRANCH   1   2
BRANCH   1   5
ATOM      5  C   UNL     1      13.646  14.814  15.915  1.00  0.00     0.080 C 
BRANCH   5   6
ATOM      6  C   UNL     1      15.131  14.603  15.925  1.00  0.00     0.155 C 
ATOM      7  O   UNL     1      15.896  15.589  15.742  1.00  0.00    -0.295 OA
BRANCH   6   8
ATOM      8  C   UNL     1      15.686  13.261  16.188  1.00  0.00     0.039 C 
ATOM      9  C   UNL     1      16.271  12.531  15.240  1.00  0.00     0.012 C 
ENDBRANCH   6   8
ENDBRANCH   5   6
ENDBRANCH   1   5
TORSDOF 5
ENDMDL
MODEL 3
REMARK VINA RESULT:    -4.285      1.719      5.059
REMARK INTER + INTRA:          -5.716
REMARK INTER:                  -5.594
REMARK INTRA:                  -0.122
REMARK UNBOUND:                -0.179
REMARK SMILES C=CC(=O)CCCCC
REMARK SMILES IDX 6 1 7 2 8 3 9 4 5 5 3 6 4 7 2 8 1 9
REMARK H PARENT
REMARK Flexibility Score: inf
ROOT
ATOM      1  C   UNL     1      12.237  15.375  14.106  1.00  0.00     0.008 C 
ENDROOT
BRANCH   1   2
ATOM      2  C   UNL     1      13.393  14.366  14.210  1.00  0.00     0.000 C 
BRANCH   2   3
ATOM      3  C   UNL     1      14.694  14.974  14.779  1.00  0.00    -0.003 C 
ATOM      4  C   UNL     1      14.798  14.809  16.295  1.00  0.00     0.004 C 
ENDBRANCH   2   3
ENDBRANCH   1   2
BRANCH   1   5
ATOM      5  C   UNL     1      11.890  15.738  12.657  1.00  0.00     0.080 C 
BRANCH   5   6
ATOM      6  C   UNL     1      10.421  16.010  12.521  1.00  0.00     0.155 C 
ATOM      7  O   UNL     1       9.686  15.160  11.950  1.00  0.00    -0.295 OA
BRANCH   6   8
ATOM      8  C   UNL     1       9.842  17.242  13.090  1.00  0.00     0.039 C 
ATOM      9  C   UNL     1       9.016  18.028  12.402  1.00  0.00     0.012 C 
ENDBRANCH   6   8
ENDBRANCH   5   6
ENDBRANCH   1   5
TORSDOF 5
ENDMDL
MODEL 4
REMARK VINA RESULT:    -4.231      1.385      1.676
REMARK INTER + INTRA:          -5.647
REMARK INTER:                  -5.463
REMARK INTRA:                  -0.184
REMARK UNBOUND:                -0.179
REMARK SMILES C=CC(=O)CCCCC
REMARK SMILES IDX 6 1 7 2 8 3 9 4 5 5 3 6 4 7 2 8 1 9
REMARK H PARENT
REMARK Flexibility Score: inf
ROOT
ATOM      1  C   UNL     1      13.404  14.933  13.901  1.00  0.00     0.008 C 
ENDROOT
BRANCH   1   2
ATOM      2  C   UNL     1      12.285  15.248  12.893  1.00  0.00     0.000 C 
BRANCH   2   3
ATOM      3  C   UNL     1      11.148  16.110  13.483  1.00  0.00    -0.003 C 
ATOM      4  C   UNL     1      10.353  16.841  12.402  1.00  0.00     0.004 C 
ENDBRANCH   2   3
ENDBRANCH   1   2
BRANCH   1   5
ATOM      5  C   UNL     1      12.869  14.567  15.291  1.00  0.00     0.080 C 
BRANCH   5   6
ATOM      6  C   UNL     1      13.572  13.352  15.820  1.00  0.00     0.155 C 
ATOM      7  O   UNL     1      12.895  12.424  16.340  1.00  0.00    -0.295 OA
BRANCH   6   8
ATOM      8  C   UNL     1      15.037  13.231  15.692  1.00  0.00     0.039 C 
ATOM      9  C   UNL     1      15.670  12.063  15.791  1.00  0.00     0.012 C 
ENDBRANCH   6   8
ENDBRANCH   5   6
ENDBRANCH   1   5
TORSDOF 5
ENDMDL
MODEL 5
REMARK VINA RESULT:    -4.192      1.494      1.859
REMARK INTER + INTRA:          -5.596
REMARK INTER:                  -5.387
REMARK INTRA:                  -0.210
REMARK UNBOUND:                -0.179
REMARK SMILES C=CC(=O)CCCCC
REMARK SMILES IDX 6 1 7 2 8 3 9 4 5 5 3 6 4 7 2 8 1 9
REMARK H PARENT
REMARK Flexibility Score: inf
ROOT
ATOM      1  C   UNL     1      12.241  15.367  13.362  1.00  0.00     0.008 C 
ENDROOT
BRANCH   1   2
ATOM      2  C   UNL     1      11.779  15.735  11.942  1.00  0.00     0.000 C 
BRANCH   2   3
ATOM      3  C   UNL     1      10.534  16.648  11.916  1.00  0.00    -0.003 C 
ATOM      4  C   UNL     1      10.006  16.952  13.318  1.00  0.00     0.004 C 
ENDBRANCH   2   3
ENDBRANCH   1   2
BRANCH   1   5
ATOM      5  C   UNL     1      13.717  14.956  13.421  1.00  0.00     0.080 C 
BRANCH   5   6
ATOM      6  C   UNL     1      14.145  14.738  14.843  1.00  0.00     0.155 C 
ATOM      7  O   UNL     1      15.309  15.069  15.195  1.00  0.00    -0.295 OA
BRANCH   6   8
ATOM      8  C   UNL     1      13.193  14.179  15.823  1.00  0.00     0.039 C 
ATOM      9  C   UNL     1      13.312  12.946  16.311  1.00  0.00     0.012 C 
ENDBRANCH   6   8
ENDBRANCH   5   6
ENDBRANCH   1   5
TORSDOF 5
ENDMDL
MODEL 6
REMARK VINA RESULT:    -4.171      1.474      4.831
REMARK INTER + INTRA:          -5.569
REMARK INTER:                  -5.410
REMARK INTRA:                  -0.160
REMARK UNBOUND:                -0.179
REMARK SMILES C=CC(=O)CCCCC
REMARK SMILES IDX 6 1 7 2 8 3 9 4 5 5 3 6 4 7 2 8 1 9
REMARK H PARENT
REMARK Flexibility Score: inf
ROOT
ATOM      1  C   UNL     1      13.074  14.525  14.272  1.00  0.00     0.008 C 
ENDROOT
BRANCH   1   2
ATOM      2  C   UNL     1      13.077  13.719  15.582  1.00  0.00     0.000 C 
BRANCH   2   3
ATOM      3  C   UNL     1      14.370  13.890  16.408  1.00  0.00    -0.003 C 
ATOM      4  C   UNL     1      15.225  15.058  15.917  1.00  0.00     0.004 C 
ENDBRANCH   2   3
ENDBRANCH   1   2
BRANCH   1   5
ATOM      5  C   UNL     1      11.973  15.591  14.229  1.00  0.00     0.080 C 
BRANCH   5   6
ATOM      6  C   UNL     1      11.329  15.626  12.874  1.00  0.00     0.155 C 
ATOM      7  O   UNL     1      11.451  14.634  12.106  1.00  0.00    -0.295 OA
BRANCH   6   8
ATOM      8  C   UNL     1      10.527  16.796  12.468  1.00  0.00     0.039 C 
ATOM      9  C   UNL     1       9.607  17.342  13.260  1.00  0.00     0.012 C 
ENDBRANCH   6   8
ENDBRANCH   5   6
ENDBRANCH   1   5
TORSDOF 5
ENDMDL
MODEL 7
REMARK VINA RESULT:    -4.153      2.263      5.525
REMARK INTER + INTRA:          -5.546
REMARK INTER:                  -5.258
REMARK INTRA:                  -0.287
REMARK UNBOUND:                -0.179
REMARK SMILES C=CC(=O)CCCCC
REMARK SMILES IDX 6 1 7 2 8 3 9 4 5 5 3 6 4 7 2 8 1 9
REMARK H PARENT
REMARK Flexibility Score: inf
ROOT
ATOM      1  C   UNL     1      15.292  13.524  16.432  1.00  0.00     0.008 C 
ENDROOT
BRANCH   1   2
ATOM      2  C   UNL     1      15.945  13.066  15.117  1.00  0.00     0.000 C 
BRANCH   2   3
ATOM      3  C   UNL     1      16.376  11.584  15.125  1.00  0.00    -0.003 C 
ATOM      4  C   UNL     1      17.683  11.354  14.366  1.00  0.00     0.004 C 
ENDBRANCH   2   3
ENDBRANCH   1   2
BRANCH   1   5
ATOM      5  C   UNL     1      14.243  14.624  16.226  1.00  0.00     0.080 C 
BRANCH   5   6
ATOM      6  C   UNL     1      13.150  14.144  15.318  1.00  0.00     0.155 C 
ATOM      7  O   UNL     1      12.568  13.055  15.573  1.00  0.00    -0.295 OA
BRANCH   6   8
ATOM      8  C   UNL     1      12.736  14.964  14.163  1.00  0.00     0.039 C 
ATOM      9  C   UNL     1      13.431  15.002  13.027  1.00  0.00     0.012 C 
ENDBRANCH   6   8
ENDBRANCH   5   6
ENDBRANCH   1   5
TORSDOF 5
ENDMDL
MODEL 8
REMARK VINA RESULT:    -4.105      2.288      4.646
REMARK INTER + INTRA:          -5.484
REMARK INTER:                  -5.124
REMARK INTRA:                  -0.359
REMARK UNBOUND:                -0.179
REMARK SMILES C=CC(=O)CCCCC
REMARK SMILES IDX 6 1 7 2 8 3 9 4 5 5 3 6 4 7 2 8 1 9
REMARK H PARENT
REMARK Flexibility Score: inf
ROOT
ATOM      1  C   UNL     1      12.952  13.408  15.562  1.00  0.00     0.008 C 
ENDROOT
BRANCH   1   2
ATOM      2  C   UNL     1      14.132  13.311  16.544  1.00  0.00     0.000 C 
BRANCH   2   3
ATOM      3  C   UNL     1      15.485  13.721  15.925  1.00  0.00    -0.003 C 
ATOM      4  C   UNL     1      15.748  15.222  16.043  1.00  0.00     0.004 C 
ENDBRANCH   2   3
ENDBRANCH   1   2
BRANCH   1   5
ATOM      5  C   UNL     1      12.313  14.802  15.531  1.00  0.00     0.080 C 
BRANCH   5   6
ATOM      6  C   UNL     1      12.233  15.311  14.123  1.00  0.00     0.155 C 
ATOM      7  O   UNL     1      11.236  15.998  13.770  1.00  0.00    -0.295 OA
BRANCH   6   8
ATOM      8  C   UNL     1      13.333  15.043  13.176  1.00  0.00     0.039 C 
ATOM      9  C   UNL     1      13.193  15.186  11.859  1.00  0.00     0.012 C 
ENDBRANCH   6   8
ENDBRANCH   5   6
ENDBRANCH   1   5
TORSDOF 5
ENDMDL
MODEL 9
REMARK VINA RESULT:    -4.091      3.185      4.784
REMARK INTER + INTRA:          -5.465
REMARK INTER:                  -5.284
REMARK INTRA:                  -0.181
REMARK UNBOUND:                -0.179
REMARK SMILES C=CC(=O)CCCCC
REMARK SMILES IDX 6 1 7 2 8 3 9 4 5 5 3 6 4 7 2 8 1 9
REMARK H PARENT
REMARK Flexibility Score: inf
ROOT
ATOM      1  C   UNL     1      14.929  12.860  16.204  1.00  0.00     0.008 C 
ENDROOT
BRANCH   1   2
ATOM      2  C   UNL     1      13.701  13.363  15.426  1.00  0.00     0.000 C 
BRANCH   2   3
ATOM      3  C   UNL     1      13.993  14.594  14.541  1.00  0.00    -0.003 C 
ATOM      4  C   UNL     1      12.823  14.939  13.620  1.00  0.00     0.004 C 
ENDBRANCH   2   3
ENDBRANCH   1   2
BRANCH   1   5
ATOM      5  C   UNL     1      16.226  12.938  15.389  1.00  0.00     0.080 C 
BRANCH   5   6
ATOM      6  C   UNL     1      16.727  11.561  15.068  1.00  0.00     0.155 C 
ATOM      7  O   UNL     1      16.063  10.558  15.445  1.00  0.00    -0.295 OA
BRANCH   6   8
ATOM      8  C   UNL     1      17.963  11.390  14.281  1.00  0.00     0.039 C 
ATOM      9  C   UNL     1      18.013  10.639  13.182  1.00  0.00     0.012 C 
ENDBRANCH   6   8
ENDBRANCH   5   6
ENDBRANCH   1   5
TORSDOF 5
ENDMDL
