MODEL 1
REMARK VINA RESULT:    -5.429      0.000      0.000
REMARK INTER + INTRA:          -6.702
REMARK INTER:                  -6.381
REMARK INTRA:                  -0.321
REMARK UNBOUND:                -0.321
REMARK SMILES O=c1c(O)c(-c2ccc(O)c(O)c2)oc2cc(O)ccc12
REMARK SMILES IDX 5 1 3 2 2 3 1 4 21 5 15 6 14 7 16 8 17 9 19 10 20 11 6 12
REMARK SMILES IDX 7 13 8 14 9 15 13 16 11 17 10 18 12 20 4 22 18 24
REMARK H PARENT 10 19 12 21 4 23 18 25
REMARK Flexibility Score: inf
ROOT
ATOM      1  C   UNL     1     -29.602   1.972   8.259  1.00  0.00     0.180 A 
ATOM      2  C   UNL     1     -28.439   2.704   8.574  1.00  0.00     0.208 A 
ATOM      3  C   UNL     1     -27.237   2.008   8.780  1.00  0.00     0.235 A 
ATOM      4  O   UNL     1     -26.185   2.640   9.074  1.00  0.00    -0.285 OA
ATOM      5  C   UNL     1     -27.218   0.611   8.649  1.00  0.00     0.069 A 
ATOM      6  C   UNL     1     -28.420  -0.046   8.309  1.00  0.00     0.142 A 
ATOM      7  O   UNL     1     -29.538   0.649   8.130  1.00  0.00    -0.452 OA
ATOM      8  C   UNL     1     -28.439  -1.437   8.159  1.00  0.00     0.094 A 
ATOM      9  C   UNL     1     -27.269  -2.183   8.348  1.00  0.00     0.119 A 
ATOM     10  C   UNL     1     -26.076  -1.535   8.688  1.00  0.00     0.047 A 
ATOM     11  C   UNL     1     -26.047  -0.145   8.839  1.00  0.00     0.020 A 
ENDROOT
BRANCH   1  12
ATOM     12  C   UNL     1     -30.912   2.631   8.045  1.00  0.00     0.025 A 
ATOM     13  C   UNL     1     -31.756   2.949   9.123  1.00  0.00     0.016 A 
ATOM     14  C   UNL     1     -32.996   3.549   8.896  1.00  0.00     0.051 A 
ATOM     15  C   UNL     1     -33.418   3.828   7.590  1.00  0.00     0.157 A 
ATOM     16  C   UNL     1     -31.347   2.894   6.737  1.00  0.00     0.062 A 
ATOM     17  C   UNL     1     -32.589   3.495   6.505  1.00  0.00     0.158 A 
BRANCH  15  18
ATOM     18  O   UNL     1     -34.656   4.429   7.365  1.00  0.00    -0.504 OA
ATOM     19  H   UNL     1     -35.326   4.561   8.115  1.00  0.00     0.293 HD
ENDBRANCH  15  18
BRANCH  17  20
ATOM     20  O   UNL     1     -32.983   3.753   5.191  1.00  0.00    -0.504 OA
ATOM     21  H   UNL     1     -33.185   4.689   4.864  1.00  0.00     0.293 HD
ENDBRANCH  17  20
ENDBRANCH   1  12
BRANCH   2  22
ATOM     22  O   UNL     1     -28.478   4.099   8.649  1.00  0.00    -0.502 OA
ATOM     23  H   UNL     1     -28.320   4.600   9.515  1.00  0.00     0.293 HD
ENDBRANCH   2  22
BRANCH   9  24
ATOM     24  O   UNL     1     -27.279  -3.569   8.202  1.00  0.00    -0.508 OA
ATOM     25  H   UNL     1     -28.146  -4.090   8.161  1.00  0.00     0.293 HD
ENDBRANCH   9  24
TORSDOF 5
ENDMDL
MODEL 2
REMARK VINA RESULT:    -5.190      3.258      8.754
REMARK INTER + INTRA:          -6.421
REMARK INTER:                  -6.099
REMARK INTRA:                  -0.322
REMARK UNBOUND:                -0.321
REMARK SMILES O=c1c(O)c(-c2ccc(O)c(O)c2)oc2cc(O)ccc12
REMARK SMILES IDX 5 1 3 2 2 3 1 4 21 5 15 6 14 7 16 8 17 9 19 10 20 11 6 12
REMARK SMILES IDX 7 13 8 14 9 15 13 16 11 17 10 18 12 20 4 22 18 24
REMARK H PARENT 10 19 12 21 4 23 18 25
REMARK Flexibility Score: inf
ROOT
ATOM      1  C   UNL     1     -25.057  -1.690   8.390  1.00  0.00     0.180 A 
ATOM      2  C   UNL     1     -26.228  -2.438   8.630  1.00  0.00     0.208 A 
ATOM      3  C   UNL     1     -27.447  -1.757   8.778  1.00  0.00     0.235 A 
ATOM      4  O   UNL     1     -28.507  -2.403   9.004  1.00  0.00    -0.285 OA
ATOM      5  C   UNL     1     -27.474  -0.358   8.665  1.00  0.00     0.069 A 
ATOM      6  C   UNL     1     -26.262   0.316   8.401  1.00  0.00     0.142 A 
ATOM      7  O   UNL     1     -25.128  -0.366   8.276  1.00  0.00    -0.452 OA
ATOM      8  C   UNL     1     -26.250   1.709   8.271  1.00  0.00     0.094 A 
ATOM      9  C   UNL     1     -27.437   2.441   8.404  1.00  0.00     0.119 A 
ATOM     10  C   UNL     1     -28.639   1.775   8.668  1.00  0.00     0.047 A 
ATOM     11  C   UNL     1     -28.662   0.383   8.798  1.00  0.00     0.020 A 
ENDROOT
BRANCH   1  12
ATOM     12  C   UNL     1     -23.731  -2.332   8.242  1.00  0.00     0.025 A 
ATOM     13  C   UNL     1     -22.926  -2.617   9.358  1.00  0.00     0.016 A 
ATOM     14  C   UNL     1     -21.669  -3.202   9.192  1.00  0.00     0.051 A 
ATOM     15  C   UNL     1     -21.191  -3.499   7.909  1.00  0.00     0.157 A 
ATOM     16  C   UNL     1     -23.239  -2.613   6.957  1.00  0.00     0.062 A 
ATOM     17  C   UNL     1     -21.980  -3.199   6.786  1.00  0.00     0.158 A 
BRANCH  15  18
ATOM     18  O   UNL     1     -19.936  -4.085   7.746  1.00  0.00    -0.504 OA
ATOM     19  H   UNL     1     -19.198  -3.957   8.428  1.00  0.00     0.293 HD
ENDBRANCH  15  18
BRANCH  17  20
ATOM     20  O   UNL     1     -21.531  -3.476   5.494  1.00  0.00    -0.504 OA
ATOM     21  H   UNL     1     -21.630  -2.812   4.737  1.00  0.00     0.293 HD
ENDBRANCH  17  20
ENDBRANCH   1  12
BRANCH   2  22
ATOM     22  O   UNL     1     -26.179  -3.833   8.689  1.00  0.00    -0.502 OA
ATOM     23  H   UNL     1     -26.939  -4.387   9.064  1.00  0.00     0.293 HD
ENDBRANCH   2  22
BRANCH   9  24
ATOM     24  O   UNL     1     -27.434   3.828   8.277  1.00  0.00    -0.508 OA
ATOM     25  H   UNL     1     -27.987   4.296   7.570  1.00  0.00     0.293 HD
ENDBRANCH   9  24
TORSDOF 5
ENDMDL
MODEL 3
REMARK VINA RESULT:    -4.977      2.846      5.593
REMARK INTER + INTRA:          -6.171
REMARK INTER:                  -6.367
REMARK INTRA:                   0.196
REMARK UNBOUND:                -0.321
REMARK SMILES O=c1c(O)c(-c2ccc(O)c(O)c2)oc2cc(O)ccc12
REMARK SMILES IDX 5 1 3 2 2 3 1 4 21 5 15 6 14 7 16 8 17 9 19 10 20 11 6 12
REMARK SMILES IDX 7 13 8 14 9 15 13 16 11 17 10 18 12 20 4 22 18 24
REMARK H PARENT 10 19 12 21 4 23 18 25
REMARK Flexibility Score: inf
ROOT
ATOM      1  C   UNL     1     -26.508  -1.495   8.826  1.00  0.00     0.180 A 
ATOM      2  C   UNL     1     -27.158  -2.663   9.278  1.00  0.00     0.208 A 
ATOM      3  C   UNL     1     -26.431  -3.862   9.336  1.00  0.00     0.235 A 
ATOM      4  O   UNL     1     -26.993  -4.922   9.727  1.00  0.00    -0.285 OA
ATOM      5  C   UNL     1     -25.077  -3.867   8.964  1.00  0.00     0.069 A 
ATOM      6  C   UNL     1     -24.494  -2.652   8.545  1.00  0.00     0.142 A 
ATOM      7  O   UNL     1     -25.219  -1.540   8.496  1.00  0.00    -0.452 OA
ATOM      8  C   UNL     1     -23.145  -2.615   8.176  1.00  0.00     0.094 A 
ATOM      9  C   UNL     1     -22.369  -3.780   8.218  1.00  0.00     0.119 A 
ATOM     10  C   UNL     1     -22.945  -4.986   8.632  1.00  0.00     0.047 A 
ATOM     11  C   UNL     1     -24.292  -5.034   9.004  1.00  0.00     0.020 A 
ENDROOT
BRANCH   1  12
ATOM     12  C   UNL     1     -27.211  -0.196   8.718  1.00  0.00     0.025 A 
ATOM     13  C   UNL     1     -28.571  -0.126   8.371  1.00  0.00     0.016 A 
ATOM     14  C   UNL     1     -29.206   1.112   8.253  1.00  0.00     0.051 A 
ATOM     15  C   UNL     1     -28.491   2.298   8.466  1.00  0.00     0.157 A 
ATOM     16  C   UNL     1     -26.493   0.995   8.911  1.00  0.00     0.062 A 
ATOM     17  C   UNL     1     -27.126   2.237   8.794  1.00  0.00     0.158 A 
BRANCH  15  18
ATOM     18  O   UNL     1     -29.129   3.532   8.349  1.00  0.00    -0.504 OA
ATOM     19  H   UNL     1     -30.130   3.626   8.470  1.00  0.00     0.293 HD
ENDBRANCH  15  18
BRANCH  17  20
ATOM     20  O   UNL     1     -26.384   3.400   9.005  1.00  0.00    -0.504 OA
ATOM     21  H   UNL     1     -25.431   3.497   8.678  1.00  0.00     0.293 HD
ENDBRANCH  17  20
ENDBRANCH   1  12
BRANCH   2  22
ATOM     22  O   UNL     1     -28.493  -2.617   9.689  1.00  0.00    -0.502 OA
ATOM     23  H   UNL     1     -28.823  -1.961  10.385  1.00  0.00     0.293 HD
ENDBRANCH   2  22
BRANCH   9  24
ATOM     24  O   UNL     1     -21.025  -3.752   7.852  1.00  0.00    -0.508 OA
ATOM     25  H   UNL     1     -20.358  -3.159   8.331  1.00  0.00     0.293 HD
ENDBRANCH   9  24
TORSDOF 5
ENDMDL
MODEL 4
REMARK VINA RESULT:    -4.970      1.380      6.618
REMARK INTER + INTRA:          -6.162
REMARK INTER:                  -5.978
REMARK INTRA:                  -0.184
REMARK UNBOUND:                -0.321
REMARK SMILES O=c1c(O)c(-c2ccc(O)c(O)c2)oc2cc(O)ccc12
REMARK SMILES IDX 5 1 3 2 2 3 1 4 21 5 15 6 14 7 16 8 17 9 19 10 20 11 6 12
REMARK SMILES IDX 7 13 8 14 9 15 13 16 11 17 10 18 12 20 4 22 18 24
REMARK H PARENT 10 19 12 21 4 23 18 25
REMARK Flexibility Score: inf
ROOT
ATOM      1  C   UNL     1     -29.148   1.302   8.200  1.00  0.00     0.180 A 
ATOM      2  C   UNL     1     -29.202   2.413   9.068  1.00  0.00     0.208 A 
ATOM      3  C   UNL     1     -30.201   3.379   8.868  1.00  0.00     0.235 A 
ATOM      4  O   UNL     1     -30.263   4.388   9.624  1.00  0.00    -0.285 OA
ATOM      5  C   UNL     1     -31.128   3.209   7.828  1.00  0.00     0.069 A 
ATOM      6  C   UNL     1     -31.021   2.058   7.018  1.00  0.00     0.142 A 
ATOM      7  O   UNL     1     -30.056   1.171   7.235  1.00  0.00    -0.452 OA
ATOM      8  C   UNL     1     -31.933   1.848   5.978  1.00  0.00     0.094 A 
ATOM      9  C   UNL     1     -32.953   2.776   5.735  1.00  0.00     0.119 A 
ATOM     10  C   UNL     1     -33.060   3.919   6.535  1.00  0.00     0.047 A 
ATOM     11  C   UNL     1     -32.154   4.138   7.578  1.00  0.00     0.020 A 
ENDROOT
BRANCH   1  12
ATOM     12  C   UNL     1     -28.115   0.250   8.333  1.00  0.00     0.025 A 
ATOM     13  C   UNL     1     -26.752   0.533   8.136  1.00  0.00     0.016 A 
ATOM     14  C   UNL     1     -25.797  -0.480   8.244  1.00  0.00     0.051 A 
ATOM     15  C   UNL     1     -26.189  -1.793   8.537  1.00  0.00     0.157 A 
ATOM     16  C   UNL     1     -28.505  -1.070   8.607  1.00  0.00     0.062 A 
ATOM     17  C   UNL     1     -27.551  -2.089   8.716  1.00  0.00     0.158 A 
BRANCH  15  18
ATOM     18  O   UNL     1     -25.234  -2.803   8.646  1.00  0.00    -0.504 OA
ATOM     19  H   UNL     1     -24.259  -2.593   8.824  1.00  0.00     0.293 HD
ENDBRANCH  15  18
BRANCH  17  20
ATOM     20  O   UNL     1     -27.975  -3.387   9.002  1.00  0.00    -0.504 OA
ATOM     21  H   UNL     1     -28.900  -3.717   8.757  1.00  0.00     0.293 HD
ENDBRANCH  17  20
ENDBRANCH   1  12
BRANCH   2  22
ATOM     22  O   UNL     1     -28.296   2.531  10.125  1.00  0.00    -0.502 OA
ATOM     23  H   UNL     1     -27.503   1.911  10.230  1.00  0.00     0.293 HD
ENDBRANCH   2  22
BRANCH   9  24
ATOM     24  O   UNL     1     -33.865   2.575   4.701  1.00  0.00    -0.508 OA
ATOM     25  H   UNL     1     -34.813   2.925   4.756  1.00  0.00     0.293 HD
ENDBRANCH   9  24
TORSDOF 5
ENDMDL
MODEL 5
REMARK VINA RESULT:    -4.957      3.977      9.543
REMARK INTER + INTRA:          -6.147
REMARK INTER:                  -5.843
REMARK INTRA:                  -0.304
REMARK UNBOUND:                -0.321
REMARK SMILES O=c1c(O)c(-c2ccc(O)c(O)c2)oc2cc(O)ccc12
REMARK SMILES IDX 5 1 3 2 2 3 1 4 21 5 15 6 14 7 16 8 17 9 19 10 20 11 6 12
REMARK SMILES IDX 7 13 8 14 9 15 13 16 11 17 10 18 12 20 4 22 18 24
REMARK H PARENT 10 19 12 21 4 23 18 25
REMARK Flexibility Score: inf
ROOT
ATOM      1  C   UNL     1     -24.251  -2.502   8.083  1.00  0.00     0.180 A 
ATOM      2  C   UNL     1     -25.188  -3.524   8.341  1.00  0.00     0.208 A 
ATOM      3  C   UNL     1     -26.511  -3.167   8.646  1.00  0.00     0.235 A 
ATOM      4  O   UNL     1     -27.366  -4.063   8.891  1.00  0.00    -0.285 OA
ATOM      5  C   UNL     1     -26.872  -1.811   8.669  1.00  0.00     0.069 A 
ATOM      6  C   UNL     1     -25.881  -0.849   8.377  1.00  0.00     0.142 A 
ATOM      7  O   UNL     1     -24.638  -1.228   8.101  1.00  0.00    -0.452 OA
ATOM      8  C   UNL     1     -26.204   0.512   8.380  1.00  0.00     0.094 A 
ATOM      9  C   UNL     1     -27.510   0.927   8.674  1.00  0.00     0.119 A 
ATOM     10  C   UNL     1     -28.493  -0.024   8.965  1.00  0.00     0.047 A 
ATOM     11  C   UNL     1     -28.181  -1.387   8.964  1.00  0.00     0.020 A 
ENDROOT
BRANCH   1  12
ATOM     12  C   UNL     1     -22.833  -2.795   7.772  1.00  0.00     0.025 A 
ATOM     13  C   UNL     1     -22.377  -2.886   6.446  1.00  0.00     0.016 A 
ATOM     14  C   UNL     1     -21.040  -3.187   6.177  1.00  0.00     0.051 A 
ATOM     15  C   UNL     1     -20.142  -3.415   7.228  1.00  0.00     0.157 A 
ATOM     16  C   UNL     1     -21.933  -3.044   8.822  1.00  0.00     0.062 A 
ATOM     17  C   UNL     1     -20.593  -3.346   8.557  1.00  0.00     0.158 A 
BRANCH  15  18
ATOM     18  O   UNL     1     -18.807  -3.713   6.957  1.00  0.00    -0.504 OA
ATOM     19  H   UNL     1     -18.226  -3.094   6.403  1.00  0.00     0.293 HD
ENDBRANCH  15  18
BRANCH  17  20
ATOM     20  O   UNL     1     -19.725  -3.574   9.625  1.00  0.00    -0.504 OA
ATOM     21  H   UNL     1     -19.365  -4.496   9.838  1.00  0.00     0.293 HD
ENDBRANCH  17  20
ENDBRANCH   1  12
BRANCH   2  22
ATOM     22  O   UNL     1     -24.811  -4.867   8.262  1.00  0.00    -0.502 OA
ATOM     23  H   UNL     1     -24.100  -5.194   7.620  1.00  0.00     0.293 HD
ENDBRANCH   2  22
BRANCH   9  24
ATOM     24  O   UNL     1     -27.840   2.280   8.679  1.00  0.00    -0.508 OA
ATOM     25  H   UNL     1     -27.184   2.984   8.996  1.00  0.00     0.293 HD
ENDBRANCH   9  24
TORSDOF 5
ENDMDL
MODEL 6
REMARK VINA RESULT:    -4.940      1.303      6.687
REMARK INTER + INTRA:          -6.127
REMARK INTER:                  -6.296
REMARK INTRA:                   0.169
REMARK UNBOUND:                -0.321
REMARK SMILES O=c1c(O)c(-c2ccc(O)c(O)c2)oc2cc(O)ccc12
REMARK SMILES IDX 5 1 3 2 2 3 1 4 21 5 15 6 14 7 16 8 17 9 19 10 20 11 6 12
REMARK SMILES IDX 7 13 8 14 9 15 13 16 11 17 10 18 12 20 4 22 18 24
REMARK H PARENT 10 19 12 21 4 23 18 25
REMARK Flexibility Score: inf
ROOT
ATOM      1  C   UNL     1     -27.671   1.191   8.802  1.00  0.00     0.180 A 
ATOM      2  C   UNL     1     -27.057   2.349   9.322  1.00  0.00     0.208 A 
ATOM      3  C   UNL     1     -27.774   3.557   9.314  1.00  0.00     0.235 A 
ATOM      4  O   UNL     1     -27.242   4.609   9.764  1.00  0.00    -0.285 OA
ATOM      5  C   UNL     1     -29.083   3.578   8.808  1.00  0.00     0.069 A 
ATOM      6  C   UNL     1     -29.635   2.372   8.326  1.00  0.00     0.142 A 
ATOM      7  O   UNL     1     -28.920   1.252   8.345  1.00  0.00    -0.452 OA
ATOM      8  C   UNL     1     -30.940   2.351   7.824  1.00  0.00     0.094 A 
ATOM      9  C   UNL     1     -31.704   3.525   7.794  1.00  0.00     0.119 A 
ATOM     10  C   UNL     1     -31.159   4.723   8.269  1.00  0.00     0.047 A 
ATOM     11  C   UNL     1     -29.855   4.754   8.775  1.00  0.00     0.020 A 
ENDROOT
BRANCH   1  12
ATOM     12  C   UNL     1     -26.975  -0.115   8.758  1.00  0.00     0.025 A 
ATOM     13  C   UNL     1     -25.595  -0.202   8.508  1.00  0.00     0.016 A 
ATOM     14  C   UNL     1     -24.965  -1.447   8.449  1.00  0.00     0.051 A 
ATOM     15  C   UNL     1     -25.705  -2.623   8.625  1.00  0.00     0.157 A 
ATOM     16  C   UNL     1     -27.716  -1.298   8.914  1.00  0.00     0.062 A 
ATOM     17  C   UNL     1     -27.089  -2.547   8.855  1.00  0.00     0.158 A 
BRANCH  15  18
ATOM     18  O   UNL     1     -25.072  -3.865   8.567  1.00  0.00    -0.504 OA
ATOM     19  H   UNL     1     -24.548  -4.156   7.750  1.00  0.00     0.293 HD
ENDBRANCH  15  18
BRANCH  17  20
ATOM     20  O   UNL     1     -27.855  -3.700   9.027  1.00  0.00    -0.504 OA
ATOM     21  H   UNL     1     -28.747  -3.686   9.505  1.00  0.00     0.293 HD
ENDBRANCH  17  20
ENDBRANCH   1  12
BRANCH   2  22
ATOM     22  O   UNL     1     -25.771   2.287   9.865  1.00  0.00    -0.502 OA
ATOM     23  H   UNL     1     -24.986   1.899   9.356  1.00  0.00     0.293 HD
ENDBRANCH   2  22
BRANCH   9  24
ATOM     24  O   UNL     1     -33.004   3.513   7.294  1.00  0.00    -0.508 OA
ATOM     25  H   UNL     1     -33.433   4.349   6.916  1.00  0.00     0.293 HD
ENDBRANCH   9  24
TORSDOF 5
ENDMDL
MODEL 7
REMARK VINA RESULT:    -4.831      2.353      7.302
REMARK INTER + INTRA:          -5.998
REMARK INTER:                  -5.819
REMARK INTRA:                  -0.180
REMARK UNBOUND:                -0.321
REMARK SMILES O=c1c(O)c(-c2ccc(O)c(O)c2)oc2cc(O)ccc12
REMARK SMILES IDX 5 1 3 2 2 3 1 4 21 5 15 6 14 7 16 8 17 9 19 10 20 11 6 12
REMARK SMILES IDX 7 13 8 14 9 15 13 16 11 17 10 18 12 20 4 22 18 24
REMARK H PARENT 10 19 12 21 4 23 18 25
REMARK Flexibility Score: inf
ROOT
ATOM      1  C   UNL     1     -31.751   3.389   7.902  1.00  0.00     0.180 A 
ATOM      2  C   UNL     1     -32.718   3.021   8.860  1.00  0.00     0.208 A 
ATOM      3  C   UNL     1     -34.076   3.082   8.509  1.00  0.00     0.235 A 
ATOM      4  O   UNL     1     -34.961   2.768   9.352  1.00  0.00    -0.285 OA
ATOM      5  C   UNL     1     -34.436   3.489   7.214  1.00  0.00     0.069 A 
ATOM      6  C   UNL     1     -33.407   3.819   6.306  1.00  0.00     0.142 A 
ATOM      7  O   UNL     1     -32.134   3.755   6.681  1.00  0.00    -0.452 OA
ATOM      8  C   UNL     1     -33.726   4.219   5.004  1.00  0.00     0.094 A 
ATOM      9  C   UNL     1     -35.064   4.295   4.596  1.00  0.00     0.119 A 
ATOM     10  C   UNL     1     -36.085   3.970   5.495  1.00  0.00     0.047 A 
ATOM     11  C   UNL     1     -35.777   3.568   6.798  1.00  0.00     0.020 A 
ENDROOT
BRANCH   1  12
ATOM     12  C   UNL     1     -30.301   3.369   8.201  1.00  0.00     0.025 A 
ATOM     13  C   UNL     1     -29.544   4.553   8.238  1.00  0.00     0.016 A 
ATOM     14  C   UNL     1     -28.173   4.507   8.499  1.00  0.00     0.051 A 
ATOM     15  C   UNL     1     -27.535   3.279   8.714  1.00  0.00     0.157 A 
ATOM     16  C   UNL     1     -29.653   2.139   8.396  1.00  0.00     0.062 A 
ATOM     17  C   UNL     1     -28.279   2.088   8.659  1.00  0.00     0.158 A 
BRANCH  15  18
ATOM     18  O   UNL     1     -26.166   3.236   8.977  1.00  0.00    -0.504 OA
ATOM     19  H   UNL     1     -25.480   3.299   8.233  1.00  0.00     0.293 HD
ENDBRANCH  15  18
BRANCH  17  20
ATOM     20  O   UNL     1     -27.672   0.849   8.861  1.00  0.00    -0.504 OA
ATOM     21  H   UNL     1     -27.643   0.140   8.139  1.00  0.00     0.293 HD
ENDBRANCH  17  20
ENDBRANCH   1  12
BRANCH   2  22
ATOM     22  O   UNL     1     -32.328   2.573  10.125  1.00  0.00    -0.502 OA
ATOM     23  H   UNL     1     -32.263   3.192  10.923  1.00  0.00     0.293 HD
ENDBRANCH   2  22
BRANCH   9  24
ATOM     24  O   UNL     1     -35.390   4.693   3.301  1.00  0.00    -0.508 OA
ATOM     25  H   UNL     1     -35.937   5.526   3.125  1.00  0.00     0.293 HD
ENDBRANCH   9  24
TORSDOF 5
ENDMDL
MODEL 8
REMARK VINA RESULT:    -4.695      3.085      7.278
REMARK INTER + INTRA:          -5.839
REMARK INTER:                  -5.918
REMARK INTRA:                   0.078
REMARK UNBOUND:                -0.321
REMARK SMILES O=c1c(O)c(-c2ccc(O)c(O)c2)oc2cc(O)ccc12
REMARK SMILES IDX 5 1 3 2 2 3 1 4 21 5 15 6 14 7 16 8 17 9 19 10 20 11 6 12
REMARK SMILES IDX 7 13 8 14 9 15 13 16 11 17 10 18 12 20 4 22 18 24
REMARK H PARENT 10 19 12 21 4 23 18 25
REMARK Flexibility Score: inf
ROOT
ATOM      1  C   UNL     1     -29.100   3.599   9.351  1.00  0.00     0.180 A 
ATOM      2  C   UNL     1     -30.468   3.416   9.637  1.00  0.00     0.208 A 
ATOM      3  C   UNL     1     -31.271   4.547   9.857  1.00  0.00     0.235 A 
ATOM      4  O   UNL     1     -32.496   4.409  10.125  1.00  0.00    -0.285 OA
ATOM      5  C   UNL     1     -30.699   5.826   9.770  1.00  0.00     0.069 A 
ATOM      6  C   UNL     1     -29.326   5.926   9.457  1.00  0.00     0.142 A 
ATOM      7  O   UNL     1     -28.600   4.830   9.264  1.00  0.00    -0.452 OA
ATOM      8  C   UNL     1     -28.723   7.184   9.352  1.00  0.00     0.094 A 
ATOM      9  C   UNL     1     -29.475   8.347   9.557  1.00  0.00     0.119 A 
ATOM     10  C   UNL     1     -30.835   8.251   9.869  1.00  0.00     0.047 A 
ATOM     11  C   UNL     1     -31.449   6.999   9.976  1.00  0.00     0.020 A 
ENDROOT
BRANCH   1  12
ATOM     12  C   UNL     1     -28.184   2.458   9.125  1.00  0.00     0.025 A 
ATOM     13  C   UNL     1     -26.920   2.400   9.738  1.00  0.00     0.016 A 
ATOM     14  C   UNL     1     -26.065   1.324   9.492  1.00  0.00     0.051 A 
ATOM     15  C   UNL     1     -26.451   0.298   8.621  1.00  0.00     0.157 A 
ATOM     16  C   UNL     1     -28.559   1.437   8.238  1.00  0.00     0.062 A 
ATOM     17  C   UNL     1     -27.705   0.357   7.988  1.00  0.00     0.158 A 
BRANCH  15  18
ATOM     18  O   UNL     1     -25.596  -0.777   8.378  1.00  0.00    -0.504 OA
ATOM     19  H   UNL     1     -24.781  -0.947   8.956  1.00  0.00     0.293 HD
ENDBRANCH  15  18
BRANCH  17  20
ATOM     20  O   UNL     1     -28.117  -0.646   7.110  1.00  0.00    -0.504 OA
ATOM     21  H   UNL     1     -28.234  -0.478   6.119  1.00  0.00     0.293 HD
ENDBRANCH  17  20
ENDBRANCH   1  12
BRANCH   2  22
ATOM     22  O   UNL     1     -31.020   2.133   9.668  1.00  0.00    -0.502 OA
ATOM     23  H   UNL     1     -30.506   1.314   9.367  1.00  0.00     0.293 HD
ENDBRANCH   2  22
BRANCH   9  24
ATOM     24  O   UNL     1     -28.882   9.604   9.455  1.00  0.00    -0.508 OA
ATOM     25  H   UNL     1     -29.296  10.341   8.898  1.00  0.00     0.293 HD
ENDBRANCH   9  24
TORSDOF 5
ENDMDL
MODEL 9
REMARK VINA RESULT:    -4.687      4.399      7.815
REMARK INTER + INTRA:          -5.830
REMARK INTER:                  -6.054
REMARK INTRA:                   0.224
REMARK UNBOUND:                -0.321
REMARK SMILES O=c1c(O)c(-c2ccc(O)c(O)c2)oc2cc(O)ccc12
REMARK SMILES IDX 5 1 3 2 2 3 1 4 21 5 15 6 14 7 16 8 17 9 19 10 20 11 6 12
REMARK SMILES IDX 7 13 8 14 9 15 13 16 11 17 10 18 12 20 4 22 18 24
REMARK H PARENT 10 19 12 21 4 23 18 25
REMARK Flexibility Score: inf
ROOT
ATOM      1  C   UNL     1     -25.162  -4.139   9.059  1.00  0.00     0.180 A 
ATOM      2  C   UNL     1     -23.757  -4.095   8.947  1.00  0.00     0.208 A 
ATOM      3  C   UNL     1     -23.028  -5.284   9.109  1.00  0.00     0.235 A 
ATOM      4  O   UNL     1     -21.769  -5.270   9.023  1.00  0.00    -0.285 OA
ATOM      5  C   UNL     1     -23.713  -6.484   9.359  1.00  0.00     0.069 A 
ATOM      6  C   UNL     1     -25.122  -6.448   9.434  1.00  0.00     0.142 A 
ATOM      7  O   UNL     1     -25.773  -5.300   9.283  1.00  0.00    -0.452 OA
ATOM      8  C   UNL     1     -25.840  -7.625   9.672  1.00  0.00     0.094 A 
ATOM      9  C   UNL     1     -25.166  -8.842   9.837  1.00  0.00     0.119 A 
ATOM     10  C   UNL     1     -23.770  -8.880   9.765  1.00  0.00     0.047 A 
ATOM     11  C   UNL     1     -23.042  -7.710   9.526  1.00  0.00     0.020 A 
ENDROOT
BRANCH   1  12
ATOM     12  C   UNL     1     -25.999  -2.925   8.921  1.00  0.00     0.025 A 
ATOM     13  C   UNL     1     -27.237  -2.961   8.255  1.00  0.00     0.016 A 
ATOM     14  C   UNL     1     -27.999  -1.799   8.116  1.00  0.00     0.051 A 
ATOM     15  C   UNL     1     -27.531  -0.582   8.628  1.00  0.00     0.157 A 
ATOM     16  C   UNL     1     -25.526  -1.699   9.414  1.00  0.00     0.062 A 
ATOM     17  C   UNL     1     -26.286  -0.532   9.277  1.00  0.00     0.158 A 
BRANCH  15  18
ATOM     18  O   UNL     1     -28.295   0.577   8.490  1.00  0.00    -0.504 OA
ATOM     19  H   UNL     1     -28.826   0.765   7.648  1.00  0.00     0.293 HD
ENDBRANCH  15  18
BRANCH  17  20
ATOM     20  O   UNL     1     -25.789   0.665   9.792  1.00  0.00    -0.504 OA
ATOM     21  H   UNL     1     -24.798   0.868   9.820  1.00  0.00     0.293 HD
ENDBRANCH  17  20
ENDBRANCH   1  12
BRANCH   2  22
ATOM     22  O   UNL     1     -23.106  -2.895   8.649  1.00  0.00    -0.502 OA
ATOM     23  H   UNL     1     -22.313  -2.562   9.181  1.00  0.00     0.293 HD
ENDBRANCH   2  22
BRANCH   9  24
ATOM     24  O   UNL     1     -25.874 -10.019  10.074  1.00  0.00    -0.508 OA
ATOM     25  H   UNL     1     -26.574 -10.355   9.424  1.00  0.00     0.293 HD
ENDBRANCH   9  24
TORSDOF 5
ENDMDL
