MODEL 1
REMARK VINA RESULT:    -6.527      0.000      0.000
REMARK INTER + INTRA:          -7.936
REMARK INTER:                  -7.671
REMARK INTRA:                  -0.265
REMARK UNBOUND:                -0.265
REMARK SMILES O=c1cc(-c2ccc(O)c(O)c2)oc2cc(O)cc(O)c12
REMARK SMILES IDX 4 1 3 2 2 3 1 4 21 5 19 6 18 7 16 8 15 9 14 10 13 11 5 12
REMARK SMILES IDX 6 13 7 14 8 15 12 16 10 17 9 18 11 20 20 22 17 24
REMARK H PARENT 9 19 11 21 20 23 17 25
REMARK Flexibility Score: inf
ROOT
ATOM      1  C   UNL     1       3.180  13.920  25.993  1.00  0.00     0.138 A 
ATOM      2  C   UNL     1       4.148  13.389  25.129  1.00  0.00     0.100 A 
ATOM      3  C   UNL     1       4.844  12.236  25.497  1.00  0.00     0.197 A 
ATOM      4  O   UNL     1       5.662  11.748  24.674  1.00  0.00    -0.289 OA
ATOM      5  C   UNL     1       4.590  11.632  26.751  1.00  0.00     0.107 A 
ATOM      6  C   UNL     1       5.268  10.478  27.248  1.00  0.00     0.134 A 
ATOM      7  C   UNL     1       4.851   9.899  28.453  1.00  0.00     0.093 A 
ATOM      8  C   UNL     1       3.821  10.468  29.207  1.00  0.00     0.123 A 
ATOM      9  C   UNL     1       3.190  11.624  28.757  1.00  0.00     0.094 A 
ATOM     10  C   UNL     1       3.560  12.206  27.541  1.00  0.00     0.146 A 
ATOM     11  O   UNL     1       2.923  13.301  27.141  1.00  0.00    -0.456 OA
ENDROOT
BRANCH   1  12
ATOM     12  C   UNL     1       2.412  15.144  25.652  1.00  0.00     0.021 A 
ATOM     13  C   UNL     1       1.276  15.097  24.822  1.00  0.00     0.016 A 
ATOM     14  C   UNL     1       0.579  16.267  24.510  1.00  0.00     0.051 A 
ATOM     15  C   UNL     1       1.007  17.502  25.012  1.00  0.00     0.157 A 
ATOM     16  C   UNL     1       2.844  16.390  26.140  1.00  0.00     0.062 A 
ATOM     17  C   UNL     1       2.146  17.563  25.829  1.00  0.00     0.158 A 
BRANCH  15  18
ATOM     18  O   UNL     1       0.308  18.667  24.698  1.00  0.00    -0.504 OA
ATOM     19  H   UNL     1       0.782  19.557  24.588  1.00  0.00     0.293 HD
ENDBRANCH  15  18
BRANCH  17  20
ATOM     20  O   UNL     1       2.601  18.777  26.342  1.00  0.00    -0.504 OA
ATOM     21  H   UNL     1       3.587  19.000  26.402  1.00  0.00     0.293 HD
ENDBRANCH  17  20
ENDBRANCH   1  12
BRANCH   6  22
ATOM     22  O   UNL     1       6.363   9.881  26.616  1.00  0.00    -0.507 OA
ATOM     23  H   UNL     1       7.183   9.535  27.088  1.00  0.00     0.293 HD
ENDBRANCH   6  22
BRANCH   8  24
ATOM     24  O   UNL     1       3.423   9.894  30.414  1.00  0.00    -0.508 OA
ATOM     25  H   UNL     1       2.473   9.979  30.753  1.00  0.00     0.293 HD
ENDBRANCH   8  24
TORSDOF 5
ENDMDL
MODEL 2
REMARK VINA RESULT:    -6.048      1.734      3.152
REMARK INTER + INTRA:          -7.374
REMARK INTER:                  -7.095
REMARK INTRA:                  -0.279
REMARK UNBOUND:                -0.265
REMARK SMILES O=c1cc(-c2ccc(O)c(O)c2)oc2cc(O)cc(O)c12
REMARK SMILES IDX 4 1 3 2 2 3 1 4 21 5 19 6 18 7 16 8 15 9 14 10 13 11 5 12
REMARK SMILES IDX 6 13 7 14 8 15 12 16 10 17 9 18 11 20 20 22 17 24
REMARK H PARENT 9 19 11 21 20 23 17 25
REMARK Flexibility Score: inf
ROOT
ATOM      1  C   UNL     1       1.726  14.847  26.570  1.00  0.00     0.138 A 
ATOM      2  C   UNL     1       1.147  13.883  27.407  1.00  0.00     0.100 A 
ATOM      3  C   UNL     1       1.723  12.616  27.502  1.00  0.00     0.197 A 
ATOM      4  O   UNL     1       1.217  11.792  28.308  1.00  0.00    -0.289 OA
ATOM      5  C   UNL     1       2.867  12.303  26.730  1.00  0.00     0.107 A 
ATOM      6  C   UNL     1       3.514  11.031  26.716  1.00  0.00     0.134 A 
ATOM      7  C   UNL     1       4.709  10.873  26.002  1.00  0.00     0.093 A 
ATOM      8  C   UNL     1       5.245  11.924  25.253  1.00  0.00     0.123 A 
ATOM      9  C   UNL     1       4.592  13.153  25.218  1.00  0.00     0.094 A 
ATOM     10  C   UNL     1       3.416  13.352  25.947  1.00  0.00     0.146 A 
ATOM     11  O   UNL     1       2.832  14.545  25.897  1.00  0.00    -0.456 OA
ENDROOT
BRANCH   1  12
ATOM     12  C   UNL     1       1.154  16.210  26.430  1.00  0.00     0.021 A 
ATOM     13  C   UNL     1      -0.148  16.419  25.936  1.00  0.00     0.016 A 
ATOM     14  C   UNL     1      -0.656  17.714  25.806  1.00  0.00     0.051 A 
ATOM     15  C   UNL     1       0.126  18.820  26.158  1.00  0.00     0.157 A 
ATOM     16  C   UNL     1       1.938  17.327  26.769  1.00  0.00     0.062 A 
ATOM     17  C   UNL     1       1.430  18.626  26.640  1.00  0.00     0.158 A 
BRANCH  15  18
ATOM     18  O   UNL     1      -0.385  20.111  26.028  1.00  0.00    -0.504 OA
ATOM     19  H   UNL     1      -0.915  20.392  25.210  1.00  0.00     0.293 HD
ENDBRANCH  15  18
BRANCH  17  20
ATOM     20  O   UNL     1       2.237  19.706  26.995  1.00  0.00    -0.504 OA
ATOM     21  H   UNL     1       2.851  19.677  27.800  1.00  0.00     0.293 HD
ENDBRANCH  17  20
ENDBRANCH   1  12
BRANCH   6  22
ATOM     22  O   UNL     1       3.018   9.894  27.360  1.00  0.00    -0.507 OA
ATOM     23  H   UNL     1       2.045   9.725  27.563  1.00  0.00     0.293 HD
ENDBRANCH   6  22
BRANCH   8  24
ATOM     24  O   UNL     1       6.426  11.753  24.533  1.00  0.00    -0.508 OA
ATOM     25  H   UNL     1       7.329  11.749  24.990  1.00  0.00     0.293 HD
ENDBRANCH   8  24
TORSDOF 5
ENDMDL
MODEL 3
REMARK VINA RESULT:    -5.989      2.104      7.146
REMARK INTER + INTRA:          -7.305
REMARK INTER:                  -7.026
REMARK INTRA:                  -0.278
REMARK UNBOUND:                -0.265
REMARK SMILES O=c1cc(-c2ccc(O)c(O)c2)oc2cc(O)cc(O)c12
REMARK SMILES IDX 4 1 3 2 2 3 1 4 21 5 19 6 18 7 16 8 15 9 14 10 13 11 5 12
REMARK SMILES IDX 6 13 7 14 8 15 12 16 10 17 9 18 11 20 20 22 17 24
REMARK H PARENT 9 19 11 21 20 23 17 25
REMARK Flexibility Score: inf
ROOT
ATOM      1  C   UNL     1       1.997  15.252  26.140  1.00  0.00     0.138 A 
ATOM      2  C   UNL     1       1.867  15.955  24.934  1.00  0.00     0.100 A 
ATOM      3  C   UNL     1       1.179  17.169  24.914  1.00  0.00     0.197 A 
ATOM      4  O   UNL     1       1.132  17.807  23.830  1.00  0.00    -0.289 OA
ATOM      5  C   UNL     1       0.592  17.665  26.102  1.00  0.00     0.107 A 
ATOM      6  C   UNL     1      -0.166  18.871  26.191  1.00  0.00     0.134 A 
ATOM      7  C   UNL     1      -0.600  19.322  27.444  1.00  0.00     0.093 A 
ATOM      8  C   UNL     1      -0.353  18.579  28.602  1.00  0.00     0.123 A 
ATOM      9  C   UNL     1       0.339  17.375  28.518  1.00  0.00     0.094 A 
ATOM     10  C   UNL     1       0.814  16.915  27.287  1.00  0.00     0.146 A 
ATOM     11  O   UNL     1       1.483  15.767  27.252  1.00  0.00    -0.456 OA
ENDROOT
BRANCH   1  12
ATOM     12  C   UNL     1       2.718  13.956  26.218  1.00  0.00     0.021 A 
ATOM     13  C   UNL     1       2.250  12.897  27.020  1.00  0.00     0.016 A 
ATOM     14  C   UNL     1       2.955  11.691  27.082  1.00  0.00     0.051 A 
ATOM     15  C   UNL     1       4.138  11.525  26.354  1.00  0.00     0.157 A 
ATOM     16  C   UNL     1       3.915  13.786  25.501  1.00  0.00     0.062 A 
ATOM     17  C   UNL     1       4.622  12.578  25.561  1.00  0.00     0.158 A 
BRANCH  15  18
ATOM     18  O   UNL     1       4.838  10.321  26.417  1.00  0.00    -0.504 OA
ATOM     19  H   UNL     1       4.381   9.432  26.243  1.00  0.00     0.293 HD
ENDBRANCH  15  18
BRANCH  17  20
ATOM     20  O   UNL     1       5.800  12.446  24.826  1.00  0.00    -0.504 OA
ATOM     21  H   UNL     1       6.280  11.560  24.736  1.00  0.00     0.293 HD
ENDBRANCH  17  20
ENDBRANCH   1  12
BRANCH   6  22
ATOM     22  O   UNL     1      -0.539  19.643  25.086  1.00  0.00    -0.507 OA
ATOM     23  H   UNL     1      -1.322  19.444  24.483  1.00  0.00     0.293 HD
ENDBRANCH   6  22
BRANCH   8  24
ATOM     24  O   UNL     1      -0.803  19.029  29.843  1.00  0.00    -0.508 OA
ATOM     25  H   UNL     1      -0.895  18.400  30.631  1.00  0.00     0.293 HD
ENDBRANCH   8  24
TORSDOF 5
ENDMDL
MODEL 4
REMARK VINA RESULT:    -5.809      2.175      7.179
REMARK INTER + INTRA:          -7.093
REMARK INTER:                  -6.790
REMARK INTRA:                  -0.302
REMARK UNBOUND:                -0.265
REMARK SMILES O=c1cc(-c2ccc(O)c(O)c2)oc2cc(O)cc(O)c12
REMARK SMILES IDX 4 1 3 2 2 3 1 4 21 5 19 6 18 7 16 8 15 9 14 10 13 11 5 12
REMARK SMILES IDX 6 13 7 14 8 15 12 16 10 17 9 18 11 20 20 22 17 24
REMARK H PARENT 9 19 11 21 20 23 17 25
REMARK Flexibility Score: inf
ROOT
ATOM      1  C   UNL     1       2.040  15.235  26.093  1.00  0.00     0.138 A 
ATOM      2  C   UNL     1       1.875  15.961  24.905  1.00  0.00     0.100 A 
ATOM      3  C   UNL     1       1.170  17.164  24.925  1.00  0.00     0.197 A 
ATOM      4  O   UNL     1       1.091  17.824  23.856  1.00  0.00    -0.289 OA
ATOM      5  C   UNL     1       0.600  17.626  26.135  1.00  0.00     0.107 A 
ATOM      6  C   UNL     1      -0.174  18.819  26.265  1.00  0.00     0.134 A 
ATOM      7  C   UNL     1      -0.588  19.237  27.536  1.00  0.00     0.093 A 
ATOM      8  C   UNL     1      -0.307  18.474  28.672  1.00  0.00     0.123 A 
ATOM      9  C   UNL     1       0.401  17.282  28.549  1.00  0.00     0.094 A 
ATOM     10  C   UNL     1       0.857  16.855  27.299  1.00  0.00     0.146 A 
ATOM     11  O   UNL     1       1.542  15.718  27.226  1.00  0.00    -0.456 OA
ENDROOT
BRANCH   1  12
ATOM     12  C   UNL     1       2.781  13.948  26.129  1.00  0.00     0.021 A 
ATOM     13  C   UNL     1       3.878  13.702  25.283  1.00  0.00     0.016 A 
ATOM     14  C   UNL     1       4.550  12.477  25.331  1.00  0.00     0.051 A 
ATOM     15  C   UNL     1       4.134  11.477  26.217  1.00  0.00     0.157 A 
ATOM     16  C   UNL     1       2.360  12.932  27.007  1.00  0.00     0.062 A 
ATOM     17  C   UNL     1       3.032  11.705  27.057  1.00  0.00     0.158 A 
BRANCH  15  18
ATOM     18  O   UNL     1       4.806  10.256  26.264  1.00  0.00    -0.504 OA
ATOM     19  H   UNL     1       4.407   9.415  25.862  1.00  0.00     0.293 HD
ENDBRANCH  15  18
BRANCH  17  20
ATOM     20  O   UNL     1       2.590  10.728  27.949  1.00  0.00    -0.504 OA
ATOM     21  H   UNL     1       1.606  10.568  28.127  1.00  0.00     0.293 HD
ENDBRANCH  17  20
ENDBRANCH   1  12
BRANCH   6  22
ATOM     22  O   UNL     1      -0.581  19.608  25.185  1.00  0.00    -0.507 OA
ATOM     23  H   UNL     1      -0.920  20.555  25.258  1.00  0.00     0.293 HD
ENDBRANCH   6  22
BRANCH   8  24
ATOM     24  O   UNL     1      -0.738  18.890  29.931  1.00  0.00    -0.508 OA
ATOM     25  H   UNL     1      -1.161  19.799  30.072  1.00  0.00     0.293 HD
ENDBRANCH   8  24
TORSDOF 5
ENDMDL
MODEL 5
REMARK VINA RESULT:    -5.354      2.678      4.408
REMARK INTER + INTRA:          -6.558
REMARK INTER:                  -6.254
REMARK INTRA:                  -0.304
REMARK UNBOUND:                -0.265
REMARK SMILES O=c1cc(-c2ccc(O)c(O)c2)oc2cc(O)cc(O)c12
REMARK SMILES IDX 4 1 3 2 2 3 1 4 21 5 19 6 18 7 16 8 15 9 14 10 13 11 5 12
REMARK SMILES IDX 6 13 7 14 8 15 12 16 10 17 9 18 11 20 20 22 17 24
REMARK H PARENT 9 19 11 21 20 23 17 25
REMARK Flexibility Score: inf
ROOT
ATOM      1  C   UNL     1       1.523  16.838  26.528  1.00  0.00     0.138 A 
ATOM      2  C   UNL     1       0.871  15.636  26.840  1.00  0.00     0.100 A 
ATOM      3  C   UNL     1       1.544  14.424  26.683  1.00  0.00     0.197 A 
ATOM      4  O   UNL     1       0.955  13.368  27.030  1.00  0.00    -0.289 OA
ATOM      5  C   UNL     1       2.867  14.415  26.180  1.00  0.00     0.107 A 
ATOM      6  C   UNL     1       3.636  13.237  25.940  1.00  0.00     0.134 A 
ATOM      7  C   UNL     1       4.976  13.355  25.551  1.00  0.00     0.093 A 
ATOM      8  C   UNL     1       5.556  14.608  25.336  1.00  0.00     0.123 A 
ATOM      9  C   UNL     1       4.798  15.762  25.515  1.00  0.00     0.094 A 
ATOM     10  C   UNL     1       3.468  15.678  25.936  1.00  0.00     0.146 A 
ATOM     11  O   UNL     1       2.784  16.804  26.109  1.00  0.00    -0.456 OA
ENDROOT
BRANCH   1  12
ATOM     12  C   UNL     1       0.853  18.155  26.676  1.00  0.00     0.021 A 
ATOM     13  C   UNL     1      -0.523  18.317  26.429  1.00  0.00     0.016 A 
ATOM     14  C   UNL     1      -1.125  19.571  26.566  1.00  0.00     0.051 A 
ATOM     15  C   UNL     1      -0.364  20.683  26.943  1.00  0.00     0.157 A 
ATOM     16  C   UNL     1       1.614  19.280  27.040  1.00  0.00     0.062 A 
ATOM     17  C   UNL     1       1.013  20.537  27.179  1.00  0.00     0.158 A 
BRANCH  15  18
ATOM     18  O   UNL     1      -0.967  21.932  27.079  1.00  0.00    -0.504 OA
ATOM     19  H   UNL     1      -1.973  22.046  27.011  1.00  0.00     0.293 HD
ENDBRANCH  15  18
BRANCH  17  20
ATOM     20  O   UNL     1       1.800  21.626  27.552  1.00  0.00    -0.504 OA
ATOM     21  H   UNL     1       2.187  22.268  26.871  1.00  0.00     0.293 HD
ENDBRANCH  17  20
ENDBRANCH   1  12
BRANCH   6  22
ATOM     22  O   UNL     1       3.129  11.938  26.044  1.00  0.00    -0.507 OA
ATOM     23  H   UNL     1       2.437  11.538  25.428  1.00  0.00     0.293 HD
ENDBRANCH   6  22
BRANCH   8  24
ATOM     24  O   UNL     1       6.886  14.715  24.933  1.00  0.00    -0.508 OA
ATOM     25  H   UNL     1       7.443  13.896  24.720  1.00  0.00     0.293 HD
ENDBRANCH   8  24
TORSDOF 5
ENDMDL
MODEL 6
REMARK VINA RESULT:    -5.277      2.113      2.876
REMARK INTER + INTRA:          -6.468
REMARK INTER:                  -6.205
REMARK INTRA:                  -0.262
REMARK UNBOUND:                -0.265
REMARK SMILES O=c1cc(-c2ccc(O)c(O)c2)oc2cc(O)cc(O)c12
REMARK SMILES IDX 4 1 3 2 2 3 1 4 21 5 19 6 18 7 16 8 15 9 14 10 13 11 5 12
REMARK SMILES IDX 6 13 7 14 8 15 12 16 10 17 9 18 11 20 20 22 17 24
REMARK H PARENT 9 19 11 21 20 23 17 25
REMARK Flexibility Score: inf
ROOT
ATOM      1  C   UNL     1       1.855  16.269  26.117  1.00  0.00     0.138 A 
ATOM      2  C   UNL     1       3.175  16.182  25.652  1.00  0.00     0.100 A 
ATOM      3  C   UNL     1       3.872  14.979  25.776  1.00  0.00     0.197 A 
ATOM      4  O   UNL     1       5.033  14.913  25.294  1.00  0.00    -0.289 OA
ATOM      5  C   UNL     1       3.254  13.869  26.397  1.00  0.00     0.107 A 
ATOM      6  C   UNL     1       3.883  12.606  26.615  1.00  0.00     0.134 A 
ATOM      7  C   UNL     1       3.134  11.543  27.135  1.00  0.00     0.093 A 
ATOM      8  C   UNL     1       1.796  11.715  27.500  1.00  0.00     0.123 A 
ATOM      9  C   UNL     1       1.189  12.958  27.342  1.00  0.00     0.094 A 
ATOM     10  C   UNL     1       1.900  14.029  26.795  1.00  0.00     0.146 A 
ATOM     11  O   UNL     1       1.280  15.195  26.647  1.00  0.00    -0.456 OA
ENDROOT
BRANCH   1  12
ATOM     12  C   UNL     1       1.068  17.524  26.011  1.00  0.00     0.021 A 
ATOM     13  C   UNL     1       0.171  17.747  24.949  1.00  0.00     0.016 A 
ATOM     14  C   UNL     1      -0.548  18.943  24.870  1.00  0.00     0.051 A 
ATOM     15  C   UNL     1      -0.381  19.935  25.842  1.00  0.00     0.157 A 
ATOM     16  C   UNL     1       1.241  18.532  26.976  1.00  0.00     0.062 A 
ATOM     17  C   UNL     1       0.520  19.729  26.899  1.00  0.00     0.158 A 
BRANCH  15  18
ATOM     18  O   UNL     1      -1.101  21.126  25.760  1.00  0.00    -0.504 OA
ATOM     19  H   UNL     1      -0.763  21.915  25.221  1.00  0.00     0.293 HD
ENDBRANCH  15  18
BRANCH  17  20
ATOM     20  O   UNL     1       0.713  20.700  27.882  1.00  0.00    -0.504 OA
ATOM     21  H   UNL     1       1.005  21.643  27.656  1.00  0.00     0.293 HD
ENDBRANCH  17  20
ENDBRANCH   1  12
BRANCH   6  22
ATOM     22  O   UNL     1       5.235  12.352  26.363  1.00  0.00    -0.507 OA
ATOM     23  H   UNL     1       5.802  12.857  25.700  1.00  0.00     0.293 HD
ENDBRANCH   6  22
BRANCH   8  24
ATOM     24  O   UNL     1       1.063  10.655  28.032  1.00  0.00    -0.508 OA
ATOM     25  H   UNL     1       1.512   9.903  28.541  1.00  0.00     0.293 HD
ENDBRANCH   8  24
TORSDOF 5
ENDMDL
MODEL 7
REMARK VINA RESULT:    -5.210      3.202      8.387
REMARK INTER + INTRA:          -6.389
REMARK INTER:                  -6.119
REMARK INTRA:                  -0.269
REMARK UNBOUND:                -0.265
REMARK SMILES O=c1cc(-c2ccc(O)c(O)c2)oc2cc(O)cc(O)c12
REMARK SMILES IDX 4 1 3 2 2 3 1 4 21 5 19 6 18 7 16 8 15 9 14 10 13 11 5 12
REMARK SMILES IDX 6 13 7 14 8 15 12 16 10 17 9 18 11 20 20 22 17 24
REMARK H PARENT 9 19 11 21 20 23 17 25
REMARK Flexibility Score: inf
ROOT
ATOM      1  C   UNL     1       1.250  17.175  27.141  1.00  0.00     0.138 A 
ATOM      2  C   UNL     1       0.904  17.307  28.494  1.00  0.00     0.100 A 
ATOM      3  C   UNL     1       0.222  18.446  28.924  1.00  0.00     0.197 A 
ATOM      4  O   UNL     1      -0.129  18.507  30.131  1.00  0.00    -0.289 OA
ATOM      5  C   UNL     1      -0.086  19.472  28.000  1.00  0.00     0.107 A 
ATOM      6  C   UNL     1      -0.743  20.695  28.333  1.00  0.00     0.134 A 
ATOM      7  C   UNL     1      -1.100  21.586  27.314  1.00  0.00     0.093 A 
ATOM      8  C   UNL     1      -0.772  21.325  25.981  1.00  0.00     0.123 A 
ATOM      9  C   UNL     1      -0.085  20.160  25.652  1.00  0.00     0.094 A 
ATOM     10  C   UNL     1       0.257  19.235  26.643  1.00  0.00     0.146 A 
ATOM     11  O   UNL     1       0.900  18.129  26.285  1.00  0.00    -0.456 OA
ENDROOT
BRANCH   1  12
ATOM     12  C   UNL     1       1.977  15.985  26.630  1.00  0.00     0.021 A 
ATOM     13  C   UNL     1       1.377  14.712  26.593  1.00  0.00     0.016 A 
ATOM     14  C   UNL     1       2.089  13.608  26.117  1.00  0.00     0.051 A 
ATOM     15  C   UNL     1       3.410  13.753  25.677  1.00  0.00     0.157 A 
ATOM     16  C   UNL     1       3.308  16.121  26.200  1.00  0.00     0.062 A 
ATOM     17  C   UNL     1       4.023  15.016  25.721  1.00  0.00     0.158 A 
BRANCH  15  18
ATOM     18  O   UNL     1       4.117  12.650  25.201  1.00  0.00    -0.504 OA
ATOM     19  H   UNL     1       5.017  12.753  24.746  1.00  0.00     0.293 HD
ENDBRANCH  15  18
BRANCH  17  20
ATOM     20  O   UNL     1       5.339  15.194  25.295  1.00  0.00    -0.504 OA
ATOM     21  H   UNL     1       6.129  14.882  25.845  1.00  0.00     0.293 HD
ENDBRANCH  17  20
ENDBRANCH   1  12
BRANCH   6  22
ATOM     22  O   UNL     1      -1.040  21.091  29.641  1.00  0.00    -0.507 OA
ATOM     23  H   UNL     1      -1.967  21.288  29.987  1.00  0.00     0.293 HD
ENDBRANCH   6  22
BRANCH   8  24
ATOM     24  O   UNL     1      -1.119  22.226  24.975  1.00  0.00    -0.508 OA
ATOM     25  H   UNL     1      -1.817  21.999  24.279  1.00  0.00     0.293 HD
ENDBRANCH   8  24
TORSDOF 5
ENDMDL
MODEL 8
REMARK VINA RESULT:    -5.113      3.711      6.113
REMARK INTER + INTRA:          -6.275
REMARK INTER:                  -5.983
REMARK INTRA:                  -0.292
REMARK UNBOUND:                -0.265
REMARK SMILES O=c1cc(-c2ccc(O)c(O)c2)oc2cc(O)cc(O)c12
REMARK SMILES IDX 4 1 3 2 2 3 1 4 21 5 19 6 18 7 16 8 15 9 14 10 13 11 5 12
REMARK SMILES IDX 6 13 7 14 8 15 12 16 10 17 9 18 11 20 20 22 17 24
REMARK H PARENT 9 19 11 21 20 23 17 25
REMARK Flexibility Score: inf
ROOT
ATOM      1  C   UNL     1       0.372  18.391  27.345  1.00  0.00     0.138 A 
ATOM      2  C   UNL     1      -0.605  17.397  27.194  1.00  0.00     0.100 A 
ATOM      3  C   UNL     1      -0.238  16.135  26.723  1.00  0.00     0.197 A 
ATOM      4  O   UNL     1      -1.125  15.245  26.657  1.00  0.00    -0.289 OA
ATOM      5  C   UNL     1       1.109  15.880  26.373  1.00  0.00     0.107 A 
ATOM      6  C   UNL     1       1.590  14.644  25.844  1.00  0.00     0.134 A 
ATOM      7  C   UNL     1       2.965  14.469  25.643  1.00  0.00     0.093 A 
ATOM      8  C   UNL     1       3.868  15.505  25.895  1.00  0.00     0.123 A 
ATOM      9  C   UNL     1       3.402  16.732  26.360  1.00  0.00     0.094 A 
ATOM     10  C   UNL     1       2.040  16.927  26.603  1.00  0.00     0.146 A 
ATOM     11  O   UNL     1       1.639  18.108  27.060  1.00  0.00    -0.456 OA
ENDROOT
BRANCH   1  12
ATOM     12  C   UNL     1       0.037  19.751  27.841  1.00  0.00     0.021 A 
ATOM     13  C   UNL     1      -0.819  19.947  28.942  1.00  0.00     0.016 A 
ATOM     14  C   UNL     1      -1.125  21.238  29.379  1.00  0.00     0.051 A 
ATOM     15  C   UNL     1      -0.591  22.353  28.723  1.00  0.00     0.157 A 
ATOM     16  C   UNL     1       0.558  20.876  27.179  1.00  0.00     0.062 A 
ATOM     17  C   UNL     1       0.253  22.171  27.616  1.00  0.00     0.158 A 
BRANCH  15  18
ATOM     18  O   UNL     1      -0.898  23.640  29.163  1.00  0.00    -0.504 OA
ATOM     19  H   UNL     1      -1.306  23.805  30.077  1.00  0.00     0.293 HD
ENDBRANCH  15  18
BRANCH  17  20
ATOM     20  O   UNL     1       0.799  23.260  26.938  1.00  0.00    -0.504 OA
ATOM     21  H   UNL     1       1.586  23.782  27.304  1.00  0.00     0.293 HD
ENDBRANCH  17  20
ENDBRANCH   1  12
BRANCH   6  22
ATOM     22  O   UNL     1       0.765  13.576  25.479  1.00  0.00    -0.507 OA
ATOM     23  H   UNL     1       0.208  13.033  26.120  1.00  0.00     0.293 HD
ENDBRANCH   6  22
BRANCH   8  24
ATOM     24  O   UNL     1       5.233  15.326  25.677  1.00  0.00    -0.508 OA
ATOM     25  H   UNL     1       5.843  14.972  26.403  1.00  0.00     0.293 HD
ENDBRANCH   8  24
TORSDOF 5
ENDMDL
MODEL 9
REMARK VINA RESULT:    -4.831      3.868      8.088
REMARK INTER + INTRA:          -5.943
REMARK INTER:                  -5.678
REMARK INTRA:                  -0.265
REMARK UNBOUND:                -0.265
REMARK SMILES O=c1cc(-c2ccc(O)c(O)c2)oc2cc(O)cc(O)c12
REMARK SMILES IDX 4 1 3 2 2 3 1 4 21 5 19 6 18 7 16 8 15 9 14 10 13 11 5 12
REMARK SMILES IDX 6 13 7 14 8 15 12 16 10 17 9 18 11 20 20 22 17 24
REMARK H PARENT 9 19 11 21 20 23 17 25
REMARK Flexibility Score: inf
ROOT
ATOM      1  C   UNL     1       1.255  17.837  27.273  1.00  0.00     0.138 A 
ATOM      2  C   UNL     1       1.001  18.950  26.459  1.00  0.00     0.100 A 
ATOM      3  C   UNL     1       0.394  20.082  27.006  1.00  0.00     0.197 A 
ATOM      4  O   UNL     1       0.236  21.087  26.267  1.00  0.00    -0.289 OA
ATOM      5  C   UNL     1       0.012  20.085  28.369  1.00  0.00     0.107 A 
ATOM      6  C   UNL     1      -0.649  21.166  29.024  1.00  0.00     0.134 A 
ATOM      7  C   UNL     1      -0.873  21.103  30.405  1.00  0.00     0.093 A 
ATOM      8  C   UNL     1      -0.514  19.972  31.142  1.00  0.00     0.123 A 
ATOM      9  C   UNL     1       0.084  18.889  30.502  1.00  0.00     0.094 A 
ATOM     10  C   UNL     1       0.351  18.936  29.131  1.00  0.00     0.146 A 
ATOM     11  O   UNL     1       0.936  17.887  28.562  1.00  0.00    -0.456 OA
ENDROOT
BRANCH   1  12
ATOM     12  C   UNL     1       1.897  16.608  26.742  1.00  0.00     0.021 A 
ATOM     13  C   UNL     1       1.174  15.413  26.566  1.00  0.00     0.016 A 
ATOM     14  C   UNL     1       1.806  14.268  26.074  1.00  0.00     0.051 A 
ATOM     15  C   UNL     1       3.170  14.294  25.757  1.00  0.00     0.157 A 
ATOM     16  C   UNL     1       3.269  16.621  26.435  1.00  0.00     0.062 A 
ATOM     17  C   UNL     1       3.905  15.476  25.941  1.00  0.00     0.158 A 
BRANCH  15  18
ATOM     18  O   UNL     1       3.797  13.150  25.265  1.00  0.00    -0.504 OA
ATOM     19  H   UNL     1       4.105  13.087  24.301  1.00  0.00     0.293 HD
ENDBRANCH  15  18
BRANCH  17  20
ATOM     20  O   UNL     1       5.265  15.534  25.639  1.00  0.00    -0.504 OA
ATOM     21  H   UNL     1       5.738  14.787  25.144  1.00  0.00     0.293 HD
ENDBRANCH  17  20
ENDBRANCH   1  12
BRANCH   6  22
ATOM     22  O   UNL     1      -1.125  22.305  28.367  1.00  0.00    -0.507 OA
ATOM     23  H   UNL     1      -1.228  23.214  28.790  1.00  0.00     0.293 HD
ENDBRANCH   6  22
BRANCH   8  24
ATOM     24  O   UNL     1      -0.755  19.911  32.514  1.00  0.00    -0.508 OA
ATOM     25  H   UNL     1      -0.723  20.740  33.094  1.00  0.00     0.293 HD
ENDBRANCH   8  24
TORSDOF 5
ENDMDL
