MODEL 1
REMARK VINA RESULT:     0.787      0.000      0.000
REMARK INTER + INTRA:           0.873
REMARK INTER:                   1.017
REMARK INTRA:                  -0.144
REMARK UNBOUND:                -0.144
REMARK SMILES C=CC(=O)CCCCC
REMARK SMILES IDX 6 1 7 2 8 3 9 4 5 5 3 6 4 7 2 8 1 9
REMARK H PARENT
REMARK Flexibility Score: inf
ROOT
ATOM      1  C   UNL     1      34.842  12.454  41.882  1.00  0.00     0.008 C 
ENDROOT
BRANCH   1   2
ATOM      2  C   UNL     1      35.235  13.941  42.000  1.00  0.00     0.000 C 
BRANCH   2   3
ATOM      3  C   UNL     1      35.607  14.367  43.431  1.00  0.00    -0.003 C 
ATOM      4  C   UNL     1      35.007  15.714  43.829  1.00  0.00     0.004 C 
ENDBRANCH   2   3
ENDBRANCH   1   2
BRANCH   1   5
ATOM      5  C   UNL     1      33.908  12.193  40.692  1.00  0.00     0.080 C 
BRANCH   5   6
ATOM      6  C   UNL     1      33.018  11.018  40.969  1.00  0.00     0.155 C 
ATOM      7  O   UNL     1      32.237  11.052  41.960  1.00  0.00    -0.295 OA
BRANCH   6   8
ATOM      8  C   UNL     1      33.028   9.855  40.061  1.00  0.00     0.039 C 
ATOM      9  C   UNL     1      34.111   9.104  39.873  1.00  0.00     0.012 C 
ENDBRANCH   6   8
ENDBRANCH   5   6
ENDBRANCH   1   5
TORSDOF 5
ENDMDL
MODEL 2
REMARK VINA RESULT:     1.201      2.014      5.300
REMARK INTER + INTRA:           1.408
REMARK INTER:                   1.608
REMARK INTRA:                  -0.200
REMARK UNBOUND:                -0.144
REMARK SMILES C=CC(=O)CCCCC
REMARK SMILES IDX 6 1 7 2 8 3 9 4 5 5 3 6 4 7 2 8 1 9
REMARK H PARENT
REMARK Flexibility Score: inf
ROOT
ATOM      1  C   UNL     1      34.893  13.133  40.972  1.00  0.00     0.008 C 
ENDROOT
BRANCH   1   2
ATOM      2  C   UNL     1      33.665  12.413  40.378  1.00  0.00     0.000 C 
BRANCH   2   3
ATOM      3  C   UNL     1      33.354  11.067  41.057  1.00  0.00    -0.003 C 
ATOM      4  C   UNL     1      33.346   9.893  40.081  1.00  0.00     0.004 C 
ENDBRANCH   2   3
ENDBRANCH   1   2
BRANCH   1   5
ATOM      5  C   UNL     1      35.007  12.932  42.489  1.00  0.00     0.080 C 
BRANCH   5   6
ATOM      6  C   UNL     1      35.561  14.162  43.144  1.00  0.00     0.155 C 
ATOM      7  O   UNL     1      36.705  14.119  43.673  1.00  0.00    -0.295 OA
BRANCH   6   8
ATOM      8  C   UNL     1      34.788  15.419  43.126  1.00  0.00     0.039 C 
ATOM      9  C   UNL     1      34.767  16.260  44.158  1.00  0.00     0.012 C 
ENDBRANCH   6   8
ENDBRANCH   5   6
ENDBRANCH   1   5
TORSDOF 5
ENDMDL
MODEL 3
REMARK VINA RESULT:     2.102      1.417      1.818
REMARK INTER + INTRA:           2.572
REMARK INTER:                   2.731
REMARK INTRA:                  -0.159
REMARK UNBOUND:                -0.144
REMARK SMILES C=CC(=O)CCCCC
REMARK SMILES IDX 6 1 7 2 8 3 9 4 5 5 3 6 4 7 2 8 1 9
REMARK H PARENT
REMARK Flexibility Score: inf
ROOT
ATOM      1  C   UNL     1      35.270  12.838  41.285  1.00  0.00     0.008 C 
ENDROOT
BRANCH   1   2
ATOM      2  C   UNL     1      34.786  13.443  42.619  1.00  0.00     0.000 C 
BRANCH   2   3
ATOM      3  C   UNL     1      35.826  14.355  43.293  1.00  0.00    -0.003 C 
ATOM      4  C   UNL     1      35.234  15.671  43.793  1.00  0.00     0.004 C 
ENDBRANCH   2   3
ENDBRANCH   1   2
BRANCH   1   5
ATOM      5  C   UNL     1      34.102  12.458  40.363  1.00  0.00     0.080 C 
BRANCH   5   6
ATOM      6  C   UNL     1      33.727  11.018  40.554  1.00  0.00     0.155 C 
ATOM      7  O   UNL     1      34.498  10.116  40.127  1.00  0.00    -0.295 OA
BRANCH   6   8
ATOM      8  C   UNL     1      32.488  10.668  41.276  1.00  0.00     0.039 C 
ATOM      9  C   UNL     1      32.032  11.384  42.302  1.00  0.00     0.012 C 
ENDBRANCH   6   8
ENDBRANCH   5   6
ENDBRANCH   1   5
TORSDOF 5
ENDMDL
MODEL 4
REMARK VINA RESULT:     2.982      1.729      5.235
REMARK INTER + INTRA:           3.710
REMARK INTER:                   3.873
REMARK INTRA:                  -0.163
REMARK UNBOUND:                -0.144
REMARK SMILES C=CC(=O)CCCCC
REMARK SMILES IDX 6 1 7 2 8 3 9 4 5 5 3 6 4 7 2 8 1 9
REMARK H PARENT
REMARK Flexibility Score: inf
ROOT
ATOM      1  C   UNL     1      34.125  12.723  40.984  1.00  0.00     0.008 C 
ENDROOT
BRANCH   1   2
ATOM      2  C   UNL     1      33.418  11.403  41.355  1.00  0.00     0.000 C 
BRANCH   2   3
ATOM      3  C   UNL     1      33.064  10.532  40.138  1.00  0.00    -0.003 C 
ATOM      4  C   UNL     1      33.914   9.268  40.038  1.00  0.00     0.004 C 
ENDBRANCH   2   3
ENDBRANCH   1   2
BRANCH   1   5
ATOM      5  C   UNL     1      35.554  12.792  41.540  1.00  0.00     0.080 C 
BRANCH   5   6
ATOM      6  C   UNL     1      35.647  13.818  42.629  1.00  0.00     0.155 C 
ATOM      7  O   UNL     1      34.611  14.451  42.974  1.00  0.00    -0.295 OA
BRANCH   6   8
ATOM      8  C   UNL     1      36.932  14.048  43.319  1.00  0.00     0.039 C 
ATOM      9  C   UNL     1      37.124  15.071  44.149  1.00  0.00     0.012 C 
ENDBRANCH   6   8
ENDBRANCH   5   6
ENDBRANCH   1   5
TORSDOF 5
ENDMDL
MODEL 5
REMARK VINA RESULT:     3.198      1.654      5.158
REMARK INTER + INTRA:           3.988
REMARK INTER:                   4.127
REMARK INTRA:                  -0.139
REMARK UNBOUND:                -0.144
REMARK SMILES C=CC(=O)CCCCC
REMARK SMILES IDX 6 1 7 2 8 3 9 4 5 5 3 6 4 7 2 8 1 9
REMARK H PARENT
REMARK Flexibility Score: inf
ROOT
ATOM      1  C   UNL     1      33.667  11.799  40.807  1.00  0.00     0.008 C 
ENDROOT
BRANCH   1   2
ATOM      2  C   UNL     1      32.600  10.686  40.859  1.00  0.00     0.000 C 
BRANCH   2   3
ATOM      3  C   UNL     1      32.954   9.456  40.006  1.00  0.00    -0.003 C 
ATOM      4  C   UNL     1      34.459   9.252  39.844  1.00  0.00     0.004 C 
ENDBRANCH   2   3
ENDBRANCH   1   2
BRANCH   1   5
ATOM      5  C   UNL     1      34.120  12.235  42.208  1.00  0.00     0.080 C 
BRANCH   5   6
ATOM      6  C   UNL     1      35.211  13.260  42.114  1.00  0.00     0.155 C 
ATOM      7  O   UNL     1      35.805  13.432  41.015  1.00  0.00    -0.295 OA
BRANCH   6   8
ATOM      8  C   UNL     1      35.549  14.087  43.289  1.00  0.00     0.039 C 
ATOM      9  C   UNL     1      36.801  14.433  43.582  1.00  0.00     0.012 C 
ENDBRANCH   6   8
ENDBRANCH   5   6
ENDBRANCH   1   5
TORSDOF 5
ENDMDL
