MODEL 1
REMARK VINA RESULT:    -2.288      0.000      0.000
REMARK INTER + INTRA:          -2.978
REMARK INTER:                  -2.622
REMARK INTRA:                  -0.356
REMARK UNBOUND:                -0.356
REMARK SMILES COC(=O)c1ccccc1O
REMARK SMILES IDX 5 1 6 2 7 3 8 4 9 5 10 6 3 7 4 8 2 9 1 10 11 11
REMARK H PARENT 11 12
REMARK Flexibility Score: inf
ROOT
ATOM      1  C   UNL     1     125.922 109.792 135.913  1.00  0.00     0.101 A 
ATOM      2  C   UNL     1     126.000 108.456 135.474  1.00  0.00     0.019 A 
ATOM      3  C   UNL     1     126.596 108.140 134.250  1.00  0.00     0.001 A 
ATOM      4  C   UNL     1     127.125 109.150 133.448  1.00  0.00     0.004 A 
ATOM      5  C   UNL     1     127.058 110.480 133.865  1.00  0.00     0.047 A 
ATOM      6  C   UNL     1     126.461 110.811 135.091  1.00  0.00     0.130 A 
ENDROOT
BRANCH   1   7
ATOM      7  C   UNL     1     125.280 110.090 137.219  1.00  0.00     0.341 C 
ATOM      8  O   UNL     1     124.177 109.562 137.529  1.00  0.00    -0.246 OA
BRANCH   7   9
ATOM      9  O   UNL     1     125.906 110.967 138.115  1.00  0.00    -0.465 OA
ATOM     10  C   UNL     1     127.124 110.648 138.778  1.00  0.00     0.282 C 
ENDBRANCH   7   9
ENDBRANCH   1   7
BRANCH   6  11
ATOM     11  O   UNL     1     126.407 112.149 135.485  1.00  0.00    -0.507 OA
ATOM     12  H   UNL     1     125.852 112.831 134.980  1.00  0.00     0.293 HD
ENDBRANCH   6  11
TORSDOF 3
ENDMDL
MODEL 2
REMARK VINA RESULT:    -2.286      1.393      2.709
REMARK INTER + INTRA:          -2.976
REMARK INTER:                  -2.687
REMARK INTRA:                  -0.289
REMARK UNBOUND:                -0.356
REMARK SMILES COC(=O)c1ccccc1O
REMARK SMILES IDX 5 1 6 2 7 3 8 4 9 5 10 6 3 7 4 8 2 9 1 10 11 11
REMARK H PARENT 11 12
REMARK Flexibility Score: inf
ROOT
ATOM      1  C   UNL     1     126.571 110.470 134.945  1.00  0.00     0.101 A 
ATOM      2  C   UNL     1     127.118 110.139 133.689  1.00  0.00     0.019 A 
ATOM      3  C   UNL     1     127.125 108.816 133.240  1.00  0.00     0.001 A 
ATOM      4  C   UNL     1     126.586 107.805 134.033  1.00  0.00     0.004 A 
ATOM      5  C   UNL     1     126.040 108.112 135.280  1.00  0.00     0.047 A 
ATOM      6  C   UNL     1     126.028 109.436 135.744  1.00  0.00     0.130 A 
ENDROOT
BRANCH   1   7
ATOM      7  C   UNL     1     126.582 111.886 135.390  1.00  0.00     0.341 C 
ATOM      8  O   UNL     1     126.204 112.808 134.615  1.00  0.00    -0.246 OA
BRANCH   7   9
ATOM      9  O   UNL     1     127.017 112.203 136.684  1.00  0.00    -0.465 OA
ATOM     10  C   UNL     1     127.117 113.542 137.155  1.00  0.00     0.282 C 
ENDBRANCH   7   9
ENDBRANCH   1   7
BRANCH   6  11
ATOM     11  O   UNL     1     125.475 109.716 136.995  1.00  0.00    -0.507 OA
ATOM     12  H   UNL     1     124.906 109.039 137.489  1.00  0.00     0.293 HD
ENDBRANCH   6  11
TORSDOF 3
ENDMDL
MODEL 3
REMARK VINA RESULT:    -2.281      0.977      2.113
REMARK INTER + INTRA:          -2.971
REMARK INTER:                  -2.702
REMARK INTRA:                  -0.269
REMARK UNBOUND:                -0.356
REMARK SMILES COC(=O)c1ccccc1O
REMARK SMILES IDX 5 1 6 2 7 3 8 4 9 5 10 6 3 7 4 8 2 9 1 10 11 11
REMARK H PARENT 11 12
REMARK Flexibility Score: inf
ROOT
ATOM      1  C   UNL     1     126.134 109.871 135.734  1.00  0.00     0.101 A 
ATOM      2  C   UNL     1     126.701 110.528 134.625  1.00  0.00     0.019 A 
ATOM      3  C   UNL     1     127.125 109.806 133.507  1.00  0.00     0.001 A 
ATOM      4  C   UNL     1     126.988 108.419 133.476  1.00  0.00     0.004 A 
ATOM      5  C   UNL     1     126.428 107.749 134.564  1.00  0.00     0.047 A 
ATOM      6  C   UNL     1     125.999 108.462 135.695  1.00  0.00     0.130 A 
ENDROOT
BRANCH   1   7
ATOM      7  C   UNL     1     125.696 110.671 136.906  1.00  0.00     0.341 C 
ATOM      8  O   UNL     1     124.473 110.757 137.205  1.00  0.00    -0.246 OA
BRANCH   7   9
ATOM      9  O   UNL     1     126.649 111.336 137.687  1.00  0.00    -0.465 OA
ATOM     10  C   UNL     1     127.125 110.820 138.924  1.00  0.00     0.282 C 
ENDBRANCH   7   9
ENDBRANCH   1   7
BRANCH   6  11
ATOM     11  O   UNL     1     125.443 107.767 136.769  1.00  0.00    -0.507 OA
ATOM     12  H   UNL     1     124.443 107.750 136.932  1.00  0.00     0.293 HD
ENDBRANCH   6  11
TORSDOF 3
ENDMDL
MODEL 4
REMARK VINA RESULT:    -2.171      1.379      2.045
REMARK INTER + INTRA:          -2.844
REMARK INTER:                  -2.487
REMARK INTRA:                  -0.358
REMARK UNBOUND:                -0.356
REMARK SMILES COC(=O)c1ccccc1O
REMARK SMILES IDX 5 1 6 2 7 3 8 4 9 5 10 6 3 7 4 8 2 9 1 10 11 11
REMARK H PARENT 11 12
REMARK Flexibility Score: inf
ROOT
ATOM      1  C   UNL     1     126.009 109.039 135.702  1.00  0.00     0.101 A 
ATOM      2  C   UNL     1     126.345 108.144 134.667  1.00  0.00     0.019 A 
ATOM      3  C   UNL     1     126.898 108.611 133.471  1.00  0.00     0.001 A 
ATOM      4  C   UNL     1     127.125 109.974 133.290  1.00  0.00     0.004 A 
ATOM      5  C   UNL     1     126.799 110.877 134.303  1.00  0.00     0.047 A 
ATOM      6  C   UNL     1     126.242 110.422 135.508  1.00  0.00     0.130 A 
ENDROOT
BRANCH   1   7
ATOM      7  C   UNL     1     125.423 108.507 136.958  1.00  0.00     0.341 C 
ATOM      8  O   UNL     1     125.967 107.544 137.564  1.00  0.00    -0.246 OA
BRANCH   7   9
ATOM      9  O   UNL     1     124.255 109.081 137.476  1.00  0.00    -0.465 OA
ATOM     10  C   UNL     1     122.995 108.983 136.822  1.00  0.00     0.282 C 
ENDBRANCH   7   9
ENDBRANCH   1   7
BRANCH   6  11
ATOM     11  O   UNL     1     125.925 111.346 136.505  1.00  0.00    -0.507 OA
ATOM     12  H   UNL     1     126.540 111.510 137.293  1.00  0.00     0.293 HD
ENDBRANCH   6  11
TORSDOF 3
ENDMDL
MODEL 5
REMARK VINA RESULT:    -2.160      0.999      1.045
REMARK INTER + INTRA:          -2.832
REMARK INTER:                  -2.527
REMARK INTRA:                  -0.305
REMARK UNBOUND:                -0.356
REMARK SMILES COC(=O)c1ccccc1O
REMARK SMILES IDX 5 1 6 2 7 3 8 4 9 5 10 6 3 7 4 8 2 9 1 10 11 11
REMARK H PARENT 11 12
REMARK Flexibility Score: inf
ROOT
ATOM      1  C   UNL     1     125.996 109.611 135.764  1.00  0.00     0.101 A 
ATOM      2  C   UNL     1     126.143 108.351 135.152  1.00  0.00     0.019 A 
ATOM      3  C   UNL     1     126.703 108.238 133.877  1.00  0.00     0.001 A 
ATOM      4  C   UNL     1     127.125 109.378 133.194  1.00  0.00     0.004 A 
ATOM      5  C   UNL     1     126.988 110.635 133.783  1.00  0.00     0.047 A 
ATOM      6  C   UNL     1     126.426 110.763 135.063  1.00  0.00     0.130 A 
ENDROOT
BRANCH   1   7
ATOM      7  C   UNL     1     125.395 109.693 137.120  1.00  0.00     0.341 C 
ATOM      8  O   UNL     1     125.578 108.771 137.961  1.00  0.00    -0.246 OA
BRANCH   7   9
ATOM      9  O   UNL     1     124.619 110.806 137.469  1.00  0.00    -0.465 OA
ATOM     10  C   UNL     1     124.729 111.455 138.730  1.00  0.00     0.282 C 
ENDBRANCH   7   9
ENDBRANCH   1   7
BRANCH   6  11
ATOM     11  O   UNL     1     126.300 112.033 135.629  1.00  0.00    -0.507 OA
ATOM     12  H   UNL     1     126.266 112.869 135.059  1.00  0.00     0.293 HD
ENDBRANCH   6  11
TORSDOF 3
ENDMDL
MODEL 6
REMARK VINA RESULT:    -2.157      1.249      2.794
REMARK INTER + INTRA:          -2.829
REMARK INTER:                  -2.471
REMARK INTRA:                  -0.358
REMARK UNBOUND:                -0.356
REMARK SMILES COC(=O)c1ccccc1O
REMARK SMILES IDX 5 1 6 2 7 3 8 4 9 5 10 6 3 7 4 8 2 9 1 10 11 11
REMARK H PARENT 11 12
REMARK Flexibility Score: inf
ROOT
ATOM      1  C   UNL     1     125.915 109.500 135.681  1.00  0.00     0.101 A 
ATOM      2  C   UNL     1     126.456 110.416 134.758  1.00  0.00     0.019 A 
ATOM      3  C   UNL     1     127.051 109.970 133.575  1.00  0.00     0.001 A 
ATOM      4  C   UNL     1     127.114 108.607 133.294  1.00  0.00     0.004 A 
ATOM      5  C   UNL     1     126.584 107.683 134.196  1.00  0.00     0.047 A 
ATOM      6  C   UNL     1     125.984 108.117 135.388  1.00  0.00     0.130 A 
ENDROOT
BRANCH   1   7
ATOM      7  C   UNL     1     125.291 110.010 136.929  1.00  0.00     0.341 C 
ATOM      8  O   UNL     1     125.907 110.826 137.669  1.00  0.00    -0.246 OA
BRANCH   7   9
ATOM      9  O   UNL     1     124.007 109.582 137.287  1.00  0.00    -0.465 OA
ATOM     10  C   UNL     1     122.850 109.895 136.521  1.00  0.00     0.282 C 
ENDBRANCH   7   9
ENDBRANCH   1   7
BRANCH   6  11
ATOM     11  O   UNL     1     125.462 107.172 136.273  1.00  0.00    -0.507 OA
ATOM     12  H   UNL     1     124.467 107.100 136.447  1.00  0.00     0.293 HD
ENDBRANCH   6  11
TORSDOF 3
ENDMDL
MODEL 7
REMARK VINA RESULT:    -1.933      1.788      2.969
REMARK INTER + INTRA:          -2.572
REMARK INTER:                  -2.272
REMARK INTRA:                  -0.301
REMARK UNBOUND:                -0.356
REMARK SMILES COC(=O)c1ccccc1O
REMARK SMILES IDX 5 1 6 2 7 3 8 4 9 5 10 6 3 7 4 8 2 9 1 10 11 11
REMARK H PARENT 11 12
REMARK Flexibility Score: inf
ROOT
ATOM      1  C   UNL     1     126.374 109.869 135.040  1.00  0.00     0.101 A 
ATOM      2  C   UNL     1     126.006 108.966 136.057  1.00  0.00     0.019 A 
ATOM      3  C   UNL     1     126.012 107.588 135.825  1.00  0.00     0.001 A 
ATOM      4  C   UNL     1     126.386 107.090 134.578  1.00  0.00     0.004 A 
ATOM      5  C   UNL     1     126.754 107.967 133.557  1.00  0.00     0.047 A 
ATOM      6  C   UNL     1     126.751 109.353 133.776  1.00  0.00     0.130 A 
ENDROOT
BRANCH   1   7
ATOM      7  C   UNL     1     126.355 111.326 135.322  1.00  0.00     0.341 C 
ATOM      8  O   UNL     1     126.591 111.760 136.483  1.00  0.00    -0.246 OA
BRANCH   7   9
ATOM      9  O   UNL     1     126.074 112.229 134.288  1.00  0.00    -0.465 OA
ATOM     10  C   UNL     1     126.783 113.451 134.121  1.00  0.00     0.282 C 
ENDBRANCH   7   9
ENDBRANCH   1   7
BRANCH   6  11
ATOM     11  O   UNL     1     127.124 110.209 132.738  1.00  0.00    -0.507 OA
ATOM     12  H   UNL     1     128.054 110.607 132.685  1.00  0.00     0.293 HD
ENDBRANCH   6  11
TORSDOF 3
ENDMDL
MODEL 8
REMARK VINA RESULT:    -1.778      2.129      4.022
REMARK INTER + INTRA:          -2.394
REMARK INTER:                  -2.120
REMARK INTRA:                  -0.274
REMARK UNBOUND:                -0.356
REMARK SMILES COC(=O)c1ccccc1O
REMARK SMILES IDX 5 1 6 2 7 3 8 4 9 5 10 6 3 7 4 8 2 9 1 10 11 11
REMARK H PARENT 11 12
REMARK Flexibility Score: inf
ROOT
ATOM      1  C   UNL     1     126.270 110.004 135.072  1.00  0.00     0.101 A 
ATOM      2  C   UNL     1     126.825 111.161 134.494  1.00  0.00     0.019 A 
ATOM      3  C   UNL     1     127.114 112.283 135.276  1.00  0.00     0.001 A 
ATOM      4  C   UNL     1     126.854 112.266 136.646  1.00  0.00     0.004 A 
ATOM      5  C   UNL     1     126.304 111.128 137.238  1.00  0.00     0.047 A 
ATOM      6  C   UNL     1     126.009 109.996 136.464  1.00  0.00     0.130 A 
ENDROOT
BRANCH   1   7
ATOM      7  C   UNL     1     125.976 108.831 134.209  1.00  0.00     0.341 C 
ATOM      8  O   UNL     1     124.826 108.312 134.199  1.00  0.00    -0.246 OA
BRANCH   7   9
ATOM      9  O   UNL     1     126.985 108.297 133.398  1.00  0.00    -0.465 OA
ATOM     10  C   UNL     1     127.125 106.901 133.164  1.00  0.00     0.282 C 
ENDBRANCH   7   9
ENDBRANCH   1   7
BRANCH   6  11
ATOM     11  O   UNL     1     125.459 108.871 137.081  1.00  0.00    -0.507 OA
ATOM     12  H   UNL     1     125.389 108.798 138.089  1.00  0.00     0.293 HD
ENDBRANCH   6  11
TORSDOF 3
ENDMDL
