MODEL 1
REMARK VINA RESULT:    -3.045      0.000      0.000
REMARK INTER + INTRA:          -3.680
REMARK INTER:                  -3.579
REMARK INTRA:                  -0.101
REMARK UNBOUND:                -0.101
REMARK SMILES CCCCC(=O)[O-]
REMARK SMILES IDX 4 1 5 2 6 3 7 4 3 5 2 6 1 7
REMARK H PARENT
REMARK Flexibility Score: inf
ROOT
ATOM      1  C   UNL     1      14.590  10.173 -14.875  1.00  0.00     0.053 C 
ENDROOT
BRANCH   1   2
ATOM      2  C   UNL     1      15.335   8.967 -14.391  1.00  0.00     0.041 C 
ATOM      3  O   UNL     1      14.732   7.876 -14.219  1.00  0.00    -0.550 OA
ATOM      4  O   UNL     1      16.703   9.041 -14.162  1.00  0.00    -0.550 OA
ENDBRANCH   1   2
BRANCH   1   5
ATOM      5  C   UNL     1      14.443  11.230 -13.772  1.00  0.00     0.006 C 
BRANCH   5   6
ATOM      6  C   UNL     1      15.502  12.337 -13.883  1.00  0.00    -0.003 C 
ATOM      7  C   UNL     1      15.903  12.570 -15.336  1.00  0.00     0.004 C 
ENDBRANCH   5   6
ENDBRANCH   1   5
TORSDOF 3
ENDMDL
MODEL 2
REMARK VINA RESULT:    -3.041      2.376      3.524
REMARK INTER + INTRA:          -3.675
REMARK INTER:                  -3.556
REMARK INTRA:                  -0.119
REMARK UNBOUND:                -0.101
REMARK SMILES CCCCC(=O)[O-]
REMARK SMILES IDX 4 1 5 2 6 3 7 4 3 5 2 6 1 7
REMARK H PARENT
REMARK Flexibility Score: inf
ROOT
ATOM      1  C   UNL     1      15.814  12.150 -13.915  1.00  0.00     0.053 C 
ENDROOT
BRANCH   1   2
ATOM      2  C   UNL     1      16.166  12.535 -15.319  1.00  0.00     0.041 C 
ATOM      3  O   UNL     1      15.434  13.335 -15.960  1.00  0.00    -0.550 OA
ATOM      4  O   UNL     1      17.320  12.034 -15.909  1.00  0.00    -0.550 OA
ENDBRANCH   1   2
BRANCH   1   5
ATOM      5  C   UNL     1      14.493  11.370 -13.854  1.00  0.00     0.006 C 
BRANCH   5   6
ATOM      6  C   UNL     1      14.483  10.170 -14.810  1.00  0.00    -0.003 C 
ATOM      7  C   UNL     1      15.344   9.030 -14.273  1.00  0.00     0.004 C 
ENDBRANCH   5   6
ENDBRANCH   1   5
TORSDOF 3
ENDMDL
MODEL 3
REMARK VINA RESULT:    -2.941      2.611      2.810
REMARK INTER + INTRA:          -3.558
REMARK INTER:                  -3.522
REMARK INTRA:                  -0.036
REMARK UNBOUND:                -0.101
REMARK SMILES CCCCC(=O)[O-]
REMARK SMILES IDX 4 1 5 2 6 3 7 4 3 5 2 6 1 7
REMARK H PARENT
REMARK Flexibility Score: inf
ROOT
ATOM      1  C   UNL     1      16.547  10.874 -14.901  1.00  0.00     0.053 C 
ENDROOT
BRANCH   1   2
ATOM      2  C   UNL     1      15.276  10.467 -14.221  1.00  0.00     0.041 C 
ATOM      3  O   UNL     1      14.896   9.266 -14.252  1.00  0.00    -0.550 OA
ATOM      4  O   UNL     1      14.527  11.407 -13.525  1.00  0.00    -0.550 OA
ENDBRANCH   1   2
BRANCH   1   5
ATOM      5  C   UNL     1      17.264  11.997 -14.138  1.00  0.00     0.006 C 
BRANCH   5   6
ATOM      6  C   UNL     1      18.516  11.495 -13.406  1.00  0.00    -0.003 C 
ATOM      7  C   UNL     1      19.727  12.367 -13.724  1.00  0.00     0.004 C 
ENDBRANCH   5   6
ENDBRANCH   1   5
TORSDOF 3
ENDMDL
MODEL 4
REMARK VINA RESULT:    -2.925      3.569      4.173
REMARK INTER + INTRA:          -3.539
REMARK INTER:                  -3.469
REMARK INTRA:                  -0.070
REMARK UNBOUND:                -0.101
REMARK SMILES CCCCC(=O)[O-]
REMARK SMILES IDX 4 1 5 2 6 3 7 4 3 5 2 6 1 7
REMARK H PARENT
REMARK Flexibility Score: inf
ROOT
ATOM      1  C   UNL     1      17.584  11.116 -14.253  1.00  0.00     0.053 C 
ENDROOT
BRANCH   1   2
ATOM      2  C   UNL     1      16.445  12.080 -14.391  1.00  0.00     0.041 C 
ATOM      3  O   UNL     1      15.703  12.330 -13.406  1.00  0.00    -0.550 OA
ATOM      4  O   UNL     1      16.224  12.726 -15.601  1.00  0.00    -0.550 OA
ENDBRANCH   1   2
BRANCH   1   5
ATOM      5  C   UNL     1      18.726  11.703 -13.413  1.00  0.00     0.006 C 
BRANCH   5   6
ATOM      6  C   UNL     1      19.531  12.759 -14.183  1.00  0.00    -0.003 C 
ATOM      7  C   UNL     1      20.857  13.055 -13.488  1.00  0.00     0.004 C 
ENDBRANCH   5   6
ENDBRANCH   1   5
TORSDOF 3
ENDMDL
MODEL 5
REMARK VINA RESULT:    -2.892      4.124      4.904
REMARK INTER + INTRA:          -3.500
REMARK INTER:                  -3.457
REMARK INTRA:                  -0.043
REMARK UNBOUND:                -0.101
REMARK SMILES CCCCC(=O)[O-]
REMARK SMILES IDX 4 1 5 2 6 3 7 4 3 5 2 6 1 7
REMARK H PARENT
REMARK Flexibility Score: inf
ROOT
ATOM      1  C   UNL     1      18.728  11.715 -13.265  1.00  0.00     0.053 C 
ENDROOT
BRANCH   1   2
ATOM      2  C   UNL     1      17.576  11.672 -14.221  1.00  0.00     0.041 C 
ATOM      3  O   UNL     1      17.350  12.645 -14.987  1.00  0.00    -0.550 OA
ATOM      4  O   UNL     1      16.770  10.542 -14.287  1.00  0.00    -0.550 OA
ENDBRANCH   1   2
BRANCH   1   5
ATOM      5  C   UNL     1      20.069  11.856 -13.999  1.00  0.00     0.006 C 
BRANCH   5   6
ATOM      6  C   UNL     1      20.644  13.275 -13.891  1.00  0.00    -0.003 C 
ATOM      7  C   UNL     1      21.928  13.287 -13.065  1.00  0.00     0.004 C 
ENDBRANCH   5   6
ENDBRANCH   1   5
TORSDOF 3
ENDMDL
MODEL 6
REMARK VINA RESULT:    -2.890      2.257      3.328
REMARK INTER + INTRA:          -3.498
REMARK INTER:                  -3.375
REMARK INTRA:                  -0.122
REMARK UNBOUND:                -0.101
REMARK SMILES CCCCC(=O)[O-]
REMARK SMILES IDX 4 1 5 2 6 3 7 4 3 5 2 6 1 7
REMARK H PARENT
REMARK Flexibility Score: inf
ROOT
ATOM      1  C   UNL     1      15.520  12.400 -14.444  1.00  0.00     0.053 C 
ENDROOT
BRANCH   1   2
ATOM      2  C   UNL     1      16.966  12.042 -14.606  1.00  0.00     0.041 C 
ATOM      3  O   UNL     1      17.691  11.856 -13.594  1.00  0.00    -0.550 OA
ATOM      4  O   UNL     1      17.505  11.883 -15.877  1.00  0.00    -0.550 OA
ENDBRANCH   1   2
BRANCH   1   5
ATOM      5  C   UNL     1      14.713  11.241 -13.843  1.00  0.00     0.006 C 
BRANCH   5   6
ATOM      6  C   UNL     1      14.592  10.055 -14.809  1.00  0.00    -0.003 C 
ATOM      7  C   UNL     1      15.271   8.812 -14.243  1.00  0.00     0.004 C 
ENDBRANCH   5   6
ENDBRANCH   1   5
TORSDOF 3
ENDMDL
MODEL 7
REMARK VINA RESULT:    -2.869      8.482      9.174
REMARK INTER + INTRA:          -3.473
REMARK INTER:                  -3.456
REMARK INTRA:                  -0.017
REMARK UNBOUND:                -0.101
REMARK SMILES CCCCC(=O)[O-]
REMARK SMILES IDX 4 1 5 2 6 3 7 4 3 5 2 6 1 7
REMARK H PARENT
REMARK Flexibility Score: inf
ROOT
ATOM      1  C   UNL     1       6.823  10.063 -13.106  1.00  0.00     0.053 C 
ENDROOT
BRANCH   1   2
ATOM      2  C   UNL     1       7.004   8.828 -12.278  1.00  0.00     0.041 C 
ATOM      3  O   UNL     1       7.861   7.965 -12.604  1.00  0.00    -0.550 OA
ATOM      4  O   UNL     1       6.248   8.646 -11.127  1.00  0.00    -0.550 OA
ENDBRANCH   1   2
BRANCH   1   5
ATOM      5  C   UNL     1       6.346   9.730 -14.526  1.00  0.00     0.006 C 
BRANCH   5   6
ATOM      6  C   UNL     1       6.213  10.983 -15.403  1.00  0.00    -0.003 C 
ATOM      7  C   UNL     1       4.796  11.546 -15.347  1.00  0.00     0.004 C 
ENDBRANCH   5   6
ENDBRANCH   1   5
TORSDOF 3
ENDMDL
MODEL 8
REMARK VINA RESULT:    -2.842      9.197      9.918
REMARK INTER + INTRA:          -3.442
REMARK INTER:                  -3.342
REMARK INTRA:                  -0.100
REMARK UNBOUND:                -0.101
REMARK SMILES CCCCC(=O)[O-]
REMARK SMILES IDX 4 1 5 2 6 3 7 4 3 5 2 6 1 7
REMARK H PARENT
REMARK Flexibility Score: inf
ROOT
ATOM      1  C   UNL     1       6.697   8.609 -12.287  1.00  0.00     0.053 C 
ENDROOT
BRANCH   1   2
ATOM      2  C   UNL     1       5.576   8.669 -11.295  1.00  0.00     0.041 C 
ATOM      3  O   UNL     1       5.795   8.447 -10.075  1.00  0.00    -0.550 OA
ATOM      4  O   UNL     1       4.294   9.003 -11.714  1.00  0.00    -0.550 OA
ENDBRANCH   1   2
BRANCH   1   5
ATOM      5  C   UNL     1       7.064  10.002 -12.814  1.00  0.00     0.006 C 
BRANCH   5   6
ATOM      6  C   UNL     1       6.647  10.197 -14.279  1.00  0.00    -0.003 C 
ATOM      7  C   UNL     1       5.349  10.993 -14.381  1.00  0.00     0.004 C 
ENDBRANCH   5   6
ENDBRANCH   1   5
TORSDOF 3
ENDMDL
MODEL 9
REMARK VINA RESULT:    -2.746      9.020      9.948
REMARK INTER + INTRA:          -3.329
REMARK INTER:                  -3.285
REMARK INTRA:                  -0.044
REMARK UNBOUND:                -0.101
REMARK SMILES CCCCC(=O)[O-]
REMARK SMILES IDX 4 1 5 2 6 3 7 4 3 5 2 6 1 7
REMARK H PARENT
REMARK Flexibility Score: inf
ROOT
ATOM      1  C   UNL     1       5.616  10.543 -13.441  1.00  0.00     0.053 C 
ENDROOT
BRANCH   1   2
ATOM      2  C   UNL     1       5.352  10.971 -14.852  1.00  0.00     0.041 C 
ATOM      3  O   UNL     1       4.170  11.138 -15.254  1.00  0.00    -0.550 OA
ATOM      4  O   UNL     1       6.413  11.218 -15.714  1.00  0.00    -0.550 OA
ENDBRANCH   1   2
BRANCH   1   5
ATOM      5  C   UNL     1       7.069  10.087 -13.248  1.00  0.00     0.006 C 
BRANCH   5   6
ATOM      6  C   UNL     1       7.178   8.881 -12.305  1.00  0.00    -0.003 C 
ATOM      7  C   UNL     1       5.882   8.670 -11.527  1.00  0.00     0.004 C 
ENDBRANCH   5   6
ENDBRANCH   1   5
TORSDOF 3
ENDMDL
