MODEL 1
REMARK VINA RESULT:    -3.208      0.000      0.000
REMARK INTER + INTRA:          -3.818
REMARK INTER:                  -3.771
REMARK INTRA:                  -0.047
REMARK UNBOUND:                -0.047
REMARK SMILES O=C([O-])CCC(=O)[O-]
REMARK SMILES IDX 4 1 2 2 1 3 3 4 5 5 6 6 7 7 8 8
REMARK H PARENT
REMARK Flexibility Score: inf
ROOT
ATOM      1  C   UNL     1      16.727  -9.541  12.633  1.00  0.00     0.059 C 
ENDROOT
BRANCH   1   2
ATOM      2  C   UNL     1      17.946  -8.958  13.274  1.00  0.00     0.042 C 
ATOM      3  O   UNL     1      18.449  -7.894  12.828  1.00  0.00    -0.550 OA
ATOM      4  O   UNL     1      18.499  -9.565  14.395  1.00  0.00    -0.550 OA
ENDBRANCH   1   2
BRANCH   1   5
ATOM      5  C   UNL     1      16.993 -10.978  12.181  1.00  0.00     0.059 C 
BRANCH   5   6
ATOM      6  C   UNL     1      15.790 -11.834  12.422  1.00  0.00     0.042 C 
ATOM      7  O   UNL     1      15.911 -13.085  12.510  1.00  0.00    -0.550 OA
ATOM      8  O   UNL     1      14.544 -11.247  12.599  1.00  0.00    -0.550 OA
ENDBRANCH   5   6
ENDBRANCH   1   5
TORSDOF 3
ENDMDL
MODEL 2
REMARK VINA RESULT:    -3.184      0.164      1.627
REMARK INTER + INTRA:          -3.788
REMARK INTER:                  -3.731
REMARK INTRA:                  -0.058
REMARK UNBOUND:                -0.047
REMARK SMILES O=C([O-])CCC(=O)[O-]
REMARK SMILES IDX 4 1 2 2 1 3 3 4 5 5 6 6 7 7 8 8
REMARK H PARENT
REMARK Flexibility Score: inf
ROOT
ATOM      1  C   UNL     1      16.735  -9.409  12.594  1.00  0.00     0.059 C 
ENDROOT
BRANCH   1   2
ATOM      2  C   UNL     1      17.927  -8.815  13.275  1.00  0.00     0.042 C 
ATOM      3  O   UNL     1      18.463  -9.408  14.247  1.00  0.00    -0.550 OA
ATOM      4  O   UNL     1      18.477  -7.629  12.805  1.00  0.00    -0.550 OA
ENDBRANCH   1   2
BRANCH   1   5
ATOM      5  C   UNL     1      17.009 -10.862  12.204  1.00  0.00     0.059 C 
BRANCH   5   6
ATOM      6  C   UNL     1      15.810 -11.713  12.478  1.00  0.00     0.042 C 
ATOM      7  O   UNL     1      14.678 -11.182  12.631  1.00  0.00    -0.550 OA
ATOM      8  O   UNL     1      15.934 -13.096  12.516  1.00  0.00    -0.550 OA
ENDBRANCH   5   6
ENDBRANCH   1   5
TORSDOF 3
ENDMDL
MODEL 3
REMARK VINA RESULT:    -3.180      0.304      4.227
REMARK INTER + INTRA:          -3.785
REMARK INTER:                  -3.745
REMARK INTRA:                  -0.040
REMARK UNBOUND:                -0.047
REMARK SMILES O=C([O-])CCC(=O)[O-]
REMARK SMILES IDX 4 1 2 2 1 3 3 4 5 5 6 6 7 7 8 8
REMARK H PARENT
REMARK Flexibility Score: inf
ROOT
ATOM      1  C   UNL     1      16.776 -11.085  12.060  1.00  0.00     0.059 C 
ENDROOT
BRANCH   1   2
ATOM      2  C   UNL     1      15.642 -11.986  12.435  1.00  0.00     0.042 C 
ATOM      3  O   UNL     1      15.842 -13.216  12.612  1.00  0.00    -0.550 OA
ATOM      4  O   UNL     1      14.372 -11.459  12.637  1.00  0.00    -0.550 OA
ENDBRANCH   1   2
BRANCH   1   5
ATOM      5  C   UNL     1      16.522  -9.665  12.567  1.00  0.00     0.059 C 
BRANCH   5   6
ATOM      6  C   UNL     1      17.803  -9.026  12.999  1.00  0.00     0.042 C 
ATOM      7  O   UNL     1      18.269  -8.045  12.360  1.00  0.00    -0.550 OA
ATOM      8  O   UNL     1      18.458  -9.482  14.136  1.00  0.00    -0.550 OA
ENDBRANCH   5   6
ENDBRANCH   1   5
TORSDOF 3
ENDMDL
MODEL 4
REMARK VINA RESULT:    -3.170      0.113      4.053
REMARK INTER + INTRA:          -3.773
REMARK INTER:                  -3.717
REMARK INTRA:                  -0.056
REMARK UNBOUND:                -0.047
REMARK SMILES O=C([O-])CCC(=O)[O-]
REMARK SMILES IDX 4 1 2 2 1 3 3 4 5 5 6 6 7 7 8 8
REMARK H PARENT
REMARK Flexibility Score: inf
ROOT
ATOM      1  C   UNL     1      16.995 -10.942  12.242  1.00  0.00     0.059 C 
ENDROOT
BRANCH   1   2
ATOM      2  C   UNL     1      15.771 -11.773  12.466  1.00  0.00     0.042 C 
ATOM      3  O   UNL     1      14.642 -11.224  12.564  1.00  0.00    -0.550 OA
ATOM      4  O   UNL     1      15.870 -13.157  12.517  1.00  0.00    -0.550 OA
ENDBRANCH   1   2
BRANCH   1   5
ATOM      5  C   UNL     1      16.727  -9.482  12.610  1.00  0.00     0.059 C 
BRANCH   5   6
ATOM      6  C   UNL     1      17.916  -8.889  13.297  1.00  0.00     0.042 C 
ATOM      7  O   UNL     1      18.451  -9.486  14.268  1.00  0.00    -0.550 OA
ATOM      8  O   UNL     1      18.464  -7.699  12.834  1.00  0.00    -0.550 OA
ENDBRANCH   5   6
ENDBRANCH   1   5
TORSDOF 3
ENDMDL
MODEL 5
REMARK VINA RESULT:    -3.151      2.466      4.474
REMARK INTER + INTRA:          -3.751
REMARK INTER:                  -3.659
REMARK INTRA:                  -0.092
REMARK UNBOUND:                -0.047
REMARK SMILES O=C([O-])CCC(=O)[O-]
REMARK SMILES IDX 4 1 2 2 1 3 3 4 5 5 6 6 7 7 8 8
REMARK H PARENT
REMARK Flexibility Score: inf
ROOT
ATOM      1  C   UNL     1      17.124  -8.067  13.009  1.00  0.00     0.059 C 
ENDROOT
BRANCH   1   2
ATOM      2  C   UNL     1      17.800  -9.379  13.257  1.00  0.00     0.042 C 
ATOM      3  O   UNL     1      18.607  -9.505  14.215  1.00  0.00    -0.550 OA
ATOM      4  O   UNL     1      17.502 -10.476  12.460  1.00  0.00    -0.550 OA
ENDBRANCH   1   2
BRANCH   1   5
ATOM      5  C   UNL     1      17.835  -6.946  13.769  1.00  0.00     0.059 C 
BRANCH   5   6
ATOM      6  C   UNL     1      17.012  -6.501  14.936  1.00  0.00     0.042 C 
ATOM      7  O   UNL     1      17.444  -6.649  16.110  1.00  0.00    -0.550 OA
ATOM      8  O   UNL     1      15.788  -5.878  14.726  1.00  0.00    -0.550 OA
ENDBRANCH   5   6
ENDBRANCH   1   5
TORSDOF 3
ENDMDL
MODEL 6
REMARK VINA RESULT:    -3.151      1.241      1.329
REMARK INTER + INTRA:          -3.750
REMARK INTER:                  -3.694
REMARK INTRA:                  -0.056
REMARK UNBOUND:                -0.047
REMARK SMILES O=C([O-])CCC(=O)[O-]
REMARK SMILES IDX 4 1 2 2 1 3 3 4 5 5 6 6 7 7 8 8
REMARK H PARENT
REMARK Flexibility Score: inf
ROOT
ATOM      1  C   UNL     1      17.731  -9.858  12.988  1.00  0.00     0.059 C 
ENDROOT
BRANCH   1   2
ATOM      2  C   UNL     1      18.217  -9.093  14.179  1.00  0.00     0.042 C 
ATOM      3  O   UNL     1      18.018  -7.853  14.260  1.00  0.00    -0.550 OA
ATOM      4  O   UNL     1      18.847  -9.759  15.222  1.00  0.00    -0.550 OA
ENDBRANCH   1   2
BRANCH   1   5
ATOM      5  C   UNL     1      16.361  -9.343  12.543  1.00  0.00     0.059 C 
BRANCH   5   6
ATOM      6  C   UNL     1      15.355 -10.449  12.558  1.00  0.00     0.042 C 
ATOM      7  O   UNL     1      15.732 -11.649  12.493  1.00  0.00    -0.550 OA
ATOM      8  O   UNL     1      14.004 -10.158  12.694  1.00  0.00    -0.550 OA
ENDBRANCH   5   6
ENDBRANCH   1   5
TORSDOF 3
ENDMDL
MODEL 7
REMARK VINA RESULT:    -3.148      2.443      3.619
REMARK INTER + INTRA:          -3.747
REMARK INTER:                  -3.655
REMARK INTRA:                  -0.091
REMARK UNBOUND:                -0.047
REMARK SMILES O=C([O-])CCC(=O)[O-]
REMARK SMILES IDX 4 1 2 2 1 3 3 4 5 5 6 6 7 7 8 8
REMARK H PARENT
REMARK Flexibility Score: inf
ROOT
ATOM      1  C   UNL     1      17.840  -6.947  13.715  1.00  0.00     0.059 C 
ENDROOT
BRANCH   1   2
ATOM      2  C   UNL     1      16.995  -6.515  14.872  1.00  0.00     0.042 C 
ATOM      3  O   UNL     1      17.387  -6.715  16.052  1.00  0.00    -0.550 OA
ATOM      4  O   UNL     1      15.798  -5.848  14.648  1.00  0.00    -0.550 OA
ENDBRANCH   1   2
BRANCH   1   5
ATOM      5  C   UNL     1      17.153  -8.071  12.939  1.00  0.00     0.059 C 
BRANCH   5   6
ATOM      6  C   UNL     1      17.810  -9.383  13.226  1.00  0.00     0.042 C 
ATOM      7  O   UNL     1      18.603  -9.496  14.198  1.00  0.00    -0.550 OA
ATOM      8  O   UNL     1      17.510 -10.495  12.448  1.00  0.00    -0.550 OA
ENDBRANCH   5   6
ENDBRANCH   1   5
TORSDOF 3
ENDMDL
MODEL 8
REMARK VINA RESULT:    -3.098      1.776      4.645
REMARK INTER + INTRA:          -3.687
REMARK INTER:                  -3.636
REMARK INTRA:                  -0.051
REMARK UNBOUND:                -0.047
REMARK SMILES O=C([O-])CCC(=O)[O-]
REMARK SMILES IDX 4 1 2 2 1 3 3 4 5 5 6 6 7 7 8 8
REMARK H PARENT
REMARK Flexibility Score: inf
ROOT
ATOM      1  C   UNL     1      14.444 -11.654  12.000  1.00  0.00     0.059 C 
ENDROOT
BRANCH   1   2
ATOM      2  C   UNL     1      13.819 -12.848  12.650  1.00  0.00     0.042 C 
ATOM      3  O   UNL     1      14.459 -13.928  12.738  1.00  0.00    -0.550 OA
ATOM      4  O   UNL     1      12.548 -12.753  13.203  1.00  0.00    -0.550 OA
ENDBRANCH   1   2
BRANCH   1   5
ATOM      5  C   UNL     1      15.956 -11.648  12.228  1.00  0.00     0.059 C 
BRANCH   5   6
ATOM      6  C   UNL     1      16.431 -10.268  12.553  1.00  0.00     0.042 C 
ATOM      7  O   UNL     1      15.615  -9.309  12.593  1.00  0.00    -0.550 OA
ATOM      8  O   UNL     1      17.768 -10.048  12.859  1.00  0.00    -0.550 OA
ENDBRANCH   5   6
ENDBRANCH   1   5
TORSDOF 3
ENDMDL
MODEL 9
REMARK VINA RESULT:    -3.095      1.764      2.418
REMARK INTER + INTRA:          -3.684
REMARK INTER:                  -3.636
REMARK INTRA:                  -0.048
REMARK UNBOUND:                -0.047
REMARK SMILES O=C([O-])CCC(=O)[O-]
REMARK SMILES IDX 4 1 2 2 1 3 3 4 5 5 6 6 7 7 8 8
REMARK H PARENT
REMARK Flexibility Score: inf
ROOT
ATOM      1  C   UNL     1      16.006 -11.630  12.112  1.00  0.00     0.059 C 
ENDROOT
BRANCH   1   2
ATOM      2  C   UNL     1      16.512 -10.295  12.559  1.00  0.00     0.042 C 
ATOM      3  O   UNL     1      17.729 -10.140  12.839  1.00  0.00    -0.550 OA
ATOM      4  O   UNL     1      15.648  -9.209  12.620  1.00  0.00    -0.550 OA
ENDBRANCH   1   2
BRANCH   1   5
ATOM      5  C   UNL     1      14.477 -11.644  12.090  1.00  0.00     0.059 C 
BRANCH   5   6
ATOM      6  C   UNL     1      13.955 -12.886  12.741  1.00  0.00     0.042 C 
ATOM      7  O   UNL     1      14.625 -13.952  12.700  1.00  0.00    -0.550 OA
ATOM      8  O   UNL     1      12.752 -12.854  13.434  1.00  0.00    -0.550 OA
ENDBRANCH   5   6
ENDBRANCH   1   5
TORSDOF 3
ENDMDL
