MODEL 1
REMARK VINA RESULT:    -7.131      0.000      0.000
REMARK INTER + INTRA:         -12.365
REMARK INTER:                  -9.633
REMARK INTRA:                  -2.733
REMARK UNBOUND:                -2.733
REMARK SMILES CC[C@@H](CC[C@H](C)[C@@H]1CC[C@H]2[C@H]3CC(=O)C4=CC(=O)CC[C@@]4(C)[C@H]3CC[C@@]21C)C(C)C
REMARK SMILES IDX 4 1 3 2 2 3 1 4 29 5 30 6 31 7 5 8 6 9 7 10 8 11 9 12 27 13
REMARK SMILES IDX 10 14 11 15 26 16 28 17 12 18 25 19 24 20 13 21 22 22 14 23
REMARK SMILES IDX 16 24 21 25 23 26 15 27 17 28 20 29 18 30 19 31
REMARK H PARENT
REMARK Flexibility Score: inf
ROOT
ATOM      1  C   UNL     1      16.096   2.706  57.148  1.00  0.00     0.004 C 
ENDROOT
BRANCH   1   2
ATOM      2  C   UNL     1      17.108   1.564  56.845  1.00  0.00    -0.009 C 
BRANCH   2   3
ATOM      3  C   UNL     1      18.062   1.985  55.688  1.00  0.00     0.000 C 
ATOM      4  C   UNL     1      17.558   3.153  54.842  1.00  0.00     0.004 C 
ENDBRANCH   2   3
BRANCH   2   5
ATOM      5  C   UNL     1      16.332   0.217  56.610  1.00  0.00    -0.014 C 
ATOM      6  C   UNL     1      17.186  -1.041  56.835  1.00  0.00     0.007 C 
ATOM      7  C   UNL     1      15.011   0.130  57.393  1.00  0.00     0.007 C 
ENDBRANCH   2   5
ENDBRANCH   1   2
BRANCH   1   8
ATOM      8  C   UNL     1      16.599   3.714  58.208  1.00  0.00     0.004 C 
BRANCH   8   9
ATOM      9  C   UNL     1      16.027   3.466  59.640  1.00  0.00    -0.011 C 
ATOM     10  C   UNL     1      15.575   4.823  60.240  1.00  0.00     0.008 C 
BRANCH   9  11
ATOM     11  C   UNL     1      17.023   2.696  60.587  1.00  0.00    -0.002 C 
ATOM     12  C   UNL     1      18.427   2.472  59.937  1.00  0.00     0.005 C 
ATOM     13  C   UNL     1      16.594   1.266  61.109  1.00  0.00    -0.026 C 
ATOM     14  C   UNL     1      18.796   1.002  60.118  1.00  0.00     0.005 C 
ATOM     15  C   UNL     1      17.444   0.336  60.233  1.00  0.00    -0.001 C 
ATOM     16  C   UNL     1      15.125   0.815  60.923  1.00  0.00     0.007 C 
ATOM     17  C   UNL     1      16.946   1.211  62.626  1.00  0.00     0.012 C 
ATOM     18  C   UNL     1      17.371  -1.178  60.552  1.00  0.00     0.004 C 
ATOM     19  C   UNL     1      14.915  -0.683  61.255  1.00  0.00     0.005 C 
ATOM     20  C   UNL     1      15.878  -1.659  60.502  1.00  0.00     0.003 C 
ATOM     21  C   UNL     1      18.189  -1.647  61.793  1.00  0.00     0.085 C 
ATOM     22  C   UNL     1      15.735  -3.163  60.959  1.00  0.00    -0.000 C 
ATOM     23  C   UNL     1      17.410  -2.454  62.795  1.00  0.00     0.159 C 
ATOM     24  C   UNL     1      16.286  -3.320  62.370  1.00  0.00     0.005 C 
ATOM     25  C   UNL     1      14.238  -3.619  60.918  1.00  0.00     0.020 C 
ATOM     26  C   UNL     1      16.553  -4.078  60.007  1.00  0.00     0.017 C 
ATOM     27  O   UNL     1      17.768  -2.423  64.005  1.00  0.00    -0.295 OA
ATOM     28  C   UNL     1      15.823  -4.279  63.196  1.00  0.00     0.055 C 
ATOM     29  C   UNL     1      14.024  -5.027  61.489  1.00  0.00     0.081 C 
ATOM     30  C   UNL     1      14.716  -5.174  62.811  1.00  0.00     0.156 C 
ATOM     31  O   UNL     1      14.365  -6.094  63.595  1.00  0.00    -0.295 OA
ENDBRANCH   9  11
ENDBRANCH   8   9
ENDBRANCH   1   8
TORSDOF 6
ENDMDL
MODEL 2
REMARK VINA RESULT:    -6.692      1.904      3.784
REMARK INTER + INTRA:         -11.772
REMARK INTER:                  -8.800
REMARK INTRA:                  -2.972
REMARK UNBOUND:                -2.733
REMARK SMILES CC[C@@H](CC[C@H](C)[C@@H]1CC[C@H]2[C@H]3CC(=O)C4=CC(=O)CC[C@@]4(C)[C@H]3CC[C@@]21C)C(C)C
REMARK SMILES IDX 4 1 3 2 2 3 1 4 29 5 30 6 31 7 5 8 6 9 7 10 8 11 9 12 27 13
REMARK SMILES IDX 10 14 11 15 26 16 28 17 12 18 25 19 24 20 13 21 22 22 14 23
REMARK SMILES IDX 16 24 21 25 23 26 15 27 17 28 20 29 18 30 19 31
REMARK H PARENT
REMARK Flexibility Score: inf
ROOT
ATOM      1  C   UNL     1      20.339   1.128  57.165  1.00  0.00     0.004 C 
ENDROOT
BRANCH   1   2
ATOM      2  C   UNL     1      20.298   0.890  58.703  1.00  0.00    -0.009 C 
BRANCH   2   3
ATOM      3  C   UNL     1      21.182   1.945  59.432  1.00  0.00     0.000 C 
ATOM      4  C   UNL     1      20.400   2.981  60.238  1.00  0.00     0.004 C 
ENDBRANCH   2   3
BRANCH   2   5
ATOM      5  C   UNL     1      20.656  -0.608  59.016  1.00  0.00    -0.014 C 
ATOM      6  C   UNL     1      21.875  -1.133  58.240  1.00  0.00     0.007 C 
ATOM      7  C   UNL     1      20.797  -0.899  60.520  1.00  0.00     0.007 C 
ENDBRANCH   2   5
ENDBRANCH   1   2
BRANCH   1   8
ATOM      8  C   UNL     1      19.385   2.248  56.687  1.00  0.00     0.004 C 
BRANCH   8   9
ATOM      9  C   UNL     1      18.010   1.728  56.163  1.00  0.00    -0.011 C 
ATOM     10  C   UNL     1      17.714   2.390  54.792  1.00  0.00     0.008 C 
BRANCH   9  11
ATOM     11  C   UNL     1      16.832   1.929  57.189  1.00  0.00    -0.002 C 
ATOM     12  C   UNL     1      17.077   3.123  58.167  1.00  0.00     0.005 C 
ATOM     13  C   UNL     1      16.454   0.715  58.130  1.00  0.00    -0.026 C 
ATOM     14  C   UNL     1      16.810   2.627  59.586  1.00  0.00     0.005 C 
ATOM     15  C   UNL     1      17.071   1.142  59.468  1.00  0.00    -0.001 C 
ATOM     16  C   UNL     1      17.034  -0.684  57.812  1.00  0.00     0.007 C 
ATOM     17  C   UNL     1      14.899   0.619  58.147  1.00  0.00     0.012 C 
ATOM     18  C   UNL     1      16.792   0.227  60.687  1.00  0.00     0.004 C 
ATOM     19  C   UNL     1      16.780  -1.708  58.946  1.00  0.00     0.005 C 
ATOM     20  C   UNL     1      17.249  -1.240  60.364  1.00  0.00     0.003 C 
ATOM     21  C   UNL     1      15.378   0.366  61.327  1.00  0.00     0.085 C 
ATOM     22  C   UNL     1      16.856  -2.241  61.519  1.00  0.00    -0.000 C 
ATOM     23  C   UNL     1      14.629  -0.927  61.495  1.00  0.00     0.159 C 
ATOM     24  C   UNL     1      15.349  -2.200  61.736  1.00  0.00     0.005 C 
ATOM     25  C   UNL     1      17.304  -3.699  61.171  1.00  0.00     0.020 C 
ATOM     26  C   UNL     1      17.555  -1.813  62.840  1.00  0.00     0.017 C 
ATOM     27  O   UNL     1      13.368  -0.901  61.483  1.00  0.00    -0.295 OA
ATOM     28  C   UNL     1      14.685  -3.270  62.216  1.00  0.00     0.055 C 
ATOM     29  C   UNL     1      16.821  -4.735  62.194  1.00  0.00     0.081 C 
ATOM     30  C   UNL     1      15.361  -4.553  62.484  1.00  0.00     0.156 C 
ATOM     31  O   UNL     1      14.707  -5.501  62.992  1.00  0.00    -0.295 OA
ENDBRANCH   9  11
ENDBRANCH   8   9
ENDBRANCH   1   8
TORSDOF 6
ENDMDL
MODEL 3
REMARK VINA RESULT:    -6.516      8.612     11.319
REMARK INTER + INTRA:         -11.534
REMARK INTER:                  -9.127
REMARK INTRA:                  -2.407
REMARK UNBOUND:                -2.733
REMARK SMILES CC[C@@H](CC[C@H](C)[C@@H]1CC[C@H]2[C@H]3CC(=O)C4=CC(=O)CC[C@@]4(C)[C@H]3CC[C@@]21C)C(C)C
REMARK SMILES IDX 4 1 3 2 2 3 1 4 29 5 30 6 31 7 5 8 6 9 7 10 8 11 9 12 27 13
REMARK SMILES IDX 10 14 11 15 26 16 28 17 12 18 25 19 24 20 13 21 22 22 14 23
REMARK SMILES IDX 16 24 21 25 23 26 15 27 17 28 20 29 18 30 19 31
REMARK H PARENT
REMARK Flexibility Score: inf
ROOT
ATOM      1  C   UNL     1      23.222  -2.074  61.932  1.00  0.00     0.004 C 
ENDROOT
BRANCH   1   2
ATOM      2  C   UNL     1      22.061  -2.505  60.989  1.00  0.00    -0.009 C 
BRANCH   2   3
ATOM      3  C   UNL     1      22.280  -1.916  59.564  1.00  0.00     0.000 C 
ATOM      4  C   UNL     1      23.533  -1.052  59.418  1.00  0.00     0.004 C 
ENDBRANCH   2   3
BRANCH   2   5
ATOM      5  C   UNL     1      20.681  -2.147  61.651  1.00  0.00    -0.014 C 
ATOM      6  C   UNL     1      19.821  -1.184  60.817  1.00  0.00     0.007 C 
ATOM      7  C   UNL     1      19.868  -3.383  62.072  1.00  0.00     0.007 C 
ENDBRANCH   2   5
ENDBRANCH   1   2
BRANCH   1   8
ATOM      8  C   UNL     1      23.935  -3.262  62.618  1.00  0.00     0.004 C 
BRANCH   8   9
ATOM      9  C   UNL     1      24.111  -4.512  61.699  1.00  0.00    -0.011 C 
ATOM     10  C   UNL     1      23.683  -5.777  62.488  1.00  0.00     0.008 C 
BRANCH   9  11
ATOM     11  C   UNL     1      25.559  -4.646  61.094  1.00  0.00    -0.002 C 
ATOM     12  C   UNL     1      26.506  -3.480  61.525  1.00  0.00     0.005 C 
ATOM     13  C   UNL     1      25.702  -4.715  59.521  1.00  0.00    -0.026 C 
ATOM     14  C   UNL     1      27.185  -2.941  60.268  1.00  0.00     0.005 C 
ATOM     15  C   UNL     1      26.197  -3.303  59.182  1.00  0.00    -0.001 C 
ATOM     16  C   UNL     1      24.433  -4.947  58.666  1.00  0.00     0.007 C 
ATOM     17  C   UNL     1      26.729  -5.843  59.206  1.00  0.00     0.012 C 
ATOM     18  C   UNL     1      26.568  -3.032  57.703  1.00  0.00     0.004 C 
ATOM     19  C   UNL     1      24.688  -4.746  57.152  1.00  0.00     0.005 C 
ATOM     20  C   UNL     1      25.347  -3.377  56.778  1.00  0.00     0.003 C 
ATOM     21  C   UNL     1      27.945  -3.596  57.237  1.00  0.00     0.085 C 
ATOM     22  C   UNL     1      25.720  -3.255  55.249  1.00  0.00    -0.000 C 
ATOM     23  C   UNL     1      27.896  -4.437  55.992  1.00  0.00     0.159 C 
ATOM     24  C   UNL     1      26.889  -4.180  54.936  1.00  0.00     0.005 C 
ATOM     25  C   UNL     1      24.496  -3.618  54.345  1.00  0.00     0.020 C 
ATOM     26  C   UNL     1      26.149  -1.795  54.932  1.00  0.00     0.017 C 
ATOM     27  O   UNL     1      28.768  -5.335  55.834  1.00  0.00    -0.295 OA
ATOM     28  C   UNL     1      27.058  -4.694  53.702  1.00  0.00     0.055 C 
ATOM     29  C   UNL     1      24.843  -3.654  52.851  1.00  0.00     0.081 C 
ATOM     30  C   UNL     1      26.089  -4.455  52.616  1.00  0.00     0.156 C 
ATOM     31  O   UNL     1      26.328  -4.906  51.465  1.00  0.00    -0.295 OA
ENDBRANCH   9  11
ENDBRANCH   8   9
ENDBRANCH   1   8
TORSDOF 6
ENDMDL
MODEL 4
REMARK VINA RESULT:    -6.491     10.283     12.348
REMARK INTER + INTRA:         -11.500
REMARK INTER:                  -8.686
REMARK INTRA:                  -2.814
REMARK UNBOUND:                -2.733
REMARK SMILES CC[C@@H](CC[C@H](C)[C@@H]1CC[C@H]2[C@H]3CC(=O)C4=CC(=O)CC[C@@]4(C)[C@H]3CC[C@@]21C)C(C)C
REMARK SMILES IDX 4 1 3 2 2 3 1 4 29 5 30 6 31 7 5 8 6 9 7 10 8 11 9 12 27 13
REMARK SMILES IDX 10 14 11 15 26 16 28 17 12 18 25 19 24 20 13 21 22 22 14 23
REMARK SMILES IDX 16 24 21 25 23 26 15 27 17 28 20 29 18 30 19 31
REMARK H PARENT
REMARK Flexibility Score: inf
ROOT
ATOM      1  C   UNL     1      28.816  -2.959  51.755  1.00  0.00     0.004 C 
ENDROOT
BRANCH   1   2
ATOM      2  C   UNL     1      29.040  -3.696  53.107  1.00  0.00    -0.009 C 
BRANCH   2   3
ATOM      3  C   UNL     1      29.755  -2.753  54.120  1.00  0.00     0.000 C 
ATOM      4  C   UNL     1      29.341  -1.286  54.024  1.00  0.00     0.004 C 
ENDBRANCH   2   3
BRANCH   2   5
ATOM      5  C   UNL     1      29.766  -5.067  52.849  1.00  0.00    -0.014 C 
ATOM      6  C   UNL     1      29.508  -6.122  53.936  1.00  0.00     0.007 C 
ATOM      7  C   UNL     1      29.496  -5.645  51.449  1.00  0.00     0.007 C 
ENDBRANCH   2   5
ENDBRANCH   1   2
BRANCH   1   8
ATOM      8  C   UNL     1      27.329  -2.864  51.341  1.00  0.00     0.004 C 
BRANCH   8   9
ATOM      9  C   UNL     1      26.402  -3.888  52.068  1.00  0.00    -0.011 C 
ATOM     10  C   UNL     1      25.642  -4.720  51.002  1.00  0.00     0.008 C 
BRANCH   9  11
ATOM     11  C   UNL     1      25.428  -3.221  53.111  1.00  0.00    -0.002 C 
ATOM     12  C   UNL     1      25.684  -1.689  53.286  1.00  0.00     0.005 C 
ATOM     13  C   UNL     1      25.416  -3.793  54.586  1.00  0.00    -0.026 C 
ATOM     14  C   UNL     1      25.770  -1.398  54.782  1.00  0.00     0.005 C 
ATOM     15  C   UNL     1      26.213  -2.727  55.350  1.00  0.00    -0.001 C 
ATOM     16  C   UNL     1      26.118  -5.143  54.867  1.00  0.00     0.007 C 
ATOM     17  C   UNL     1      23.924  -3.906  55.018  1.00  0.00     0.012 C 
ATOM     18  C   UNL     1      26.308  -2.898  56.886  1.00  0.00     0.004 C 
ATOM     19  C   UNL     1      26.236  -5.451  56.380  1.00  0.00     0.005 C 
ATOM     20  C   UNL     1      26.898  -4.313  57.227  1.00  0.00     0.003 C 
ATOM     21  C   UNL     1      25.038  -2.487  57.692  1.00  0.00     0.085 C 
ATOM     22  C   UNL     1      26.883  -4.593  58.780  1.00  0.00    -0.000 C 
ATOM     23  C   UNL     1      24.529  -3.531  58.647  1.00  0.00     0.159 C 
ATOM     24  C   UNL     1      25.456  -4.484  59.302  1.00  0.00     0.005 C 
ATOM     25  C   UNL     1      27.459  -6.012  59.097  1.00  0.00     0.020 C 
ATOM     26  C   UNL     1      27.755  -3.534  59.510  1.00  0.00     0.017 C 
ATOM     27  O   UNL     1      23.299  -3.547  58.925  1.00  0.00    -0.295 OA
ATOM     28  C   UNL     1      25.057  -5.176  60.387  1.00  0.00     0.055 C 
ATOM     29  C   UNL     1      27.336  -6.393  60.578  1.00  0.00     0.081 C 
ATOM     30  C   UNL     1      25.949  -6.124  61.081  1.00  0.00     0.156 C 
ATOM     31  O   UNL     1      25.548  -6.696  62.128  1.00  0.00    -0.295 OA
ENDBRANCH   9  11
ENDBRANCH   8   9
ENDBRANCH   1   8
TORSDOF 6
ENDMDL
MODEL 5
REMARK VINA RESULT:    -6.299      3.647      6.880
REMARK INTER + INTRA:         -11.241
REMARK INTER:                  -8.300
REMARK INTRA:                  -2.941
REMARK UNBOUND:                -2.733
REMARK SMILES CC[C@@H](CC[C@H](C)[C@@H]1CC[C@H]2[C@H]3CC(=O)C4=CC(=O)CC[C@@]4(C)[C@H]3CC[C@@]21C)C(C)C
REMARK SMILES IDX 4 1 3 2 2 3 1 4 29 5 30 6 31 7 5 8 6 9 7 10 8 11 9 12 27 13
REMARK SMILES IDX 10 14 11 15 26 16 28 17 12 18 25 19 24 20 13 21 22 22 14 23
REMARK SMILES IDX 16 24 21 25 23 26 15 27 17 28 20 29 18 30 19 31
REMARK H PARENT
REMARK Flexibility Score: inf
ROOT
ATOM      1  C   UNL     1      17.852   2.072  54.900  1.00  0.00     0.004 C 
ENDROOT
BRANCH   1   2
ATOM      2  C   UNL     1      17.844   3.304  55.850  1.00  0.00    -0.009 C 
BRANCH   2   3
ATOM      3  C   UNL     1      16.435   3.970  55.852  1.00  0.00     0.000 C 
ATOM      4  C   UNL     1      16.345   5.266  56.656  1.00  0.00     0.004 C 
ENDBRANCH   2   3
BRANCH   2   5
ATOM      5  C   UNL     1      19.032   4.265  55.482  1.00  0.00    -0.014 C 
ATOM      6  C   UNL     1      20.062   4.441  56.609  1.00  0.00     0.007 C 
ATOM      7  C   UNL     1      19.725   3.898  54.159  1.00  0.00     0.007 C 
ENDBRANCH   2   5
ENDBRANCH   1   2
BRANCH   1   8
ATOM      8  C   UNL     1      17.844   0.717  55.645  1.00  0.00     0.004 C 
BRANCH   8   9
ATOM      9  C   UNL     1      18.525   0.761  57.050  1.00  0.00    -0.011 C 
ATOM     10  C   UNL     1      19.704  -0.247  57.067  1.00  0.00     0.008 C 
BRANCH   9  11
ATOM     11  C   UNL     1      17.520   0.527  58.240  1.00  0.00    -0.002 C 
ATOM     12  C   UNL     1      16.036   0.409  57.766  1.00  0.00     0.005 C 
ATOM     13  C   UNL     1      17.483   1.600  59.402  1.00  0.00    -0.026 C 
ATOM     14  C   UNL     1      15.192   1.333  58.640  1.00  0.00     0.005 C 
ATOM     15  C   UNL     1      16.196   2.372  59.083  1.00  0.00    -0.001 C 
ATOM     16  C   UNL     1      18.614   2.654  59.478  1.00  0.00     0.007 C 
ATOM     17  C   UNL     1      17.439   0.814  60.746  1.00  0.00     0.012 C 
ATOM     18  C   UNL     1      15.764   3.454  60.103  1.00  0.00     0.004 C 
ATOM     19  C   UNL     1      18.316   3.775  60.505  1.00  0.00     0.005 C 
ATOM     20  C   UNL     1      16.932   4.481  60.314  1.00  0.00     0.003 C 
ATOM     21  C   UNL     1      15.090   2.924  61.405  1.00  0.00     0.085 C 
ATOM     22  C   UNL     1      16.595   5.523  61.452  1.00  0.00    -0.000 C 
ATOM     23  C   UNL     1      15.694   3.436  62.684  1.00  0.00     0.159 C 
ATOM     24  C   UNL     1      16.312   4.781  62.752  1.00  0.00     0.005 C 
ATOM     25  C   UNL     1      17.778   6.526  61.658  1.00  0.00     0.020 C 
ATOM     26  C   UNL     1      15.327   6.331  61.060  1.00  0.00     0.017 C 
ATOM     27  O   UNL     1      15.617   2.719  63.718  1.00  0.00    -0.295 OA
ATOM     28  C   UNL     1      16.538   5.360  63.947  1.00  0.00     0.055 C 
ATOM     29  C   UNL     1      17.563   7.471  62.848  1.00  0.00     0.081 C 
ATOM     30  C   UNL     1      17.138   6.703  64.064  1.00  0.00     0.156 C 
ATOM     31  O   UNL     1      17.269   7.224  65.202  1.00  0.00    -0.295 OA
ENDBRANCH   9  11
ENDBRANCH   8   9
ENDBRANCH   1   8
TORSDOF 6
ENDMDL
MODEL 6
REMARK VINA RESULT:    -6.165      4.361      8.033
REMARK INTER + INTRA:         -11.061
REMARK INTER:                  -7.895
REMARK INTRA:                  -3.165
REMARK UNBOUND:                -2.733
REMARK SMILES CC[C@@H](CC[C@H](C)[C@@H]1CC[C@H]2[C@H]3CC(=O)C4=CC(=O)CC[C@@]4(C)[C@H]3CC[C@@]21C)C(C)C
REMARK SMILES IDX 4 1 3 2 2 3 1 4 29 5 30 6 31 7 5 8 6 9 7 10 8 11 9 12 27 13
REMARK SMILES IDX 10 14 11 15 26 16 28 17 12 18 25 19 24 20 13 21 22 22 14 23
REMARK SMILES IDX 16 24 21 25 23 26 15 27 17 28 20 29 18 30 19 31
REMARK H PARENT
REMARK Flexibility Score: inf
ROOT
ATOM      1  C   UNL     1      16.336  -0.494  58.921  1.00  0.00     0.004 C 
ENDROOT
BRANCH   1   2
ATOM      2  C   UNL     1      17.095   0.346  59.989  1.00  0.00    -0.009 C 
BRANCH   2   3
ATOM      3  C   UNL     1      18.333  -0.442  60.510  1.00  0.00     0.000 C 
ATOM      4  C   UNL     1      19.645   0.340  60.475  1.00  0.00     0.004 C 
ENDBRANCH   2   3
BRANCH   2   5
ATOM      5  C   UNL     1      16.091   0.820  61.102  1.00  0.00    -0.014 C 
ATOM      6  C   UNL     1      16.652   1.917  62.020  1.00  0.00     0.007 C 
ATOM      7  C   UNL     1      14.712   1.219  60.549  1.00  0.00     0.007 C 
ENDBRANCH   2   5
ENDBRANCH   1   2
BRANCH   1   8
ATOM      8  C   UNL     1      17.188  -0.825  57.674  1.00  0.00     0.004 C 
BRANCH   8   9
ATOM      9  C   UNL     1      16.755  -0.053  56.387  1.00  0.00    -0.011 C 
ATOM     10  C   UNL     1      16.750  -1.038  55.190  1.00  0.00     0.008 C 
BRANCH   9  11
ATOM     11  C   UNL     1      17.627   1.228  56.103  1.00  0.00    -0.002 C 
ATOM     12  C   UNL     1      19.104   1.076  56.588  1.00  0.00     0.005 C 
ATOM     13  C   UNL     1      17.146   2.604  56.719  1.00  0.00    -0.026 C 
ATOM     14  C   UNL     1      19.460   2.319  57.400  1.00  0.00     0.005 C 
ATOM     15  C   UNL     1      18.110   2.781  57.899  1.00  0.00    -0.001 C 
ATOM     16  C   UNL     1      15.718   2.698  57.308  1.00  0.00     0.007 C 
ATOM     17  C   UNL     1      17.299   3.680  55.603  1.00  0.00     0.012 C 
ATOM     18  C   UNL     1      18.010   4.112  58.684  1.00  0.00     0.004 C 
ATOM     19  C   UNL     1      15.479   4.015  58.086  1.00  0.00     0.005 C 
ATOM     20  C   UNL     1      16.540   4.318  59.196  1.00  0.00     0.003 C 
ATOM     21  C   UNL     1      18.664   5.351  58.000  1.00  0.00     0.085 C 
ATOM     22  C   UNL     1      16.352   5.728  59.880  1.00  0.00    -0.000 C 
ATOM     23  C   UNL     1      17.770   6.554  57.882  1.00  0.00     0.159 C 
ATOM     24  C   UNL     1      16.717   6.826  58.889  1.00  0.00     0.005 C 
ATOM     25  C   UNL     1      14.878   5.920  60.367  1.00  0.00     0.020 C 
ATOM     26  C   UNL     1      17.295   5.841  61.109  1.00  0.00     0.017 C 
ATOM     27  O   UNL     1      17.967   7.363  56.934  1.00  0.00    -0.295 OA
ATOM     28  C   UNL     1      16.160   8.050  58.969  1.00  0.00     0.055 C 
ATOM     29  C   UNL     1      14.604   7.328  60.911  1.00  0.00     0.081 C 
ATOM     30  C   UNL     1      15.120   8.371  59.964  1.00  0.00     0.156 C 
ATOM     31  O   UNL     1      14.678   9.547  60.039  1.00  0.00    -0.295 OA
ENDBRANCH   9  11
ENDBRANCH   8   9
ENDBRANCH   1   8
TORSDOF 6
ENDMDL
MODEL 7
REMARK VINA RESULT:    -6.157      2.583      5.269
REMARK INTER + INTRA:         -11.050
REMARK INTER:                  -8.281
REMARK INTRA:                  -2.768
REMARK UNBOUND:                -2.733
REMARK SMILES CC[C@@H](CC[C@H](C)[C@@H]1CC[C@H]2[C@H]3CC(=O)C4=CC(=O)CC[C@@]4(C)[C@H]3CC[C@@]21C)C(C)C
REMARK SMILES IDX 4 1 3 2 2 3 1 4 29 5 30 6 31 7 5 8 6 9 7 10 8 11 9 12 27 13
REMARK SMILES IDX 10 14 11 15 26 16 28 17 12 18 25 19 24 20 13 21 22 22 14 23
REMARK SMILES IDX 16 24 21 25 23 26 15 27 17 28 20 29 18 30 19 31
REMARK H PARENT
REMARK Flexibility Score: inf
ROOT
ATOM      1  C   UNL     1      16.167   6.536  61.825  1.00  0.00     0.004 C 
ENDROOT
BRANCH   1   2
ATOM      2  C   UNL     1      16.479   5.300  62.718  1.00  0.00    -0.009 C 
BRANCH   2   3
ATOM      3  C   UNL     1      15.254   4.339  62.751  1.00  0.00     0.000 C 
ATOM      4  C   UNL     1      15.394   3.163  63.717  1.00  0.00     0.004 C 
ENDBRANCH   2   3
BRANCH   2   5
ATOM      5  C   UNL     1      16.987   5.778  64.126  1.00  0.00    -0.014 C 
ATOM      6  C   UNL     1      18.511   5.683  64.303  1.00  0.00     0.007 C 
ATOM      7  C   UNL     1      16.476   7.175  64.516  1.00  0.00     0.007 C 
ENDBRANCH   2   5
ENDBRANCH   1   2
BRANCH   1   8
ATOM      8  C   UNL     1      17.136   6.698  60.631  1.00  0.00     0.004 C 
BRANCH   8   9
ATOM      9  C   UNL     1      18.104   5.489  60.432  1.00  0.00    -0.011 C 
ATOM     10  C   UNL     1      19.555   6.024  60.314  1.00  0.00     0.008 C 
BRANCH   9  11
ATOM     11  C   UNL     1      17.709   4.563  59.220  1.00  0.00    -0.002 C 
ATOM     12  C   UNL     1      16.353   4.975  58.560  1.00  0.00     0.005 C 
ATOM     13  C   UNL     1      17.564   3.011  59.489  1.00  0.00    -0.026 C 
ATOM     14  C   UNL     1      15.500   3.717  58.421  1.00  0.00     0.005 C 
ATOM     15  C   UNL     1      16.041   2.831  59.520  1.00  0.00    -0.001 C 
ATOM     16  C   UNL     1      18.096   2.434  60.823  1.00  0.00     0.007 C 
ATOM     17  C   UNL     1      18.270   2.278  58.310  1.00  0.00     0.012 C 
ATOM     18  C   UNL     1      15.514   1.380  59.649  1.00  0.00     0.004 C 
ATOM     19  C   UNL     1      17.669   0.962  61.049  1.00  0.00     0.005 C 
ATOM     20  C   UNL     1      16.130   0.704  60.925  1.00  0.00     0.003 C 
ATOM     21  C   UNL     1      15.561   0.526  58.346  1.00  0.00     0.085 C 
ATOM     22  C   UNL     1      15.738  -0.821  61.024  1.00  0.00    -0.000 C 
ATOM     23  C   UNL     1      16.240  -0.808  58.488  1.00  0.00     0.159 C 
ATOM     24  C   UNL     1      16.207  -1.549  59.771  1.00  0.00     0.005 C 
ATOM     25  C   UNL     1      16.374  -1.481  62.292  1.00  0.00     0.020 C 
ATOM     26  C   UNL     1      14.193  -0.957  61.122  1.00  0.00     0.017 C 
ATOM     27  O   UNL     1      16.794  -1.315  57.474  1.00  0.00    -0.295 OA
ATOM     28  C   UNL     1      16.510  -2.861  59.800  1.00  0.00     0.055 C 
ATOM     29  C   UNL     1      16.143  -2.996  62.361  1.00  0.00     0.081 C 
ATOM     30  C   UNL     1      16.478  -3.643  61.051  1.00  0.00     0.156 C 
ATOM     31  O   UNL     1      16.708  -4.880  61.012  1.00  0.00    -0.295 OA
ENDBRANCH   9  11
ENDBRANCH   8   9
ENDBRANCH   1   8
TORSDOF 6
ENDMDL
MODEL 8
REMARK VINA RESULT:    -6.122      3.390      7.127
REMARK INTER + INTRA:         -11.001
REMARK INTER:                  -8.085
REMARK INTRA:                  -2.916
REMARK UNBOUND:                -2.733
REMARK SMILES CC[C@@H](CC[C@H](C)[C@@H]1CC[C@H]2[C@H]3CC(=O)C4=CC(=O)CC[C@@]4(C)[C@H]3CC[C@@]21C)C(C)C
REMARK SMILES IDX 4 1 3 2 2 3 1 4 29 5 30 6 31 7 5 8 6 9 7 10 8 11 9 12 27 13
REMARK SMILES IDX 10 14 11 15 26 16 28 17 12 18 25 19 24 20 13 21 22 22 14 23
REMARK SMILES IDX 16 24 21 25 23 26 15 27 17 28 20 29 18 30 19 31
REMARK H PARENT
REMARK Flexibility Score: inf
ROOT
ATOM      1  C   UNL     1      15.342  -0.514  58.947  1.00  0.00     0.004 C 
ENDROOT
BRANCH   1   2
ATOM      2  C   UNL     1      15.560  -1.187  60.333  1.00  0.00    -0.009 C 
BRANCH   2   3
ATOM      3  C   UNL     1      15.684  -0.100  61.443  1.00  0.00     0.000 C 
ATOM      4  C   UNL     1      14.506   0.870  61.517  1.00  0.00     0.004 C 
ENDBRANCH   2   3
BRANCH   2   5
ATOM      5  C   UNL     1      16.764  -2.194  60.251  1.00  0.00    -0.014 C 
ATOM      6  C   UNL     1      17.904  -1.882  61.232  1.00  0.00     0.007 C 
ATOM      7  C   UNL     1      16.335  -3.667  60.359  1.00  0.00     0.007 C 
ENDBRANCH   2   5
ENDBRANCH   1   2
BRANCH   1   8
ATOM      8  C   UNL     1      16.339  -0.991  57.865  1.00  0.00     0.004 C 
BRANCH   8   9
ATOM      9  C   UNL     1      16.756   0.123  56.853  1.00  0.00    -0.011 C 
ATOM     10  C   UNL     1      16.852  -0.499  55.436  1.00  0.00     0.008 C 
BRANCH   9  11
ATOM     11  C   UNL     1      18.076   0.879  57.264  1.00  0.00    -0.002 C 
ATOM     12  C   UNL     1      19.110  -0.051  57.978  1.00  0.00     0.005 C 
ATOM     13  C   UNL     1      17.945   2.134  58.218  1.00  0.00    -0.026 C 
ATOM     14  C   UNL     1      19.576   0.656  59.248  1.00  0.00     0.005 C 
ATOM     15  C   UNL     1      18.407   1.562  59.565  1.00  0.00    -0.001 C 
ATOM     16  C   UNL     1      16.542   2.740  58.464  1.00  0.00     0.007 C 
ATOM     17  C   UNL     1      18.875   3.242  57.642  1.00  0.00     0.012 C 
ATOM     18  C   UNL     1      18.525   2.563  60.741  1.00  0.00     0.004 C 
ATOM     19  C   UNL     1      16.538   3.795  59.597  1.00  0.00     0.005 C 
ATOM     20  C   UNL     1      17.155   3.302  60.948  1.00  0.00     0.003 C 
ATOM     21  C   UNL     1      19.788   3.478  60.727  1.00  0.00     0.085 C 
ATOM     22  C   UNL     1      17.263   4.435  62.042  1.00  0.00    -0.000 C 
ATOM     23  C   UNL     1      19.505   4.948  60.862  1.00  0.00     0.159 C 
ATOM     24  C   UNL     1      18.338   5.434  61.635  1.00  0.00     0.005 C 
ATOM     25  C   UNL     1      15.893   5.169  62.222  1.00  0.00     0.020 C 
ATOM     26  C   UNL     1      17.666   3.807  63.405  1.00  0.00     0.017 C 
ATOM     27  O   UNL     1      20.315   5.769  60.349  1.00  0.00    -0.295 OA
ATOM     28  C   UNL     1      18.280   6.720  62.033  1.00  0.00     0.055 C 
ATOM     29  C   UNL     1      15.978   6.373  63.169  1.00  0.00     0.081 C 
ATOM     30  C   UNL     1      17.145   7.246  62.815  1.00  0.00     0.156 C 
ATOM     31  O   UNL     1      17.172   8.438  63.216  1.00  0.00    -0.295 OA
ENDBRANCH   9  11
ENDBRANCH   8   9
ENDBRANCH   1   8
TORSDOF 6
ENDMDL
MODEL 9
REMARK VINA RESULT:    -6.099      2.534      5.505
REMARK INTER + INTRA:         -10.971
REMARK INTER:                  -7.804
REMARK INTRA:                  -3.166
REMARK UNBOUND:                -2.733
REMARK SMILES CC[C@@H](CC[C@H](C)[C@@H]1CC[C@H]2[C@H]3CC(=O)C4=CC(=O)CC[C@@]4(C)[C@H]3CC[C@@]21C)C(C)C
REMARK SMILES IDX 4 1 3 2 2 3 1 4 29 5 30 6 31 7 5 8 6 9 7 10 8 11 9 12 27 13
REMARK SMILES IDX 10 14 11 15 26 16 28 17 12 18 25 19 24 20 13 21 22 22 14 23
REMARK SMILES IDX 16 24 21 25 23 26 15 27 17 28 20 29 18 30 19 31
REMARK H PARENT
REMARK Flexibility Score: inf
ROOT
ATOM      1  C   UNL     1      17.690   6.583  60.932  1.00  0.00     0.004 C 
ENDROOT
BRANCH   1   2
ATOM      2  C   UNL     1      16.348   5.938  61.383  1.00  0.00    -0.009 C 
BRANCH   2   3
ATOM      3  C   UNL     1      15.255   7.035  61.549  1.00  0.00     0.000 C 
ATOM      4  C   UNL     1      14.082   6.916  60.577  1.00  0.00     0.004 C 
ENDBRANCH   2   3
BRANCH   2   5
ATOM      5  C   UNL     1      16.591   5.043  62.652  1.00  0.00    -0.014 C 
ATOM      6  C   UNL     1      15.449   4.057  62.946  1.00  0.00     0.007 C 
ATOM      7  C   UNL     1      17.949   4.321  62.638  1.00  0.00     0.007 C 
ENDBRANCH   2   5
ENDBRANCH   1   2
BRANCH   1   8
ATOM      8  C   UNL     1      17.632   7.211  59.520  1.00  0.00     0.004 C 
BRANCH   8   9
ATOM      9  C   UNL     1      18.443   6.425  58.442  1.00  0.00    -0.011 C 
ATOM     10  C   UNL     1      19.238   7.437  57.577  1.00  0.00     0.008 C 
BRANCH   9  11
ATOM     11  C   UNL     1      17.554   5.461  57.569  1.00  0.00    -0.002 C 
ATOM     12  C   UNL     1      16.087   5.972  57.406  1.00  0.00     0.005 C 
ATOM     13  C   UNL     1      17.402   3.960  58.044  1.00  0.00    -0.026 C 
ATOM     14  C   UNL     1      15.149   4.811  57.728  1.00  0.00     0.005 C 
ATOM     15  C   UNL     1      15.991   3.956  58.647  1.00  0.00    -0.001 C 
ATOM     16  C   UNL     1      18.347   3.428  59.149  1.00  0.00     0.007 C 
ATOM     17  C   UNL     1      17.558   3.065  56.779  1.00  0.00     0.012 C 
ATOM     18  C   UNL     1      15.441   2.587  59.120  1.00  0.00     0.004 C 
ATOM     19  C   UNL     1      17.923   2.036  59.677  1.00  0.00     0.005 C 
ATOM     20  C   UNL     1      16.434   1.944  60.151  1.00  0.00     0.003 C 
ATOM     21  C   UNL     1      14.932   1.637  57.993  1.00  0.00     0.085 C 
ATOM     22  C   UNL     1      15.991   0.484  60.556  1.00  0.00    -0.000 C 
ATOM     23  C   UNL     1      15.510   0.250  58.027  1.00  0.00     0.159 C 
ATOM     24  C   UNL     1      15.902  -0.384  59.308  1.00  0.00     0.005 C 
ATOM     25  C   UNL     1      17.002  -0.145  61.571  1.00  0.00     0.020 C 
ATOM     26  C   UNL     1      14.589   0.532  61.224  1.00  0.00     0.017 C 
ATOM     27  O   UNL     1      15.606  -0.392  56.944  1.00  0.00    -0.295 OA
ATOM     28  C   UNL     1      16.092  -1.716  59.371  1.00  0.00     0.055 C 
ATOM     29  C   UNL     1      16.697  -1.615  61.888  1.00  0.00     0.081 C 
ATOM     30  C   UNL     1      16.469  -2.393  60.627  1.00  0.00     0.156 C 
ATOM     31  O   UNL     1      16.572  -3.647  60.645  1.00  0.00    -0.295 OA
ENDBRANCH   9  11
ENDBRANCH   8   9
ENDBRANCH   1   8
TORSDOF 6
ENDMDL
