MODEL 1
REMARK VINA RESULT:    -4.117      0.000      0.000
REMARK INTER + INTRA:          -6.203
REMARK INTER:                  -5.922
REMARK INTRA:                  -0.280
REMARK UNBOUND:                -0.280
REMARK SMILES CCCCCCCCCO
REMARK SMILES IDX 6 1 5 2 4 3 3 4 2 5 1 6 7 7 8 8 9 9 10 10
REMARK H PARENT 10 11
REMARK Flexibility Score: inf
ROOT
ATOM      1  C   UNL     1     116.993 117.054 116.401  1.00  0.00     0.000 C 
ENDROOT
BRANCH   1   2
ATOM      2  C   UNL     1     116.744 116.109 115.219  1.00  0.00     0.000 C 
BRANCH   2   3
ATOM      3  C   UNL     1     116.274 116.889 113.981  1.00  0.00    -0.000 C 
BRANCH   3   4
ATOM      4  C   UNL     1     116.343 116.053 112.692  1.00  0.00    -0.000 C 
BRANCH   4   5
ATOM      5  C   UNL     1     117.470 116.506 111.754  1.00  0.00    -0.003 C 
ATOM      6  C   UNL     1     117.586 118.028 111.728  1.00  0.00     0.004 C 
ENDBRANCH   4   5
ENDBRANCH   3   4
ENDBRANCH   2   3
ENDBRANCH   1   2
BRANCH   1   7
ATOM      7  C   UNL     1     115.781 117.087 117.343  1.00  0.00     0.002 C 
BRANCH   7   8
ATOM      8  C   UNL     1     115.078 115.724 117.466  1.00  0.00     0.028 C 
BRANCH   8   9
ATOM      9  C   UNL     1     113.718 115.799 118.170  1.00  0.00     0.156 C 
BRANCH   9  10
ATOM     10  O   UNL     1     112.826 114.878 117.605  1.00  0.00    -0.396 OA
ATOM     11  H   UNL     1     112.638 114.209 118.314  1.00  0.00     0.210 HD
ENDBRANCH   9  10
ENDBRANCH   8   9
ENDBRANCH   7   8
ENDBRANCH   1   7
TORSDOF 8
ENDMDL
MODEL 2
REMARK VINA RESULT:    -4.055      3.141      3.833
REMARK INTER + INTRA:          -6.114
REMARK INTER:                  -5.867
REMARK INTRA:                  -0.247
REMARK UNBOUND:                -0.280
REMARK SMILES CCCCCCCCCO
REMARK SMILES IDX 6 1 5 2 4 3 3 4 2 5 1 6 7 7 8 8 9 9 10 10
REMARK H PARENT 10 11
REMARK Flexibility Score: inf
ROOT
ATOM      1  C   UNL     1     116.881 115.827 116.589  1.00  0.00     0.000 C 
ENDROOT
BRANCH   1   2
ATOM      2  C   UNL     1     116.971 116.929 115.527  1.00  0.00     0.000 C 
BRANCH   2   3
ATOM      3  C   UNL     1     116.298 116.488 114.218  1.00  0.00    -0.000 C 
BRANCH   3   4
ATOM      4  C   UNL     1     117.066 116.952 112.971  1.00  0.00    -0.000 C 
BRANCH   4   5
ATOM      5  C   UNL     1     116.989 115.941 111.818  1.00  0.00    -0.003 C 
ATOM      6  C   UNL     1     115.625 115.256 111.779  1.00  0.00     0.004 C 
ENDBRANCH   4   5
ENDBRANCH   3   4
ENDBRANCH   2   3
ENDBRANCH   1   2
BRANCH   1   7
ATOM      7  C   UNL     1     117.735 116.176 117.817  1.00  0.00     0.002 C 
BRANCH   7   8
ATOM      8  C   UNL     1     118.285 117.612 117.778  1.00  0.00     0.028 C 
BRANCH   8   9
ATOM      9  C   UNL     1     119.726 117.729 118.291  1.00  0.00     0.156 C 
BRANCH   9  10
ATOM     10  O   UNL     1     120.454 118.622 117.495  1.00  0.00    -0.396 OA
ATOM     11  H   UNL     1     121.030 118.063 116.911  1.00  0.00     0.210 HD
ENDBRANCH   9  10
ENDBRANCH   8   9
ENDBRANCH   7   8
ENDBRANCH   1   7
TORSDOF 8
ENDMDL
MODEL 3
REMARK VINA RESULT:    -4.033      2.256      2.507
REMARK INTER + INTRA:          -6.082
REMARK INTER:                  -5.864
REMARK INTRA:                  -0.218
REMARK UNBOUND:                -0.280
REMARK SMILES CCCCCCCCCO
REMARK SMILES IDX 6 1 5 2 4 3 3 4 2 5 1 6 7 7 8 8 9 9 10 10
REMARK H PARENT 10 11
REMARK Flexibility Score: inf
ROOT
ATOM      1  C   UNL     1     117.067 116.592 116.159  1.00  0.00     0.000 C 
ENDROOT
BRANCH   1   2
ATOM      2  C   UNL     1     116.286 116.879 114.870  1.00  0.00     0.000 C 
BRANCH   2   3
ATOM      3  C   UNL     1     117.040 116.348 113.641  1.00  0.00    -0.000 C 
BRANCH   3   4
ATOM      4  C   UNL     1     116.099 115.952 112.493  1.00  0.00    -0.000 C 
BRANCH   4   5
ATOM      5  C   UNL     1     115.633 117.158 111.666  1.00  0.00    -0.003 C 
ATOM      6  C   UNL     1     116.782 118.134 111.425  1.00  0.00     0.004 C 
ENDBRANCH   4   5
ENDBRANCH   3   4
ENDBRANCH   2   3
ENDBRANCH   1   2
BRANCH   1   7
ATOM      7  C   UNL     1     116.191 115.852 117.179  1.00  0.00     0.002 C 
BRANCH   7   8
ATOM      8  C   UNL     1     117.009 115.158 118.283  1.00  0.00     0.028 C 
BRANCH   8   9
ATOM      9  C   UNL     1     118.053 114.174 117.743  1.00  0.00     0.156 C 
BRANCH   9  10
ATOM     10  O   UNL     1     117.689 112.858 118.057  1.00  0.00    -0.396 OA
ATOM     11  H   UNL     1     118.333 112.273 117.579  1.00  0.00     0.210 HD
ENDBRANCH   9  10
ENDBRANCH   8   9
ENDBRANCH   7   8
ENDBRANCH   1   7
TORSDOF 8
ENDMDL
MODEL 4
REMARK VINA RESULT:    -4.032      2.370      2.791
REMARK INTER + INTRA:          -6.080
REMARK INTER:                  -5.847
REMARK INTRA:                  -0.233
REMARK UNBOUND:                -0.280
REMARK SMILES CCCCCCCCCO
REMARK SMILES IDX 6 1 5 2 4 3 3 4 2 5 1 6 7 7 8 8 9 9 10 10
REMARK H PARENT 10 11
REMARK Flexibility Score: inf
ROOT
ATOM      1  C   UNL     1     116.108 116.359 116.286  1.00  0.00     0.000 C 
ENDROOT
BRANCH   1   2
ATOM      2  C   UNL     1     116.977 116.316 115.023  1.00  0.00     0.000 C 
BRANCH   2   3
ATOM      3  C   UNL     1     116.250 116.963 113.834  1.00  0.00    -0.000 C 
BRANCH   3   4
ATOM      4  C   UNL     1     117.133 117.057 112.579  1.00  0.00    -0.000 C 
BRANCH   4   5
ATOM      5  C   UNL     1     116.461 116.455 111.337  1.00  0.00    -0.003 C 
ATOM      6  C   UNL     1     115.600 115.250 111.708  1.00  0.00     0.004 C 
ENDBRANCH   4   5
ENDBRANCH   3   4
ENDBRANCH   2   3
ENDBRANCH   1   2
BRANCH   1   7
ATOM      7  C   UNL     1     116.435 117.594 117.137  1.00  0.00     0.002 C 
BRANCH   7   8
ATOM      8  C   UNL     1     115.222 118.118 117.926  1.00  0.00     0.028 C 
BRANCH   8   9
ATOM      9  C   UNL     1     114.967 119.617 117.733  1.00  0.00     0.156 C 
BRANCH   9  10
ATOM     10  O   UNL     1     115.600 120.353 118.743  1.00  0.00    -0.396 OA
ATOM     11  H   UNL     1     115.910 121.195 118.318  1.00  0.00     0.210 HD
ENDBRANCH   9  10
ENDBRANCH   8   9
ENDBRANCH   7   8
ENDBRANCH   1   7
TORSDOF 8
ENDMDL
MODEL 5
REMARK VINA RESULT:    -3.990      2.951      5.264
REMARK INTER + INTRA:          -6.020
REMARK INTER:                  -5.691
REMARK INTRA:                  -0.329
REMARK UNBOUND:                -0.280
REMARK SMILES CCCCCCCCCO
REMARK SMILES IDX 6 1 5 2 4 3 3 4 2 5 1 6 7 7 8 8 9 9 10 10
REMARK H PARENT 10 11
REMARK Flexibility Score: inf
ROOT
ATOM      1  C   UNL     1     116.307 116.979 114.815  1.00  0.00     0.000 C 
ENDROOT
BRANCH   1   2
ATOM      2  C   UNL     1     116.641 116.230 116.110  1.00  0.00     0.000 C 
BRANCH   2   3
ATOM      3  C   UNL     1     116.142 117.006 117.339  1.00  0.00    -0.000 C 
BRANCH   3   4
ATOM      4  C   UNL     1     117.215 117.936 117.928  1.00  0.00    -0.000 C 
BRANCH   4   5
ATOM      5  C   UNL     1     118.614 117.303 117.923  1.00  0.00    -0.003 C 
ATOM      6  C   UNL     1     119.687 118.348 117.630  1.00  0.00     0.004 C 
ENDBRANCH   4   5
ENDBRANCH   3   4
ENDBRANCH   2   3
ENDBRANCH   1   2
BRANCH   1   7
ATOM      7  C   UNL     1     116.990 116.322 113.607  1.00  0.00     0.002 C 
BRANCH   7   8
ATOM      8  C   UNL     1     116.020 116.043 112.446  1.00  0.00     0.028 C 
BRANCH   8   9
ATOM      9  C   UNL     1     115.480 117.316 111.782  1.00  0.00     0.156 C 
BRANCH   9  10
ATOM     10  O   UNL     1     116.535 118.176 111.448  1.00  0.00    -0.396 OA
ATOM     11  H   UNL     1     117.086 118.266 112.269  1.00  0.00     0.210 HD
ENDBRANCH   9  10
ENDBRANCH   8   9
ENDBRANCH   7   8
ENDBRANCH   1   7
TORSDOF 8
ENDMDL
MODEL 6
REMARK VINA RESULT:    -3.981      2.742      5.427
REMARK INTER + INTRA:          -6.006
REMARK INTER:                  -5.688
REMARK INTRA:                  -0.319
REMARK UNBOUND:                -0.280
REMARK SMILES CCCCCCCCCO
REMARK SMILES IDX 6 1 5 2 4 3 3 4 2 5 1 6 7 7 8 8 9 9 10 10
REMARK H PARENT 10 11
REMARK Flexibility Score: inf
ROOT
ATOM      1  C   UNL     1     116.296 116.276 114.661  1.00  0.00     0.000 C 
ENDROOT
BRANCH   1   2
ATOM      2  C   UNL     1     116.748 116.811 116.026  1.00  0.00     0.000 C 
BRANCH   2   3
ATOM      3  C   UNL     1     115.763 116.399 117.131  1.00  0.00    -0.000 C 
BRANCH   3   4
ATOM      4  C   UNL     1     116.285 115.234 117.986  1.00  0.00    -0.000 C 
BRANCH   4   5
ATOM      5  C   UNL     1     117.809 115.074 117.901  1.00  0.00    -0.003 C 
ATOM      6  C   UNL     1     118.196 113.616 117.666  1.00  0.00     0.004 C 
ENDBRANCH   4   5
ENDBRANCH   3   4
ENDBRANCH   2   3
ENDBRANCH   1   2
BRANCH   1   7
ATOM      7  C   UNL     1     117.019 117.005 113.519  1.00  0.00     0.002 C 
BRANCH   7   8
ATOM      8  C   UNL     1     117.252 116.110 112.289  1.00  0.00     0.028 C 
BRANCH   8   9
ATOM      9  C   UNL     1     116.495 116.578 111.040  1.00  0.00     0.156 C 
BRANCH   9  10
ATOM     10  O   UNL     1     115.128 116.706 111.320  1.00  0.00    -0.396 OA
ATOM     11  H   UNL     1     114.899 115.952 111.925  1.00  0.00     0.210 HD
ENDBRANCH   9  10
ENDBRANCH   8   9
ENDBRANCH   7   8
ENDBRANCH   1   7
TORSDOF 8
ENDMDL
MODEL 7
REMARK VINA RESULT:    -3.968      2.862      5.551
REMARK INTER + INTRA:          -5.988
REMARK INTER:                  -5.695
REMARK INTRA:                  -0.293
REMARK UNBOUND:                -0.280
REMARK SMILES CCCCCCCCCO
REMARK SMILES IDX 6 1 5 2 4 3 3 4 2 5 1 6 7 7 8 8 9 9 10 10
REMARK H PARENT 10 11
REMARK Flexibility Score: inf
ROOT
ATOM      1  C   UNL     1     116.921 116.209 114.794  1.00  0.00     0.000 C 
ENDROOT
BRANCH   1   2
ATOM      2  C   UNL     1     116.767 117.002 116.098  1.00  0.00     0.000 C 
BRANCH   2   3
ATOM      3  C   UNL     1     115.689 116.376 116.998  1.00  0.00    -0.000 C 
BRANCH   3   4
ATOM      4  C   UNL     1     115.116 117.373 118.017  1.00  0.00    -0.000 C 
BRANCH   4   5
ATOM      5  C   UNL     1     115.460 118.830 117.678  1.00  0.00    -0.003 C 
ATOM      6  C   UNL     1     114.268 119.749 117.932  1.00  0.00     0.004 C 
ENDBRANCH   4   5
ENDBRANCH   3   4
ENDBRANCH   2   3
ENDBRANCH   1   2
BRANCH   1   7
ATOM      7  C   UNL     1     116.206 116.915 113.633  1.00  0.00     0.002 C 
BRANCH   7   8
ATOM      8  C   UNL     1     116.049 116.021 112.391  1.00  0.00     0.028 C 
BRANCH   8   9
ATOM      9  C   UNL     1     116.548 116.678 111.098  1.00  0.00     0.156 C 
BRANCH   9  10
ATOM     10  O   UNL     1     116.785 118.043 111.306  1.00  0.00    -0.396 OA
ATOM     11  H   UNL     1     117.694 118.107 111.701  1.00  0.00     0.210 HD
ENDBRANCH   9  10
ENDBRANCH   8   9
ENDBRANCH   7   8
ENDBRANCH   1   7
TORSDOF 8
ENDMDL
MODEL 8
REMARK VINA RESULT:    -3.930      2.344      5.617
REMARK INTER + INTRA:          -5.933
REMARK INTER:                  -5.685
REMARK INTRA:                  -0.248
REMARK UNBOUND:                -0.280
REMARK SMILES CCCCCCCCCO
REMARK SMILES IDX 6 1 5 2 4 3 3 4 2 5 1 6 7 7 8 8 9 9 10 10
REMARK H PARENT 10 11
REMARK Flexibility Score: inf
ROOT
ATOM      1  C   UNL     1     116.283 116.268 114.957  1.00  0.00     0.000 C 
ENDROOT
BRANCH   1   2
ATOM      2  C   UNL     1     116.810 116.984 116.207  1.00  0.00     0.000 C 
BRANCH   2   3
ATOM      3  C   UNL     1     115.785 116.921 117.349  1.00  0.00    -0.000 C 
BRANCH   3   4
ATOM      4  C   UNL     1     115.331 115.486 117.661  1.00  0.00    -0.000 C 
BRANCH   4   5
ATOM      5  C   UNL     1     113.803 115.345 117.707  1.00  0.00    -0.003 C 
ATOM      6  C   UNL     1     113.394 113.926 118.093  1.00  0.00     0.004 C 
ENDBRANCH   4   5
ENDBRANCH   3   4
ENDBRANCH   2   3
ENDBRANCH   1   2
BRANCH   1   7
ATOM      7  C   UNL     1     116.660 117.038 113.683  1.00  0.00     0.002 C 
BRANCH   7   8
ATOM      8  C   UNL     1     117.147 116.121 112.548  1.00  0.00     0.028 C 
BRANCH   8   9
ATOM      9  C   UNL     1     116.504 116.432 111.191  1.00  0.00     0.156 C 
BRANCH   9  10
ATOM     10  O   UNL     1     115.161 116.792 111.361  1.00  0.00    -0.396 OA
ATOM     11  H   UNL     1     115.168 117.714 111.730  1.00  0.00     0.210 HD
ENDBRANCH   9  10
ENDBRANCH   8   9
ENDBRANCH   7   8
ENDBRANCH   1   7
TORSDOF 8
ENDMDL
MODEL 9
REMARK VINA RESULT:    -3.867      2.938      3.515
REMARK INTER + INTRA:          -5.843
REMARK INTER:                  -5.585
REMARK INTRA:                  -0.257
REMARK UNBOUND:                -0.280
REMARK SMILES CCCCCCCCCO
REMARK SMILES IDX 6 1 5 2 4 3 3 4 2 5 1 6 7 7 8 8 9 9 10 10
REMARK H PARENT 10 11
REMARK Flexibility Score: inf
ROOT
ATOM      1  C   UNL     1     115.955 118.069 117.712  1.00  0.00     0.000 C 
ENDROOT
BRANCH   1   2
ATOM      2  C   UNL     1     116.098 116.541 117.702  1.00  0.00     0.000 C 
BRANCH   2   3
ATOM      3  C   UNL     1     116.789 116.062 116.416  1.00  0.00    -0.000 C 
BRANCH   3   4
ATOM      4  C   UNL     1     116.551 117.007 115.227  1.00  0.00    -0.000 C 
BRANCH   4   5
ATOM      5  C   UNL     1     116.312 116.254 113.911  1.00  0.00    -0.003 C 
ATOM      6  C   UNL     1     116.951 116.988 112.735  1.00  0.00     0.004 C 
ENDBRANCH   4   5
ENDBRANCH   3   4
ENDBRANCH   2   3
ENDBRANCH   1   2
BRANCH   1   7
ATOM      7  C   UNL     1     114.540 118.486 118.137  1.00  0.00     0.002 C 
BRANCH   7   8
ATOM      8  C   UNL     1     114.197 119.933 117.745  1.00  0.00     0.028 C 
BRANCH   8   9
ATOM      9  C   UNL     1     112.729 120.303 117.995  1.00  0.00     0.156 C 
BRANCH   9  10
ATOM     10  O   UNL     1     112.634 121.612 118.486  1.00  0.00    -0.396 OA
ATOM     11  H   UNL     1     112.428 122.185 117.702  1.00  0.00     0.210 HD
ENDBRANCH   9  10
ENDBRANCH   8   9
ENDBRANCH   7   8
ENDBRANCH   1   7
TORSDOF 8
ENDMDL
