MODEL 1
REMARK VINA RESULT:    -4.029      0.000      0.000
REMARK INTER + INTRA:          -5.260
REMARK INTER:                  -4.971
REMARK INTRA:                  -0.289
REMARK UNBOUND:                -0.289
REMARK SMILES C=CC[C@@H](C)C(=O)CC
REMARK SMILES IDX 4 1 5 2 6 3 7 4 8 5 9 6 3 7 2 8 1 9
REMARK H PARENT
REMARK Flexibility Score: inf
ROOT
ATOM      1  C   UNL     1      19.052  -9.489  67.875  1.00  0.00     0.057 C 
ATOM      2  C   UNL     1      17.671  -9.924  67.362  1.00  0.00     0.016 C 
ENDROOT
BRANCH   1   3
ATOM      3  C   UNL     1      19.425 -10.299  69.098  1.00  0.00     0.135 C 
ATOM      4  O   UNL     1      19.676  -9.728  70.150  1.00  0.00    -0.299 OA
BRANCH   3   5
ATOM      5  C   UNL     1      19.497 -11.804  69.044  1.00  0.00     0.072 C 
ATOM      6  C   UNL     1      20.897 -12.290  69.403  1.00  0.00     0.012 C 
ENDBRANCH   3   5
ENDBRANCH   1   3
BRANCH   1   7
ATOM      7  C   UNL     1      20.138  -9.644  66.790  1.00  0.00     0.038 C 
BRANCH   7   8
ATOM      8  C   UNL     1      19.575 -10.125  65.478  1.00  0.00    -0.034 C 
ATOM      9  C   UNL     1      20.071  -9.716  64.308  1.00  0.00     0.004 C 
ENDBRANCH   7   8
ENDBRANCH   1   7
TORSDOF 4
ENDMDL
MODEL 2
REMARK VINA RESULT:    -3.907      1.287      2.302
REMARK INTER + INTRA:          -5.110
REMARK INTER:                  -4.734
REMARK INTRA:                  -0.376
REMARK UNBOUND:                -0.289
REMARK SMILES C=CC[C@@H](C)C(=O)CC
REMARK SMILES IDX 4 1 5 2 6 3 7 4 8 5 9 6 3 7 2 8 1 9
REMARK H PARENT
REMARK Flexibility Score: inf
ROOT
ATOM      1  C   UNL     1      19.641 -10.682  67.688  1.00  0.00     0.057 C 
ATOM      2  C   UNL     1      20.858 -10.174  66.900  1.00  0.00     0.016 C 
ENDROOT
BRANCH   1   3
ATOM      3  C   UNL     1      20.053 -11.034  69.101  1.00  0.00     0.135 C 
ATOM      4  O   UNL     1      19.866 -10.232  70.005  1.00  0.00    -0.299 OA
BRANCH   3   5
ATOM      5  C   UNL     1      20.696 -12.360  69.418  1.00  0.00     0.072 C 
ATOM      6  C   UNL     1      20.232 -13.432  68.438  1.00  0.00     0.012 C 
ENDBRANCH   3   5
ENDBRANCH   1   3
BRANCH   1   7
ATOM      7  C   UNL     1      18.505  -9.639  67.716  1.00  0.00     0.038 C 
BRANCH   7   8
ATOM      8  C   UNL     1      17.240 -10.149  67.075  1.00  0.00    -0.034 C 
ATOM      9  C   UNL     1      17.071 -11.442  66.786  1.00  0.00     0.004 C 
ENDBRANCH   7   8
ENDBRANCH   1   7
TORSDOF 4
ENDMDL
MODEL 3
REMARK VINA RESULT:    -3.802      1.391      3.141
REMARK INTER + INTRA:          -4.980
REMARK INTER:                  -4.531
REMARK INTRA:                  -0.449
REMARK UNBOUND:                -0.289
REMARK SMILES C=CC[C@@H](C)C(=O)CC
REMARK SMILES IDX 4 1 5 2 6 3 7 4 8 5 9 6 3 7 2 8 1 9
REMARK H PARENT
REMARK Flexibility Score: inf
ROOT
ATOM      1  C   UNL     1      19.491 -11.716  69.256  1.00  0.00     0.057 C 
ATOM      2  C   UNL     1      20.914 -12.161  68.885  1.00  0.00     0.016 C 
ENDROOT
BRANCH   1   3
ATOM      3  C   UNL     1      19.387 -10.208  69.175  1.00  0.00     0.135 C 
ATOM      4  O   UNL     1      19.776  -9.523  70.110  1.00  0.00    -0.299 OA
BRANCH   3   5
ATOM      5  C   UNL     1      18.806  -9.531  67.961  1.00  0.00     0.072 C 
ATOM      6  C   UNL     1      19.880  -9.311  66.901  1.00  0.00     0.012 C 
ENDBRANCH   3   5
ENDBRANCH   1   3
BRANCH   1   7
ATOM      7  C   UNL     1      18.433 -12.366  68.340  1.00  0.00     0.038 C 
BRANCH   7   8
ATOM      8  C   UNL     1      19.053 -13.160  67.220  1.00  0.00    -0.034 C 
ATOM      9  C   UNL     1      18.655 -13.019  65.953  1.00  0.00     0.004 C 
ENDBRANCH   7   8
ENDBRANCH   1   7
TORSDOF 4
ENDMDL
MODEL 4
REMARK VINA RESULT:    -3.707      1.744      2.214
REMARK INTER + INTRA:          -4.863
REMARK INTER:                  -4.368
REMARK INTRA:                  -0.495
REMARK UNBOUND:                -0.289
REMARK SMILES C=CC[C@@H](C)C(=O)CC
REMARK SMILES IDX 4 1 5 2 6 3 7 4 8 5 9 6 3 7 2 8 1 9
REMARK H PARENT
REMARK Flexibility Score: inf
ROOT
ATOM      1  C   UNL     1      18.243 -11.180  67.078  1.00  0.00     0.057 C 
ATOM      2  C   UNL     1      16.715 -11.220  66.927  1.00  0.00     0.016 C 
ENDROOT
BRANCH   1   3
ATOM      3  C   UNL     1      18.658 -11.940  68.319  1.00  0.00     0.135 C 
ATOM      4  O   UNL     1      18.104 -12.995  68.597  1.00  0.00    -0.299 OA
BRANCH   3   5
ATOM      5  C   UNL     1      19.743 -11.420  69.226  1.00  0.00     0.072 C 
ATOM      6  C   UNL     1      19.560  -9.929  69.486  1.00  0.00     0.012 C 
ENDBRANCH   3   5
ENDBRANCH   1   3
BRANCH   1   7
ATOM      7  C   UNL     1      18.954 -11.766  65.840  1.00  0.00     0.038 C 
BRANCH   7   8
ATOM      8  C   UNL     1      20.157 -10.956  65.432  1.00  0.00    -0.034 C 
ATOM      9  C   UNL     1      20.306  -9.682  65.804  1.00  0.00     0.004 C 
ENDBRANCH   7   8
ENDBRANCH   1   7
TORSDOF 4
ENDMDL
MODEL 5
REMARK VINA RESULT:    -3.677      3.053      4.723
REMARK INTER + INTRA:          -4.826
REMARK INTER:                  -4.393
REMARK INTRA:                  -0.433
REMARK UNBOUND:                -0.289
REMARK SMILES C=CC[C@@H](C)C(=O)CC
REMARK SMILES IDX 4 1 5 2 6 3 7 4 8 5 9 6 3 7 2 8 1 9
REMARK H PARENT
REMARK Flexibility Score: inf
ROOT
ATOM      1  C   UNL     1      18.244 -11.471  65.602  1.00  0.00     0.057 C 
ATOM      2  C   UNL     1      18.082 -12.998  65.568  1.00  0.00     0.016 C 
ENDROOT
BRANCH   1   3
ATOM      3  C   UNL     1      18.408 -10.939  64.194  1.00  0.00     0.135 C 
ATOM      4  O   UNL     1      17.993 -11.593  63.247  1.00  0.00    -0.299 OA
BRANCH   3   5
ATOM      5  C   UNL     1      19.079  -9.615  63.933  1.00  0.00     0.072 C 
ATOM      6  C   UNL     1      20.593  -9.742  64.068  1.00  0.00     0.012 C 
ENDBRANCH   3   5
ENDBRANCH   1   3
BRANCH   1   7
ATOM      7  C   UNL     1      17.043 -10.785  66.286  1.00  0.00     0.038 C 
BRANCH   7   8
ATOM      8  C   UNL     1      17.470  -9.815  67.357  1.00  0.00    -0.034 C 
ATOM      9  C   UNL     1      18.747  -9.690  67.725  1.00  0.00     0.004 C 
ENDBRANCH   7   8
ENDBRANCH   1   7
TORSDOF 4
ENDMDL
MODEL 6
REMARK VINA RESULT:    -3.642      1.155      2.639
REMARK INTER + INTRA:          -4.783
REMARK INTER:                  -4.331
REMARK INTRA:                  -0.452
REMARK UNBOUND:                -0.289
REMARK SMILES C=CC[C@@H](C)C(=O)CC
REMARK SMILES IDX 4 1 5 2 6 3 7 4 8 5 9 6 3 7 2 8 1 9
REMARK H PARENT
REMARK Flexibility Score: inf
ROOT
ATOM      1  C   UNL     1      20.227 -11.649  68.154  1.00  0.00     0.057 C 
ATOM      2  C   UNL     1      20.647 -12.669  69.223  1.00  0.00     0.016 C 
ENDROOT
BRANCH   1   3
ATOM      3  C   UNL     1      19.698 -10.396  68.817  1.00  0.00     0.135 C 
ATOM      4  O   UNL     1      19.934 -10.190  69.999  1.00  0.00    -0.299 OA
BRANCH   3   5
ATOM      5  C   UNL     1      18.878  -9.393  68.047  1.00  0.00     0.072 C 
ATOM      6  C   UNL     1      17.761 -10.089  67.275  1.00  0.00     0.012 C 
ENDBRANCH   3   5
ENDBRANCH   1   3
BRANCH   1   7
ATOM      7  C   UNL     1      21.400 -11.292  67.216  1.00  0.00     0.038 C 
BRANCH   7   8
ATOM      8  C   UNL     1      21.031 -11.422  65.761  1.00  0.00    -0.034 C 
ATOM      9  C   UNL     1      20.857 -10.352  64.981  1.00  0.00     0.004 C 
ENDBRANCH   7   8
ENDBRANCH   1   7
TORSDOF 4
ENDMDL
MODEL 7
REMARK VINA RESULT:    -3.562      2.212      2.956
REMARK INTER + INTRA:          -4.684
REMARK INTER:                  -4.255
REMARK INTRA:                  -0.429
REMARK UNBOUND:                -0.289
REMARK SMILES C=CC[C@@H](C)C(=O)CC
REMARK SMILES IDX 4 1 5 2 6 3 7 4 8 5 9 6 3 7 2 8 1 9
REMARK H PARENT
REMARK Flexibility Score: inf
ROOT
ATOM      1  C   UNL     1      19.014 -10.716  67.840  1.00  0.00     0.057 C 
ATOM      2  C   UNL     1      19.520 -10.134  69.169  1.00  0.00     0.016 C 
ENDROOT
BRANCH   1   3
ATOM      3  C   UNL     1      18.821 -12.211  67.974  1.00  0.00     0.135 C 
ATOM      4  O   UNL     1      18.020 -12.649  68.788  1.00  0.00    -0.299 OA
BRANCH   3   5
ATOM      5  C   UNL     1      19.603 -13.177  67.121  1.00  0.00     0.072 C 
ATOM      6  C   UNL     1      18.681 -13.909  66.152  1.00  0.00     0.012 C 
ENDBRANCH   3   5
ENDBRANCH   1   3
BRANCH   1   7
ATOM      7  C   UNL     1      17.693 -10.054  67.395  1.00  0.00     0.038 C 
BRANCH   7   8
ATOM      8  C   UNL     1      17.407 -10.271  65.931  1.00  0.00    -0.034 C 
ATOM      9  C   UNL     1      16.360 -10.990  65.519  1.00  0.00     0.004 C 
ENDBRANCH   7   8
ENDBRANCH   1   7
TORSDOF 4
ENDMDL
MODEL 8
REMARK VINA RESULT:    -3.549      1.894      3.059
REMARK INTER + INTRA:          -4.668
REMARK INTER:                  -4.373
REMARK INTRA:                  -0.295
REMARK UNBOUND:                -0.289
REMARK SMILES C=CC[C@@H](C)C(=O)CC
REMARK SMILES IDX 4 1 5 2 6 3 7 4 8 5 9 6 3 7 2 8 1 9
REMARK H PARENT
REMARK Flexibility Score: inf
ROOT
ATOM      1  C   UNL     1      17.615 -10.419  67.333  1.00  0.00     0.057 C 
ATOM      2  C   UNL     1      17.820 -11.919  67.593  1.00  0.00     0.016 C 
ENDROOT
BRANCH   1   3
ATOM      3  C   UNL     1      18.887  -9.663  67.648  1.00  0.00     0.135 C 
ATOM      4  O   UNL     1      19.116  -9.315  68.798  1.00  0.00    -0.299 OA
BRANCH   3   5
ATOM      5  C   UNL     1      19.882  -9.326  66.567  1.00  0.00     0.072 C 
ATOM      6  C   UNL     1      21.082 -10.265  66.627  1.00  0.00     0.012 C 
ENDBRANCH   3   5
ENDBRANCH   1   3
BRANCH   1   7
ATOM      7  C   UNL     1      17.189 -10.147  65.875  1.00  0.00     0.038 C 
BRANCH   7   8
ATOM      8  C   UNL     1      16.517 -11.337  65.240  1.00  0.00    -0.034 C 
ATOM      9  C   UNL     1      15.202 -11.362  65.010  1.00  0.00     0.004 C 
ENDBRANCH   7   8
ENDBRANCH   1   7
TORSDOF 4
ENDMDL
MODEL 9
REMARK VINA RESULT:    -3.546      2.188      2.591
REMARK INTER + INTRA:          -4.665
REMARK INTER:                  -4.157
REMARK INTRA:                  -0.508
REMARK UNBOUND:                -0.289
REMARK SMILES C=CC[C@@H](C)C(=O)CC
REMARK SMILES IDX 4 1 5 2 6 3 7 4 8 5 9 6 3 7 2 8 1 9
REMARK H PARENT
REMARK Flexibility Score: inf
ROOT
ATOM      1  C   UNL     1      17.604 -10.623  67.306  1.00  0.00     0.057 C 
ATOM      2  C   UNL     1      17.139 -10.334  65.871  1.00  0.00     0.016 C 
ENDROOT
BRANCH   1   3
ATOM      3  C   UNL     1      17.976 -12.083  67.443  1.00  0.00     0.135 C 
ATOM      4  O   UNL     1      18.025 -12.595  68.553  1.00  0.00    -0.299 OA
BRANCH   3   5
ATOM      5  C   UNL     1      18.292 -12.924  66.233  1.00  0.00     0.072 C 
ATOM      6  C   UNL     1      19.687 -13.529  66.346  1.00  0.00     0.012 C 
ENDBRANCH   3   5
ENDBRANCH   1   3
BRANCH   1   7
ATOM      7  C   UNL     1      18.802  -9.736  67.706  1.00  0.00     0.038 C 
BRANCH   7   8
ATOM      8  C   UNL     1      19.712  -9.440  66.542  1.00  0.00    -0.034 C 
ATOM      9  C   UNL     1      20.917 -10.004  66.431  1.00  0.00     0.004 C 
ENDBRANCH   7   8
ENDBRANCH   1   7
TORSDOF 4
ENDMDL
