MODEL 1
REMARK VINA RESULT:    -1.477      0.000      0.000
REMARK INTER + INTRA:          -1.189
REMARK INTER:                  -2.255
REMARK INTRA:                   1.066
REMARK UNBOUND:                 1.066
REMARK SMILES CC1=CCC[C@@H](C)C(=O)C[C@@H](C(C)C)C(=O)C1
REMARK SMILES IDX 8 1 9 2 6 3 7 4 5 5 4 6 3 7 2 8 1 9 10 11 11 12 15 13 16 14
REMARK SMILES IDX 17 15 12 17 13 18 14 19
REMARK H PARENT
REMARK Flexibility Score: 70.00
ROOT
ATOM      1  C   UNL     1       9.950   7.160   1.304  1.00  0.00     0.136 C 
ATOM      2  O   UNL     1      10.507   6.263   0.686  1.00  0.00    -0.299 OA
ENDROOT
BRANCH   1   3
ATOM      3  C   UNL     1       8.600   7.646   0.796  1.00  0.00     0.053 C 
ATOM      4  C   UNL     1       7.926   6.520  -0.000  1.00  0.00     0.016 C 
BRANCH   3   5
ATOM      5  C   UNL     1       8.746   8.910  -0.086  1.00  0.00     0.015 C 
BRANCH   5   6
ATOM      6  C   UNL     1      10.119   9.044  -0.765  1.00  0.00     0.028 C 
BRANCH   6   7
ATOM      7  C   UNL     1      10.751  10.388  -0.498  1.00  0.00    -0.028 C 
ATOM      8  C   UNL     1      12.048  10.601  -0.171  1.00  0.00    -0.070 CG0
ATOM      9  C   UNL     1      12.483  12.025   0.074  1.00  0.00     0.039 C 
ATOM     10  G   UNL     1      13.048   9.480   0.059  1.00  0.00     0.000 G0
ENDBRANCH   6   7
ENDBRANCH   5   6
ENDBRANCH   3   5
ENDBRANCH   1   3
BRANCH   1  11
ATOM     11  C   UNL     1      10.662   7.689   2.539  1.00  0.00     0.087 C 
BRANCH  11  12
ATOM     12  C   UNL     1      11.774   8.749   2.331  1.00  0.00     0.066 C 
BRANCH  12  13
ATOM     13  C   UNL     1      12.711   8.476   1.154  1.00  0.00     0.140 C 
ATOM     14  O   UNL     1      13.122   7.332   1.019  1.00  0.00    -0.299 OA
BRANCH  13  15
ATOM     15  C   UNL     1      13.059   9.470   0.062  1.00  0.00     0.106 CG0
ATOM     16  G   UNL     1      12.041  10.577  -0.155  1.00  0.00     0.000 G0
ENDBRANCH  13  15
ENDBRANCH  12  13
BRANCH  12  17
ATOM     17  C   UNL     1      12.587   9.065   3.632  1.00  0.00    -0.006 C 
ATOM     18  C   UNL     1      11.816   8.809   4.939  1.00  0.00     0.008 C 
ATOM     19  C   UNL     1      13.120  10.507   3.627  1.00  0.00     0.008 C 
ENDBRANCH  12  17
ENDBRANCH  11  12
ENDBRANCH   1  11
TORSDOF 1
ENDMDL
MODEL 2
REMARK VINA RESULT:    -0.913      1.854      3.875
REMARK INTER + INTRA:          -0.326
REMARK INTER:                  -2.197
REMARK INTRA:                   1.870
REMARK UNBOUND:                 1.066
REMARK SMILES CC1=CCC[C@@H](C)C(=O)C[C@@H](C(C)C)C(=O)C1
REMARK SMILES IDX 8 1 9 2 6 3 7 4 5 5 4 6 3 7 2 8 1 9 10 11 11 12 15 13 16 14
REMARK SMILES IDX 17 15 12 17 13 18 14 19
REMARK H PARENT
REMARK Flexibility Score: 70.00
ROOT
ATOM      1  C   UNL     1      12.578   6.592   0.192  1.00  0.00     0.136 C 
ATOM      2  O   UNL     1      12.768   5.408  -0.049  1.00  0.00    -0.299 OA
ENDROOT
BRANCH   1   3
ATOM      3  C   UNL     1      12.989   7.118   1.561  1.00  0.00     0.053 C 
ATOM      4  C   UNL     1      11.954   6.675   2.603  1.00  0.00     0.016 C 
BRANCH   3   5
ATOM      5  C   UNL     1      13.121   8.661   1.560  1.00  0.00     0.015 C 
BRANCH   5   6
ATOM      6  C   UNL     1      12.863   9.310   2.931  1.00  0.00     0.028 C 
BRANCH   6   7
ATOM      7  C   UNL     1      11.766  10.344   2.867  1.00  0.00    -0.028 C 
ATOM      8  C   UNL     1      11.168  10.792   1.737  1.00  0.00    -0.070 CG0
ATOM      9  C   UNL     1      10.098  11.847   1.883  1.00  0.00     0.039 C 
ATOM     10  G   UNL     1      11.589  10.365   0.341  1.00  0.00     0.000 G0
ENDBRANCH   6   7
ENDBRANCH   5   6
ENDBRANCH   3   5
ENDBRANCH   1   3
BRANCH   1  11
ATOM     11  C   UNL     1      11.962   7.429  -0.917  1.00  0.00     0.087 C 
BRANCH  11  12
ATOM     12  C   UNL     1      10.569   8.058  -0.656  1.00  0.00     0.066 C 
BRANCH  12  13
ATOM     13  C   UNL     1      10.572   9.575  -0.469  1.00  0.00     0.140 C 
ATOM     14  O   UNL     1       9.613  10.196  -0.903  1.00  0.00    -0.299 OA
BRANCH  13  15
ATOM     15  C   UNL     1      11.596  10.356   0.334  1.00  0.00     0.106 CG0
ATOM     16  G   UNL     1      11.153  10.760   1.731  1.00  0.00     0.000 G0
ENDBRANCH  13  15
ENDBRANCH  12  13
BRANCH  12  17
ATOM     17  C   UNL     1       9.770   7.354   0.492  1.00  0.00    -0.006 C 
ATOM     18  C   UNL     1       9.186   5.982   0.111  1.00  0.00     0.008 C 
ATOM     19  C   UNL     1       8.647   8.254   1.032  1.00  0.00     0.008 C 
ENDBRANCH  12  17
ENDBRANCH  11  12
ENDBRANCH   1  11
TORSDOF 1
ENDMDL
MODEL 3
REMARK VINA RESULT:    -0.195      1.958      3.812
REMARK INTER + INTRA:           0.769
REMARK INTER:                  -0.818
REMARK INTRA:                   1.587
REMARK UNBOUND:                 1.066
REMARK SMILES CC1=CCC[C@@H](C)C(=O)C[C@@H](C(C)C)C(=O)C1
REMARK SMILES IDX 8 1 9 2 6 3 7 4 5 5 4 6 3 7 2 8 1 9 10 11 11 12 15 13 16 14
REMARK SMILES IDX 17 15 12 17 13 18 14 19
REMARK H PARENT
REMARK Flexibility Score: 70.00
ROOT
ATOM      1  C   UNL     1      11.632   6.817   0.069  1.00  0.00     0.136 C 
ATOM      2  O   UNL     1      10.996   6.309  -0.844  1.00  0.00    -0.299 OA
ENDROOT
BRANCH   1   3
ATOM      3  C   UNL     1      11.537   6.177   1.448  1.00  0.00     0.053 C 
ATOM      4  C   UNL     1      10.105   6.327   1.976  1.00  0.00     0.016 C 
BRANCH   3   5
ATOM      5  C   UNL     1      12.541   6.815   2.440  1.00  0.00     0.015 C 
BRANCH   5   6
ATOM      6  C   UNL     1      12.014   6.921   3.881  1.00  0.00     0.028 C 
BRANCH   6   7
ATOM      7  C   UNL     1      11.554   8.321   4.210  1.00  0.00    -0.028 C 
ATOM      8  C   UNL     1      12.002   9.457   3.626  1.00  0.00    -0.070 CG0
ATOM      9  C   UNL     1      11.427  10.766   4.111  1.00  0.00     0.039 C 
ATOM     10  G   UNL     1      13.117   9.485   2.594  1.00  0.00     0.000 G0
ENDBRANCH   6   7
ENDBRANCH   5   6
ENDBRANCH   3   5
ENDBRANCH   1   3
BRANCH   1  11
ATOM     11  C   UNL     1      12.475   8.035  -0.273  1.00  0.00     0.087 C 
BRANCH  11  12
ATOM     12  C   UNL     1      11.930   9.427   0.137  1.00  0.00     0.066 C 
BRANCH  12  13
ATOM     13  C   UNL     1      12.733  10.136   1.227  1.00  0.00     0.140 C 
ATOM     14  O   UNL     1      12.982  11.321   1.058  1.00  0.00    -0.299 OA
BRANCH  13  15
ATOM     15  C   UNL     1      13.125   9.531   2.562  1.00  0.00     0.106 CG0
ATOM     16  G   UNL     1      12.009   9.452   3.590  1.00  0.00     0.000 G0
ENDBRANCH  13  15
ENDBRANCH  12  13
BRANCH  12  17
ATOM     17  C   UNL     1      10.402   9.423   0.480  1.00  0.00    -0.006 C 
ATOM     18  C   UNL     1       9.499   8.896  -0.649  1.00  0.00     0.008 C 
ATOM     19  C   UNL     1       9.918  10.818   0.911  1.00  0.00     0.008 C 
ENDBRANCH  12  17
ENDBRANCH  11  12
ENDBRANCH   1  11
TORSDOF 1
ENDMDL
MODEL 4
REMARK VINA RESULT:     0.284      1.906      3.246
REMARK INTER + INTRA:           1.499
REMARK INTER:                  -2.443
REMARK INTRA:                   3.942
REMARK UNBOUND:                 1.066
REMARK SMILES CC1=CCC[C@@H](C)C(=O)C[C@@H](C(C)C)C(=O)C1
REMARK SMILES IDX 8 1 9 2 6 3 7 4 5 5 4 6 3 7 2 8 1 9 10 11 11 12 15 13 16 14
REMARK SMILES IDX 17 15 12 17 13 18 14 19
REMARK H PARENT
REMARK Flexibility Score: 70.00
ROOT
ATOM      1  C   UNL     1       9.676   8.159  -0.181  1.00  0.00     0.136 C 
ATOM      2  O   UNL     1       8.520   8.193   0.216  1.00  0.00    -0.299 OA
ENDROOT
BRANCH   1   3
ATOM      3  C   UNL     1      10.436   6.845  -0.057  1.00  0.00     0.053 C 
ATOM      4  C   UNL     1      10.135   6.215   1.309  1.00  0.00     0.016 C 
BRANCH   3   5
ATOM      5  C   UNL     1      11.961   7.053  -0.226  1.00  0.00     0.015 C 
BRANCH   5   6
ATOM      6  C   UNL     1      12.802   6.480   0.929  1.00  0.00     0.028 C 
BRANCH   6   7
ATOM      7  C   UNL     1      12.911   7.449   2.080  1.00  0.00    -0.028 C 
ATOM      8  C   UNL     1      13.007   8.795   1.973  1.00  0.00    -0.070 CG0
ATOM      9  C   UNL     1      13.125   9.592   3.250  1.00  0.00     0.039 C 
ATOM     10  G   UNL     1      13.105   9.525   0.644  1.00  0.00     0.000 G0
ENDBRANCH   6   7
ENDBRANCH   5   6
ENDBRANCH   3   5
ENDBRANCH   1   3
BRANCH   1  11
ATOM     11  C   UNL     1      10.236   9.439  -0.780  1.00  0.00     0.087 C 
BRANCH  11  12
ATOM     12  C   UNL     1      10.664  10.566   0.196  1.00  0.00     0.066 C 
BRANCH  12  13
ATOM     13  C   UNL     1      12.171  10.692   0.411  1.00  0.00     0.140 C 
ATOM     14  O   UNL     1      12.629  11.820   0.524  1.00  0.00    -0.299 OA
BRANCH  13  15
ATOM     15  C   UNL     1      13.125   9.534   0.637  1.00  0.00     0.106 CG0
ATOM     16  G   UNL     1      12.994   8.839   1.982  1.00  0.00     0.000 G0
ENDBRANCH  13  15
ENDBRANCH  12  13
BRANCH  12  17
ATOM     17  C   UNL     1       9.904  10.528   1.565  1.00  0.00    -0.006 C 
ATOM     18  C   UNL     1       9.935  11.854   2.345  1.00  0.00     0.008 C 
ATOM     19  C   UNL     1      10.422   9.394   2.466  1.00  0.00     0.008 C 
ENDBRANCH  12  17
ENDBRANCH  11  12
ENDBRANCH   1  11
TORSDOF 1
ENDMDL
