MODEL 1
REMARK VINA RESULT:    56.878      0.000      0.000
REMARK INTER + INTRA:          60.204
REMARK INTER:                  60.204
REMARK INTRA:                   0.000
REMARK UNBOUND:                 0.000
REMARK SMILES CC1(C)[C@H](O)CC[C@]2(C)[C@@H]1CC[C@]1(C)[C@H]2C=CC2=C(O)C(=O)C(=O)[C@@]21C
REMARK SMILES IDX 1 1 2 2 10 3 11 4 12 5 13 6 15 7 8 8 7 9 6 10 4 11 9 12
REMARK SMILES IDX 16 13 17 14 18 15 19 16 21 17 22 18 23 19 24 20 25 21 26 22
REMARK SMILES IDX 14 23 3 24 5 25 20 27
REMARK H PARENT 5 26 20 28
REMARK Flexibility Score: inf
ROOT
ATOM      1  C   UNL     1      77.471  53.425  86.408  1.00  0.00     0.014 C 
ATOM      2  C   UNL     1      78.307  52.825  85.243  1.00  0.00    -0.006 C 
ATOM      3  C   UNL     1      77.519  52.690  83.873  1.00  0.00     0.004 C 
ATOM      4  C   UNL     1      76.269  51.764  83.945  1.00  0.00     0.005 C 
ATOM      5  C   UNL     1      75.246  51.978  82.809  1.00  0.00     0.009 C 
ATOM      6  C   UNL     1      75.875  52.344  81.432  1.00  0.00    -0.009 C 
ATOM      7  C   UNL     1      76.809  53.649  81.596  1.00  0.00     0.025 C 
ATOM      8  C   UNL     1      77.222  54.021  83.097  1.00  0.00    -0.022 C 
ATOM      9  C   UNL     1      78.533  54.876  83.031  1.00  0.00     0.010 C 
ATOM     10  C   UNL     1      79.251  55.043  84.372  1.00  0.00     0.033 C 
ATOM     11  C   UNL     1      79.586  53.687  85.000  1.00  0.00     0.120 C 
ATOM     12  C   UNL     1      76.099  54.852  83.820  1.00  0.00     0.012 C 
ATOM     13  C   UNL     1      76.331  54.908  80.860  1.00  0.00    -0.022 C 
ATOM     14  C   UNL     1      75.059  55.104  80.513  1.00  0.00     0.005 C 
ATOM     15  C   UNL     1      74.160  53.963  80.539  1.00  0.00     0.012 C 
ATOM     16  C   UNL     1      72.840  53.986  80.727  1.00  0.00     0.171 C 
ATOM     17  C   UNL     1      72.339  52.630  80.732  1.00  0.00     0.264 C 
ATOM     18  O   UNL     1      71.142  52.278  80.893  1.00  0.00    -0.282 OA
ATOM     19  C   UNL     1      73.473  51.753  80.523  1.00  0.00     0.217 C 
ATOM     20  O   UNL     1      73.407  50.497  80.445  1.00  0.00    -0.289 OA
ATOM     21  C   UNL     1      74.725  52.582  80.351  1.00  0.00     0.069 C 
ATOM     22  C   UNL     1      75.199  52.456  78.881  1.00  0.00     0.026 C 
ATOM     23  C   UNL     1      76.728  51.118  80.972  1.00  0.00     0.013 C 
ATOM     24  C   UNL     1      78.766  51.413  85.695  1.00  0.00     0.014 C 
ENDROOT
BRANCH  11  25
ATOM     25  O   UNL     1      80.284  53.913  86.201  1.00  0.00    -0.393 OA
ATOM     26  H   UNL     1      80.018  54.809  86.537  1.00  0.00     0.210 HD
ENDBRANCH  11  25
BRANCH  16  27
ATOM     27  O   UNL     1      72.057  55.122  80.922  1.00  0.00    -0.504 OA
ATOM     28  H   UNL     1      72.459  56.000  81.229  1.00  0.00     0.293 HD
ENDBRANCH  16  27
TORSDOF 2
ENDMDL
