MODEL 1
REMARK VINA RESULT:    -3.278      0.000      0.000
REMARK INTER + INTRA:         -10.425
REMARK INTER:                  -7.110
REMARK INTRA:                  -3.315
REMARK UNBOUND:                -3.315
REMARK SMILES CCCCCCCCCCCCCCCCCCCCCC(=O)[O-]
REMARK SMILES IDX 12 1 11 2 10 3 9 4 8 5 7 6 6 7 5 8 4 9 3 10 2 11 1 12 13 13
REMARK SMILES IDX 14 14 15 15 16 16 17 17 18 18 19 19 20 20 21 21 22 22 23 23
REMARK SMILES IDX 24 24
REMARK H PARENT
REMARK Flexibility Score: inf
ROOT
ATOM      1  C   UNL     1      25.244  -8.596  29.618  1.00  0.00     0.000 C 
ENDROOT
BRANCH   1   2
ATOM      2  C   UNL     1      23.927  -7.901  29.209  1.00  0.00     0.000 C 
BRANCH   2   3
ATOM      3  C   UNL     1      22.836  -8.053  30.281  1.00  0.00     0.000 C 
BRANCH   3   4
ATOM      4  C   UNL     1      21.789  -9.107  29.876  1.00  0.00    -0.000 C 
BRANCH   4   5
ATOM      5  C   UNL     1      21.952 -10.432  30.636  1.00  0.00    -0.000 C 
BRANCH   5   6
ATOM      6  C   UNL     1      22.806 -11.454  29.873  1.00  0.00    -0.000 C 
BRANCH   6   7
ATOM      7  C   UNL     1      24.045 -11.847  30.693  1.00  0.00    -0.000 C 
BRANCH   7   8
ATOM      8  C   UNL     1      23.902 -11.509  32.185  1.00  0.00    -0.000 C 
BRANCH   8   9
ATOM      9  C   UNL     1      25.090 -10.696  32.728  1.00  0.00    -0.000 C 
BRANCH   9  10
ATOM     10  C   UNL     1      24.652  -9.314  33.260  1.00  0.00    -0.000 C 
BRANCH  10  11
ATOM     11  C   UNL     1      23.620  -9.393  34.398  1.00  0.00    -0.003 C 
ATOM     12  C   UNL     1      24.136  -8.815  35.715  1.00  0.00     0.004 C 
ENDBRANCH  10  11
ENDBRANCH   9  10
ENDBRANCH   8   9
ENDBRANCH   7   8
ENDBRANCH   6   7
ENDBRANCH   5   6
ENDBRANCH   4   5
ENDBRANCH   3   4
ENDBRANCH   2   3
ENDBRANCH   1   2
BRANCH   1  13
ATOM     13  C   UNL     1      25.821  -9.476  28.498  1.00  0.00     0.000 C 
BRANCH  13  14
ATOM     14  C   UNL     1      27.280  -9.876  28.784  1.00  0.00     0.000 C 
BRANCH  14  15
ATOM     15  C   UNL     1      27.531 -11.382  28.612  1.00  0.00     0.000 C 
BRANCH  15  16
ATOM     16  C   UNL     1      27.612 -12.124  29.958  1.00  0.00     0.000 C 
BRANCH  16  17
ATOM     17  C   UNL     1      28.225 -11.260  31.074  1.00  0.00     0.000 C 
BRANCH  17  18
ATOM     18  C   UNL     1      29.658 -11.693  31.430  1.00  0.00     0.000 C 
BRANCH  18  19
ATOM     19  C   UNL     1      30.719 -10.717  30.899  1.00  0.00     0.000 C 
BRANCH  19  20
ATOM     20  C   UNL     1      30.304  -9.245  31.062  1.00  0.00     0.006 C 
BRANCH  20  21
ATOM     21  C   UNL     1      31.432  -8.386  31.654  1.00  0.00     0.053 C 
BRANCH  21  22
ATOM     22  C   UNL     1      30.994  -7.678  32.899  1.00  0.00     0.041 C 
ATOM     23  O   UNL     1      30.018  -6.883  32.866  1.00  0.00    -0.550 OA
ATOM     24  O   UNL     1      31.643  -7.921  34.103  1.00  0.00    -0.550 OA
ENDBRANCH  21  22
ENDBRANCH  20  21
ENDBRANCH  19  20
ENDBRANCH  18  19
ENDBRANCH  17  18
ENDBRANCH  16  17
ENDBRANCH  15  16
ENDBRANCH  14  15
ENDBRANCH  13  14
ENDBRANCH   1  13
TORSDOF 20
ENDMDL
MODEL 2
REMARK VINA RESULT:    -3.248      2.376      5.988
REMARK INTER + INTRA:         -10.361
REMARK INTER:                  -7.159
REMARK INTRA:                  -3.202
REMARK UNBOUND:                -3.315
REMARK SMILES CCCCCCCCCCCCCCCCCCCCCC(=O)[O-]
REMARK SMILES IDX 12 1 11 2 10 3 9 4 8 5 7 6 6 7 5 8 4 9 3 10 2 11 1 12 13 13
REMARK SMILES IDX 14 14 15 15 16 16 17 17 18 18 19 19 20 20 21 21 22 22 23 23
REMARK SMILES IDX 24 24
REMARK H PARENT
REMARK Flexibility Score: inf
ROOT
ATOM      1  C   UNL     1      24.390  -8.080  29.368  1.00  0.00     0.000 C 
ENDROOT
BRANCH   1   2
ATOM      2  C   UNL     1      24.277  -9.083  28.199  1.00  0.00     0.000 C 
BRANCH   2   3
ATOM      3  C   UNL     1      25.590  -9.846  27.962  1.00  0.00     0.000 C 
BRANCH   3   4
ATOM      4  C   UNL     1      26.641  -9.509  29.036  1.00  0.00    -0.000 C 
BRANCH   4   5
ATOM      5  C   UNL     1      27.960 -10.272  28.840  1.00  0.00    -0.000 C 
BRANCH   5   6
ATOM      6  C   UNL     1      28.079 -11.497  29.757  1.00  0.00    -0.000 C 
BRANCH   6   7
ATOM      7  C   UNL     1      28.539 -11.080  31.163  1.00  0.00    -0.000 C 
BRANCH   7   8
ATOM      8  C   UNL     1      29.958 -10.491  31.174  1.00  0.00    -0.000 C 
BRANCH   8   9
ATOM      9  C   UNL     1      29.978  -8.993  31.527  1.00  0.00    -0.000 C 
BRANCH   9  10
ATOM     10  C   UNL     1      31.366  -8.532  32.021  1.00  0.00    -0.000 C 
BRANCH  10  11
ATOM     11  C   UNL     1      31.301  -7.458  33.121  1.00  0.00    -0.003 C 
ATOM     12  C   UNL     1      32.277  -7.717  34.268  1.00  0.00     0.004 C 
ENDBRANCH  10  11
ENDBRANCH   9  10
ENDBRANCH   8   9
ENDBRANCH   7   8
ENDBRANCH   6   7
ENDBRANCH   5   6
ENDBRANCH   4   5
ENDBRANCH   3   4
ENDBRANCH   2   3
ENDBRANCH   1   2
BRANCH   1  13
ATOM     13  C   UNL     1      23.149  -8.087  30.274  1.00  0.00     0.000 C 
BRANCH  13  14
ATOM     14  C   UNL     1      22.178  -9.221  29.899  1.00  0.00     0.000 C 
BRANCH  14  15
ATOM     15  C   UNL     1      22.085 -10.311  30.979  1.00  0.00     0.000 C 
BRANCH  15  16
ATOM     16  C   UNL     1      22.765 -11.624  30.550  1.00  0.00     0.000 C 
BRANCH  16  17
ATOM     17  C   UNL     1      24.271 -11.640  30.864  1.00  0.00     0.000 C 
BRANCH  17  18
ATOM     18  C   UNL     1      24.567 -11.293  32.334  1.00  0.00     0.000 C 
BRANCH  18  19
ATOM     19  C   UNL     1      25.367  -9.990  32.484  1.00  0.00     0.000 C 
BRANCH  19  20
ATOM     20  C   UNL     1      24.731  -9.017  33.491  1.00  0.00     0.006 C 
BRANCH  20  21
ATOM     21  C   UNL     1      23.545  -9.646  34.236  1.00  0.00     0.053 C 
BRANCH  21  22
ATOM     22  C   UNL     1      23.679  -9.496  35.721  1.00  0.00     0.041 C 
ATOM     23  O   UNL     1      23.901 -10.504  36.442  1.00  0.00    -0.550 OA
ATOM     24  O   UNL     1      23.593  -8.237  36.304  1.00  0.00    -0.550 OA
ENDBRANCH  21  22
ENDBRANCH  20  21
ENDBRANCH  19  20
ENDBRANCH  18  19
ENDBRANCH  17  18
ENDBRANCH  16  17
ENDBRANCH  15  16
ENDBRANCH  14  15
ENDBRANCH  13  14
ENDBRANCH   1  13
TORSDOF 20
ENDMDL
MODEL 3
REMARK VINA RESULT:    -3.112      1.249      3.277
REMARK INTER + INTRA:         -10.066
REMARK INTER:                  -6.535
REMARK INTRA:                  -3.531
REMARK UNBOUND:                -3.315
REMARK SMILES CCCCCCCCCCCCCCCCCCCCCC(=O)[O-]
REMARK SMILES IDX 12 1 11 2 10 3 9 4 8 5 7 6 6 7 5 8 4 9 3 10 2 11 1 12 13 13
REMARK SMILES IDX 14 14 15 15 16 16 17 17 18 18 19 19 20 20 21 21 22 22 23 23
REMARK SMILES IDX 24 24
REMARK H PARENT
REMARK Flexibility Score: inf
ROOT
ATOM      1  C   UNL     1      25.746 -11.106  32.498  1.00  0.00     0.000 C 
ENDROOT
BRANCH   1   2
ATOM      2  C   UNL     1      25.540  -9.580  32.375  1.00  0.00     0.000 C 
BRANCH   2   3
ATOM      3  C   UNL     1      24.595  -9.034  33.457  1.00  0.00     0.000 C 
BRANCH   3   4
ATOM      4  C   UNL     1      24.541  -9.966  34.682  1.00  0.00    -0.000 C 
BRANCH   4   5
ATOM      5  C   UNL     1      23.109 -10.377  35.057  1.00  0.00    -0.000 C 
BRANCH   5   6
ATOM      6  C   UNL     1      22.135 -10.286  33.873  1.00  0.00    -0.000 C 
BRANCH   6   7
ATOM      7  C   UNL     1      22.166 -11.580  33.044  1.00  0.00    -0.000 C 
BRANCH   7   8
ATOM      8  C   UNL     1      22.061 -11.321  31.533  1.00  0.00    -0.000 C 
BRANCH   8   9
ATOM      9  C   UNL     1      21.596  -9.891  31.205  1.00  0.00    -0.000 C 
BRANCH   9  10
ATOM     10  C   UNL     1      22.330  -9.310  29.977  1.00  0.00    -0.000 C 
BRANCH  10  11
ATOM     11  C   UNL     1      22.723  -7.831  30.138  1.00  0.00    -0.003 C 
ATOM     12  C   UNL     1      24.133  -7.529  29.636  1.00  0.00     0.004 C 
ENDBRANCH  10  11
ENDBRANCH   9  10
ENDBRANCH   8   9
ENDBRANCH   7   8
ENDBRANCH   6   7
ENDBRANCH   5   6
ENDBRANCH   4   5
ENDBRANCH   3   4
ENDBRANCH   2   3
ENDBRANCH   1   2
BRANCH   1  13
ATOM     13  C   UNL     1      25.831 -11.803  31.131  1.00  0.00     0.000 C 
BRANCH  13  14
ATOM     14  C   UNL     1      25.512 -10.833  29.978  1.00  0.00     0.000 C 
BRANCH  14  15
ATOM     15  C   UNL     1      26.259 -11.181  28.681  1.00  0.00     0.000 C 
BRANCH  15  16
ATOM     16  C   UNL     1      27.658 -10.543  28.616  1.00  0.00     0.000 C 
BRANCH  16  17
ATOM     17  C   UNL     1      28.785 -11.560  28.870  1.00  0.00     0.000 C 
BRANCH  17  18
ATOM     18  C   UNL     1      29.426 -11.388  30.258  1.00  0.00     0.000 C 
BRANCH  18  19
ATOM     19  C   UNL     1      29.136 -10.012  30.877  1.00  0.00     0.000 C 
BRANCH  19  20
ATOM     20  C   UNL     1      30.389  -9.361  31.487  1.00  0.00     0.006 C 
BRANCH  20  21
ATOM     21  C   UNL     1      30.102  -7.958  32.043  1.00  0.00     0.053 C 
BRANCH  21  22
ATOM     22  C   UNL     1      31.112  -7.551  33.072  1.00  0.00     0.041 C 
ATOM     23  O   UNL     1      31.544  -6.369  33.102  1.00  0.00    -0.550 OA
ATOM     24  O   UNL     1      31.551  -8.470  34.017  1.00  0.00    -0.550 OA
ENDBRANCH  21  22
ENDBRANCH  20  21
ENDBRANCH  19  20
ENDBRANCH  18  19
ENDBRANCH  17  18
ENDBRANCH  16  17
ENDBRANCH  15  16
ENDBRANCH  14  15
ENDBRANCH  13  14
ENDBRANCH   1  13
TORSDOF 20
ENDMDL
MODEL 4
REMARK VINA RESULT:    -3.095      1.420      2.645
REMARK INTER + INTRA:         -10.029
REMARK INTER:                  -7.863
REMARK INTRA:                  -2.166
REMARK UNBOUND:                -3.315
REMARK SMILES CCCCCCCCCCCCCCCCCCCCCC(=O)[O-]
REMARK SMILES IDX 12 1 11 2 10 3 9 4 8 5 7 6 6 7 5 8 4 9 3 10 2 11 1 12 13 13
REMARK SMILES IDX 14 14 15 15 16 16 17 17 18 18 19 19 20 20 21 21 22 22 23 23
REMARK SMILES IDX 24 24
REMARK H PARENT
REMARK Flexibility Score: inf
ROOT
ATOM      1  C   UNL     1      27.452  -9.833  30.126  1.00  0.00     0.000 C 
ENDROOT
BRANCH   1   2
ATOM      2  C   UNL     1      26.647  -9.921  28.812  1.00  0.00     0.000 C 
BRANCH   2   3
ATOM      3  C   UNL     1      25.407  -9.013  28.830  1.00  0.00     0.000 C 
BRANCH   3   4
ATOM      4  C   UNL     1      24.220  -9.692  29.538  1.00  0.00    -0.000 C 
BRANCH   4   5
ATOM      5  C   UNL     1      23.614  -8.824  30.652  1.00  0.00    -0.000 C 
BRANCH   5   6
ATOM      6  C   UNL     1      22.865  -9.650  31.707  1.00  0.00    -0.000 C 
BRANCH   6   7
ATOM      7  C   UNL     1      23.835 -10.576  32.459  1.00  0.00    -0.000 C 
BRANCH   7   8
ATOM      8  C   UNL     1      24.787  -9.809  33.391  1.00  0.00    -0.000 C 
BRANCH   8   9
ATOM      9  C   UNL     1      24.714 -10.296  34.848  1.00  0.00    -0.000 C 
BRANCH   9  10
ATOM     10  C   UNL     1      23.269 -10.637  35.275  1.00  0.00    -0.000 C 
BRANCH  10  11
ATOM     11  C   UNL     1      22.394  -9.396  35.522  1.00  0.00    -0.003 C 
ATOM     12  C   UNL     1      23.079  -8.345  36.393  1.00  0.00     0.004 C 
ENDBRANCH  10  11
ENDBRANCH   9  10
ENDBRANCH   8   9
ENDBRANCH   7   8
ENDBRANCH   6   7
ENDBRANCH   5   6
ENDBRANCH   4   5
ENDBRANCH   3   4
ENDBRANCH   2   3
ENDBRANCH   1   2
BRANCH   1  13
ATOM     13  C   UNL     1      27.365 -11.121  30.960  1.00  0.00     0.000 C 
BRANCH  13  14
ATOM     14  C   UNL     1      28.761 -11.662  31.316  1.00  0.00     0.000 C 
BRANCH  14  15
ATOM     15  C   UNL     1      29.606 -11.999  30.077  1.00  0.00     0.000 C 
BRANCH  15  16
ATOM     16  C   UNL     1      31.069 -11.542  30.219  1.00  0.00     0.000 C 
BRANCH  16  17
ATOM     17  C   UNL     1      31.230 -10.369  31.201  1.00  0.00     0.000 C 
BRANCH  17  18
ATOM     18  C   UNL     1      32.512  -9.559  30.942  1.00  0.00     0.000 C 
BRANCH  18  19
ATOM     19  C   UNL     1      32.250  -8.049  30.854  1.00  0.00     0.000 C 
BRANCH  19  20
ATOM     20  C   UNL     1      31.041  -7.607  31.696  1.00  0.00     0.006 C 
BRANCH  20  21
ATOM     21  C   UNL     1      31.459  -6.795  32.931  1.00  0.00     0.053 C 
BRANCH  21  22
ATOM     22  C   UNL     1      31.942  -7.680  34.039  1.00  0.00     0.041 C 
ATOM     23  O   UNL     1      31.421  -8.813  34.217  1.00  0.00    -0.550 OA
ATOM     24  O   UNL     1      32.989  -7.267  34.854  1.00  0.00    -0.550 OA
ENDBRANCH  21  22
ENDBRANCH  20  21
ENDBRANCH  19  20
ENDBRANCH  18  19
ENDBRANCH  17  18
ENDBRANCH  16  17
ENDBRANCH  15  16
ENDBRANCH  14  15
ENDBRANCH  13  14
ENDBRANCH   1  13
TORSDOF 20
ENDMDL
MODEL 5
REMARK VINA RESULT:    -3.051      2.472      6.418
REMARK INTER + INTRA:          -9.933
REMARK INTER:                  -6.956
REMARK INTRA:                  -2.976
REMARK UNBOUND:                -3.315
REMARK SMILES CCCCCCCCCCCCCCCCCCCCCC(=O)[O-]
REMARK SMILES IDX 12 1 11 2 10 3 9 4 8 5 7 6 6 7 5 8 4 9 3 10 2 11 1 12 13 13
REMARK SMILES IDX 14 14 15 15 16 16 17 17 18 18 19 19 20 20 21 21 22 22 23 23
REMARK SMILES IDX 24 24
REMARK H PARENT
REMARK Flexibility Score: inf
ROOT
ATOM      1  C   UNL     1      25.884  -9.410  30.003  1.00  0.00     0.000 C 
ENDROOT
BRANCH   1   2
ATOM      2  C   UNL     1      25.652 -10.820  29.418  1.00  0.00     0.000 C 
BRANCH   2   3
ATOM      3  C   UNL     1      26.115 -11.928  30.378  1.00  0.00     0.000 C 
BRANCH   3   4
ATOM      4  C   UNL     1      26.877 -11.349  31.584  1.00  0.00    -0.000 C 
BRANCH   4   5
ATOM      5  C   UNL     1      28.276 -11.959  31.755  1.00  0.00    -0.000 C 
BRANCH   5   6
ATOM      6  C   UNL     1      29.168 -11.756  30.523  1.00  0.00    -0.000 C 
BRANCH   6   7
ATOM      7  C   UNL     1      29.349 -10.259  30.225  1.00  0.00    -0.000 C 
BRANCH   7   8
ATOM      8  C   UNL     1      29.865  -9.470  31.438  1.00  0.00    -0.000 C 
BRANCH   8   9
ATOM      9  C   UNL     1      31.332  -9.032  31.284  1.00  0.00    -0.000 C 
BRANCH   9  10
ATOM     10  C   UNL     1      31.519  -7.524  31.558  1.00  0.00    -0.000 C 
BRANCH  10  11
ATOM     11  C   UNL     1      31.172  -7.115  33.000  1.00  0.00    -0.003 C 
ATOM     12  C   UNL     1      31.958  -7.899  34.050  1.00  0.00     0.004 C 
ENDBRANCH  10  11
ENDBRANCH   9  10
ENDBRANCH   8   9
ENDBRANCH   7   8
ENDBRANCH   6   7
ENDBRANCH   5   6
ENDBRANCH   4   5
ENDBRANCH   3   4
ENDBRANCH   2   3
ENDBRANCH   1   2
BRANCH   1  13
ATOM     13  C   UNL     1      24.900  -8.370  29.445  1.00  0.00     0.000 C 
BRANCH  13  14
ATOM     14  C   UNL     1      23.954  -8.987  28.399  1.00  0.00     0.000 C 
BRANCH  14  15
ATOM     15  C   UNL     1      22.480  -8.623  28.638  1.00  0.00     0.000 C 
BRANCH  15  16
ATOM     16  C   UNL     1      22.014  -8.955  30.067  1.00  0.00     0.000 C 
BRANCH  16  17
ATOM     17  C   UNL     1      21.962 -10.470  30.334  1.00  0.00     0.000 C 
BRANCH  17  18
ATOM     18  C   UNL     1      22.777 -10.874  31.575  1.00  0.00     0.000 C 
BRANCH  18  19
ATOM     19  C   UNL     1      22.698  -9.831  32.699  1.00  0.00     0.000 C 
BRANCH  19  20
ATOM     20  C   UNL     1      24.084  -9.424  33.229  1.00  0.00     0.006 C 
BRANCH  20  21
ATOM     21  C   UNL     1      24.594 -10.382  34.315  1.00  0.00     0.053 C 
BRANCH  21  22
ATOM     22  C   UNL     1      24.135  -9.969  35.680  1.00  0.00     0.041 C 
ATOM     23  O   UNL     1      23.476 -10.770  36.396  1.00  0.00    -0.550 OA
ATOM     24  O   UNL     1      24.461  -8.712  36.174  1.00  0.00    -0.550 OA
ENDBRANCH  21  22
ENDBRANCH  20  21
ENDBRANCH  19  20
ENDBRANCH  18  19
ENDBRANCH  17  18
ENDBRANCH  16  17
ENDBRANCH  15  16
ENDBRANCH  14  15
ENDBRANCH  13  14
ENDBRANCH   1  13
TORSDOF 20
ENDMDL
MODEL 6
REMARK VINA RESULT:    -3.045      1.206      2.262
REMARK INTER + INTRA:          -9.920
REMARK INTER:                  -7.205
REMARK INTRA:                  -2.715
REMARK UNBOUND:                -3.315
REMARK SMILES CCCCCCCCCCCCCCCCCCCCCC(=O)[O-]
REMARK SMILES IDX 12 1 11 2 10 3 9 4 8 5 7 6 6 7 5 8 4 9 3 10 2 11 1 12 13 13
REMARK SMILES IDX 14 14 15 15 16 16 17 17 18 18 19 19 20 20 21 21 22 22 23 23
REMARK SMILES IDX 24 24
REMARK H PARENT
REMARK Flexibility Score: inf
ROOT
ATOM      1  C   UNL     1      23.664  -8.123  30.423  1.00  0.00     0.000 C 
ENDROOT
BRANCH   1   2
ATOM      2  C   UNL     1      22.140  -8.370  30.392  1.00  0.00     0.000 C 
BRANCH   2   3
ATOM      3  C   UNL     1      21.711  -9.464  31.383  1.00  0.00     0.000 C 
BRANCH   3   4
ATOM      4  C   UNL     1      22.590 -10.722  31.252  1.00  0.00    -0.000 C 
BRANCH   4   5
ATOM      5  C   UNL     1      23.152 -11.201  32.598  1.00  0.00    -0.000 C 
BRANCH   5   6
ATOM      6  C   UNL     1      24.686 -11.144  32.657  1.00  0.00    -0.000 C 
BRANCH   6   7
ATOM      7  C   UNL     1      25.159  -9.776  33.173  1.00  0.00    -0.000 C 
BRANCH   7   8
ATOM      8  C   UNL     1      24.146  -9.116  34.121  1.00  0.00    -0.000 C 
BRANCH   8   9
ATOM      9  C   UNL     1      24.341  -9.538  35.588  1.00  0.00    -0.000 C 
BRANCH   9  10
ATOM     10  C   UNL     1      23.068 -10.180  36.180  1.00  0.00    -0.000 C 
BRANCH  10  11
ATOM     11  C   UNL     1      21.766  -9.506  35.714  1.00  0.00    -0.003 C 
ATOM     12  C   UNL     1      20.683 -10.508  35.316  1.00  0.00     0.004 C 
ENDBRANCH  10  11
ENDBRANCH   9  10
ENDBRANCH   8   9
ENDBRANCH   7   8
ENDBRANCH   6   7
ENDBRANCH   5   6
ENDBRANCH   4   5
ENDBRANCH   3   4
ENDBRANCH   2   3
ENDBRANCH   1   2
BRANCH   1  13
ATOM     13  C   UNL     1      24.285  -8.087  29.017  1.00  0.00     0.000 C 
BRANCH  13  14
ATOM     14  C   UNL     1      24.953  -9.427  28.657  1.00  0.00     0.000 C 
BRANCH  14  15
ATOM     15  C   UNL     1      26.472  -9.420  28.890  1.00  0.00     0.000 C 
BRANCH  15  16
ATOM     16  C   UNL     1      26.915 -10.475  29.919  1.00  0.00     0.000 C 
BRANCH  16  17
ATOM     17  C   UNL     1      28.161 -10.042  30.711  1.00  0.00     0.000 C 
BRANCH  17  18
ATOM     18  C   UNL     1      29.067 -11.231  31.075  1.00  0.00     0.000 C 
BRANCH  18  19
ATOM     19  C   UNL     1      30.551 -10.842  31.149  1.00  0.00     0.000 C 
BRANCH  19  20
ATOM     20  C   UNL     1      30.758  -9.351  31.467  1.00  0.00     0.006 C 
BRANCH  20  21
ATOM     21  C   UNL     1      31.817  -9.133  32.558  1.00  0.00     0.053 C 
BRANCH  21  22
ATOM     22  C   UNL     1      31.526  -7.912  33.377  1.00  0.00     0.041 C 
ATOM     23  O   UNL     1      30.521  -7.199  33.115  1.00  0.00    -0.550 OA
ATOM     24  O   UNL     1      32.345  -7.581  34.449  1.00  0.00    -0.550 OA
ENDBRANCH  21  22
ENDBRANCH  20  21
ENDBRANCH  19  20
ENDBRANCH  18  19
ENDBRANCH  17  18
ENDBRANCH  16  17
ENDBRANCH  15  16
ENDBRANCH  14  15
ENDBRANCH  13  14
ENDBRANCH   1  13
TORSDOF 20
ENDMDL
MODEL 7
REMARK VINA RESULT:    -3.043      1.075      2.195
REMARK INTER + INTRA:          -9.915
REMARK INTER:                  -7.142
REMARK INTRA:                  -2.773
REMARK UNBOUND:                -3.315
REMARK SMILES CCCCCCCCCCCCCCCCCCCCCC(=O)[O-]
REMARK SMILES IDX 12 1 11 2 10 3 9 4 8 5 7 6 6 7 5 8 4 9 3 10 2 11 1 12 13 13
REMARK SMILES IDX 14 14 15 15 16 16 17 17 18 18 19 19 20 20 21 21 22 22 23 23
REMARK SMILES IDX 24 24
REMARK H PARENT
REMARK Flexibility Score: inf
ROOT
ATOM      1  C   UNL     1      26.419  -9.518  30.406  1.00  0.00     0.000 C 
ENDROOT
BRANCH   1   2
ATOM      2  C   UNL     1      26.112  -9.432  28.896  1.00  0.00     0.000 C 
BRANCH   2   3
ATOM      3  C   UNL     1      24.711  -8.862  28.621  1.00  0.00     0.000 C 
BRANCH   3   4
ATOM      4  C   UNL     1      24.203  -8.018  29.804  1.00  0.00    -0.000 C 
BRANCH   4   5
ATOM      5  C   UNL     1      22.781  -8.400  30.243  1.00  0.00    -0.000 C 
BRANCH   5   6
ATOM      6  C   UNL     1      22.208  -9.577  29.441  1.00  0.00    -0.000 C 
BRANCH   6   7
ATOM      7  C   UNL     1      22.064 -10.821  30.332  1.00  0.00    -0.000 C 
BRANCH   7   8
ATOM      8  C   UNL     1      23.395 -11.560  30.542  1.00  0.00    -0.000 C 
BRANCH   8   9
ATOM      9  C   UNL     1      23.611 -11.994  32.003  1.00  0.00    -0.000 C 
BRANCH   9  10
ATOM     10  C   UNL     1      23.425 -10.821  32.990  1.00  0.00    -0.000 C 
BRANCH  10  11
ATOM     11  C   UNL     1      24.751 -10.242  33.512  1.00  0.00    -0.003 C 
ATOM     12  C   UNL     1      24.813  -8.718  33.425  1.00  0.00     0.004 C 
ENDBRANCH  10  11
ENDBRANCH   9  10
ENDBRANCH   8   9
ENDBRANCH   7   8
ENDBRANCH   6   7
ENDBRANCH   5   6
ENDBRANCH   4   5
ENDBRANCH   3   4
ENDBRANCH   2   3
ENDBRANCH   1   2
BRANCH   1  13
ATOM     13  C   UNL     1      27.902  -9.798  30.693  1.00  0.00     0.000 C 
BRANCH  13  14
ATOM     14  C   UNL     1      28.163 -11.297  30.925  1.00  0.00     0.000 C 
BRANCH  14  15
ATOM     15  C   UNL     1      28.620 -12.029  29.653  1.00  0.00     0.000 C 
BRANCH  15  16
ATOM     16  C   UNL     1      30.153 -12.119  29.543  1.00  0.00     0.000 C 
BRANCH  16  17
ATOM     17  C   UNL     1      30.857 -11.877  30.889  1.00  0.00     0.000 C 
BRANCH  17  18
ATOM     18  C   UNL     1      32.360 -11.593  30.721  1.00  0.00     0.000 C 
BRANCH  18  19
ATOM     19  C   UNL     1      32.668 -10.093  30.603  1.00  0.00     0.000 C 
BRANCH  19  20
ATOM     20  C   UNL     1      31.484  -9.209  31.031  1.00  0.00     0.006 C 
BRANCH  20  21
ATOM     21  C   UNL     1      31.943  -7.933  31.752  1.00  0.00     0.053 C 
BRANCH  21  22
ATOM     22  C   UNL     1      31.136  -7.674  32.988  1.00  0.00     0.041 C 
ATOM     23  O   UNL     1      31.511  -8.137  34.097  1.00  0.00    -0.550 OA
ATOM     24  O   UNL     1      29.988  -6.894  32.919  1.00  0.00    -0.550 OA
ENDBRANCH  21  22
ENDBRANCH  20  21
ENDBRANCH  19  20
ENDBRANCH  18  19
ENDBRANCH  17  18
ENDBRANCH  16  17
ENDBRANCH  15  16
ENDBRANCH  14  15
ENDBRANCH  13  14
ENDBRANCH   1  13
TORSDOF 20
ENDMDL
MODEL 8
REMARK VINA RESULT:    -3.018      1.540      4.141
REMARK INTER + INTRA:          -9.862
REMARK INTER:                  -6.940
REMARK INTRA:                  -2.923
REMARK UNBOUND:                -3.315
REMARK SMILES CCCCCCCCCCCCCCCCCCCCCC(=O)[O-]
REMARK SMILES IDX 12 1 11 2 10 3 9 4 8 5 7 6 6 7 5 8 4 9 3 10 2 11 1 12 13 13
REMARK SMILES IDX 14 14 15 15 16 16 17 17 18 18 19 19 20 20 21 21 22 22 23 23
REMARK SMILES IDX 24 24
REMARK H PARENT
REMARK Flexibility Score: inf
ROOT
ATOM      1  C   UNL     1      24.115  -8.872  35.100  1.00  0.00     0.000 C 
ENDROOT
BRANCH   1   2
ATOM      2  C   UNL     1      23.706 -10.034  36.029  1.00  0.00     0.000 C 
BRANCH   2   3
ATOM      3  C   UNL     1      22.200 -10.026  36.338  1.00  0.00     0.000 C 
BRANCH   3   4
ATOM      4  C   UNL     1      21.406 -10.837  35.297  1.00  0.00    -0.000 C 
BRANCH   4   5
ATOM      5  C   UNL     1      20.280 -10.025  34.639  1.00  0.00    -0.000 C 
BRANCH   5   6
ATOM      6  C   UNL     1      20.660  -9.501  33.247  1.00  0.00    -0.000 C 
BRANCH   6   7
ATOM      7  C   UNL     1      21.514 -10.534  32.494  1.00  0.00    -0.000 C 
BRANCH   7   8
ATOM      8  C   UNL     1      21.450 -10.360  30.969  1.00  0.00    -0.000 C 
BRANCH   8   9
ATOM      9  C   UNL     1      22.814 -10.000  30.353  1.00  0.00    -0.000 C 
BRANCH   9  10
ATOM     10  C   UNL     1      23.190  -8.523  30.601  1.00  0.00    -0.000 C 
BRANCH  10  11
ATOM     11  C   UNL     1      24.133  -7.942  29.532  1.00  0.00    -0.003 C 
ATOM     12  C   UNL     1      24.750  -9.012  28.634  1.00  0.00     0.004 C 
ENDBRANCH  10  11
ENDBRANCH   9  10
ENDBRANCH   8   9
ENDBRANCH   7   8
ENDBRANCH   6   7
ENDBRANCH   5   6
ENDBRANCH   4   5
ENDBRANCH   3   4
ENDBRANCH   2   3
ENDBRANCH   1   2
BRANCH   1  13
ATOM     13  C   UNL     1      24.750  -9.359  33.788  1.00  0.00     0.000 C 
BRANCH  13  14
ATOM     14  C   UNL     1      24.942 -10.887  33.784  1.00  0.00     0.000 C 
BRANCH  14  15
ATOM     15  C   UNL     1      25.546 -11.410  32.470  1.00  0.00     0.000 C 
BRANCH  15  16
ATOM     16  C   UNL     1      26.259 -10.306  31.668  1.00  0.00     0.000 C 
BRANCH  16  17
ATOM     17  C   UNL     1      27.394 -10.855  30.787  1.00  0.00     0.000 C 
BRANCH  17  18
ATOM     18  C   UNL     1      28.574  -9.874  30.673  1.00  0.00     0.000 C 
BRANCH  18  19
ATOM     19  C   UNL     1      29.920 -10.525  31.021  1.00  0.00     0.000 C 
BRANCH  19  20
ATOM     20  C   UNL     1      30.983  -9.498  31.449  1.00  0.00     0.006 C 
BRANCH  20  21
ATOM     21  C   UNL     1      30.355  -8.199  31.976  1.00  0.00     0.053 C 
BRANCH  21  22
ATOM     22  C   UNL     1      31.169  -7.598  33.080  1.00  0.00     0.041 C 
ATOM     23  O   UNL     1      31.487  -6.380  33.042  1.00  0.00    -0.550 OA
ATOM     24  O   UNL     1      31.549  -8.376  34.168  1.00  0.00    -0.550 OA
ENDBRANCH  21  22
ENDBRANCH  20  21
ENDBRANCH  19  20
ENDBRANCH  18  19
ENDBRANCH  17  18
ENDBRANCH  16  17
ENDBRANCH  15  16
ENDBRANCH  14  15
ENDBRANCH  13  14
ENDBRANCH   1  13
TORSDOF 20
ENDMDL
MODEL 9
REMARK VINA RESULT:    -3.017      2.766      6.922
REMARK INTER + INTRA:          -9.858
REMARK INTER:                  -7.394
REMARK INTRA:                  -2.465
REMARK UNBOUND:                -3.315
REMARK SMILES CCCCCCCCCCCCCCCCCCCCCC(=O)[O-]
REMARK SMILES IDX 12 1 11 2 10 3 9 4 8 5 7 6 6 7 5 8 4 9 3 10 2 11 1 12 13 13
REMARK SMILES IDX 14 14 15 15 16 16 17 17 18 18 19 19 20 20 21 21 22 22 23 23
REMARK SMILES IDX 24 24
REMARK H PARENT
REMARK Flexibility Score: inf
ROOT
ATOM      1  C   UNL     1      26.746  -9.498  30.052  1.00  0.00     0.000 C 
ENDROOT
BRANCH   1   2
ATOM      2  C   UNL     1      27.664 -10.683  29.680  1.00  0.00     0.000 C 
BRANCH   2   3
ATOM      3  C   UNL     1      27.622 -11.801  30.735  1.00  0.00     0.000 C 
BRANCH   3   4
ATOM      4  C   UNL     1      29.014 -12.061  31.337  1.00  0.00    -0.000 C 
BRANCH   4   5
ATOM      5  C   UNL     1      30.135 -12.027  30.287  1.00  0.00    -0.000 C 
BRANCH   5   6
ATOM      6  C   UNL     1      31.303 -11.117  30.693  1.00  0.00    -0.000 C 
BRANCH   6   7
ATOM      7  C   UNL     1      30.803  -9.941  31.547  1.00  0.00    -0.000 C 
BRANCH   7   8
ATOM      8  C   UNL     1      31.817  -8.789  31.623  1.00  0.00    -0.000 C 
BRANCH   8   9
ATOM      9  C   UNL     1      31.143  -7.412  31.763  1.00  0.00    -0.000 C 
BRANCH   9  10
ATOM     10  C   UNL     1      31.432  -6.762  33.134  1.00  0.00    -0.000 C 
BRANCH  10  11
ATOM     11  C   UNL     1      31.817  -7.776  34.225  1.00  0.00    -0.003 C 
ATOM     12  C   UNL     1      33.113  -7.413  34.949  1.00  0.00     0.004 C 
ENDBRANCH  10  11
ENDBRANCH   9  10
ENDBRANCH   8   9
ENDBRANCH   7   8
ENDBRANCH   6   7
ENDBRANCH   5   6
ENDBRANCH   4   5
ENDBRANCH   3   4
ENDBRANCH   2   3
ENDBRANCH   1   2
BRANCH   1  13
ATOM     13  C   UNL     1      25.565  -9.338  29.082  1.00  0.00     0.000 C 
BRANCH  13  14
ATOM     14  C   UNL     1      24.685  -8.130  29.452  1.00  0.00     0.000 C 
BRANCH  14  15
ATOM     15  C   UNL     1      23.605  -8.473  30.490  1.00  0.00     0.000 C 
BRANCH  15  16
ATOM     16  C   UNL     1      22.740  -9.673  30.067  1.00  0.00     0.000 C 
BRANCH  16  17
ATOM     17  C   UNL     1      22.632 -10.742  31.169  1.00  0.00     0.000 C 
BRANCH  17  18
ATOM     18  C   UNL     1      23.882 -11.636  31.243  1.00  0.00     0.000 C 
BRANCH  18  19
ATOM     19  C   UNL     1      24.416 -11.787  32.675  1.00  0.00     0.000 C 
BRANCH  19  20
ATOM     20  C   UNL     1      24.989 -10.474  33.235  1.00  0.00     0.006 C 
BRANCH  20  21
ATOM     21  C   UNL     1      24.662 -10.287  34.724  1.00  0.00     0.053 C 
BRANCH  21  22
ATOM     22  C   UNL     1      23.214 -10.545  35.011  1.00  0.00     0.041 C 
ATOM     23  O   UNL     1      22.332  -9.763  34.568  1.00  0.00    -0.550 OA
ATOM     24  O   UNL     1      22.838 -11.667  35.739  1.00  0.00    -0.550 OA
ENDBRANCH  21  22
ENDBRANCH  20  21
ENDBRANCH  19  20
ENDBRANCH  18  19
ENDBRANCH  17  18
ENDBRANCH  16  17
ENDBRANCH  15  16
ENDBRANCH  14  15
ENDBRANCH  13  14
ENDBRANCH   1  13
TORSDOF 20
ENDMDL
