MODEL 1
REMARK VINA RESULT:    -3.029      0.000      0.000
REMARK INTER + INTRA:          -4.903
REMARK INTER:                  -4.091
REMARK INTRA:                  -0.812
REMARK UNBOUND:                -0.812
REMARK SMILES CCCCCCC=CC(=O)[O-]
REMARK SMILES IDX 5 1 6 2 7 3 8 4 9 5 10 6 11 7 4 8 3 9 2 10 1 11
REMARK H PARENT
REMARK Flexibility Score: inf
ROOT
ATOM      1  C   UNL     1      48.739  38.127 137.611  1.00  0.00     0.004 C 
ENDROOT
BRANCH   1   2
ATOM      2  C   UNL     1      48.446  37.781 136.142  1.00  0.00     0.027 C 
BRANCH   2   3
ATOM      3  C   UNL     1      49.348  38.546 135.209  1.00  0.00    -0.025 C 
ATOM      4  C   UNL     1      50.080  38.025 134.210  1.00  0.00     0.020 C 
BRANCH   4   5
ATOM      5  C   UNL     1      50.202  36.595 133.859  1.00  0.00     0.064 C 
ATOM      6  O   UNL     1      51.137  35.878 134.297  1.00  0.00    -0.545 OA
ATOM      7  O   UNL     1      49.275  36.037 132.989  1.00  0.00    -0.545 OA
ENDBRANCH   4   5
ENDBRANCH   2   3
ENDBRANCH   1   2
BRANCH   1   8
ATOM      8  C   UNL     1      49.303  36.935 138.405  1.00  0.00     0.000 C 
BRANCH   8   9
ATOM      9  C   UNL     1      50.578  36.304 137.812  1.00  0.00    -0.000 C 
BRANCH   9  10
ATOM     10  C   UNL     1      51.892  36.992 138.220  1.00  0.00    -0.003 C 
ATOM     11  C   UNL     1      52.620  37.638 137.044  1.00  0.00     0.004 C 
ENDBRANCH   9  10
ENDBRANCH   8   9
ENDBRANCH   1   8
TORSDOF 6
ENDMDL
MODEL 2
REMARK VINA RESULT:    -3.025      1.965      3.979
REMARK INTER + INTRA:          -4.898
REMARK INTER:                  -4.099
REMARK INTRA:                  -0.800
REMARK UNBOUND:                -0.812
REMARK SMILES CCCCCCC=CC(=O)[O-]
REMARK SMILES IDX 5 1 6 2 7 3 8 4 9 5 10 6 11 7 4 8 3 9 2 10 1 11
REMARK H PARENT
REMARK Flexibility Score: inf
ROOT
ATOM      1  C   UNL     1      48.747  38.764 136.584  1.00  0.00     0.004 C 
ENDROOT
BRANCH   1   2
ATOM      2  C   UNL     1      48.921  38.054 137.936  1.00  0.00     0.027 C 
BRANCH   2   3
ATOM      3  C   UNL     1      49.373  36.629 137.751  1.00  0.00    -0.025 C 
ATOM      4  C   UNL     1      50.646  36.205 137.673  1.00  0.00     0.020 C 
BRANCH   4   5
ATOM      5  C   UNL     1      51.858  37.048 137.689  1.00  0.00     0.064 C 
ATOM      6  O   UNL     1      52.551  37.201 138.727  1.00  0.00    -0.545 OA
ATOM      7  O   UNL     1      52.221  37.723 136.531  1.00  0.00    -0.545 OA
ENDBRANCH   4   5
ENDBRANCH   2   3
ENDBRANCH   1   2
BRANCH   1   8
ATOM      8  C   UNL     1      47.565  38.213 135.768  1.00  0.00     0.000 C 
BRANCH   8   9
ATOM      9  C   UNL     1      47.908  37.802 134.322  1.00  0.00    -0.000 C 
BRANCH   9  10
ATOM     10  C   UNL     1      48.584  36.427 134.183  1.00  0.00    -0.003 C 
ATOM     11  C   UNL     1      50.081  36.522 133.896  1.00  0.00     0.004 C 
ENDBRANCH   9  10
ENDBRANCH   8   9
ENDBRANCH   1   8
TORSDOF 6
ENDMDL
MODEL 3
REMARK VINA RESULT:    -2.867      2.440      4.736
REMARK INTER + INTRA:          -4.684
REMARK INTER:                  -4.282
REMARK INTRA:                  -0.402
REMARK UNBOUND:                -0.812
REMARK SMILES CCCCCCC=CC(=O)[O-]
REMARK SMILES IDX 5 1 6 2 7 3 8 4 9 5 10 6 11 7 4 8 3 9 2 10 1 11
REMARK H PARENT
REMARK Flexibility Score: inf
ROOT
ATOM      1  C   UNL     1      48.838  38.766 136.492  1.00  0.00     0.004 C 
ENDROOT
BRANCH   1   2
ATOM      2  C   UNL     1      48.899  38.064 137.858  1.00  0.00     0.027 C 
BRANCH   2   3
ATOM      3  C   UNL     1      49.342  36.631 137.718  1.00  0.00    -0.025 C 
ATOM      4  C   UNL     1      50.613  36.195 137.679  1.00  0.00     0.020 C 
BRANCH   4   5
ATOM      5  C   UNL     1      51.832  37.029 137.703  1.00  0.00     0.064 C 
ATOM      6  O   UNL     1      52.507  37.193 138.751  1.00  0.00    -0.545 OA
ATOM      7  O   UNL     1      52.221  37.681 136.541  1.00  0.00    -0.545 OA
ENDBRANCH   4   5
ENDBRANCH   2   3
ENDBRANCH   1   2
BRANCH   1   8
ATOM      8  C   UNL     1      47.481  38.587 135.788  1.00  0.00     0.000 C 
BRANCH   8   9
ATOM      9  C   UNL     1      47.498  37.631 134.578  1.00  0.00    -0.000 C 
BRANCH   9  10
ATOM     10  C   UNL     1      46.120  37.354 133.952  1.00  0.00    -0.003 C 
ATOM     11  C   UNL     1      45.052  38.354 134.389  1.00  0.00     0.004 C 
ENDBRANCH   9  10
ENDBRANCH   8   9
ENDBRANCH   1   8
TORSDOF 6
ENDMDL
MODEL 4
REMARK VINA RESULT:    -2.811      3.561      5.810
REMARK INTER + INTRA:          -4.609
REMARK INTER:                  -4.318
REMARK INTRA:                  -0.291
REMARK UNBOUND:                -0.812
REMARK SMILES CCCCCCC=CC(=O)[O-]
REMARK SMILES IDX 5 1 6 2 7 3 8 4 9 5 10 6 11 7 4 8 3 9 2 10 1 11
REMARK H PARENT
REMARK Flexibility Score: inf
ROOT
ATOM      1  C   UNL     1      47.545  37.456 133.902  1.00  0.00     0.004 C 
ENDROOT
BRANCH   1   2
ATOM      2  C   UNL     1      48.418  37.164 135.133  1.00  0.00     0.027 C 
BRANCH   2   3
ATOM      3  C   UNL     1      48.177  38.173 136.225  1.00  0.00    -0.025 C 
ATOM      4  C   UNL     1      48.683  38.130 137.469  1.00  0.00     0.020 C 
BRANCH   4   5
ATOM      5  C   UNL     1      49.525  37.059 138.042  1.00  0.00     0.064 C 
ATOM      6  O   UNL     1      49.031  36.007 138.520  1.00  0.00    -0.545 OA
ATOM      7  O   UNL     1      50.901  37.240 138.088  1.00  0.00    -0.545 OA
ENDBRANCH   4   5
ENDBRANCH   2   3
ENDBRANCH   1   2
BRANCH   1   8
ATOM      8  C   UNL     1      46.117  37.896 134.272  1.00  0.00     0.000 C 
BRANCH   8   9
ATOM      9  C   UNL     1      44.992  37.041 133.657  1.00  0.00    -0.000 C 
BRANCH   9  10
ATOM     10  C   UNL     1      43.583  37.338 134.196  1.00  0.00    -0.003 C 
ATOM     11  C   UNL     1      42.768  36.075 134.469  1.00  0.00     0.004 C 
ENDBRANCH   9  10
ENDBRANCH   8   9
ENDBRANCH   1   8
TORSDOF 6
ENDMDL
MODEL 5
REMARK VINA RESULT:    -2.764      3.133      5.195
REMARK INTER + INTRA:          -4.546
REMARK INTER:                  -3.922
REMARK INTRA:                  -0.624
REMARK UNBOUND:                -0.812
REMARK SMILES CCCCCCC=CC(=O)[O-]
REMARK SMILES IDX 5 1 6 2 7 3 8 4 9 5 10 6 11 7 4 8 3 9 2 10 1 11
REMARK H PARENT
REMARK Flexibility Score: inf
ROOT
ATOM      1  C   UNL     1      47.050  37.991 134.025  1.00  0.00     0.004 C 
ENDROOT
BRANCH   1   2
ATOM      2  C   UNL     1      48.019  37.526 135.124  1.00  0.00     0.027 C 
BRANCH   2   3
ATOM      3  C   UNL     1      47.954  38.430 136.328  1.00  0.00    -0.025 C 
ATOM      4  C   UNL     1      48.649  38.281 137.468  1.00  0.00     0.020 C 
BRANCH   4   5
ATOM      5  C   UNL     1      49.568  37.174 137.803  1.00  0.00     0.064 C 
ATOM      6  O   UNL     1      50.766  37.164 137.423  1.00  0.00    -0.545 OA
ATOM      7  O   UNL     1      49.081  36.094 138.527  1.00  0.00    -0.545 OA
ENDBRANCH   4   5
ENDBRANCH   2   3
ENDBRANCH   1   2
BRANCH   1   8
ATOM      8  C   UNL     1      45.694  38.459 134.582  1.00  0.00     0.000 C 
BRANCH   8   9
ATOM      9  C   UNL     1      45.243  39.856 134.109  1.00  0.00    -0.000 C 
BRANCH   9  10
ATOM     10  C   UNL     1      45.549  41.002 135.089  1.00  0.00    -0.003 C 
ATOM     11  C   UNL     1      46.878  41.697 134.800  1.00  0.00     0.004 C 
ENDBRANCH   9  10
ENDBRANCH   8   9
ENDBRANCH   1   8
TORSDOF 6
ENDMDL
MODEL 6
REMARK VINA RESULT:    -2.759      1.080      2.551
REMARK INTER + INTRA:          -4.539
REMARK INTER:                  -3.604
REMARK INTRA:                  -0.936
REMARK UNBOUND:                -0.812
REMARK SMILES CCCCCCC=CC(=O)[O-]
REMARK SMILES IDX 5 1 6 2 7 3 8 4 9 5 10 6 11 7 4 8 3 9 2 10 1 11
REMARK H PARENT
REMARK Flexibility Score: inf
ROOT
ATOM      1  C   UNL     1      51.937  37.212 137.497  1.00  0.00     0.004 C 
ENDROOT
BRANCH   1   2
ATOM      2  C   UNL     1      52.570  37.449 136.116  1.00  0.00     0.027 C 
BRANCH   2   3
ATOM      3  C   UNL     1      51.717  38.361 135.273  1.00  0.00    -0.025 C 
ATOM      4  C   UNL     1      50.928  37.988 134.251  1.00  0.00     0.020 C 
BRANCH   4   5
ATOM      5  C   UNL     1      50.781  36.624 133.704  1.00  0.00     0.064 C 
ATOM      6  O   UNL     1      51.616  36.134 132.901  1.00  0.00    -0.545 OA
ATOM      7  O   UNL     1      49.667  35.875 134.058  1.00  0.00    -0.545 OA
ENDBRANCH   4   5
ENDBRANCH   2   3
ENDBRANCH   1   2
BRANCH   1   8
ATOM      8  C   UNL     1      51.080  35.935 137.550  1.00  0.00     0.000 C 
BRANCH   8   9
ATOM      9  C   UNL     1      49.558  36.176 137.621  1.00  0.00    -0.000 C 
BRANCH   9  10
ATOM     10  C   UNL     1      49.145  37.625 137.933  1.00  0.00    -0.003 C 
ATOM     11  C   UNL     1      48.300  38.257 136.829  1.00  0.00     0.004 C 
ENDBRANCH   9  10
ENDBRANCH   8   9
ENDBRANCH   1   8
TORSDOF 6
ENDMDL
MODEL 7
REMARK VINA RESULT:    -2.714      2.244      2.858
REMARK INTER + INTRA:          -4.478
REMARK INTER:                  -4.126
REMARK INTRA:                  -0.352
REMARK UNBOUND:                -0.812
REMARK SMILES CCCCCCC=CC(=O)[O-]
REMARK SMILES IDX 5 1 6 2 7 3 8 4 9 5 10 6 11 7 4 8 3 9 2 10 1 11
REMARK H PARENT
REMARK Flexibility Score: inf
ROOT
ATOM      1  C   UNL     1      48.752  38.150 137.655  1.00  0.00     0.004 C 
ENDROOT
BRANCH   1   2
ATOM      2  C   UNL     1      48.170  37.920 136.251  1.00  0.00     0.027 C 
BRANCH   2   3
ATOM      3  C   UNL     1      47.208  39.016 135.872  1.00  0.00    -0.025 C 
ATOM      4  C   UNL     1      46.307  38.970 134.876  1.00  0.00     0.020 C 
BRANCH   4   5
ATOM      5  C   UNL     1      46.114  37.868 133.912  1.00  0.00     0.064 C 
ATOM      6  O   UNL     1      45.154  37.062 134.003  1.00  0.00    -0.545 OA
ATOM      7  O   UNL     1      47.045  37.695 132.896  1.00  0.00    -0.545 OA
ENDBRANCH   4   5
ENDBRANCH   2   3
ENDBRANCH   1   2
BRANCH   1   8
ATOM      8  C   UNL     1      49.324  36.865 138.282  1.00  0.00     0.000 C 
BRANCH   8   9
ATOM      9  C   UNL     1      49.949  35.875 137.279  1.00  0.00    -0.000 C 
BRANCH   9  10
ATOM     10  C   UNL     1      51.469  36.019 137.088  1.00  0.00    -0.003 C 
ATOM     11  C   UNL     1      52.140  36.817 138.205  1.00  0.00     0.004 C 
ENDBRANCH   9  10
ENDBRANCH   8   9
ENDBRANCH   1   8
TORSDOF 6
ENDMDL
MODEL 8
REMARK VINA RESULT:    -2.680      2.803      3.948
REMARK INTER + INTRA:          -4.432
REMARK INTER:                  -3.634
REMARK INTRA:                  -0.799
REMARK UNBOUND:                -0.812
REMARK SMILES CCCCCCC=CC(=O)[O-]
REMARK SMILES IDX 5 1 6 2 7 3 8 4 9 5 10 6 11 7 4 8 3 9 2 10 1 11
REMARK H PARENT
REMARK Flexibility Score: inf
ROOT
ATOM      1  C   UNL     1      49.674  35.952 136.217  1.00  0.00     0.004 C 
ENDROOT
BRANCH   1   2
ATOM      2  C   UNL     1      51.151  35.875 135.796  1.00  0.00     0.027 C 
BRANCH   2   3
ATOM      3  C   UNL     1      51.732  37.249 135.585  1.00  0.00    -0.025 C 
ATOM      4  C   UNL     1      52.694  37.824 136.326  1.00  0.00     0.020 C 
BRANCH   4   5
ATOM      5  C   UNL     1      53.336  37.259 137.530  1.00  0.00     0.064 C 
ATOM      6  O   UNL     1      54.480  36.740 137.494  1.00  0.00    -0.545 OA
ATOM      7  O   UNL     1      52.637  37.268 138.730  1.00  0.00    -0.545 OA
ENDBRANCH   4   5
ENDBRANCH   2   3
ENDBRANCH   1   2
BRANCH   1   8
ATOM      8  C   UNL     1      49.492  36.422 137.671  1.00  0.00     0.000 C 
BRANCH   8   9
ATOM      9  C   UNL     1      48.902  37.838 137.827  1.00  0.00    -0.000 C 
BRANCH   9  10
ATOM     10  C   UNL     1      48.265  38.419 136.554  1.00  0.00    -0.003 C 
ATOM     11  C   UNL     1      48.979  39.669 136.044  1.00  0.00     0.004 C 
ENDBRANCH   9  10
ENDBRANCH   8   9
ENDBRANCH   1   8
TORSDOF 6
ENDMDL
MODEL 9
REMARK VINA RESULT:    -2.642      2.461      4.377
REMARK INTER + INTRA:          -4.380
REMARK INTER:                  -4.008
REMARK INTRA:                  -0.373
REMARK UNBOUND:                -0.812
REMARK SMILES CCCCCCC=CC(=O)[O-]
REMARK SMILES IDX 5 1 6 2 7 3 8 4 9 5 10 6 11 7 4 8 3 9 2 10 1 11
REMARK H PARENT
REMARK Flexibility Score: inf
ROOT
ATOM      1  C   UNL     1      48.034  38.208 136.176  1.00  0.00     0.004 C 
ENDROOT
BRANCH   1   2
ATOM      2  C   UNL     1      48.747  38.102 137.535  1.00  0.00     0.027 C 
BRANCH   2   3
ATOM      3  C   UNL     1      49.196  36.690 137.808  1.00  0.00    -0.025 C 
ATOM      4  C   UNL     1      50.468  36.266 137.893  1.00  0.00     0.020 C 
BRANCH   4   5
ATOM      5  C   UNL     1      51.684  37.076 137.675  1.00  0.00     0.064 C 
ATOM      6  O   UNL     1      52.523  37.278 138.589  1.00  0.00    -0.545 OA
ATOM      7  O   UNL     1      51.885  37.662 136.433  1.00  0.00    -0.545 OA
ENDBRANCH   4   5
ENDBRANCH   2   3
ENDBRANCH   1   2
BRANCH   1   8
ATOM      8  C   UNL     1      48.091  39.626 135.581  1.00  0.00     0.000 C 
BRANCH   8   9
ATOM      9  C   UNL     1      49.467  40.316 135.673  1.00  0.00    -0.000 C 
BRANCH   9  10
ATOM     10  C   UNL     1      49.421  41.805 136.054  1.00  0.00    -0.003 C 
ATOM     11  C   UNL     1      48.254  42.552 135.412  1.00  0.00     0.004 C 
ENDBRANCH   9  10
ENDBRANCH   8   9
ENDBRANCH   1   8
TORSDOF 6
ENDMDL
