MODEL 1
REMARK VINA RESULT:     0.000      0.000      0.000
REMARK INTER + INTRA:          -0.286
REMARK INTER:                   0.000
REMARK INTRA:                  -0.286
REMARK UNBOUND:                -0.286
REMARK SMILES CC1=CCC[C@H](C)C(=O)C[C@@H](C(C)C)C(=O)C1
REMARK SMILES IDX 8 1 9 2 6 3 7 4 5 5 4 6 3 7 2 8 1 9 10 11 11 12 15 13 16 14
REMARK SMILES IDX 17 15 12 17 13 18 14 19
REMARK H PARENT
REMARK Flexibility Score: 70.00
ROOT
ATOM      1  C   UNL     1     206.815 157.804 188.257  1.00  0.00     0.136 C 
ATOM      2  O   UNL     1     205.885 158.595 188.179  1.00  0.00    -0.299 OA
ENDROOT
BRANCH   1   3
ATOM      3  C   UNL     1     206.968 156.938 189.495  1.00  0.00     0.053 C 
ATOM      4  C   UNL     1     206.922 157.789 190.773  1.00  0.00     0.016 C 
BRANCH   3   5
ATOM      5  C   UNL     1     205.874 155.842 189.520  1.00  0.00     0.015 C 
BRANCH   5   6
ATOM      6  C   UNL     1     206.357 154.521 188.893  1.00  0.00     0.028 C 
BRANCH   6   7
ATOM      7  C   UNL     1     205.537 154.165 187.680  1.00  0.00    -0.028 C 
ATOM      8  C   UNL     1     205.952 154.311 186.400  1.00  0.00    -0.070 CG0
ATOM      9  C   UNL     1     204.981 153.964 185.299  1.00  0.00     0.039 C 
ATOM     10  G   UNL     1     207.343 154.800 186.026  1.00  0.00     0.000 G0
ENDBRANCH   6   7
ENDBRANCH   5   6
ENDBRANCH   3   5
ENDBRANCH   1   3
BRANCH   1  11
ATOM     11  C   UNL     1     207.777 157.690 187.098  1.00  0.00     0.087 C 
BRANCH  11  12
ATOM     12  C   UNL     1     207.043 157.439 185.756  1.00  0.00     0.066 C 
BRANCH  12  13
ATOM     13  C   UNL     1     207.329 156.056 185.179  1.00  0.00     0.140 C 
ATOM     14  O   UNL     1     207.627 155.970 183.996  1.00  0.00    -0.299 OA
BRANCH  13  15
ATOM     15  C   UNL     1     207.350 154.803 186.024  1.00  0.00     0.106 CG0
ATOM     16  G   UNL     1     205.952 154.324 186.385  1.00  0.00     0.000 G0
ENDBRANCH  13  15
ENDBRANCH  12  13
BRANCH  12  17
ATOM     17  C   UNL     1     207.224 158.611 184.740  1.00  0.00    -0.006 C 
ATOM     18  C   UNL     1     205.921 159.159 184.135  1.00  0.00     0.008 C 
ATOM     19  C   UNL     1     208.054 159.756 185.340  1.00  0.00     0.008 C 
ENDBRANCH  12  17
ENDBRANCH  11  12
ENDBRANCH   1  11
TORSDOF 1
ENDMDL
MODEL 2
REMARK VINA RESULT:     0.001      9.165     10.722
REMARK INTER + INTRA:          -0.285
REMARK INTER:                   0.000
REMARK INTRA:                  -0.285
REMARK UNBOUND:                -0.286
REMARK SMILES CC1=CCC[C@H](C)C(=O)C[C@@H](C(C)C)C(=O)C1
REMARK SMILES IDX 8 1 9 2 6 3 7 4 5 5 4 6 3 7 2 8 1 9 10 11 11 12 15 13 16 14
REMARK SMILES IDX 17 15 12 17 13 18 14 19
REMARK H PARENT
REMARK Flexibility Score: 70.00
ROOT
ATOM      1  C   UNL     1     213.735 156.626 179.938  1.00  0.00     0.136 C 
ATOM      2  O   UNL     1     214.681 155.853 179.879  1.00  0.00    -0.299 OA
ENDROOT
BRANCH   1   3
ATOM      3  C   UNL     1     213.984 158.108 180.156  1.00  0.00     0.053 C 
ATOM      4  C   UNL     1     214.888 158.342 181.376  1.00  0.00     0.016 C 
BRANCH   3   5
ATOM      5  C   UNL     1     214.596 158.742 178.883  1.00  0.00     0.015 C 
BRANCH   5   6
ATOM      6  C   UNL     1     213.540 159.459 178.023  1.00  0.00     0.028 C 
BRANCH   6   7
ATOM      7  C   UNL     1     212.386 159.936 178.866  1.00  0.00    -0.028 C 
ATOM      8  C   UNL     1     211.099 159.555 178.696  1.00  0.00    -0.070 CG0
ATOM      9  C   UNL     1     210.054 160.176 179.588  1.00  0.00     0.039 C 
ATOM     10  G   UNL     1     210.663 158.531 177.658  1.00  0.00     0.000 G0
ENDBRANCH   6   7
ENDBRANCH   5   6
ENDBRANCH   3   5
ENDBRANCH   1   3
BRANCH   1  11
ATOM     11  C   UNL     1     212.336 156.084 179.763  1.00  0.00     0.087 C 
BRANCH  11  12
ATOM     12  C   UNL     1     211.832 156.237 178.305  1.00  0.00     0.066 C 
BRANCH  12  13
ATOM     13  C   UNL     1     210.598 157.128 178.199  1.00  0.00     0.140 C 
ATOM     14  O   UNL     1     209.540 156.711 178.649  1.00  0.00    -0.299 OA
BRANCH  13  15
ATOM     15  C   UNL     1     210.648 158.534 177.649  1.00  0.00     0.106 CG0
ATOM     16  G   UNL     1     211.097 159.549 178.689  1.00  0.00     0.000 G0
ENDBRANCH  13  15
ENDBRANCH  12  13
BRANCH  12  17
ATOM     17  C   UNL     1     211.704 154.869 177.563  1.00  0.00    -0.006 C 
ATOM     18  C   UNL     1     212.619 154.700 176.339  1.00  0.00     0.008 C 
ATOM     19  C   UNL     1     211.882 153.685 178.527  1.00  0.00     0.008 C 
ENDBRANCH  12  17
ENDBRANCH  11  12
ENDBRANCH   1  11
TORSDOF 1
ENDMDL
MODEL 3
REMARK VINA RESULT:     0.004      7.037      9.249
REMARK INTER + INTRA:          -0.280
REMARK INTER:                   0.000
REMARK INTRA:                  -0.280
REMARK UNBOUND:                -0.286
REMARK SMILES CC1=CCC[C@H](C)C(=O)C[C@@H](C(C)C)C(=O)C1
REMARK SMILES IDX 8 1 9 2 6 3 7 4 5 5 4 6 3 7 2 8 1 9 10 11 11 12 15 13 16 14
REMARK SMILES IDX 17 15 12 17 13 18 14 19
REMARK H PARENT
REMARK Flexibility Score: 70.00
ROOT
ATOM      1  C   UNL     1     211.544 157.797 182.175  1.00  0.00     0.136 C 
ATOM      2  O   UNL     1     210.683 156.981 182.474  1.00  0.00    -0.299 OA
ENDROOT
BRANCH   1   3
ATOM      3  C   UNL     1     211.553 159.163 182.838  1.00  0.00     0.053 C 
ATOM      4  C   UNL     1     210.284 159.955 182.484  1.00  0.00     0.016 C 
BRANCH   3   5
ATOM      5  C   UNL     1     211.702 159.014 184.372  1.00  0.00     0.015 C 
BRANCH   5   6
ATOM      6  C   UNL     1     213.167 158.804 184.797  1.00  0.00     0.028 C 
BRANCH   6   7
ATOM      7  C   UNL     1     214.086 159.747 184.064  1.00  0.00    -0.028 C 
ATOM      8  C   UNL     1     215.182 159.367 183.368  1.00  0.00    -0.070 CG0
ATOM      9  C   UNL     1     216.030 160.447 182.743  1.00  0.00     0.039 C 
ATOM     10  G   UNL     1     215.590 157.914 183.182  1.00  0.00     0.000 G0
ENDBRANCH   6   7
ENDBRANCH   5   6
ENDBRANCH   3   5
ENDBRANCH   1   3
BRANCH   1  11
ATOM     11  C   UNL     1     212.602 157.408 181.169  1.00  0.00     0.087 C 
BRANCH  11  12
ATOM     12  C   UNL     1     213.732 156.562 181.809  1.00  0.00     0.066 C 
BRANCH  12  13
ATOM     13  C   UNL     1     215.056 157.315 181.890  1.00  0.00     0.140 C 
ATOM     14  O   UNL     1     215.677 157.512 180.855  1.00  0.00    -0.299 OA
BRANCH  13  15
ATOM     15  C   UNL     1     215.586 157.905 183.176  1.00  0.00     0.106 CG0
ATOM     16  G   UNL     1     215.179 159.360 183.358  1.00  0.00     0.000 G0
ENDBRANCH  13  15
ENDBRANCH  12  13
BRANCH  12  17
ATOM     17  C   UNL     1     213.840 155.132 181.191  1.00  0.00    -0.006 C 
ATOM     18  C   UNL     1     213.303 153.995 182.076  1.00  0.00     0.008 C 
ATOM     19  C   UNL     1     213.198 155.069 179.796  1.00  0.00     0.008 C 
ENDBRANCH  12  17
ENDBRANCH  11  12
ENDBRANCH   1  11
TORSDOF 1
ENDMDL
MODEL 4
REMARK VINA RESULT:     0.017      8.550     10.376
REMARK INTER + INTRA:          -0.260
REMARK INTER:                   0.000
REMARK INTRA:                  -0.260
REMARK UNBOUND:                -0.286
REMARK SMILES CC1=CCC[C@H](C)C(=O)C[C@@H](C(C)C)C(=O)C1
REMARK SMILES IDX 8 1 9 2 6 3 7 4 5 5 4 6 3 7 2 8 1 9 10 11 11 12 15 13 16 14
REMARK SMILES IDX 17 15 12 17 13 18 14 19
REMARK H PARENT
REMARK Flexibility Score: 70.00
ROOT
ATOM      1  C   UNL     1     214.813 154.817 186.373  1.00  0.00     0.136 C 
ATOM      2  O   UNL     1     214.041 154.064 186.949  1.00  0.00    -0.299 OA
ENDROOT
BRANCH   1   3
ATOM      3  C   UNL     1     214.764 154.937 184.860  1.00  0.00     0.053 C 
ATOM      4  C   UNL     1     213.733 155.989 184.424  1.00  0.00     0.016 C 
BRANCH   3   5
ATOM      5  C   UNL     1     216.169 155.273 184.303  1.00  0.00     0.015 C 
BRANCH   5   6
ATOM      6  C   UNL     1     216.219 156.666 183.649  1.00  0.00     0.028 C 
BRANCH   6   7
ATOM      7  C   UNL     1     217.400 157.457 184.147  1.00  0.00    -0.028 C 
ATOM      8  C   UNL     1     217.338 158.411 185.106  1.00  0.00    -0.070 CG0
ATOM      9  C   UNL     1     218.606 159.154 185.444  1.00  0.00     0.039 C 
ATOM     10  G   UNL     1     216.060 158.759 185.854  1.00  0.00     0.000 G0
ENDBRANCH   6   7
ENDBRANCH   5   6
ENDBRANCH   3   5
ENDBRANCH   1   3
BRANCH   1  11
ATOM     11  C   UNL     1     215.784 155.636 187.192  1.00  0.00     0.087 C 
BRANCH  11  12
ATOM     12  C   UNL     1     215.170 156.986 187.643  1.00  0.00     0.066 C 
BRANCH  12  13
ATOM     13  C   UNL     1     216.034 158.183 187.258  1.00  0.00     0.140 C 
ATOM     14  O   UNL     1     216.795 158.643 188.097  1.00  0.00    -0.299 OA
BRANCH  13  15
ATOM     15  C   UNL     1     216.057 158.762 185.863  1.00  0.00     0.106 CG0
ATOM     16  G   UNL     1     217.336 158.419 185.114  1.00  0.00     0.000 G0
ENDBRANCH  13  15
ENDBRANCH  12  13
BRANCH  12  17
ATOM     17  C   UNL     1     214.713 156.974 189.136  1.00  0.00    -0.006 C 
ATOM     18  C   UNL     1     213.197 156.842 189.355  1.00  0.00     0.008 C 
ATOM     19  C   UNL     1     215.463 155.906 189.947  1.00  0.00     0.008 C 
ENDBRANCH  12  17
ENDBRANCH  11  12
ENDBRANCH   1  11
TORSDOF 1
ENDMDL
MODEL 5
REMARK VINA RESULT:     0.028      6.955      9.312
REMARK INTER + INTRA:          -0.244
REMARK INTER:                   0.000
REMARK INTRA:                  -0.244
REMARK UNBOUND:                -0.286
REMARK SMILES CC1=CCC[C@H](C)C(=O)C[C@@H](C(C)C)C(=O)C1
REMARK SMILES IDX 8 1 9 2 6 3 7 4 5 5 4 6 3 7 2 8 1 9 10 11 11 12 15 13 16 14
REMARK SMILES IDX 17 15 12 17 13 18 14 19
REMARK H PARENT
REMARK Flexibility Score: 70.00
ROOT
ATOM      1  C   UNL     1     209.196 161.354 183.194  1.00  0.00     0.136 C 
ATOM      2  O   UNL     1     208.704 160.684 184.090  1.00  0.00    -0.299 OA
ENDROOT
BRANCH   1   3
ATOM      3  C   UNL     1     208.297 162.140 182.258  1.00  0.00     0.053 C 
ATOM      4  C   UNL     1     207.160 161.260 181.716  1.00  0.00     0.016 C 
BRANCH   3   5
ATOM      5  C   UNL     1     207.733 163.390 182.979  1.00  0.00     0.015 C 
BRANCH   5   6
ATOM      6  C   UNL     1     208.579 164.648 182.712  1.00  0.00     0.028 C 
BRANCH   6   7
ATOM      7  C   UNL     1     209.134 165.212 183.994  1.00  0.00    -0.028 C 
ATOM      8  C   UNL     1     210.407 165.043 184.422  1.00  0.00    -0.070 CG0
ATOM      9  C   UNL     1     210.783 165.622 185.763  1.00  0.00     0.039 C 
ATOM     10  G   UNL     1     211.466 164.307 183.616  1.00  0.00     0.000 G0
ENDBRANCH   6   7
ENDBRANCH   5   6
ENDBRANCH   3   5
ENDBRANCH   1   3
BRANCH   1  11
ATOM     11  C   UNL     1     210.701 161.404 183.060  1.00  0.00     0.087 C 
BRANCH  11  12
ATOM     12  C   UNL     1     211.392 161.762 184.400  1.00  0.00     0.066 C 
BRANCH  12  13
ATOM     13  C   UNL     1     212.048 163.139 184.375  1.00  0.00     0.140 C 
ATOM     14  O   UNL     1     213.132 163.276 184.924  1.00  0.00    -0.299 OA
BRANCH  13  15
ATOM     15  C   UNL     1     211.463 164.312 183.624  1.00  0.00     0.106 CG0
ATOM     16  G   UNL     1     210.395 165.039 184.427  1.00  0.00     0.000 G0
ENDBRANCH  13  15
ENDBRANCH  12  13
BRANCH  12  17
ATOM     17  C   UNL     1     212.315 160.618 184.928  1.00  0.00    -0.006 C 
ATOM     18  C   UNL     1     211.721 159.772 186.067  1.00  0.00     0.008 C 
ATOM     19  C   UNL     1     212.798 159.709 183.787  1.00  0.00     0.008 C 
ENDBRANCH  12  17
ENDBRANCH  11  12
ENDBRANCH   1  11
TORSDOF 1
ENDMDL
MODEL 6
REMARK VINA RESULT:     0.035      8.150     10.156
REMARK INTER + INTRA:          -0.233
REMARK INTER:                   0.000
REMARK INTRA:                  -0.233
REMARK UNBOUND:                -0.286
REMARK SMILES CC1=CCC[C@H](C)C(=O)C[C@@H](C(C)C)C(=O)C1
REMARK SMILES IDX 8 1 9 2 6 3 7 4 5 5 4 6 3 7 2 8 1 9 10 11 11 12 15 13 16 14
REMARK SMILES IDX 17 15 12 17 13 18 14 19
REMARK H PARENT
REMARK Flexibility Score: 70.00
ROOT
ATOM      1  C   UNL     1     217.541 159.916 184.737  1.00  0.00     0.136 C 
ATOM      2  O   UNL     1     218.512 160.325 184.118  1.00  0.00    -0.299 OA
ENDROOT
BRANCH   1   3
ATOM      3  C   UNL     1     217.137 160.587 186.038  1.00  0.00     0.053 C 
ATOM      4  C   UNL     1     218.322 160.655 187.014  1.00  0.00     0.016 C 
BRANCH   3   5
ATOM      5  C   UNL     1     216.567 161.999 185.758  1.00  0.00     0.015 C 
BRANCH   5   6
ATOM      6  C   UNL     1     215.031 162.038 185.851  1.00  0.00     0.028 C 
BRANCH   6   7
ATOM      7  C   UNL     1     214.518 160.987 186.801  1.00  0.00    -0.028 C 
ATOM      8  C   UNL     1     213.709 159.961 186.451  1.00  0.00    -0.070 CG0
ATOM      9  C   UNL     1     213.236 159.031 187.540  1.00  0.00     0.039 C 
ATOM     10  G   UNL     1     213.264 159.702 185.019  1.00  0.00     0.000 G0
ENDBRANCH   6   7
ENDBRANCH   5   6
ENDBRANCH   3   5
ENDBRANCH   1   3
BRANCH   1  11
ATOM     11  C   UNL     1     216.746 158.762 184.171  1.00  0.00     0.087 C 
BRANCH  11  12
ATOM     12  C   UNL     1     215.418 159.233 183.525  1.00  0.00     0.066 C 
BRANCH  12  13
ATOM     13  C   UNL     1     214.189 158.756 184.292  1.00  0.00     0.140 C 
ATOM     14  O   UNL     1     213.990 157.552 184.381  1.00  0.00    -0.299 OA
BRANCH  13  15
ATOM     15  C   UNL     1     213.260 159.699 185.022  1.00  0.00     0.106 CG0
ATOM     16  G   UNL     1     213.709 159.963 186.451  1.00  0.00     0.000 G0
ENDBRANCH  13  15
ENDBRANCH  12  13
BRANCH  12  17
ATOM     17  C   UNL     1     215.364 158.962 181.988  1.00  0.00    -0.006 C 
ATOM     18  C   UNL     1     215.462 160.212 181.099  1.00  0.00     0.008 C 
ATOM     19  C   UNL     1     216.412 157.923 181.561  1.00  0.00     0.008 C 
ENDBRANCH  12  17
ENDBRANCH  11  12
ENDBRANCH   1  11
TORSDOF 1
ENDMDL
MODEL 7
REMARK VINA RESULT:     0.039      9.514     11.385
REMARK INTER + INTRA:          -0.227
REMARK INTER:                   0.000
REMARK INTRA:                  -0.227
REMARK UNBOUND:                -0.286
REMARK SMILES CC1=CCC[C@H](C)C(=O)C[C@@H](C(C)C)C(=O)C1
REMARK SMILES IDX 8 1 9 2 6 3 7 4 5 5 4 6 3 7 2 8 1 9 10 11 11 12 15 13 16 14
REMARK SMILES IDX 17 15 12 17 13 18 14 19
REMARK H PARENT
REMARK Flexibility Score: 70.00
ROOT
ATOM      1  C   UNL     1     214.036 156.174 181.600  1.00  0.00     0.136 C 
ATOM      2  O   UNL     1     212.932 155.696 181.820  1.00  0.00    -0.299 OA
ENDROOT
BRANCH   1   3
ATOM      3  C   UNL     1     215.248 155.265 181.513  1.00  0.00     0.053 C 
ATOM      4  C   UNL     1     215.368 154.384 182.766  1.00  0.00     0.016 C 
BRANCH   3   5
ATOM      5  C   UNL     1     215.178 154.398 180.232  1.00  0.00     0.015 C 
BRANCH   5   6
ATOM      6  C   UNL     1     215.719 155.139 178.996  1.00  0.00     0.028 C 
BRANCH   6   7
ATOM      7  C   UNL     1     216.987 155.886 179.322  1.00  0.00    -0.028 C 
ATOM      8  C   UNL     1     217.219 157.182 179.011  1.00  0.00    -0.070 CG0
ATOM      9  C   UNL     1     218.569 157.760 179.355  1.00  0.00     0.039 C 
ATOM     10  G   UNL     1     216.186 158.076 178.341  1.00  0.00     0.000 G0
ENDBRANCH   6   7
ENDBRANCH   5   6
ENDBRANCH   3   5
ENDBRANCH   1   3
BRANCH   1  11
ATOM     11  C   UNL     1     214.158 157.665 181.389  1.00  0.00     0.087 C 
BRANCH  11  12
ATOM     12  C   UNL     1     214.014 158.055 179.896  1.00  0.00     0.066 C 
BRANCH  12  13
ATOM     13  C   UNL     1     215.259 158.743 179.345  1.00  0.00     0.140 C 
ATOM     14  O   UNL     1     215.561 159.842 179.789  1.00  0.00    -0.299 OA
BRANCH  13  15
ATOM     15  C   UNL     1     216.184 158.088 178.345  1.00  0.00     0.106 CG0
ATOM     16  G   UNL     1     217.214 157.188 179.011  1.00  0.00     0.000 G0
ENDBRANCH  13  15
ENDBRANCH  12  13
BRANCH  12  17
ATOM     17  C   UNL     1     212.677 158.802 179.592  1.00  0.00    -0.006 C 
ATOM     18  C   UNL     1     211.520 157.907 179.118  1.00  0.00     0.008 C 
ATOM     19  C   UNL     1     212.228 159.664 180.783  1.00  0.00     0.008 C 
ENDBRANCH  12  17
ENDBRANCH  11  12
ENDBRANCH   1  11
TORSDOF 1
ENDMDL
MODEL 8
REMARK VINA RESULT:     0.039      9.464     11.461
REMARK INTER + INTRA:          -0.227
REMARK INTER:                   0.000
REMARK INTRA:                  -0.227
REMARK UNBOUND:                -0.286
REMARK SMILES CC1=CCC[C@H](C)C(=O)C[C@@H](C(C)C)C(=O)C1
REMARK SMILES IDX 8 1 9 2 6 3 7 4 5 5 4 6 3 7 2 8 1 9 10 11 11 12 15 13 16 14
REMARK SMILES IDX 17 15 12 17 13 18 14 19
REMARK H PARENT
REMARK Flexibility Score: 70.00
ROOT
ATOM      1  C   UNL     1     213.905 158.019 181.472  1.00  0.00     0.136 C 
ATOM      2  O   UNL     1     212.933 158.190 180.750  1.00  0.00    -0.299 OA
ENDROOT
BRANCH   1   3
ATOM      3  C   UNL     1     214.500 156.631 181.621  1.00  0.00     0.053 C 
ATOM      4  C   UNL     1     213.428 155.613 182.041  1.00  0.00     0.016 C 
BRANCH   3   5
ATOM      5  C   UNL     1     215.188 156.198 180.303  1.00  0.00     0.015 C 
BRANCH   5   6
ATOM      6  C   UNL     1     216.626 156.737 180.190  1.00  0.00     0.028 C 
BRANCH   6   7
ATOM      7  C   UNL     1     217.363 156.595 181.497  1.00  0.00    -0.028 C 
ATOM      8  C   UNL     1     218.062 157.586 182.098  1.00  0.00    -0.070 CG0
ATOM      9  C   UNL     1     218.795 157.258 183.375  1.00  0.00     0.039 C 
ATOM     10  G   UNL     1     218.135 159.004 181.552  1.00  0.00     0.000 G0
ENDBRANCH   6   7
ENDBRANCH   5   6
ENDBRANCH   3   5
ENDBRANCH   1   3
BRANCH   1  11
ATOM     11  C   UNL     1     214.510 159.210 182.179  1.00  0.00     0.087 C 
BRANCH  11  12
ATOM     12  C   UNL     1     215.622 159.884 181.335  1.00  0.00     0.066 C 
BRANCH  12  13
ATOM     13  C   UNL     1     216.979 159.869 182.031  1.00  0.00     0.140 C 
ATOM     14  O   UNL     1     217.113 160.520 183.057  1.00  0.00    -0.299 OA
BRANCH  13  15
ATOM     15  C   UNL     1     218.133 159.014 181.560  1.00  0.00     0.106 CG0
ATOM     16  G   UNL     1     218.060 157.594 182.099  1.00  0.00     0.000 G0
ENDBRANCH  13  15
ENDBRANCH  12  13
BRANCH  12  17
ATOM     17  C   UNL     1     215.197 161.280 180.780  1.00  0.00    -0.006 C 
ATOM     18  C   UNL     1     214.602 161.268 179.363  1.00  0.00     0.008 C 
ATOM     19  C   UNL     1     214.251 162.009 181.748  1.00  0.00     0.008 C 
ENDBRANCH  12  17
ENDBRANCH  11  12
ENDBRANCH   1  11
TORSDOF 1
ENDMDL
MODEL 9
REMARK VINA RESULT:     0.042      8.599     10.290
REMARK INTER + INTRA:          -0.222
REMARK INTER:                   0.000
REMARK INTRA:                  -0.222
REMARK UNBOUND:                -0.286
REMARK SMILES CC1=CCC[C@H](C)C(=O)C[C@@H](C(C)C)C(=O)C1
REMARK SMILES IDX 8 1 9 2 6 3 7 4 5 5 4 6 3 7 2 8 1 9 10 11 11 12 15 13 16 14
REMARK SMILES IDX 17 15 12 17 13 18 14 19
REMARK H PARENT
REMARK Flexibility Score: 70.00
ROOT
ATOM      1  C   UNL     1     210.625 154.361 178.861  1.00  0.00     0.136 C 
ATOM      2  O   UNL     1     210.935 153.215 178.568  1.00  0.00    -0.299 OA
ENDROOT
BRANCH   1   3
ATOM      3  C   UNL     1     211.674 155.458 178.832  1.00  0.00     0.053 C 
ATOM      4  C   UNL     1     212.869 155.101 179.730  1.00  0.00     0.016 C 
BRANCH   3   5
ATOM      5  C   UNL     1     212.134 155.722 177.377  1.00  0.00     0.015 C 
BRANCH   5   6
ATOM      6  C   UNL     1     211.423 156.937 176.752  1.00  0.00     0.028 C 
BRANCH   6   7
ATOM      7  C   UNL     1     210.995 157.919 177.811  1.00  0.00    -0.028 C 
ATOM      8  C   UNL     1     209.714 158.283 178.052  1.00  0.00    -0.070 CG0
ATOM      9  C   UNL     1     209.464 159.329 179.110  1.00  0.00     0.039 C 
ATOM     10  G   UNL     1     208.526 157.685 177.315  1.00  0.00     0.000 G0
ENDBRANCH   6   7
ENDBRANCH   5   6
ENDBRANCH   3   5
ENDBRANCH   1   3
BRANCH   1  11
ATOM     11  C   UNL     1     209.187 154.662 179.216  1.00  0.00     0.087 C 
BRANCH  11  12
ATOM     12  C   UNL     1     208.363 155.106 177.981  1.00  0.00     0.066 C 
BRANCH  12  13
ATOM     13  C   UNL     1     207.881 156.549 178.084  1.00  0.00     0.140 C 
ATOM     14  O   UNL     1     206.987 156.808 178.878  1.00  0.00    -0.299 OA
BRANCH  13  15
ATOM     15  C   UNL     1     208.520 157.684 177.317  1.00  0.00     0.106 CG0
ATOM     16  G   UNL     1     209.714 158.277 178.049  1.00  0.00     0.000 G0
ENDBRANCH  13  15
ENDBRANCH  12  13
BRANCH  12  17
ATOM     17  C   UNL     1     207.250 154.080 177.597  1.00  0.00    -0.006 C 
ATOM     18  C   UNL     1     207.074 153.840 176.088  1.00  0.00     0.008 C 
ATOM     19  C   UNL     1     207.437 152.742 178.330  1.00  0.00     0.008 C 
ENDBRANCH  12  17
ENDBRANCH  11  12
ENDBRANCH   1  11
TORSDOF 1
ENDMDL
