MODEL 1
REMARK VINA RESULT:    -7.520      0.000      0.000
REMARK INTER + INTRA:         -10.550
REMARK INTER:                  -9.938
REMARK INTRA:                  -0.612
REMARK UNBOUND:                -0.612
REMARK SMILES CC[C@H](C=C[C@H](C)[C@H]1CC[C@@H]2[C@@H]3CC[C@H]4C[C@H](O)CC[C@@]4(C)[C@H]3CC[C@@]21C)C(C)C
REMARK SMILES IDX 6 1 7 2 5 3 4 4 3 5 2 6 1 7 28 8 29 9 30 10 8 11 9 12 26 13
REMARK SMILES IDX 10 14 11 15 25 16 27 17 12 18 24 19 23 20 13 21 21 22 14 23
REMARK SMILES IDX 15 24 20 25 22 26 16 27 19 28 17 29 18 30
REMARK H PARENT 18 31
REMARK Flexibility Score: inf
ROOT
ATOM      1  C   UNL     1      43.921   8.879 117.762  1.00  0.00     0.012 C 
ATOM      2  C   UNL     1      44.642   7.970 118.773  1.00  0.00     0.012 C 
ENDROOT
BRANCH   1   3
ATOM      3  C   UNL     1      43.348  10.099 118.460  1.00  0.00    -0.028 C 
ATOM      4  C   UNL     1      43.748  10.529 119.671  1.00  0.00    -0.027 C 
BRANCH   4   5
ATOM      5  C   UNL     1      43.148  11.721 120.405  1.00  0.00     0.014 C 
BRANCH   5   6
ATOM      6  C   UNL     1      41.729  11.489 121.004  1.00  0.00     0.004 C 
ATOM      7  C   UNL     1      41.342  10.038 121.302  1.00  0.00     0.004 C 
ENDBRANCH   5   6
BRANCH   5   8
ATOM      8  C   UNL     1      44.136  12.497 121.335  1.00  0.00    -0.011 C 
ATOM      9  C   UNL     1      43.879  12.352 122.842  1.00  0.00     0.008 C 
ATOM     10  C   UNL     1      45.601  12.160 121.012  1.00  0.00     0.008 C 
ENDBRANCH   5   8
ENDBRANCH   4   5
ENDBRANCH   1   3
BRANCH   1  11
ATOM     11  C   UNL     1      44.733   9.248 116.461  1.00  0.00     0.002 C 
ATOM     12  C   UNL     1      45.898  10.240 116.701  1.00  0.00     0.005 C 
ATOM     13  C   UNL     1      45.367   8.070 115.628  1.00  0.00    -0.026 C 
ATOM     14  C   UNL     1      47.193   9.563 116.262  1.00  0.00     0.005 C 
ATOM     15  C   UNL     1      46.856   8.087 116.031  1.00  0.00    -0.001 C 
ATOM     16  C   UNL     1      45.220   8.414 114.111  1.00  0.00     0.007 C 
ATOM     17  C   UNL     1      44.740   6.679 115.904  1.00  0.00     0.012 C 
ATOM     18  C   UNL     1      47.806   7.329 115.052  1.00  0.00    -0.004 C 
ATOM     19  C   UNL     1      46.118   7.579 113.192  1.00  0.00     0.005 C 
ATOM     20  C   UNL     1      47.612   7.735 113.566  1.00  0.00    -0.001 C 
ATOM     21  C   UNL     1      49.270   7.494 115.481  1.00  0.00     0.004 C 
ATOM     22  C   UNL     1      48.600   6.990 112.568  1.00  0.00    -0.026 C 
ATOM     23  C   UNL     1      50.173   6.634 114.610  1.00  0.00     0.004 C 
ATOM     24  C   UNL     1      50.072   7.046 113.124  1.00  0.00    -0.002 C 
ATOM     25  C   UNL     1      48.179   5.502 112.343  1.00  0.00     0.010 C 
ATOM     26  C   UNL     1      48.553   7.744 111.205  1.00  0.00     0.012 C 
ATOM     27  C   UNL     1      51.070   6.209 112.283  1.00  0.00     0.036 C 
ATOM     28  C   UNL     1      49.178   4.706 111.489  1.00  0.00     0.032 C 
ATOM     29  C   UNL     1      50.595   4.758 112.072  1.00  0.00     0.114 C 
BRANCH  29  30
ATOM     30  O   UNL     1      51.491   4.061 111.242  1.00  0.00    -0.393 OA
ATOM     31  H   UNL     1      51.931   4.719 110.647  1.00  0.00     0.210 HD
ENDBRANCH  29  30
ENDBRANCH   1  11
TORSDOF 6
ENDMDL
MODEL 2
REMARK VINA RESULT:    -6.579      8.355     10.470
REMARK INTER + INTRA:          -9.306
REMARK INTER:                  -8.566
REMARK INTRA:                  -0.740
REMARK UNBOUND:                -0.612
REMARK SMILES CC[C@H](C=C[C@H](C)[C@H]1CC[C@@H]2[C@@H]3CC[C@H]4C[C@H](O)CC[C@@]4(C)[C@H]3CC[C@@]21C)C(C)C
REMARK SMILES IDX 6 1 7 2 5 3 4 4 3 5 2 6 1 7 28 8 29 9 30 10 8 11 9 12 26 13
REMARK SMILES IDX 10 14 11 15 25 16 27 17 12 18 24 19 23 20 13 21 21 22 14 23
REMARK SMILES IDX 15 24 20 25 22 26 16 27 19 28 17 29 18 30
REMARK H PARENT 18 31
REMARK Flexibility Score: inf
ROOT
ATOM      1  C   UNL     1      42.259  12.256 113.914  1.00  0.00     0.012 C 
ATOM      2  C   UNL     1      42.204  13.088 115.207  1.00  0.00     0.012 C 
ENDROOT
BRANCH   1   3
ATOM      3  C   UNL     1      42.386  10.778 114.240  1.00  0.00    -0.028 C 
ATOM      4  C   UNL     1      43.361  10.260 115.009  1.00  0.00    -0.027 C 
BRANCH   4   5
ATOM      5  C   UNL     1      43.529   8.775 115.304  1.00  0.00     0.014 C 
BRANCH   5   6
ATOM      6  C   UNL     1      44.407   7.988 114.285  1.00  0.00     0.004 C 
ATOM      7  C   UNL     1      44.047   6.517 114.066  1.00  0.00     0.004 C 
ENDBRANCH   5   6
BRANCH   5   8
ATOM      8  C   UNL     1      43.783   8.418 116.804  1.00  0.00    -0.011 C 
ATOM      9  C   UNL     1      45.071   7.632 117.089  1.00  0.00     0.008 C 
ATOM     10  C   UNL     1      43.714   9.664 117.703  1.00  0.00     0.008 C 
ENDBRANCH   5   8
ENDBRANCH   4   5
ENDBRANCH   1   3
BRANCH   1  11
ATOM     11  C   UNL     1      41.131  12.550 112.851  1.00  0.00     0.002 C 
ATOM     12  C   UNL     1      40.205  13.734 113.222  1.00  0.00     0.005 C 
ATOM     13  C   UNL     1      41.573  12.828 111.365  1.00  0.00    -0.026 C 
ATOM     14  C   UNL     1      40.305  14.777 112.111  1.00  0.00     0.005 C 
ATOM     15  C   UNL     1      41.487  14.363 111.231  1.00  0.00    -0.001 C 
ATOM     16  C   UNL     1      40.535  12.149 110.414  1.00  0.00     0.007 C 
ATOM     17  C   UNL     1      42.998  12.326 111.014  1.00  0.00     0.012 C 
ATOM     18  C   UNL     1      41.444  14.888 109.761  1.00  0.00    -0.004 C 
ATOM     19  C   UNL     1      40.596  12.647 108.966  1.00  0.00     0.005 C 
ATOM     20  C   UNL     1      40.378  14.178 108.883  1.00  0.00    -0.001 C 
ATOM     21  C   UNL     1      41.251  16.410 109.736  1.00  0.00     0.004 C 
ATOM     22  C   UNL     1      40.307  14.732 107.396  1.00  0.00    -0.026 C 
ATOM     23  C   UNL     1      41.357  16.930 108.310  1.00  0.00     0.004 C 
ATOM     24  C   UNL     1      40.269  16.307 107.408  1.00  0.00    -0.002 C 
ATOM     25  C   UNL     1      41.518  14.241 106.538  1.00  0.00     0.010 C 
ATOM     26  C   UNL     1      38.985  14.207 106.758  1.00  0.00     0.012 C 
ATOM     27  C   UNL     1      40.354  16.925 105.989  1.00  0.00     0.036 C 
ATOM     28  C   UNL     1      41.560  14.857 105.131  1.00  0.00     0.032 C 
ATOM     29  C   UNL     1      41.551  16.390 105.179  1.00  0.00     0.114 C 
BRANCH  29  30
ATOM     30  O   UNL     1      41.543  16.919 103.876  1.00  0.00    -0.393 OA
ATOM     31  H   UNL     1      41.370  17.892 103.943  1.00  0.00     0.210 HD
ENDBRANCH  29  30
ENDBRANCH   1  11
TORSDOF 6
ENDMDL
MODEL 3
REMARK VINA RESULT:    -6.564      8.748     10.996
REMARK INTER + INTRA:          -9.286
REMARK INTER:                  -8.992
REMARK INTRA:                  -0.294
REMARK UNBOUND:                -0.612
REMARK SMILES CC[C@H](C=C[C@H](C)[C@H]1CC[C@@H]2[C@@H]3CC[C@H]4C[C@H](O)CC[C@@]4(C)[C@H]3CC[C@@]21C)C(C)C
REMARK SMILES IDX 6 1 7 2 5 3 4 4 3 5 2 6 1 7 28 8 29 9 30 10 8 11 9 12 26 13
REMARK SMILES IDX 10 14 11 15 25 16 27 17 12 18 24 19 23 20 13 21 21 22 14 23
REMARK SMILES IDX 15 24 20 25 22 26 16 27 19 28 17 29 18 30
REMARK H PARENT 18 31
REMARK Flexibility Score: inf
ROOT
ATOM      1  C   UNL     1      41.727  11.307 113.825  1.00  0.00     0.012 C 
ATOM      2  C   UNL     1      42.369  10.726 112.553  1.00  0.00     0.012 C 
ENDROOT
BRANCH   1   3
ATOM      3  C   UNL     1      42.653  11.130 115.015  1.00  0.00    -0.028 C 
ATOM      4  C   UNL     1      43.537  10.123 115.135  1.00  0.00    -0.027 C 
BRANCH   4   5
ATOM      5  C   UNL     1      44.437   9.904 116.345  1.00  0.00     0.014 C 
BRANCH   5   6
ATOM      6  C   UNL     1      43.727   9.335 117.609  1.00  0.00     0.004 C 
ATOM      7  C   UNL     1      43.401  10.337 118.719  1.00  0.00     0.004 C 
ENDBRANCH   5   6
BRANCH   5   8
ATOM      8  C   UNL     1      45.831   9.271 116.032  1.00  0.00    -0.011 C 
ATOM      9  C   UNL     1      47.016   9.863 116.809  1.00  0.00     0.008 C 
ATOM     10  C   UNL     1      45.807   7.741 116.187  1.00  0.00     0.008 C 
ENDBRANCH   5   8
ENDBRANCH   4   5
ENDBRANCH   1   3
BRANCH   1  11
ATOM     11  C   UNL     1      41.161  12.776 113.707  1.00  0.00     0.002 C 
ATOM     12  C   UNL     1      42.236  13.881 113.848  1.00  0.00     0.005 C 
ATOM     13  C   UNL     1      40.357  13.153 112.406  1.00  0.00    -0.026 C 
ATOM     14  C   UNL     1      42.230  14.712 112.568  1.00  0.00     0.005 C 
ATOM     15  C   UNL     1      41.371  13.947 111.557  1.00  0.00    -0.001 C 
ATOM     16  C   UNL     1      39.168  14.079 112.823  1.00  0.00     0.007 C 
ATOM     17  C   UNL     1      39.809  11.938 111.614  1.00  0.00     0.012 C 
ATOM     18  C   UNL     1      40.737  14.814 110.425  1.00  0.00    -0.004 C 
ATOM     19  C   UNL     1      38.533  14.842 111.655  1.00  0.00     0.005 C 
ATOM     20  C   UNL     1      39.575  15.719 110.918  1.00  0.00    -0.001 C 
ATOM     21  C   UNL     1      41.813  15.643 109.710  1.00  0.00     0.004 C 
ATOM     22  C   UNL     1      38.948  16.628 109.775  1.00  0.00    -0.026 C 
ATOM     23  C   UNL     1      41.211  16.370 108.518  1.00  0.00     0.004 C 
ATOM     24  C   UNL     1      40.094  17.340 108.962  1.00  0.00    -0.002 C 
ATOM     25  C   UNL     1      38.051  15.797 108.802  1.00  0.00     0.010 C 
ATOM     26  C   UNL     1      38.075  17.720 110.465  1.00  0.00     0.012 C 
ATOM     27  C   UNL     1      39.567  18.125 107.734  1.00  0.00     0.036 C 
ATOM     28  C   UNL     1      37.529  16.610 107.607  1.00  0.00     0.032 C 
ATOM     29  C   UNL     1      38.671  17.266 106.821  1.00  0.00     0.114 C 
BRANCH  29  30
ATOM     30  O   UNL     1      38.156  18.038 105.765  1.00  0.00    -0.393 OA
ATOM     31  H   UNL     1      37.758  17.420 105.101  1.00  0.00     0.210 HD
ENDBRANCH  29  30
ENDBRANCH   1  11
TORSDOF 6
ENDMDL
MODEL 4
REMARK VINA RESULT:    -6.343      9.718     13.372
REMARK INTER + INTRA:          -8.994
REMARK INTER:                  -7.876
REMARK INTRA:                  -1.117
REMARK UNBOUND:                -0.612
REMARK SMILES CC[C@H](C=C[C@H](C)[C@H]1CC[C@@H]2[C@@H]3CC[C@H]4C[C@H](O)CC[C@@]4(C)[C@H]3CC[C@@]21C)C(C)C
REMARK SMILES IDX 6 1 7 2 5 3 4 4 3 5 2 6 1 7 28 8 29 9 30 10 8 11 9 12 26 13
REMARK SMILES IDX 10 14 11 15 25 16 27 17 12 18 24 19 23 20 13 21 21 22 14 23
REMARK SMILES IDX 15 24 20 25 22 26 16 27 19 28 17 29 18 30
REMARK H PARENT 18 31
REMARK Flexibility Score: inf
ROOT
ATOM      1  C   UNL     1      36.283  10.052 108.048  1.00  0.00     0.012 C 
ATOM      2  C   UNL     1      34.807  10.415 107.810  1.00  0.00     0.012 C 
ENDROOT
BRANCH   1   3
ATOM      3  C   UNL     1      36.721   8.959 107.089  1.00  0.00    -0.028 C 
ATOM      4  C   UNL     1      37.899   8.314 107.174  1.00  0.00    -0.027 C 
BRANCH   4   5
ATOM      5  C   UNL     1      38.373   7.251 106.190  1.00  0.00     0.014 C 
BRANCH   5   6
ATOM      6  C   UNL     1      39.538   7.684 105.251  1.00  0.00     0.004 C 
ATOM      7  C   UNL     1      39.319   8.961 104.436  1.00  0.00     0.004 C 
ENDBRANCH   5   6
BRANCH   5   8
ATOM      8  C   UNL     1      38.504   5.809 106.780  1.00  0.00    -0.011 C 
ATOM      9  C   UNL     1      37.769   5.567 108.106  1.00  0.00     0.008 C 
ATOM     10  C   UNL     1      38.106   4.738 105.751  1.00  0.00     0.008 C 
ENDBRANCH   5   8
ENDBRANCH   4   5
ENDBRANCH   1   3
BRANCH   1  11
ATOM     11  C   UNL     1      37.295  11.261 108.096  1.00  0.00     0.002 C 
ATOM     12  C   UNL     1      36.635  12.648 107.895  1.00  0.00     0.005 C 
ATOM     13  C   UNL     1      38.192  11.421 109.382  1.00  0.00    -0.026 C 
ATOM     14  C   UNL     1      36.924  13.493 109.133  1.00  0.00     0.005 C 
ATOM     15  C   UNL     1      37.499  12.541 110.185  1.00  0.00    -0.001 C 
ATOM     16  C   UNL     1      39.613  11.889 108.927  1.00  0.00     0.007 C 
ATOM     17  C   UNL     1      38.324  10.133 110.237  1.00  0.00     0.012 C 
ATOM     18  C   UNL     1      38.392  13.209 111.277  1.00  0.00    -0.004 C 
ATOM     19  C   UNL     1      40.472  12.461 110.060  1.00  0.00     0.005 C 
ATOM     20  C   UNL     1      39.779  13.663 110.746  1.00  0.00    -0.001 C 
ATOM     21  C   UNL     1      37.650  14.376 111.943  1.00  0.00     0.004 C 
ATOM     22  C   UNL     1      40.679  14.374 111.846  1.00  0.00    -0.026 C 
ATOM     23  C   UNL     1      38.467  14.926 113.102  1.00  0.00     0.004 C 
ATOM     24  C   UNL     1      39.834  15.458 112.616  1.00  0.00    -0.002 C 
ATOM     25  C   UNL     1      41.268  13.346 112.865  1.00  0.00     0.010 C 
ATOM     26  C   UNL     1      41.851  15.089 111.109  1.00  0.00     0.012 C 
ATOM     27  C   UNL     1      40.599  16.088 113.808  1.00  0.00     0.036 C 
ATOM     28  C   UNL     1      42.038  14.002 114.021  1.00  0.00     0.032 C 
ATOM     29  C   UNL     1      41.179  15.031 114.767  1.00  0.00     0.114 C 
BRANCH  29  30
ATOM     30  O   UNL     1      41.927  15.644 115.786  1.00  0.00    -0.393 OA
ATOM     31  H   UNL     1      42.290  16.495 115.429  1.00  0.00     0.210 HD
ENDBRANCH  29  30
ENDBRANCH   1  11
TORSDOF 6
ENDMDL
MODEL 5
REMARK VINA RESULT:    -6.301      7.831     10.156
REMARK INTER + INTRA:          -8.939
REMARK INTER:                  -8.306
REMARK INTRA:                  -0.633
REMARK UNBOUND:                -0.612
REMARK SMILES CC[C@H](C=C[C@H](C)[C@H]1CC[C@@H]2[C@@H]3CC[C@H]4C[C@H](O)CC[C@@]4(C)[C@H]3CC[C@@]21C)C(C)C
REMARK SMILES IDX 6 1 7 2 5 3 4 4 3 5 2 6 1 7 28 8 29 9 30 10 8 11 9 12 26 13
REMARK SMILES IDX 10 14 11 15 25 16 27 17 12 18 24 19 23 20 13 21 21 22 14 23
REMARK SMILES IDX 15 24 20 25 22 26 16 27 19 28 17 29 18 30
REMARK H PARENT 18 31
REMARK Flexibility Score: inf
ROOT
ATOM      1  C   UNL     1      42.324  12.230 114.529  1.00  0.00     0.012 C 
ATOM      2  C   UNL     1      42.299  12.925 115.902  1.00  0.00     0.012 C 
ENDROOT
BRANCH   1   3
ATOM      3  C   UNL     1      42.691  10.765 114.683  1.00  0.00    -0.028 C 
ATOM      4  C   UNL     1      43.666  10.316 115.494  1.00  0.00    -0.027 C 
BRANCH   4   5
ATOM      5  C   UNL     1      44.078   8.855 115.622  1.00  0.00     0.014 C 
BRANCH   5   6
ATOM      6  C   UNL     1      43.586   8.134 116.912  1.00  0.00     0.004 C 
ATOM      7  C   UNL     1      44.586   8.043 118.067  1.00  0.00     0.004 C 
ENDBRANCH   5   6
BRANCH   5   8
ATOM      8  C   UNL     1      43.958   8.012 114.311  1.00  0.00    -0.011 C 
ATOM      9  C   UNL     1      45.281   7.475 113.746  1.00  0.00     0.008 C 
ATOM     10  C   UNL     1      42.944   6.866 114.464  1.00  0.00     0.008 C 
ENDBRANCH   5   8
ENDBRANCH   4   5
ENDBRANCH   1   3
BRANCH   1  11
ATOM     11  C   UNL     1      41.055  12.447 113.618  1.00  0.00     0.002 C 
ATOM     12  C   UNL     1      40.362  13.818 113.814  1.00  0.00     0.005 C 
ATOM     13  C   UNL     1      41.232  12.300 112.059  1.00  0.00    -0.026 C 
ATOM     14  C   UNL     1      40.367  14.547 112.473  1.00  0.00     0.005 C 
ATOM     15  C   UNL     1      41.301  13.756 111.552  1.00  0.00    -0.001 C 
ATOM     16  C   UNL     1      39.958  11.595 111.490  1.00  0.00     0.007 C 
ATOM     17  C   UNL     1      42.495  11.509 111.628  1.00  0.00     0.012 C 
ATOM     18  C   UNL     1      41.037  13.927 110.023  1.00  0.00    -0.004 C 
ATOM     19  C   UNL     1      39.797  11.729 109.972  1.00  0.00     0.005 C 
ATOM     20  C   UNL     1      39.747  13.213 109.536  1.00  0.00    -0.001 C 
ATOM     21  C   UNL     1      41.022  15.413 109.639  1.00  0.00     0.004 C 
ATOM     22  C   UNL     1      39.455  13.413 107.987  1.00  0.00    -0.026 C 
ATOM     23  C   UNL     1      40.911  15.565 108.130  1.00  0.00     0.004 C 
ATOM     24  C   UNL     1      39.605  14.933 107.601  1.00  0.00    -0.002 C 
ATOM     25  C   UNL     1      40.413  12.550 107.103  1.00  0.00     0.010 C 
ATOM     26  C   UNL     1      37.984  12.974 107.721  1.00  0.00     0.012 C 
ATOM     27  C   UNL     1      39.486  15.185 106.076  1.00  0.00     0.036 C 
ATOM     28  C   UNL     1      40.255  12.808 105.597  1.00  0.00     0.032 C 
ATOM     29  C   UNL     1      40.434  14.292 105.252  1.00  0.00     0.114 C 
BRANCH  29  30
ATOM     30  O   UNL     1      40.237  14.500 103.875  1.00  0.00    -0.393 OA
ATOM     31  H   UNL     1      39.687  15.317 103.765  1.00  0.00     0.210 HD
ENDBRANCH  29  30
ENDBRANCH   1  11
TORSDOF 6
ENDMDL
MODEL 6
REMARK VINA RESULT:    -6.279      9.245     11.217
REMARK INTER + INTRA:          -8.910
REMARK INTER:                  -7.817
REMARK INTRA:                  -1.093
REMARK UNBOUND:                -0.612
REMARK SMILES CC[C@H](C=C[C@H](C)[C@H]1CC[C@@H]2[C@@H]3CC[C@H]4C[C@H](O)CC[C@@]4(C)[C@H]3CC[C@@]21C)C(C)C
REMARK SMILES IDX 6 1 7 2 5 3 4 4 3 5 2 6 1 7 28 8 29 9 30 10 8 11 9 12 26 13
REMARK SMILES IDX 10 14 11 15 25 16 27 17 12 18 24 19 23 20 13 21 21 22 14 23
REMARK SMILES IDX 15 24 20 25 22 26 16 27 19 28 17 29 18 30
REMARK H PARENT 18 31
REMARK Flexibility Score: inf
ROOT
ATOM      1  C   UNL     1      41.142  15.146 110.114  1.00  0.00     0.012 C 
ATOM      2  C   UNL     1      41.386  16.412 109.274  1.00  0.00     0.012 C 
ENDROOT
BRANCH   1   3
ATOM      3  C   UNL     1      41.460  15.410 111.575  1.00  0.00    -0.028 C 
ATOM      4  C   UNL     1      40.551  15.353 112.564  1.00  0.00    -0.027 C 
BRANCH   4   5
ATOM      5  C   UNL     1      40.845  15.664 114.027  1.00  0.00     0.014 C 
BRANCH   5   6
ATOM      6  C   UNL     1      41.925  14.763 114.695  1.00  0.00     0.004 C 
ATOM      7  C   UNL     1      41.798  13.256 114.460  1.00  0.00     0.004 C 
ENDBRANCH   5   6
BRANCH   5   8
ATOM      8  C   UNL     1      40.947  17.184 114.376  1.00  0.00    -0.011 C 
ATOM      9  C   UNL     1      39.771  18.052 113.907  1.00  0.00     0.008 C 
ATOM     10  C   UNL     1      41.203  17.405 115.877  1.00  0.00     0.008 C 
ENDBRANCH   5   8
ENDBRANCH   4   5
ENDBRANCH   1   3
BRANCH   1  11
ATOM     11  C   UNL     1      39.745  14.439 109.914  1.00  0.00     0.002 C 
ATOM     12  C   UNL     1      39.034  14.807 108.589  1.00  0.00     0.005 C 
ATOM     13  C   UNL     1      39.700  12.866 109.977  1.00  0.00    -0.026 C 
ATOM     14  C   UNL     1      38.815  13.521 107.797  1.00  0.00     0.005 C 
ATOM     15  C   UNL     1      39.636  12.434 108.497  1.00  0.00    -0.001 C 
ATOM     16  C   UNL     1      38.386  12.447 110.713  1.00  0.00     0.007 C 
ATOM     17  C   UNL     1      40.917  12.216 110.686  1.00  0.00     0.012 C 
ATOM     18  C   UNL     1      39.145  10.971 108.264  1.00  0.00    -0.004 C 
ATOM     19  C   UNL     1      38.001  10.977 110.514  1.00  0.00     0.005 C 
ATOM     20  C   UNL     1      37.828  10.635 109.014  1.00  0.00    -0.001 C 
ATOM     21  C   UNL     1      39.015  10.675 106.764  1.00  0.00     0.004 C 
ATOM     22  C   UNL     1      37.307   9.156 108.755  1.00  0.00    -0.026 C 
ATOM     23  C   UNL     1      38.680   9.208 106.545  1.00  0.00     0.004 C 
ATOM     24  C   UNL     1      37.337   8.837 107.212  1.00  0.00    -0.002 C 
ATOM     25  C   UNL     1      38.160   8.099 109.527  1.00  0.00     0.010 C 
ATOM     26  C   UNL     1      35.831   9.080 109.250  1.00  0.00     0.012 C 
ATOM     27  C   UNL     1      36.988   7.361 106.893  1.00  0.00     0.036 C 
ATOM     28  C   UNL     1      37.774   6.647 109.204  1.00  0.00     0.032 C 
ATOM     29  C   UNL     1      37.841   6.362 107.698  1.00  0.00     0.114 C 
BRANCH  29  30
ATOM     30  O   UNL     1      37.438   5.041 107.434  1.00  0.00    -0.393 OA
ATOM     31  H   UNL     1      36.914   5.044 106.592  1.00  0.00     0.210 HD
ENDBRANCH  29  30
ENDBRANCH   1  11
TORSDOF 6
ENDMDL
MODEL 7
REMARK VINA RESULT:    -6.242      9.125     11.541
REMARK INTER + INTRA:          -8.861
REMARK INTER:                  -7.932
REMARK INTRA:                  -0.929
REMARK UNBOUND:                -0.612
REMARK SMILES CC[C@H](C=C[C@H](C)[C@H]1CC[C@@H]2[C@@H]3CC[C@H]4C[C@H](O)CC[C@@]4(C)[C@H]3CC[C@@]21C)C(C)C
REMARK SMILES IDX 6 1 7 2 5 3 4 4 3 5 2 6 1 7 28 8 29 9 30 10 8 11 9 12 26 13
REMARK SMILES IDX 10 14 11 15 25 16 27 17 12 18 24 19 23 20 13 21 21 22 14 23
REMARK SMILES IDX 15 24 20 25 22 26 16 27 19 28 17 29 18 30
REMARK H PARENT 18 31
REMARK Flexibility Score: inf
ROOT
ATOM      1  C   UNL     1      41.492  11.463 113.156  1.00  0.00     0.012 C 
ATOM      2  C   UNL     1      40.957  10.185 112.485  1.00  0.00     0.012 C 
ENDROOT
BRANCH   1   3
ATOM      3  C   UNL     1      42.569  11.118 114.169  1.00  0.00    -0.028 C 
ATOM      4  C   UNL     1      43.146   9.907 114.269  1.00  0.00    -0.027 C 
BRANCH   4   5
ATOM      5  C   UNL     1      44.191   9.532 115.313  1.00  0.00     0.014 C 
BRANCH   5   6
ATOM      6  C   UNL     1      43.627   8.937 116.637  1.00  0.00     0.004 C 
ATOM      7  C   UNL     1      43.696   9.837 117.874  1.00  0.00     0.004 C 
ENDBRANCH   5   6
BRANCH   5   8
ATOM      8  C   UNL     1      45.460   8.810 114.754  1.00  0.00    -0.011 C 
ATOM      9  C   UNL     1      46.601   8.605 115.762  1.00  0.00     0.008 C 
ATOM     10  C   UNL     1      45.102   7.476 114.079  1.00  0.00     0.008 C 
ENDBRANCH   5   8
ENDBRANCH   4   5
ENDBRANCH   1   3
BRANCH   1  11
ATOM     11  C   UNL     1      41.921  12.629 112.184  1.00  0.00     0.002 C 
ATOM     12  C   UNL     1      42.679  12.153 110.921  1.00  0.00     0.005 C 
ATOM     13  C   UNL     1      40.796  13.591 111.645  1.00  0.00    -0.026 C 
ATOM     14  C   UNL     1      41.886  12.602 109.697  1.00  0.00     0.005 C 
ATOM     15  C   UNL     1      40.529  13.087 110.212  1.00  0.00    -0.001 C 
ATOM     16  C   UNL     1      41.377  15.042 111.603  1.00  0.00     0.007 C 
ATOM     17  C   UNL     1      39.490  13.585 112.482  1.00  0.00     0.012 C 
ATOM     18  C   UNL     1      39.787  14.106 109.290  1.00  0.00    -0.004 C 
ATOM     19  C   UNL     1      40.560  16.016 110.747  1.00  0.00     0.005 C 
ATOM     20  C   UNL     1      40.432  15.518 109.287  1.00  0.00    -0.001 C 
ATOM     21  C   UNL     1      39.664  13.555 107.863  1.00  0.00     0.004 C 
ATOM     22  C   UNL     1      39.701  16.550 108.325  1.00  0.00    -0.026 C 
ATOM     23  C   UNL     1      38.815  14.485 107.011  1.00  0.00     0.004 C 
ATOM     24  C   UNL     1      39.451  15.890 106.916  1.00  0.00    -0.002 C 
ATOM     25  C   UNL     1      38.343  17.037 108.925  1.00  0.00     0.010 C 
ATOM     26  C   UNL     1      40.645  17.776 108.140  1.00  0.00     0.012 C 
ATOM     27  C   UNL     1      38.606  16.781 105.971  1.00  0.00     0.036 C 
ATOM     28  C   UNL     1      37.539  17.935 107.971  1.00  0.00     0.032 C 
ATOM     29  C   UNL     1      37.290  17.252 106.620  1.00  0.00     0.114 C 
BRANCH  29  30
ATOM     30  O   UNL     1      36.595  18.118 105.757  1.00  0.00    -0.393 OA
ATOM     31  H   UNL     1      35.668  18.208 106.097  1.00  0.00     0.210 HD
ENDBRANCH  29  30
ENDBRANCH   1  11
TORSDOF 6
ENDMDL
MODEL 8
REMARK VINA RESULT:    -6.078      9.873     12.732
REMARK INTER + INTRA:          -8.644
REMARK INTER:                  -7.245
REMARK INTRA:                  -1.399
REMARK UNBOUND:                -0.612
REMARK SMILES CC[C@H](C=C[C@H](C)[C@H]1CC[C@@H]2[C@@H]3CC[C@H]4C[C@H](O)CC[C@@]4(C)[C@H]3CC[C@@]21C)C(C)C
REMARK SMILES IDX 6 1 7 2 5 3 4 4 3 5 2 6 1 7 28 8 29 9 30 10 8 11 9 12 26 13
REMARK SMILES IDX 10 14 11 15 25 16 27 17 12 18 24 19 23 20 13 21 21 22 14 23
REMARK SMILES IDX 15 24 20 25 22 26 16 27 19 28 17 29 18 30
REMARK H PARENT 18 31
REMARK Flexibility Score: inf
ROOT
ATOM      1  C   UNL     1      33.946   3.638 113.193  1.00  0.00     0.012 C 
ATOM      2  C   UNL     1      33.518   5.019 113.718  1.00  0.00     0.012 C 
ENDROOT
BRANCH   1   3
ATOM      3  C   UNL     1      34.363   3.731 111.736  1.00  0.00    -0.028 C 
ATOM      4  C   UNL     1      34.152   2.759 110.830  1.00  0.00    -0.027 C 
BRANCH   4   5
ATOM      5  C   UNL     1      34.609   2.818 109.378  1.00  0.00     0.014 C 
BRANCH   5   6
ATOM      6  C   UNL     1      34.490   4.215 108.698  1.00  0.00     0.004 C 
ATOM      7  C   UNL     1      34.623   4.247 107.174  1.00  0.00     0.004 C 
ENDBRANCH   5   6
BRANCH   5   8
ATOM      8  C   UNL     1      35.929   2.043 109.062  1.00  0.00    -0.011 C 
ATOM      9  C   UNL     1      37.227   2.754 109.472  1.00  0.00     0.008 C 
ATOM     10  C   UNL     1      35.901   0.617 109.638  1.00  0.00     0.008 C 
ENDBRANCH   5   8
ENDBRANCH   4   5
ENDBRANCH   1   3
BRANCH   1  11
ATOM     11  C   UNL     1      34.992   2.853 114.075  1.00  0.00     0.002 C 
ATOM     12  C   UNL     1      34.768   1.322 114.112  1.00  0.00     0.005 C 
ATOM     13  C   UNL     1      36.521   3.032 113.740  1.00  0.00    -0.026 C 
ATOM     14  C   UNL     1      36.027   0.646 113.575  1.00  0.00     0.005 C 
ATOM     15  C   UNL     1      36.884   1.753 112.956  1.00  0.00    -0.001 C 
ATOM     16  C   UNL     1      37.312   3.076 115.087  1.00  0.00     0.007 C 
ATOM     17  C   UNL     1      36.852   4.299 112.907  1.00  0.00     0.012 C 
ATOM     18  C   UNL     1      38.413   1.450 112.874  1.00  0.00    -0.004 C 
ATOM     19  C   UNL     1      38.821   2.853 114.932  1.00  0.00     0.005 C 
ATOM     20  C   UNL     1      39.126   1.496 114.253  1.00  0.00    -0.001 C 
ATOM     21  C   UNL     1      38.662   0.110 112.171  1.00  0.00     0.004 C 
ATOM     22  C   UNL     1      40.676   1.155 114.179  1.00  0.00    -0.026 C 
ATOM     23  C   UNL     1      40.153  -0.108 111.965  1.00  0.00     0.004 C 
ATOM     24  C   UNL     1      40.903  -0.142 113.315  1.00  0.00    -0.002 C 
ATOM     25  C   UNL     1      41.500   2.339 113.577  1.00  0.00     0.010 C 
ATOM     26  C   UNL     1      41.170   0.879 115.631  1.00  0.00     0.012 C 
ATOM     27  C   UNL     1      42.402  -0.452 113.070  1.00  0.00     0.036 C 
ATOM     28  C   UNL     1      42.985   2.006 113.366  1.00  0.00     0.032 C 
ATOM     29  C   UNL     1      43.171   0.755 112.498  1.00  0.00     0.114 C 
BRANCH  29  30
ATOM     30  O   UNL     1      44.538   0.452 112.365  1.00  0.00    -0.393 OA
ATOM     31  H   UNL     1      44.708   0.219 111.417  1.00  0.00     0.210 HD
ENDBRANCH  29  30
ENDBRANCH   1  11
TORSDOF 6
ENDMDL
MODEL 9
REMARK VINA RESULT:    -6.050      9.747     11.757
REMARK INTER + INTRA:          -8.607
REMARK INTER:                  -7.492
REMARK INTRA:                  -1.116
REMARK UNBOUND:                -0.612
REMARK SMILES CC[C@H](C=C[C@H](C)[C@H]1CC[C@@H]2[C@@H]3CC[C@H]4C[C@H](O)CC[C@@]4(C)[C@H]3CC[C@@]21C)C(C)C
REMARK SMILES IDX 6 1 7 2 5 3 4 4 3 5 2 6 1 7 28 8 29 9 30 10 8 11 9 12 26 13
REMARK SMILES IDX 10 14 11 15 25 16 27 17 12 18 24 19 23 20 13 21 21 22 14 23
REMARK SMILES IDX 15 24 20 25 22 26 16 27 19 28 17 29 18 30
REMARK H PARENT 18 31
REMARK Flexibility Score: inf
ROOT
ATOM      1  C   UNL     1      38.520  14.421 109.830  1.00  0.00     0.012 C 
ATOM      2  C   UNL     1      37.377  15.398 109.503  1.00  0.00     0.012 C 
ENDROOT
BRANCH   1   3
ATOM      3  C   UNL     1      39.562  15.097 110.703  1.00  0.00    -0.028 C 
ATOM      4  C   UNL     1      39.722  14.845 112.015  1.00  0.00    -0.027 C 
BRANCH   4   5
ATOM      5  C   UNL     1      40.729  15.552 112.913  1.00  0.00     0.014 C 
BRANCH   5   6
ATOM      6  C   UNL     1      40.124  16.269 114.157  1.00  0.00     0.004 C 
ATOM      7  C   UNL     1      41.121  16.883 115.143  1.00  0.00     0.004 C 
ENDBRANCH   5   6
BRANCH   5   8
ATOM      8  C   UNL     1      42.048  14.760 113.187  1.00  0.00    -0.011 C 
ATOM      9  C   UNL     1      41.869  13.383 113.844  1.00  0.00     0.008 C 
ATOM     10  C   UNL     1      42.907  14.634 111.918  1.00  0.00     0.008 C 
ENDBRANCH   5   8
ENDBRANCH   4   5
ENDBRANCH   1   3
BRANCH   1  11
ATOM     11  C   UNL     1      38.087  13.008 110.383  1.00  0.00     0.002 C 
ATOM     12  C   UNL     1      36.570  12.876 110.664  1.00  0.00     0.005 C 
ATOM     13  C   UNL     1      38.455  11.738 109.527  1.00  0.00    -0.026 C 
ATOM     14  C   UNL     1      36.029  11.734 109.807  1.00  0.00     0.005 C 
ATOM     15  C   UNL     1      37.137  11.373 108.814  1.00  0.00    -0.001 C 
ATOM     16  C   UNL     1      38.866  10.593 110.510  1.00  0.00     0.007 C 
ATOM     17  C   UNL     1      39.593  11.964 108.497  1.00  0.00     0.012 C 
ATOM     18  C   UNL     1      37.082   9.919 108.248  1.00  0.00    -0.004 C 
ATOM     19  C   UNL     1      38.872   9.198 109.874  1.00  0.00     0.005 C 
ATOM     20  C   UNL     1      37.487   8.838 109.286  1.00  0.00    -0.001 C 
ATOM     21  C   UNL     1      35.698   9.621 107.655  1.00  0.00     0.004 C 
ATOM     22  C   UNL     1      37.400   7.353 108.725  1.00  0.00    -0.026 C 
ATOM     23  C   UNL     1      35.698   8.260 106.977  1.00  0.00     0.004 C 
ATOM     24  C   UNL     1      36.026   7.136 107.984  1.00  0.00    -0.002 C 
ATOM     25  C   UNL     1      38.579   7.035 107.750  1.00  0.00     0.010 C 
ATOM     26  C   UNL     1      37.469   6.382 109.942  1.00  0.00     0.012 C 
ATOM     27  C   UNL     1      35.931   5.760 107.277  1.00  0.00     0.036 C 
ATOM     28  C   UNL     1      38.465   5.655 107.082  1.00  0.00     0.032 C 
ATOM     29  C   UNL     1      37.129   5.486 106.347  1.00  0.00     0.114 C 
BRANCH  29  30
ATOM     30  O   UNL     1      37.038   4.199 105.789  1.00  0.00    -0.393 OA
ATOM     31  H   UNL     1      37.929   3.961 105.425  1.00  0.00     0.210 HD
ENDBRANCH  29  30
ENDBRANCH   1  11
TORSDOF 6
ENDMDL
