MODEL 1
REMARK VINA RESULT:    -4.265      0.000      0.000
REMARK INTER + INTRA:          -4.390
REMARK INTER:                  -4.390
REMARK INTRA:                   0.000
REMARK UNBOUND:                 0.000
REMARK SMILES Oc1ccc2[nH]ccc2c1
REMARK SMILES IDX 3 1 4 2 5 3 9 4 8 5 7 6 6 7 10 8 2 9 1 11
REMARK H PARENT 6 10 1 12
REMARK Flexibility Score: inf
ROOT
ATOM      1  C   UNL     1     141.818 133.523 139.196  1.00  0.00     0.048 A 
ATOM      2  C   UNL     1     141.385 134.063 137.971  1.00  0.00     0.030 A 
ATOM      3  C   UNL     1     140.731 135.293 137.997  1.00  0.00     0.046 A 
ATOM      4  C   UNL     1     140.510 135.966 139.168  1.00  0.00     0.003 A 
ATOM      5  C   UNL     1     139.850 137.133 138.855  1.00  0.00     0.028 A 
ATOM      6  C   UNL     1     139.701 137.107 137.472  1.00  0.00     0.083 A 
ATOM      7  N   UNL     1     140.241 135.979 136.952  1.00  0.00    -0.361 N 
ATOM      8  C   UNL     1     140.926 135.460 140.398  1.00  0.00     0.056 A 
ATOM      9  C   UNL     1     141.591 134.215 140.408  1.00  0.00     0.116 A 
ATOM     10  H   UNL     1     140.268 135.705 135.945  1.00  0.00     0.166 HD
ENDROOT
BRANCH   9  11
ATOM     11  O   UNL     1     142.030 133.659 141.607  1.00  0.00    -0.508 OA
ATOM     12  H   UNL     1     141.977 132.662 141.777  1.00  0.00     0.293 HD
ENDBRANCH   9  11
TORSDOF 1
ENDMDL
MODEL 2
REMARK VINA RESULT:    -4.229      6.906      8.593
REMARK INTER + INTRA:          -4.353
REMARK INTER:                  -4.353
REMARK INTRA:                   0.000
REMARK UNBOUND:                 0.000
REMARK SMILES Oc1ccc2[nH]ccc2c1
REMARK SMILES IDX 3 1 4 2 5 3 9 4 8 5 7 6 6 7 10 8 2 9 1 11
REMARK H PARENT 6 10 1 12
REMARK Flexibility Score: inf
ROOT
ATOM      1  C   UNL     1     134.615 143.036 139.141  1.00  0.00     0.048 A 
ATOM      2  C   UNL     1     135.005 142.518 137.892  1.00  0.00     0.030 A 
ATOM      3  C   UNL     1     135.712 141.317 137.878  1.00  0.00     0.046 A 
ATOM      4  C   UNL     1     136.023 140.651 139.033  1.00  0.00     0.003 A 
ATOM      5  C   UNL     1     136.715 139.514 138.680  1.00  0.00     0.028 A 
ATOM      6  C   UNL     1     136.789 139.550 137.291  1.00  0.00     0.083 A 
ATOM      7  N   UNL     1     136.175 140.655 136.806  1.00  0.00    -0.361 N 
ATOM      8  C   UNL     1     135.652 141.136 140.286  1.00  0.00     0.056 A 
ATOM      9  C   UNL     1     134.935 142.351 140.336  1.00  0.00     0.116 A 
ATOM     10  H   UNL     1     136.082 140.930 135.803  1.00  0.00     0.166 HD
ENDROOT
BRANCH   9  11
ATOM     11  O   UNL     1     134.537 142.885 141.559  1.00  0.00    -0.508 OA
ATOM     12  H   UNL     1     135.210 143.103 142.285  1.00  0.00     0.293 HD
ENDBRANCH   9  11
TORSDOF 1
ENDMDL
MODEL 3
REMARK VINA RESULT:    -4.210      0.814      2.277
REMARK INTER + INTRA:          -4.333
REMARK INTER:                  -4.333
REMARK INTRA:                   0.000
REMARK UNBOUND:                 0.000
REMARK SMILES Oc1ccc2[nH]ccc2c1
REMARK SMILES IDX 3 1 4 2 5 3 9 4 8 5 7 6 6 7 10 8 2 9 1 11
REMARK H PARENT 6 10 1 12
REMARK Flexibility Score: inf
ROOT
ATOM      1  C   UNL     1     141.070 135.531 140.418  1.00  0.00     0.048 A 
ATOM      2  C   UNL     1     140.660 136.118 139.207  1.00  0.00     0.030 A 
ATOM      3  C   UNL     1     140.816 135.376 138.038  1.00  0.00     0.046 A 
ATOM      4  C   UNL     1     141.349 134.115 138.052  1.00  0.00     0.003 A 
ATOM      5  C   UNL     1     141.367 133.660 136.752  1.00  0.00     0.028 A 
ATOM      6  C   UNL     1     140.827 134.697 135.997  1.00  0.00     0.083 A 
ATOM      7  N   UNL     1     140.493 135.743 136.788  1.00  0.00    -0.361 N 
ATOM      8  C   UNL     1     141.766 133.504 139.233  1.00  0.00     0.056 A 
ATOM      9  C   UNL     1     141.623 134.229 140.436  1.00  0.00     0.116 A 
ATOM     10  H   UNL     1     140.070 136.648 136.483  1.00  0.00     0.166 HD
ENDROOT
BRANCH   9  11
ATOM     11  O   UNL     1     142.021 133.670 141.648  1.00  0.00    -0.508 OA
ATOM     12  H   UNL     1     141.929 134.179 142.519  1.00  0.00     0.293 HD
ENDBRANCH   9  11
TORSDOF 1
ENDMDL
MODEL 4
REMARK VINA RESULT:    -4.139      7.817      8.973
REMARK INTER + INTRA:          -4.260
REMARK INTER:                  -4.260
REMARK INTRA:                   0.000
REMARK UNBOUND:                 0.000
REMARK SMILES Oc1ccc2[nH]ccc2c1
REMARK SMILES IDX 3 1 4 2 5 3 9 4 8 5 7 6 6 7 10 8 2 9 1 11
REMARK H PARENT 6 10 1 12
REMARK Flexibility Score: inf
ROOT
ATOM      1  C   UNL     1     135.664 141.129 140.196  1.00  0.00     0.048 A 
ATOM      2  C   UNL     1     136.050 140.596 138.953  1.00  0.00     0.030 A 
ATOM      3  C   UNL     1     135.726 141.318 137.805  1.00  0.00     0.046 A 
ATOM      4  C   UNL     1     135.053 142.509 137.870  1.00  0.00     0.003 A 
ATOM      5  C   UNL     1     134.890 142.961 136.580  1.00  0.00     0.028 A 
ATOM      6  C   UNL     1     135.489 141.995 135.778  1.00  0.00     0.083 A 
ATOM      7  N   UNL     1     135.998 140.992 136.532  1.00  0.00    -0.361 N 
ATOM      8  C   UNL     1     134.655 143.065 139.085  1.00  0.00     0.056 A 
ATOM      9  C   UNL     1     134.968 142.359 140.267  1.00  0.00     0.116 A 
ATOM     10  H   UNL     1     136.499 140.143 136.188  1.00  0.00     0.166 HD
ENDROOT
BRANCH   9  11
ATOM     11  O   UNL     1     134.597 142.865 141.510  1.00  0.00    -0.508 OA
ATOM     12  H   UNL     1     133.764 143.432 141.622  1.00  0.00     0.293 HD
ENDBRANCH   9  11
TORSDOF 1
ENDMDL
MODEL 5
REMARK VINA RESULT:    -4.125      5.988      7.435
REMARK INTER + INTRA:          -4.246
REMARK INTER:                  -4.246
REMARK INTRA:                   0.000
REMARK UNBOUND:                 0.000
REMARK SMILES Oc1ccc2[nH]ccc2c1
REMARK SMILES IDX 3 1 4 2 5 3 9 4 8 5 7 6 6 7 10 8 2 9 1 11
REMARK H PARENT 6 10 1 12
REMARK Flexibility Score: inf
ROOT
ATOM      1  C   UNL     1     137.021 139.640 137.789  1.00  0.00     0.048 A 
ATOM      2  C   UNL     1     136.105 140.682 137.557  1.00  0.00     0.030 A 
ATOM      3  C   UNL     1     135.618 141.379 138.661  1.00  0.00     0.046 A 
ATOM      4  C   UNL     1     136.010 141.071 139.936  1.00  0.00     0.003 A 
ATOM      5  C   UNL     1     135.355 141.933 140.788  1.00  0.00     0.028 A 
ATOM      6  C   UNL     1     134.581 142.742 139.962  1.00  0.00     0.083 A 
ATOM      7  N   UNL     1     134.745 142.399 138.663  1.00  0.00    -0.361 N 
ATOM      8  C   UNL     1     136.914 140.045 140.202  1.00  0.00     0.056 A 
ATOM      9  C   UNL     1     137.427 139.318 139.105  1.00  0.00     0.116 A 
ATOM     10  H   UNL     1     134.285 142.840 137.836  1.00  0.00     0.166 HD
ENDROOT
BRANCH   9  11
ATOM     11  O   UNL     1     138.335 138.282 139.308  1.00  0.00    -0.508 OA
ATOM     12  H   UNL     1     138.117 137.500 139.915  1.00  0.00     0.293 HD
ENDBRANCH   9  11
TORSDOF 1
ENDMDL
MODEL 6
REMARK VINA RESULT:    -4.088      2.397      3.626
REMARK INTER + INTRA:          -4.208
REMARK INTER:                  -4.208
REMARK INTRA:                   0.000
REMARK UNBOUND:                 0.000
REMARK SMILES Oc1ccc2[nH]ccc2c1
REMARK SMILES IDX 3 1 4 2 5 3 9 4 8 5 7 6 6 7 10 8 2 9 1 11
REMARK H PARENT 6 10 1 12
REMARK Flexibility Score: inf
ROOT
ATOM      1  C   UNL     1     139.361 137.111 137.893  1.00  0.00     0.048 A 
ATOM      2  C   UNL     1     140.311 136.110 137.622  1.00  0.00     0.030 A 
ATOM      3  C   UNL     1     140.798 135.367 138.695  1.00  0.00     0.046 A 
ATOM      4  C   UNL     1     140.375 135.592 139.977  1.00  0.00     0.003 A 
ATOM      5  C   UNL     1     141.039 134.703 140.793  1.00  0.00     0.028 A 
ATOM      6  C   UNL     1     141.851 133.963 139.939  1.00  0.00     0.083 A 
ATOM      7  N   UNL     1     141.701 134.373 138.658  1.00  0.00    -0.361 N 
ATOM      8  C   UNL     1     139.436 136.576 140.281  1.00  0.00     0.056 A 
ATOM      9  C   UNL     1     138.922 137.347 139.217  1.00  0.00     0.116 A 
ATOM     10  H   UNL     1     142.188 133.992 137.818  1.00  0.00     0.166 HD
ENDROOT
BRANCH   9  11
ATOM     11  O   UNL     1     137.980 138.345 139.458  1.00  0.00    -0.508 OA
ATOM     12  H   UNL     1     138.260 139.302 139.640  1.00  0.00     0.293 HD
ENDBRANCH   9  11
TORSDOF 1
ENDMDL
MODEL 7
REMARK VINA RESULT:    -4.078      6.307      7.986
REMARK INTER + INTRA:          -4.198
REMARK INTER:                  -4.198
REMARK INTRA:                   0.000
REMARK UNBOUND:                 0.000
REMARK SMILES Oc1ccc2[nH]ccc2c1
REMARK SMILES IDX 3 1 4 2 5 3 9 4 8 5 7 6 6 7 10 8 2 9 1 11
REMARK H PARENT 6 10 1 12
REMARK Flexibility Score: inf
ROOT
ATOM      1  C   UNL     1     135.206 142.061 138.066  1.00  0.00     0.048 A 
ATOM      2  C   UNL     1     135.983 141.041 137.487  1.00  0.00     0.030 A 
ATOM      3  C   UNL     1     136.421 140.007 138.313  1.00  0.00     0.046 A 
ATOM      4  C   UNL     1     136.112 139.971 139.646  1.00  0.00     0.003 A 
ATOM      5  C   UNL     1     136.687 138.836 140.172  1.00  0.00     0.028 A 
ATOM      6  C   UNL     1     137.331 138.225 139.102  1.00  0.00     0.083 A 
ATOM      7  N   UNL     1     137.166 138.945 137.967  1.00  0.00    -0.361 N 
ATOM      8  C   UNL     1     135.345 140.965 140.252  1.00  0.00     0.056 A 
ATOM      9  C   UNL     1     134.886 142.028 139.443  1.00  0.00     0.116 A 
ATOM     10  H   UNL     1     137.542 138.717 137.021  1.00  0.00     0.166 HD
ENDROOT
BRANCH   9  11
ATOM     11  O   UNL     1     134.115 143.050 139.992  1.00  0.00    -0.508 OA
ATOM     12  H   UNL     1     134.528 143.765 140.578  1.00  0.00     0.293 HD
ENDBRANCH   9  11
TORSDOF 1
ENDMDL
MODEL 8
REMARK VINA RESULT:    -4.059      1.314      2.052
REMARK INTER + INTRA:          -4.178
REMARK INTER:                  -4.178
REMARK INTRA:                   0.000
REMARK UNBOUND:                 0.000
REMARK SMILES Oc1ccc2[nH]ccc2c1
REMARK SMILES IDX 3 1 4 2 5 3 9 4 8 5 7 6 6 7 10 8 2 9 1 11
REMARK H PARENT 6 10 1 12
REMARK Flexibility Score: inf
ROOT
ATOM      1  C   UNL     1     141.074 134.592 140.634  1.00  0.00     0.048 A 
ATOM      2  C   UNL     1     140.129 135.633 140.589  1.00  0.00     0.030 A 
ATOM      3  C   UNL     1     139.833 136.191 139.347  1.00  0.00     0.046 A 
ATOM      4  C   UNL     1     140.434 135.751 138.199  1.00  0.00     0.003 A 
ATOM      5  C   UNL     1     139.931 136.498 137.157  1.00  0.00     0.028 A 
ATOM      6  C   UNL     1     139.024 137.375 137.744  1.00  0.00     0.083 A 
ATOM      7  N   UNL     1     138.968 137.183 139.083  1.00  0.00    -0.361 N 
ATOM      8  C   UNL     1     141.376 134.723 138.207  1.00  0.00     0.056 A 
ATOM      9  C   UNL     1     141.699 134.136 139.450  1.00  0.00     0.116 A 
ATOM     10  H   UNL     1     138.373 137.703 139.765  1.00  0.00     0.166 HD
ENDROOT
BRANCH   9  11
ATOM     11  O   UNL     1     142.632 133.104 139.521  1.00  0.00    -0.508 OA
ATOM     12  H   UNL     1     142.493 132.232 139.025  1.00  0.00     0.293 HD
ENDBRANCH   9  11
TORSDOF 1
ENDMDL
MODEL 9
REMARK VINA RESULT:    -4.045      6.766      8.489
REMARK INTER + INTRA:          -4.164
REMARK INTER:                  -4.164
REMARK INTRA:                   0.000
REMARK UNBOUND:                 0.000
REMARK SMILES Oc1ccc2[nH]ccc2c1
REMARK SMILES IDX 3 1 4 2 5 3 9 4 8 5 7 6 6 7 10 8 2 9 1 11
REMARK H PARENT 6 10 1 12
REMARK Flexibility Score: inf
ROOT
ATOM      1  C   UNL     1     135.308 142.119 140.596  1.00  0.00     0.048 A 
ATOM      2  C   UNL     1     136.260 141.083 140.596  1.00  0.00     0.030 A 
ATOM      3  C   UNL     1     136.591 140.504 139.373  1.00  0.00     0.046 A 
ATOM      4  C   UNL     1     136.018 140.918 138.201  1.00  0.00     0.003 A 
ATOM      5  C   UNL     1     136.552 140.154 137.187  1.00  0.00     0.028 A 
ATOM      6  C   UNL     1     137.448 139.294 137.814  1.00  0.00     0.083 A 
ATOM      7  N   UNL     1     137.468 139.511 139.150  1.00  0.00    -0.361 N 
ATOM      8  C   UNL     1     135.071 141.940 138.165  1.00  0.00     0.056 A 
ATOM      9  C   UNL     1     134.712 142.549 139.387  1.00  0.00     0.116 A 
ATOM     10  H   UNL     1     138.047 139.008 139.858  1.00  0.00     0.166 HD
ENDROOT
BRANCH   9  11
ATOM     11  O   UNL     1     133.772 143.576 139.414  1.00  0.00    -0.508 OA
ATOM     12  H   UNL     1     133.319 143.855 140.277  1.00  0.00     0.293 HD
ENDBRANCH   9  11
TORSDOF 1
ENDMDL
