MODEL 1
REMARK VINA RESULT:    -3.034      0.000      0.000
REMARK INTER + INTRA:          -4.955
REMARK INTER:                  -4.276
REMARK INTRA:                  -0.679
REMARK UNBOUND:                -0.679
REMARK SMILES CCCCCCCCC(=O)[O-]
REMARK SMILES IDX 6 1 7 2 8 3 9 4 10 5 11 6 5 7 4 8 3 9 2 10 1 11
REMARK H PARENT
REMARK Flexibility Score: inf
ROOT
ATOM      1  C   UNL     1      37.467  35.501  20.801  1.00  0.00     0.000 C 
ENDROOT
BRANCH   1   2
ATOM      2  C   UNL     1      36.727  36.823  20.527  1.00  0.00     0.006 C 
BRANCH   2   3
ATOM      3  C   UNL     1      37.675  38.029  20.537  1.00  0.00     0.053 C 
BRANCH   3   4
ATOM      4  C   UNL     1      37.012  39.261  20.001  1.00  0.00     0.041 C 
ATOM      5  O   UNL     1      35.770  39.423  20.141  1.00  0.00    -0.550 OA
ATOM      6  O   UNL     1      37.757  40.213  19.317  1.00  0.00    -0.550 OA
ENDBRANCH   3   4
ENDBRANCH   2   3
ENDBRANCH   1   2
BRANCH   1   7
ATOM      7  C   UNL     1      38.462  35.137  19.687  1.00  0.00     0.000 C 
BRANCH   7   8
ATOM      8  C   UNL     1      37.782  34.986  18.316  1.00  0.00    -0.000 C 
BRANCH   8   9
ATOM      9  C   UNL     1      38.638  35.534  17.160  1.00  0.00    -0.000 C 
BRANCH   9  10
ATOM     10  C   UNL     1      39.800  36.449  17.587  1.00  0.00    -0.003 C 
ATOM     11  C   UNL     1      39.524  37.929  17.329  1.00  0.00     0.004 C 
ENDBRANCH   9  10
ENDBRANCH   8   9
ENDBRANCH   7   8
ENDBRANCH   1   7
TORSDOF 7
ENDMDL
MODEL 2
REMARK VINA RESULT:    -2.986      1.303      3.247
REMARK INTER + INTRA:          -4.887
REMARK INTER:                  -4.261
REMARK INTRA:                  -0.626
REMARK UNBOUND:                -0.679
REMARK SMILES CCCCCCCCC(=O)[O-]
REMARK SMILES IDX 6 1 7 2 8 3 9 4 10 5 11 6 5 7 4 8 3 9 2 10 1 11
REMARK H PARENT
REMARK Flexibility Score: inf
ROOT
ATOM      1  C   UNL     1      39.397  38.841  17.561  1.00  0.00     0.000 C 
ENDROOT
BRANCH   1   2
ATOM      2  C   UNL     1      39.025  39.389  18.951  1.00  0.00     0.006 C 
BRANCH   2   3
ATOM      3  C   UNL     1      37.552  39.812  19.029  1.00  0.00     0.053 C 
BRANCH   3   4
ATOM      4  C   UNL     1      36.901  39.327  20.288  1.00  0.00     0.041 C 
ATOM      5  O   UNL     1      37.591  38.772  21.184  1.00  0.00    -0.550 OA
ATOM      6  O   UNL     1      35.529  39.456  20.458  1.00  0.00    -0.550 OA
ENDBRANCH   3   4
ENDBRANCH   2   3
ENDBRANCH   1   2
BRANCH   1   7
ATOM      7  C   UNL     1      39.547  37.311  17.547  1.00  0.00     0.000 C 
BRANCH   7   8
ATOM      8  C   UNL     1      39.650  36.716  18.962  1.00  0.00    -0.000 C 
BRANCH   8   9
ATOM      9  C   UNL     1      38.829  35.426  19.131  1.00  0.00    -0.000 C 
BRANCH   9  10
ATOM     10  C   UNL     1      37.405  35.629  19.681  1.00  0.00    -0.003 C 
ATOM     11  C   UNL     1      37.273  35.253  21.156  1.00  0.00     0.004 C 
ENDBRANCH   9  10
ENDBRANCH   8   9
ENDBRANCH   7   8
ENDBRANCH   1   7
TORSDOF 7
ENDMDL
MODEL 3
REMARK VINA RESULT:    -2.914      2.303      4.105
REMARK INTER + INTRA:          -4.785
REMARK INTER:                  -4.125
REMARK INTRA:                  -0.660
REMARK UNBOUND:                -0.679
REMARK SMILES CCCCCCCCC(=O)[O-]
REMARK SMILES IDX 6 1 7 2 8 3 9 4 10 5 11 6 5 7 4 8 3 9 2 10 1 11
REMARK H PARENT
REMARK Flexibility Score: inf
ROOT
ATOM      1  C   UNL     1      37.840  39.643  19.241  1.00  0.00     0.000 C 
ENDROOT
BRANCH   1   2
ATOM      2  C   UNL     1      39.249  39.827  18.650  1.00  0.00     0.006 C 
BRANCH   2   3
ATOM      3  C   UNL     1      39.824  38.512  18.107  1.00  0.00     0.053 C 
BRANCH   3   4
ATOM      4  C   UNL     1      39.706  38.427  16.616  1.00  0.00     0.041 C 
ATOM      5  O   UNL     1      39.570  39.475  15.932  1.00  0.00    -0.550 OA
ATOM      6  O   UNL     1      39.711  37.189  15.986  1.00  0.00    -0.550 OA
ENDBRANCH   3   4
ENDBRANCH   2   3
ENDBRANCH   1   2
BRANCH   1   7
ATOM      7  C   UNL     1      37.814  38.653  20.416  1.00  0.00     0.000 C 
BRANCH   7   8
ATOM      8  C   UNL     1      36.680  37.620  20.292  1.00  0.00    -0.000 C 
BRANCH   8   9
ATOM      9  C   UNL     1      37.104  36.209  20.740  1.00  0.00    -0.000 C 
BRANCH   9  10
ATOM     10  C   UNL     1      38.228  35.572  19.904  1.00  0.00    -0.003 C 
ATOM     11  C   UNL     1      37.836  35.345  18.445  1.00  0.00     0.004 C 
ENDBRANCH   9  10
ENDBRANCH   8   9
ENDBRANCH   7   8
ENDBRANCH   1   7
TORSDOF 7
ENDMDL
MODEL 4
REMARK VINA RESULT:    -2.709      2.283      4.014
REMARK INTER + INTRA:          -4.497
REMARK INTER:                  -4.025
REMARK INTRA:                  -0.472
REMARK UNBOUND:                -0.679
REMARK SMILES CCCCCCCCC(=O)[O-]
REMARK SMILES IDX 6 1 7 2 8 3 9 4 10 5 11 6 5 7 4 8 3 9 2 10 1 11
REMARK H PARENT
REMARK Flexibility Score: inf
ROOT
ATOM      1  C   UNL     1      37.311  35.383  20.977  1.00  0.00     0.000 C 
ENDROOT
BRANCH   1   2
ATOM      2  C   UNL     1      38.487  34.946  20.084  1.00  0.00     0.006 C 
BRANCH   2   3
ATOM      3  C   UNL     1      38.094  34.876  18.603  1.00  0.00     0.053 C 
BRANCH   3   4
ATOM      4  C   UNL     1      38.991  35.719  17.750  1.00  0.00     0.041 C 
ATOM      5  O   UNL     1      39.886  36.428  18.281  1.00  0.00    -0.550 OA
ATOM      6  O   UNL     1      38.816  35.749  16.372  1.00  0.00    -0.550 OA
ENDBRANCH   3   4
ENDBRANCH   2   3
ENDBRANCH   1   2
BRANCH   1   7
ATOM      7  C   UNL     1      36.691  36.717  20.530  1.00  0.00     0.000 C 
BRANCH   7   8
ATOM      8  C   UNL     1      37.548  37.929  20.933  1.00  0.00    -0.000 C 
BRANCH   8   9
ATOM      9  C   UNL     1      36.913  39.272  20.529  1.00  0.00    -0.000 C 
BRANCH   9  10
ATOM     10  C   UNL     1      37.383  39.832  19.174  1.00  0.00    -0.003 C 
ATOM     11  C   UNL     1      38.877  39.629  18.927  1.00  0.00     0.004 C 
ENDBRANCH   9  10
ENDBRANCH   8   9
ENDBRANCH   7   8
ENDBRANCH   1   7
TORSDOF 7
ENDMDL
MODEL 5
REMARK VINA RESULT:    -2.399     12.969     14.293
REMARK INTER + INTRA:          -4.060
REMARK INTER:                  -3.810
REMARK INTRA:                  -0.250
REMARK UNBOUND:                -0.679
REMARK SMILES CCCCCCCCC(=O)[O-]
REMARK SMILES IDX 6 1 7 2 8 3 9 4 10 5 11 6 5 7 4 8 3 9 2 10 1 11
REMARK H PARENT
REMARK Flexibility Score: inf
ROOT
ATOM      1  C   UNL     1      24.498  35.904  18.152  1.00  0.00     0.000 C 
ENDROOT
BRANCH   1   2
ATOM      2  C   UNL     1      23.159  35.700  17.421  1.00  0.00     0.006 C 
BRANCH   2   3
ATOM      3  C   UNL     1      22.003  35.434  18.395  1.00  0.00     0.053 C 
BRANCH   3   4
ATOM      4  C   UNL     1      20.981  36.529  18.356  1.00  0.00     0.041 C 
ATOM      5  O   UNL     1      20.595  37.072  19.424  1.00  0.00    -0.550 OA
ATOM      6  O   UNL     1      20.430  36.925  17.144  1.00  0.00    -0.550 OA
ENDBRANCH   3   4
ENDBRANCH   2   3
ENDBRANCH   1   2
BRANCH   1   7
ATOM      7  C   UNL     1      25.562  34.875  17.737  1.00  0.00     0.000 C 
BRANCH   7   8
ATOM      8  C   UNL     1      26.780  34.875  18.678  1.00  0.00    -0.000 C 
BRANCH   8   9
ATOM      9  C   UNL     1      26.468  35.476  20.061  1.00  0.00    -0.000 C 
BRANCH   9  10
ATOM     10  C   UNL     1      27.548  35.236  21.132  1.00  0.00    -0.003 C 
ATOM     11  C   UNL     1      27.056  35.512  22.552  1.00  0.00     0.004 C 
ENDBRANCH   9  10
ENDBRANCH   8   9
ENDBRANCH   7   8
ENDBRANCH   1   7
TORSDOF 7
ENDMDL
MODEL 6
REMARK VINA RESULT:    -2.332      2.365      4.588
REMARK INTER + INTRA:          -3.966
REMARK INTER:                  -3.138
REMARK INTRA:                  -0.828
REMARK UNBOUND:                -0.679
REMARK SMILES CCCCCCCCC(=O)[O-]
REMARK SMILES IDX 6 1 7 2 8 3 9 4 10 5 11 6 5 7 4 8 3 9 2 10 1 11
REMARK H PARENT
REMARK Flexibility Score: inf
ROOT
ATOM      1  C   UNL     1      39.302  38.509  17.257  1.00  0.00     0.000 C 
ENDROOT
BRANCH   1   2
ATOM      2  C   UNL     1      39.935  37.132  17.525  1.00  0.00     0.006 C 
BRANCH   2   3
ATOM      3  C   UNL     1      39.439  36.513  18.837  1.00  0.00     0.053 C 
BRANCH   3   4
ATOM      4  C   UNL     1      38.175  35.732  18.640  1.00  0.00     0.041 C 
ATOM      5  O   UNL     1      37.421  35.490  19.620  1.00  0.00    -0.550 OA
ATOM      6  O   UNL     1      37.847  35.243  17.382  1.00  0.00    -0.550 OA
ENDBRANCH   3   4
ENDBRANCH   2   3
ENDBRANCH   1   2
BRANCH   1   7
ATOM      7  C   UNL     1      39.896  39.618  18.142  1.00  0.00     0.000 C 
BRANCH   7   8
ATOM      8  C   UNL     1      38.905  40.116  19.207  1.00  0.00    -0.000 C 
BRANCH   8   9
ATOM      9  C   UNL     1      37.447  39.734  18.895  1.00  0.00    -0.000 C 
BRANCH   9  10
ATOM     10  C   UNL     1      36.704  39.016  20.036  1.00  0.00    -0.003 C 
ATOM     11  C   UNL     1      37.615  38.649  21.207  1.00  0.00     0.004 C 
ENDBRANCH   9  10
ENDBRANCH   8   9
ENDBRANCH   7   8
ENDBRANCH   1   7
TORSDOF 7
ENDMDL
MODEL 7
REMARK VINA RESULT:    -2.285      2.532      4.896
REMARK INTER + INTRA:          -3.899
REMARK INTER:                  -3.350
REMARK INTRA:                  -0.549
REMARK UNBOUND:                -0.679
REMARK SMILES CCCCCCCCC(=O)[O-]
REMARK SMILES IDX 6 1 7 2 8 3 9 4 10 5 11 6 5 7 4 8 3 9 2 10 1 11
REMARK H PARENT
REMARK Flexibility Score: inf
ROOT
ATOM      1  C   UNL     1      39.979  39.095  18.325  1.00  0.00     0.000 C 
ENDROOT
BRANCH   1   2
ATOM      2  C   UNL     1      39.390  38.576  17.001  1.00  0.00     0.006 C 
BRANCH   2   3
ATOM      3  C   UNL     1      40.045  37.262  16.552  1.00  0.00     0.053 C 
BRANCH   3   4
ATOM      4  C   UNL     1      39.472  36.082  17.275  1.00  0.00     0.041 C 
ATOM      5  O   UNL     1      40.125  35.527  18.199  1.00  0.00    -0.550 OA
ATOM      6  O   UNL     1      38.233  35.572  16.907  1.00  0.00    -0.550 OA
ENDBRANCH   3   4
ENDBRANCH   2   3
ENDBRANCH   1   2
BRANCH   1   7
ATOM      7  C   UNL     1      39.035  40.063  19.055  1.00  0.00     0.000 C 
BRANCH   7   8
ATOM      8  C   UNL     1      37.625  39.479  19.247  1.00  0.00    -0.000 C 
BRANCH   8   9
ATOM      9  C   UNL     1      37.476  38.690  20.560  1.00  0.00    -0.000 C 
BRANCH   9  10
ATOM     10  C   UNL     1      36.707  37.362  20.438  1.00  0.00    -0.003 C 
ATOM     11  C   UNL     1      37.612  36.134  20.523  1.00  0.00     0.004 C 
ENDBRANCH   9  10
ENDBRANCH   8   9
ENDBRANCH   7   8
ENDBRANCH   1   7
TORSDOF 7
ENDMDL
MODEL 8
REMARK VINA RESULT:    -1.548     24.950     27.269
REMARK INTER + INTRA:          -2.861
REMARK INTER:                  -2.246
REMARK INTRA:                  -0.616
REMARK UNBOUND:                -0.679
REMARK SMILES CCCCCCCCC(=O)[O-]
REMARK SMILES IDX 6 1 7 2 8 3 9 4 10 5 11 6 5 7 4 8 3 9 2 10 1 11
REMARK H PARENT
REMARK Flexibility Score: inf
ROOT
ATOM      1  C   UNL     1      21.276  54.128  32.681  1.00  0.00     0.000 C 
ENDROOT
BRANCH   1   2
ATOM      2  C   UNL     1      22.253  55.109  32.008  1.00  0.00     0.006 C 
BRANCH   2   3
ATOM      3  C   UNL     1      23.693  54.922  32.504  1.00  0.00     0.053 C 
BRANCH   3   4
ATOM      4  C   UNL     1      24.613  54.511  31.396  1.00  0.00     0.041 C 
ATOM      5  O   UNL     1      25.698  55.124  31.214  1.00  0.00    -0.550 OA
ATOM      6  O   UNL     1      24.257  53.474  30.543  1.00  0.00    -0.550 OA
ENDBRANCH   3   4
ENDBRANCH   2   3
ENDBRANCH   1   2
BRANCH   1   7
ATOM      7  C   UNL     1      20.598  54.727  33.925  1.00  0.00     0.000 C 
BRANCH   7   8
ATOM      8  C   UNL     1      20.355  53.679  35.025  1.00  0.00    -0.000 C 
BRANCH   8   9
ATOM      9  C   UNL     1      21.551  53.528  35.982  1.00  0.00    -0.000 C 
BRANCH   9  10
ATOM     10  C   UNL     1      22.432  54.782  36.125  1.00  0.00    -0.003 C 
ATOM     11  C   UNL     1      23.928  54.470  36.102  1.00  0.00     0.004 C 
ENDBRANCH   9  10
ENDBRANCH   8   9
ENDBRANCH   7   8
ENDBRANCH   1   7
TORSDOF 7
ENDMDL
