MODEL 1
REMARK VINA RESULT:    -4.426      0.000      0.000
REMARK INTER + INTRA:         -16.407
REMARK INTER:                 -11.672
REMARK INTRA:                  -4.735
REMARK UNBOUND:                -4.735
REMARK SMILES CCCCCCCCCCCCCCCCCCCCCCCCCCCCCC(=O)[O-]
REMARK SMILES IDX 16 1 17 2 18 3 19 4 20 5 21 6 22 7 23 8 24 9 25 10 26 11
REMARK SMILES IDX 27 12 28 13 29 14 30 15 31 16 32 17 15 18 14 19 13 20 12 21
REMARK SMILES IDX 11 22 10 23 9 24 8 25 7 26 6 27 5 28 4 29 3 30 2 31 1 32
REMARK H PARENT
REMARK Flexibility Score: inf
ROOT
ATOM      1  C   UNL     1      99.416  96.959  91.981  1.00  0.00     0.000 C 
ENDROOT
BRANCH   1   2
ATOM      2  C   UNL     1     100.823  96.427  91.637  1.00  0.00     0.000 C 
BRANCH   2   3
ATOM      3  C   UNL     1     101.719  97.373  90.809  1.00  0.00     0.000 C 
BRANCH   3   4
ATOM      4  C   UNL     1     101.638  97.183  89.277  1.00  0.00     0.000 C 
BRANCH   4   5
ATOM      5  C   UNL     1     100.498  97.970  88.601  1.00  0.00     0.000 C 
BRANCH   5   6
ATOM      6  C   UNL     1      99.314  97.119  88.111  1.00  0.00     0.000 C 
BRANCH   6   7
ATOM      7  C   UNL     1      99.609  95.614  87.947  1.00  0.00     0.000 C 
BRANCH   7   8
ATOM      8  C   UNL     1      98.944  94.720  89.017  1.00  0.00     0.000 C 
BRANCH   8   9
ATOM      9  C   UNL     1      99.789  93.482  89.369  1.00  0.00     0.000 C 
BRANCH   9  10
ATOM     10  C   UNL     1     101.155  93.448  88.659  1.00  0.00     0.000 C 
BRANCH  10  11
ATOM     11  C   UNL     1     102.301  92.830  89.490  1.00  0.00     0.000 C 
BRANCH  11  12
ATOM     12  C   UNL     1     103.149  93.816  90.322  1.00  0.00     0.000 C 
BRANCH  12  13
ATOM     13  C   UNL     1     104.194  94.636  89.537  1.00  0.00     0.006 C 
BRANCH  13  14
ATOM     14  C   UNL     1     105.518  94.860  90.284  1.00  0.00     0.053 C 
BRANCH  14  15
ATOM     15  C   UNL     1     105.720  96.301  90.641  1.00  0.00     0.041 C 
ATOM     16  O   UNL     1     105.206  97.206  89.932  1.00  0.00    -0.550 OA
ATOM     17  O   UNL     1     106.432  96.642  91.785  1.00  0.00    -0.550 OA
ENDBRANCH  14  15
ENDBRANCH  13  14
ENDBRANCH  12  13
ENDBRANCH  11  12
ENDBRANCH  10  11
ENDBRANCH   9  10
ENDBRANCH   8   9
ENDBRANCH   7   8
ENDBRANCH   6   7
ENDBRANCH   5   6
ENDBRANCH   4   5
ENDBRANCH   3   4
ENDBRANCH   2   3
ENDBRANCH   1   2
BRANCH   1  18
ATOM     18  C   UNL     1      99.317  98.486  92.159  1.00  0.00     0.000 C 
BRANCH  18  19
ATOM     19  C   UNL     1      98.331  99.189  91.202  1.00  0.00     0.000 C 
BRANCH  19  20
ATOM     20  C   UNL     1      97.186  99.955  91.891  1.00  0.00     0.000 C 
BRANCH  20  21
ATOM     21  C   UNL     1      97.300 101.491  91.848  1.00  0.00     0.000 C 
BRANCH  21  22
ATOM     22  C   UNL     1      98.343 102.020  90.841  1.00  0.00     0.000 C 
BRANCH  22  23
ATOM     23  C   UNL     1      97.717 102.907  89.747  1.00  0.00     0.000 C 
BRANCH  23  24
ATOM     24  C   UNL     1      96.240 102.567  89.490  1.00  0.00    -0.000 C 
BRANCH  24  25
ATOM     25  C   UNL     1      95.321 103.792  89.651  1.00  0.00    -0.000 C 
BRANCH  25  26
ATOM     26  C   UNL     1      94.286 103.604  90.779  1.00  0.00    -0.000 C 
BRANCH  26  27
ATOM     27  C   UNL     1      92.883 103.229  90.277  1.00  0.00    -0.000 C 
BRANCH  27  28
ATOM     28  C   UNL     1      92.469 101.799  90.665  1.00  0.00    -0.000 C 
BRANCH  28  29
ATOM     29  C   UNL     1      93.515 101.111  91.566  1.00  0.00    -0.000 C 
BRANCH  29  30
ATOM     30  C   UNL     1      93.438  99.572  91.556  1.00  0.00    -0.000 C 
BRANCH  30  31
ATOM     31  C   UNL     1      93.397  98.950  90.148  1.00  0.00    -0.003 C 
ATOM     32  C   UNL     1      94.659  99.241  89.336  1.00  0.00     0.004 C 
ENDBRANCH  30  31
ENDBRANCH  29  30
ENDBRANCH  28  29
ENDBRANCH  27  28
ENDBRANCH  26  27
ENDBRANCH  25  26
ENDBRANCH  24  25
ENDBRANCH  23  24
ENDBRANCH  22  23
ENDBRANCH  21  22
ENDBRANCH  20  21
ENDBRANCH  19  20
ENDBRANCH  18  19
ENDBRANCH   1  18
TORSDOF 28
ENDMDL
MODEL 2
REMARK VINA RESULT:    -4.421      3.038      9.702
REMARK INTER + INTRA:         -16.394
REMARK INTER:                 -12.684
REMARK INTRA:                  -3.709
REMARK UNBOUND:                -4.735
REMARK SMILES CCCCCCCCCCCCCCCCCCCCCCCCCCCCCC(=O)[O-]
REMARK SMILES IDX 16 1 17 2 18 3 19 4 20 5 21 6 22 7 23 8 24 9 25 10 26 11
REMARK SMILES IDX 27 12 28 13 29 14 30 15 31 16 32 17 15 18 14 19 13 20 12 21
REMARK SMILES IDX 11 22 10 23 9 24 8 25 7 26 6 27 5 28 4 29 3 30 2 31 1 32
REMARK H PARENT
REMARK Flexibility Score: inf
ROOT
ATOM      1  C   UNL     1      91.063 100.535  92.607  1.00  0.00     0.000 C 
ENDROOT
BRANCH   1   2
ATOM      2  C   UNL     1      89.582 100.113  92.704  1.00  0.00     0.000 C 
BRANCH   2   3
ATOM      3  C   UNL     1      88.953  99.554  91.409  1.00  0.00     0.000 C 
BRANCH   3   4
ATOM      4  C   UNL     1      89.198  98.049  91.154  1.00  0.00     0.000 C 
BRANCH   4   5
ATOM      5  C   UNL     1      89.671  97.719  89.724  1.00  0.00     0.000 C 
BRANCH   5   6
ATOM      6  C   UNL     1      91.110  98.149  89.393  1.00  0.00     0.000 C 
BRANCH   6   7
ATOM      7  C   UNL     1      91.235  99.434  88.549  1.00  0.00     0.000 C 
BRANCH   7   8
ATOM      8  C   UNL     1      92.579 100.176  88.723  1.00  0.00     0.000 C 
BRANCH   8   9
ATOM      9  C   UNL     1      92.401 101.635  89.178  1.00  0.00     0.000 C 
BRANCH   9  10
ATOM     10  C   UNL     1      93.670 102.490  89.010  1.00  0.00     0.000 C 
BRANCH  10  11
ATOM     11  C   UNL     1      93.731 103.744  89.911  1.00  0.00     0.000 C 
BRANCH  11  12
ATOM     12  C   UNL     1      94.990 104.626  89.768  1.00  0.00     0.000 C 
BRANCH  12  13
ATOM     13  C   UNL     1      96.196 103.971  89.065  1.00  0.00     0.006 C 
BRANCH  13  14
ATOM     14  C   UNL     1      97.522 104.728  89.242  1.00  0.00     0.053 C 
BRANCH  14  15
ATOM     15  C   UNL     1      98.680 103.792  89.411  1.00  0.00     0.041 C 
ATOM     16  O   UNL     1      98.719 102.711  88.765  1.00  0.00    -0.550 OA
ATOM     17  O   UNL     1      99.739 104.136  90.242  1.00  0.00    -0.550 OA
ENDBRANCH  14  15
ENDBRANCH  13  14
ENDBRANCH  12  13
ENDBRANCH  11  12
ENDBRANCH  10  11
ENDBRANCH   9  10
ENDBRANCH   8   9
ENDBRANCH   7   8
ENDBRANCH   6   7
ENDBRANCH   5   6
ENDBRANCH   4   5
ENDBRANCH   3   4
ENDBRANCH   2   3
ENDBRANCH   1   2
BRANCH   1  18
ATOM     18  C   UNL     1      92.080  99.473  93.067  1.00  0.00     0.000 C 
BRANCH  18  19
ATOM     19  C   UNL     1      93.334  99.347  92.176  1.00  0.00     0.000 C 
BRANCH  19  20
ATOM     20  C   UNL     1      94.254 100.582  92.165  1.00  0.00     0.000 C 
BRANCH  20  21
ATOM     21  C   UNL     1      95.618 100.383  91.477  1.00  0.00     0.000 C 
BRANCH  21  22
ATOM     22  C   UNL     1      96.555 101.607  91.562  1.00  0.00     0.000 C 
BRANCH  22  23
ATOM     23  C   UNL     1      97.984 101.233  92.000  1.00  0.00     0.000 C 
BRANCH  23  24
ATOM     24  C   UNL     1      98.487  99.946  91.325  1.00  0.00    -0.000 C 
BRANCH  24  25
ATOM     25  C   UNL     1      99.372  99.102  92.261  1.00  0.00    -0.000 C 
BRANCH  25  26
ATOM     26  C   UNL     1      99.240  97.591  91.986  1.00  0.00    -0.000 C 
BRANCH  26  27
ATOM     27  C   UNL     1     100.344  97.028  91.077  1.00  0.00    -0.000 C 
BRANCH  27  28
ATOM     28  C   UNL     1     101.693  97.747  91.256  1.00  0.00    -0.000 C 
BRANCH  28  29
ATOM     29  C   UNL     1     102.892  96.829  90.943  1.00  0.00    -0.000 C 
BRANCH  29  30
ATOM     30  C   UNL     1     102.908  95.517  91.753  1.00  0.00    -0.000 C 
BRANCH  30  31
ATOM     31  C   UNL     1     103.832  94.429  91.175  1.00  0.00    -0.003 C 
ATOM     32  C   UNL     1     104.475  94.842  89.850  1.00  0.00     0.004 C 
ENDBRANCH  30  31
ENDBRANCH  29  30
ENDBRANCH  28  29
ENDBRANCH  27  28
ENDBRANCH  26  27
ENDBRANCH  25  26
ENDBRANCH  24  25
ENDBRANCH  23  24
ENDBRANCH  22  23
ENDBRANCH  21  22
ENDBRANCH  20  21
ENDBRANCH  19  20
ENDBRANCH  18  19
ENDBRANCH   1  18
TORSDOF 28
ENDMDL
MODEL 3
REMARK VINA RESULT:    -4.384      1.565      2.759
REMARK INTER + INTRA:         -16.296
REMARK INTER:                 -12.922
REMARK INTRA:                  -3.374
REMARK UNBOUND:                -4.735
REMARK SMILES CCCCCCCCCCCCCCCCCCCCCCCCCCCCCC(=O)[O-]
REMARK SMILES IDX 16 1 17 2 18 3 19 4 20 5 21 6 22 7 23 8 24 9 25 10 26 11
REMARK SMILES IDX 27 12 28 13 29 14 30 15 31 16 32 17 15 18 14 19 13 20 12 21
REMARK SMILES IDX 11 22 10 23 9 24 8 25 7 26 6 27 5 28 4 29 3 30 2 31 1 32
REMARK H PARENT
REMARK Flexibility Score: inf
ROOT
ATOM      1  C   UNL     1      99.620  99.188  92.389  1.00  0.00     0.000 C 
ENDROOT
BRANCH   1   2
ATOM      2  C   UNL     1     100.604  98.073  91.977  1.00  0.00     0.000 C 
BRANCH   2   3
ATOM      3  C   UNL     1     100.046  96.634  92.007  1.00  0.00     0.000 C 
BRANCH   3   4
ATOM      4  C   UNL     1      99.906  95.953  90.627  1.00  0.00     0.000 C 
BRANCH   4   5
ATOM      5  C   UNL     1     100.840  96.525  89.541  1.00  0.00     0.000 C 
BRANCH   5   6
ATOM      6  C   UNL     1     101.559  95.476  88.675  1.00  0.00     0.000 C 
BRANCH   6   7
ATOM      7  C   UNL     1     101.265  94.007  89.041  1.00  0.00     0.000 C 
BRANCH   7   8
ATOM      8  C   UNL     1     102.507  93.207  89.491  1.00  0.00     0.000 C 
BRANCH   8   9
ATOM      9  C   UNL     1     103.308  93.921  90.595  1.00  0.00     0.000 C 
BRANCH   9  10
ATOM     10  C   UNL     1     104.662  94.472  90.113  1.00  0.00     0.000 C 
BRANCH  10  11
ATOM     11  C   UNL     1     105.128  95.761  90.825  1.00  0.00     0.000 C 
BRANCH  11  12
ATOM     12  C   UNL     1     104.031  96.578  91.543  1.00  0.00     0.000 C 
BRANCH  12  13
ATOM     13  C   UNL     1     104.262  98.102  91.614  1.00  0.00     0.006 C 
BRANCH  13  14
ATOM     14  C   UNL     1     105.059  98.566  92.843  1.00  0.00     0.053 C 
BRANCH  14  15
ATOM     15  C   UNL     1     106.530  98.629  92.563  1.00  0.00     0.041 C 
ATOM     16  O   UNL     1     106.956  99.262  91.561  1.00  0.00    -0.550 OA
ATOM     17  O   UNL     1     107.432  98.034  93.437  1.00  0.00    -0.550 OA
ENDBRANCH  14  15
ENDBRANCH  13  14
ENDBRANCH  12  13
ENDBRANCH  11  12
ENDBRANCH  10  11
ENDBRANCH   9  10
ENDBRANCH   8   9
ENDBRANCH   7   8
ENDBRANCH   6   7
ENDBRANCH   5   6
ENDBRANCH   4   5
ENDBRANCH   3   4
ENDBRANCH   2   3
ENDBRANCH   1   2
BRANCH   1  18
ATOM     18  C   UNL     1      98.183  99.023  91.860  1.00  0.00     0.000 C 
BRANCH  18  19
ATOM     19  C   UNL     1      97.368 100.331  91.776  1.00  0.00     0.000 C 
BRANCH  19  20
ATOM     20  C   UNL     1      98.206 101.616  91.640  1.00  0.00     0.000 C 
BRANCH  20  21
ATOM     21  C   UNL     1      98.112 102.324  90.275  1.00  0.00     0.000 C 
BRANCH  21  22
ATOM     22  C   UNL     1      97.171 101.632  89.266  1.00  0.00     0.000 C 
BRANCH  22  23
ATOM     23  C   UNL     1      95.918 102.472  88.949  1.00  0.00     0.000 C 
BRANCH  23  24
ATOM     24  C   UNL     1      95.976 103.873  89.578  1.00  0.00    -0.000 C 
BRANCH  24  25
ATOM     25  C   UNL     1      94.578 104.492  89.757  1.00  0.00    -0.000 C 
BRANCH  25  26
ATOM     26  C   UNL     1      93.594 103.528  90.450  1.00  0.00    -0.000 C 
BRANCH  26  27
ATOM     27  C   UNL     1      93.958 103.215  91.910  1.00  0.00    -0.000 C 
BRANCH  27  28
ATOM     28  C   UNL     1      93.984 101.706  92.211  1.00  0.00    -0.000 C 
BRANCH  28  29
ATOM     29  C   UNL     1      92.959 100.923  91.367  1.00  0.00    -0.000 C 
BRANCH  29  30
ATOM     30  C   UNL     1      91.546 100.871  91.981  1.00  0.00    -0.000 C 
BRANCH  30  31
ATOM     31  C   UNL     1      91.257  99.596  92.795  1.00  0.00    -0.003 C 
ATOM     32  C   UNL     1      92.506  99.031  93.470  1.00  0.00     0.004 C 
ENDBRANCH  30  31
ENDBRANCH  29  30
ENDBRANCH  28  29
ENDBRANCH  27  28
ENDBRANCH  26  27
ENDBRANCH  25  26
ENDBRANCH  24  25
ENDBRANCH  23  24
ENDBRANCH  22  23
ENDBRANCH  21  22
ENDBRANCH  20  21
ENDBRANCH  19  20
ENDBRANCH  18  19
ENDBRANCH   1  18
TORSDOF 28
ENDMDL
MODEL 4
REMARK VINA RESULT:    -4.379      3.497     10.169
REMARK INTER + INTRA:         -16.282
REMARK INTER:                 -12.439
REMARK INTRA:                  -3.843
REMARK UNBOUND:                -4.735
REMARK SMILES CCCCCCCCCCCCCCCCCCCCCCCCCCCCCC(=O)[O-]
REMARK SMILES IDX 16 1 17 2 18 3 19 4 20 5 21 6 22 7 23 8 24 9 25 10 26 11
REMARK SMILES IDX 27 12 28 13 29 14 30 15 31 16 32 17 15 18 14 19 13 20 12 21
REMARK SMILES IDX 11 22 10 23 9 24 8 25 7 26 6 27 5 28 4 29 3 30 2 31 1 32
REMARK H PARENT
REMARK Flexibility Score: inf
ROOT
ATOM      1  C   UNL     1      99.511  98.419  92.199  1.00  0.00     0.000 C 
ENDROOT
BRANCH   1   2
ATOM      2  C   UNL     1      98.618  99.111  91.149  1.00  0.00     0.000 C 
BRANCH   2   3
ATOM      3  C   UNL     1      97.634 100.170  91.691  1.00  0.00     0.000 C 
BRANCH   3   4
ATOM      4  C   UNL     1      98.095 101.638  91.535  1.00  0.00     0.000 C 
BRANCH   4   5
ATOM      5  C   UNL     1      98.191 102.119  90.074  1.00  0.00     0.000 C 
BRANCH   5   6
ATOM      6  C   UNL     1      99.107 103.333  89.842  1.00  0.00     0.000 C 
BRANCH   6   7
ATOM      7  C   UNL     1      98.393 104.614  89.364  1.00  0.00     0.000 C 
BRANCH   7   8
ATOM      8  C   UNL     1      97.000 104.368  88.745  1.00  0.00     0.000 C 
BRANCH   8   9
ATOM      9  C   UNL     1      95.898 105.223  89.396  1.00  0.00     0.000 C 
BRANCH   9  10
ATOM     10  C   UNL     1      94.650 104.416  89.796  1.00  0.00     0.000 C 
BRANCH  10  11
ATOM     11  C   UNL     1      94.806 103.580  91.086  1.00  0.00     0.000 C 
BRANCH  11  12
ATOM     12  C   UNL     1      94.343 102.109  91.006  1.00  0.00     0.000 C 
BRANCH  12  13
ATOM     13  C   UNL     1      93.358 101.650  92.101  1.00  0.00     0.006 C 
BRANCH  13  14
ATOM     14  C   UNL     1      92.062 101.021  91.566  1.00  0.00     0.053 C 
BRANCH  14  15
ATOM     15  C   UNL     1      92.103  99.525  91.625  1.00  0.00     0.041 C 
ATOM     16  O   UNL     1      91.264  98.896  92.323  1.00  0.00    -0.550 OA
ATOM     17  O   UNL     1      93.034  98.822  90.869  1.00  0.00    -0.550 OA
ENDBRANCH  14  15
ENDBRANCH  13  14
ENDBRANCH  12  13
ENDBRANCH  11  12
ENDBRANCH  10  11
ENDBRANCH   9  10
ENDBRANCH   8   9
ENDBRANCH   7   8
ENDBRANCH   6   7
ENDBRANCH   5   6
ENDBRANCH   4   5
ENDBRANCH   3   4
ENDBRANCH   2   3
ENDBRANCH   1   2
BRANCH   1  18
ATOM     18  C   UNL     1      99.707  96.904  91.999  1.00  0.00     0.000 C 
BRANCH  18  19
ATOM     19  C   UNL     1     101.143  96.479  91.624  1.00  0.00     0.000 C 
BRANCH  19  20
ATOM     20  C   UNL     1     101.708  97.138  90.352  1.00  0.00     0.000 C 
BRANCH  20  21
ATOM     21  C   UNL     1     102.955  98.017  90.561  1.00  0.00     0.000 C 
BRANCH  21  22
ATOM     22  C   UNL     1     103.538  97.959  91.989  1.00  0.00     0.000 C 
BRANCH  22  23
ATOM     23  C   UNL     1     104.805  97.085  92.079  1.00  0.00     0.000 C 
BRANCH  23  24
ATOM     24  C   UNL     1     105.453  96.847  90.706  1.00  0.00    -0.000 C 
BRANCH  24  25
ATOM     25  C   UNL     1     105.632  95.350  90.395  1.00  0.00    -0.000 C 
BRANCH  25  26
ATOM     26  C   UNL     1     104.377  94.524  90.742  1.00  0.00    -0.000 C 
BRANCH  26  27
ATOM     27  C   UNL     1     103.679  93.915  89.516  1.00  0.00    -0.000 C 
BRANCH  27  28
ATOM     28  C   UNL     1     102.283  93.353  89.838  1.00  0.00    -0.000 C 
BRANCH  28  29
ATOM     29  C   UNL     1     101.202  93.886  88.877  1.00  0.00    -0.000 C 
BRANCH  29  30
ATOM     30  C   UNL     1      99.798  93.298  89.121  1.00  0.00    -0.000 C 
BRANCH  30  31
ATOM     31  C   UNL     1      98.771  94.314  89.656  1.00  0.00    -0.003 C 
ATOM     32  C   UNL     1      98.602  95.523  88.735  1.00  0.00     0.004 C 
ENDBRANCH  30  31
ENDBRANCH  29  30
ENDBRANCH  28  29
ENDBRANCH  27  28
ENDBRANCH  26  27
ENDBRANCH  25  26
ENDBRANCH  24  25
ENDBRANCH  23  24
ENDBRANCH  22  23
ENDBRANCH  21  22
ENDBRANCH  20  21
ENDBRANCH  19  20
ENDBRANCH  18  19
ENDBRANCH   1  18
TORSDOF 28
ENDMDL
MODEL 5
REMARK VINA RESULT:    -4.360      2.298      6.503
REMARK INTER + INTRA:         -16.233
REMARK INTER:                 -11.217
REMARK INTRA:                  -5.016
REMARK UNBOUND:                -4.735
REMARK SMILES CCCCCCCCCCCCCCCCCCCCCCCCCCCCCC(=O)[O-]
REMARK SMILES IDX 16 1 17 2 18 3 19 4 20 5 21 6 22 7 23 8 24 9 25 10 26 11
REMARK SMILES IDX 27 12 28 13 29 14 30 15 31 16 32 17 15 18 14 19 13 20 12 21
REMARK SMILES IDX 11 22 10 23 9 24 8 25 7 26 6 27 5 28 4 29 3 30 2 31 1 32
REMARK H PARENT
REMARK Flexibility Score: inf
ROOT
ATOM      1  C   UNL     1      91.735  98.232  89.480  1.00  0.00     0.000 C 
ENDROOT
BRANCH   1   2
ATOM      2  C   UNL     1      92.019  99.210  88.321  1.00  0.00     0.000 C 
BRANCH   2   3
ATOM      3  C   UNL     1      93.502  99.377  87.926  1.00  0.00     0.000 C 
BRANCH   3   4
ATOM      4  C   UNL     1      94.130 100.742  88.290  1.00  0.00     0.000 C 
BRANCH   4   5
ATOM      5  C   UNL     1      95.253 100.662  89.343  1.00  0.00     0.000 C 
BRANCH   5   6
ATOM      6  C   UNL     1      94.931  99.809  90.581  1.00  0.00     0.000 C 
BRANCH   6   7
ATOM      7  C   UNL     1      95.774 100.123  91.834  1.00  0.00     0.000 C 
BRANCH   7   8
ATOM      8  C   UNL     1      96.891 101.163  91.599  1.00  0.00     0.000 C 
BRANCH   8   9
ATOM      9  C   UNL     1      98.300 100.544  91.632  1.00  0.00     0.000 C 
BRANCH   9  10
ATOM     10  C   UNL     1      98.741  99.948  90.282  1.00  0.00     0.000 C 
BRANCH  10  11
ATOM     11  C   UNL     1      99.495  98.603  90.383  1.00  0.00     0.000 C 
BRANCH  11  12
ATOM     12  C   UNL     1      99.687  98.034  91.805  1.00  0.00     0.000 C 
BRANCH  12  13
ATOM     13  C   UNL     1      99.707  96.496  91.919  1.00  0.00     0.006 C 
BRANCH  13  14
ATOM     14  C   UNL     1      99.796  95.760  90.573  1.00  0.00     0.053 C 
BRANCH  14  15
ATOM     15  C   UNL     1     101.209  95.405  90.224  1.00  0.00     0.041 C 
ATOM     16  O   UNL     1     101.495  95.020  89.060  1.00  0.00    -0.550 OA
ATOM     17  O   UNL     1     102.218  95.549  91.170  1.00  0.00    -0.550 OA
ENDBRANCH  14  15
ENDBRANCH  13  14
ENDBRANCH  12  13
ENDBRANCH  11  12
ENDBRANCH  10  11
ENDBRANCH   9  10
ENDBRANCH   8   9
ENDBRANCH   7   8
ENDBRANCH   6   7
ENDBRANCH   5   6
ENDBRANCH   4   5
ENDBRANCH   3   4
ENDBRANCH   2   3
ENDBRANCH   1   2
BRANCH   1  18
ATOM     18  C   UNL     1      90.253  97.859  89.676  1.00  0.00     0.000 C 
BRANCH  18  19
ATOM     19  C   UNL     1      89.600  98.440  90.947  1.00  0.00     0.000 C 
BRANCH  19  20
ATOM     20  C   UNL     1      90.568  98.714  92.113  1.00  0.00     0.000 C 
BRANCH  20  21
ATOM     21  C   UNL     1      90.591 100.167  92.625  1.00  0.00     0.000 C 
BRANCH  21  22
ATOM     22  C   UNL     1      91.804 100.990  92.141  1.00  0.00     0.000 C 
BRANCH  22  23
ATOM     23  C   UNL     1      91.536 101.717  90.809  1.00  0.00     0.000 C 
BRANCH  23  24
ATOM     24  C   UNL     1      92.457 102.932  90.609  1.00  0.00    -0.000 C 
BRANCH  24  25
ATOM     25  C   UNL     1      93.488 103.079  91.743  1.00  0.00    -0.000 C 
BRANCH  25  26
ATOM     26  C   UNL     1      94.747 103.849  91.295  1.00  0.00    -0.000 C 
BRANCH  26  27
ATOM     27  C   UNL     1      94.733 104.248  89.811  1.00  0.00    -0.000 C 
BRANCH  27  28
ATOM     28  C   UNL     1      95.645 105.448  89.504  1.00  0.00    -0.000 C 
BRANCH  28  29
ATOM     29  C   UNL     1      96.855 105.057  88.631  1.00  0.00    -0.000 C 
BRANCH  29  30
ATOM     30  C   UNL     1      97.206 103.557  88.680  1.00  0.00    -0.000 C 
BRANCH  30  31
ATOM     31  C   UNL     1      98.717 103.263  88.751  1.00  0.00    -0.003 C 
ATOM     32  C   UNL     1      99.376 103.860  89.994  1.00  0.00     0.004 C 
ENDBRANCH  30  31
ENDBRANCH  29  30
ENDBRANCH  28  29
ENDBRANCH  27  28
ENDBRANCH  26  27
ENDBRANCH  25  26
ENDBRANCH  24  25
ENDBRANCH  23  24
ENDBRANCH  22  23
ENDBRANCH  21  22
ENDBRANCH  20  21
ENDBRANCH  19  20
ENDBRANCH  18  19
ENDBRANCH   1  18
TORSDOF 28
ENDMDL
MODEL 6
REMARK VINA RESULT:    -4.346      1.660      3.768
REMARK INTER + INTRA:         -16.194
REMARK INTER:                 -11.388
REMARK INTRA:                  -4.806
REMARK UNBOUND:                -4.735
REMARK SMILES CCCCCCCCCCCCCCCCCCCCCCCCCCCCCC(=O)[O-]
REMARK SMILES IDX 16 1 17 2 18 3 19 4 20 5 21 6 22 7 23 8 24 9 25 10 26 11
REMARK SMILES IDX 27 12 28 13 29 14 30 15 31 16 32 17 15 18 14 19 13 20 12 21
REMARK SMILES IDX 11 22 10 23 9 24 8 25 7 26 6 27 5 28 4 29 3 30 2 31 1 32
REMARK H PARENT
REMARK Flexibility Score: inf
ROOT
ATOM      1  C   UNL     1     101.320  97.843  91.672  1.00  0.00     0.000 C 
ENDROOT
BRANCH   1   2
ATOM      2  C   UNL     1     100.879  96.398  91.982  1.00  0.00     0.000 C 
BRANCH   2   3
ATOM      3  C   UNL     1      99.450  96.018  91.538  1.00  0.00     0.000 C 
BRANCH   3   4
ATOM      4  C   UNL     1      99.297  95.668  90.040  1.00  0.00     0.000 C 
BRANCH   4   5
ATOM      5  C   UNL     1      98.930  94.196  89.768  1.00  0.00     0.000 C 
BRANCH   5   6
ATOM      6  C   UNL     1      99.984  93.389  88.990  1.00  0.00     0.000 C 
BRANCH   6   7
ATOM      7  C   UNL     1     101.402  93.996  88.983  1.00  0.00     0.000 C 
BRANCH   7   8
ATOM      8  C   UNL     1     102.468  93.120  89.678  1.00  0.00     0.000 C 
BRANCH   8   9
ATOM      9  C   UNL     1     103.818  93.840  89.842  1.00  0.00     0.000 C 
BRANCH   9  10
ATOM     10  C   UNL     1     103.985  94.530  91.208  1.00  0.00     0.000 C 
BRANCH  10  11
ATOM     11  C   UNL     1     105.130  95.566  91.275  1.00  0.00     0.000 C 
BRANCH  11  12
ATOM     12  C   UNL     1     105.643  96.103  89.921  1.00  0.00     0.000 C 
BRANCH  12  13
ATOM     13  C   UNL     1     106.041  97.593  89.894  1.00  0.00     0.006 C 
BRANCH  13  14
ATOM     14  C   UNL     1     106.269  98.215  91.280  1.00  0.00     0.053 C 
BRANCH  14  15
ATOM     15  C   UNL     1     107.458  99.127  91.293  1.00  0.00     0.041 C 
ATOM     16  O   UNL     1     107.692  99.875  90.308  1.00  0.00    -0.550 OA
ATOM     17  O   UNL     1     108.276  99.189  92.415  1.00  0.00    -0.550 OA
ENDBRANCH  14  15
ENDBRANCH  13  14
ENDBRANCH  12  13
ENDBRANCH  11  12
ENDBRANCH  10  11
ENDBRANCH   9  10
ENDBRANCH   8   9
ENDBRANCH   7   8
ENDBRANCH   6   7
ENDBRANCH   5   6
ENDBRANCH   4   5
ENDBRANCH   3   4
ENDBRANCH   2   3
ENDBRANCH   1   2
BRANCH   1  18
ATOM     18  C   UNL     1     102.541  97.971  90.742  1.00  0.00     0.000 C 
BRANCH  18  19
ATOM     19  C   UNL     1     102.270  97.627  89.263  1.00  0.00     0.000 C 
BRANCH  19  20
ATOM     20  C   UNL     1     102.414  98.805  88.281  1.00  0.00     0.000 C 
BRANCH  20  21
ATOM     21  C   UNL     1     101.239  99.802  88.268  1.00  0.00     0.000 C 
BRANCH  21  22
ATOM     22  C   UNL     1      99.851  99.144  88.414  1.00  0.00     0.000 C 
BRANCH  22  23
ATOM     23  C   UNL     1      98.878  99.992  89.257  1.00  0.00     0.000 C 
BRANCH  23  24
ATOM     24  C   UNL     1      98.139  99.158  90.316  1.00  0.00    -0.000 C 
BRANCH  24  25
ATOM     25  C   UNL     1      98.178  99.812  91.709  1.00  0.00    -0.000 C 
BRANCH  25  26
ATOM     26  C   UNL     1      97.957 101.337  91.648  1.00  0.00    -0.000 C 
BRANCH  26  27
ATOM     27  C   UNL     1      96.485 101.755  91.792  1.00  0.00    -0.000 C 
BRANCH  27  28
ATOM     28  C   UNL     1      95.786 101.969  90.437  1.00  0.00    -0.000 C 
BRANCH  28  29
ATOM     29  C   UNL     1      94.683 100.924  90.177  1.00  0.00    -0.000 C 
BRANCH  29  30
ATOM     30  C   UNL     1      94.443  99.956  91.352  1.00  0.00    -0.000 C 
BRANCH  30  31
ATOM     31  C   UNL     1      93.203 100.290  92.204  1.00  0.00    -0.003 C 
ATOM     32  C   UNL     1      93.033  99.347  93.394  1.00  0.00     0.004 C 
ENDBRANCH  30  31
ENDBRANCH  29  30
ENDBRANCH  28  29
ENDBRANCH  27  28
ENDBRANCH  26  27
ENDBRANCH  25  26
ENDBRANCH  24  25
ENDBRANCH  23  24
ENDBRANCH  22  23
ENDBRANCH  21  22
ENDBRANCH  20  21
ENDBRANCH  19  20
ENDBRANCH  18  19
ENDBRANCH   1  18
TORSDOF 28
ENDMDL
MODEL 7
REMARK VINA RESULT:    -4.335      4.009     10.773
REMARK INTER + INTRA:         -16.167
REMARK INTER:                 -12.939
REMARK INTRA:                  -3.227
REMARK UNBOUND:                -4.735
REMARK SMILES CCCCCCCCCCCCCCCCCCCCCCCCCCCCCC(=O)[O-]
REMARK SMILES IDX 16 1 17 2 18 3 19 4 20 5 21 6 22 7 23 8 24 9 25 10 26 11
REMARK SMILES IDX 27 12 28 13 29 14 30 15 31 16 32 17 15 18 14 19 13 20 12 21
REMARK SMILES IDX 11 22 10 23 9 24 8 25 7 26 6 27 5 28 4 29 3 30 2 31 1 32
REMARK H PARENT
REMARK Flexibility Score: inf
ROOT
ATOM      1  C   UNL     1      99.371  98.485  92.140  1.00  0.00     0.000 C 
ENDROOT
BRANCH   1   2
ATOM      2  C   UNL     1      98.411  99.194  91.163  1.00  0.00     0.000 C 
BRANCH   2   3
ATOM      3  C   UNL     1      97.339 100.099  91.806  1.00  0.00     0.000 C 
BRANCH   3   4
ATOM      4  C   UNL     1      97.557 101.617  91.614  1.00  0.00     0.000 C 
BRANCH   4   5
ATOM      5  C   UNL     1      98.269 101.993  90.300  1.00  0.00     0.000 C 
BRANCH   5   6
ATOM      6  C   UNL     1      97.926 103.384  89.742  1.00  0.00     0.000 C 
BRANCH   6   7
ATOM      7  C   UNL     1      96.574 103.483  89.006  1.00  0.00     0.000 C 
BRANCH   7   8
ATOM      8  C   UNL     1      95.743 104.732  89.376  1.00  0.00     0.000 C 
BRANCH   8   9
ATOM      9  C   UNL     1      94.328 104.382  89.870  1.00  0.00     0.000 C 
BRANCH   9  10
ATOM     10  C   UNL     1      93.971 102.894  89.706  1.00  0.00     0.000 C 
BRANCH  10  11
ATOM     11  C   UNL     1      93.117 102.303  90.851  1.00  0.00     0.000 C 
BRANCH  11  12
ATOM     12  C   UNL     1      93.830 101.305  91.789  1.00  0.00     0.000 C 
BRANCH  12  13
ATOM     13  C   UNL     1      93.314  99.852  91.746  1.00  0.00     0.006 C 
BRANCH  13  14
ATOM     14  C   UNL     1      92.055  99.600  92.590  1.00  0.00     0.053 C 
BRANCH  14  15
ATOM     15  C   UNL     1      90.902  99.144  91.750  1.00  0.00     0.041 C 
ATOM     16  O   UNL     1      89.961  98.489  92.270  1.00  0.00    -0.550 OA
ATOM     17  O   UNL     1      90.841  99.488  90.404  1.00  0.00    -0.550 OA
ENDBRANCH  14  15
ENDBRANCH  13  14
ENDBRANCH  12  13
ENDBRANCH  11  12
ENDBRANCH  10  11
ENDBRANCH   9  10
ENDBRANCH   8   9
ENDBRANCH   7   8
ENDBRANCH   6   7
ENDBRANCH   5   6
ENDBRANCH   4   5
ENDBRANCH   3   4
ENDBRANCH   2   3
ENDBRANCH   1   2
BRANCH   1  18
ATOM     18  C   UNL     1     100.664  97.936  91.508  1.00  0.00     0.000 C 
BRANCH  18  19
ATOM     19  C   UNL     1     100.792  96.398  91.522  1.00  0.00     0.000 C 
BRANCH  19  20
ATOM     20  C   UNL     1      99.526  95.633  91.092  1.00  0.00     0.000 C 
BRANCH  20  21
ATOM     21  C   UNL     1      99.440  95.290  89.592  1.00  0.00     0.000 C 
BRANCH  21  22
ATOM     22  C   UNL     1      99.592  93.786  89.278  1.00  0.00     0.000 C 
BRANCH  22  23
ATOM     23  C   UNL     1     100.910  93.461  88.548  1.00  0.00     0.000 C 
BRANCH  23  24
ATOM     24  C   UNL     1     101.892  92.674  89.431  1.00  0.00    -0.000 C 
BRANCH  24  25
ATOM     25  C   UNL     1     103.118  93.514  89.835  1.00  0.00    -0.000 C 
BRANCH  25  26
ATOM     26  C   UNL     1     103.152  94.882  89.124  1.00  0.00    -0.000 C 
BRANCH  26  27
ATOM     27  C   UNL     1     104.486  95.628  89.283  1.00  0.00    -0.000 C 
BRANCH  27  28
ATOM     28  C   UNL     1     105.421  94.974  90.314  1.00  0.00    -0.000 C 
BRANCH  28  29
ATOM     29  C   UNL     1     105.678  95.884  91.532  1.00  0.00    -0.000 C 
BRANCH  29  30
ATOM     30  C   UNL     1     104.396  96.433  92.188  1.00  0.00    -0.000 C 
BRANCH  30  31
ATOM     31  C   UNL     1     104.321  97.970  92.241  1.00  0.00    -0.003 C 
ATOM     32  C   UNL     1     105.459  98.589  93.053  1.00  0.00     0.004 C 
ENDBRANCH  30  31
ENDBRANCH  29  30
ENDBRANCH  28  29
ENDBRANCH  27  28
ENDBRANCH  26  27
ENDBRANCH  25  26
ENDBRANCH  24  25
ENDBRANCH  23  24
ENDBRANCH  22  23
ENDBRANCH  21  22
ENDBRANCH  20  21
ENDBRANCH  19  20
ENDBRANCH  18  19
ENDBRANCH   1  18
TORSDOF 28
ENDMDL
MODEL 8
REMARK VINA RESULT:    -4.323      1.961      5.046
REMARK INTER + INTRA:         -16.135
REMARK INTER:                 -12.130
REMARK INTRA:                  -4.005
REMARK UNBOUND:                -4.735
REMARK SMILES CCCCCCCCCCCCCCCCCCCCCCCCCCCCCC(=O)[O-]
REMARK SMILES IDX 16 1 17 2 18 3 19 4 20 5 21 6 22 7 23 8 24 9 25 10 26 11
REMARK SMILES IDX 27 12 28 13 29 14 30 15 31 16 32 17 15 18 14 19 13 20 12 21
REMARK SMILES IDX 11 22 10 23 9 24 8 25 7 26 6 27 5 28 4 29 3 30 2 31 1 32
REMARK H PARENT
REMARK Flexibility Score: inf
ROOT
ATOM      1  C   UNL     1      95.115 100.352  91.970  1.00  0.00     0.000 C 
ENDROOT
BRANCH   1   2
ATOM      2  C   UNL     1      95.977  99.991  90.744  1.00  0.00     0.000 C 
BRANCH   2   3
ATOM      3  C   UNL     1      97.308 100.760  90.604  1.00  0.00     0.000 C 
BRANCH   3   4
ATOM      4  C   UNL     1      98.340 100.501  91.725  1.00  0.00     0.000 C 
BRANCH   4   5
ATOM      5  C   UNL     1      98.481  99.019  92.125  1.00  0.00     0.000 C 
BRANCH   5   6
ATOM      6  C   UNL     1      99.284  98.147  91.145  1.00  0.00     0.000 C 
BRANCH   6   7
ATOM      7  C   UNL     1      99.745  96.785  91.701  1.00  0.00     0.000 C 
BRANCH   7   8
ATOM      8  C   UNL     1     101.265  96.535  91.581  1.00  0.00     0.000 C 
BRANCH   8   9
ATOM      9  C   UNL     1     101.713  96.272  90.132  1.00  0.00     0.000 C 
BRANCH   9  10
ATOM     10  C   UNL     1     102.022  94.791  89.844  1.00  0.00     0.000 C 
BRANCH  10  11
ATOM     11  C   UNL     1     103.176  94.195  90.681  1.00  0.00     0.000 C 
BRANCH  11  12
ATOM     12  C   UNL     1     104.587  94.286  90.059  1.00  0.00     0.000 C 
BRANCH  12  13
ATOM     13  C   UNL     1     105.425  95.516  90.465  1.00  0.00     0.006 C 
BRANCH  13  14
ATOM     14  C   UNL     1     105.096  96.077  91.858  1.00  0.00     0.053 C 
BRANCH  14  15
ATOM     15  C   UNL     1     105.380  97.546  91.948  1.00  0.00     0.041 C 
ATOM     16  O   UNL     1     104.671  98.368  91.311  1.00  0.00    -0.550 OA
ATOM     17  O   UNL     1     106.395  98.009  92.778  1.00  0.00    -0.550 OA
ENDBRANCH  14  15
ENDBRANCH  13  14
ENDBRANCH  12  13
ENDBRANCH  11  12
ENDBRANCH  10  11
ENDBRANCH   9  10
ENDBRANCH   8   9
ENDBRANCH   7   8
ENDBRANCH   6   7
ENDBRANCH   5   6
ENDBRANCH   4   5
ENDBRANCH   3   4
ENDBRANCH   2   3
ENDBRANCH   1   2
BRANCH   1  18
ATOM     18  C   UNL     1      93.670  99.817  91.938  1.00  0.00     0.000 C 
BRANCH  18  19
ATOM     19  C   UNL     1      92.592 100.831  92.375  1.00  0.00     0.000 C 
BRANCH  19  20
ATOM     20  C   UNL     1      91.149 100.458  91.988  1.00  0.00     0.000 C 
BRANCH  20  21
ATOM     21  C   UNL     1      90.714  99.027  92.360  1.00  0.00     0.000 C 
BRANCH  21  22
ATOM     22  C   UNL     1      89.270  98.676  91.945  1.00  0.00     0.000 C 
BRANCH  22  23
ATOM     23  C   UNL     1      89.065  98.710  90.418  1.00  0.00     0.000 C 
BRANCH  23  24
ATOM     24  C   UNL     1      89.888  97.633  89.692  1.00  0.00    -0.000 C 
BRANCH  24  25
ATOM     25  C   UNL     1      90.749  98.220  88.558  1.00  0.00    -0.000 C 
BRANCH  25  26
ATOM     26  C   UNL     1      92.213  98.444  88.989  1.00  0.00    -0.000 C 
BRANCH  26  27
ATOM     27  C   UNL     1      92.914  99.582  88.232  1.00  0.00    -0.000 C 
BRANCH  27  28
ATOM     28  C   UNL     1      92.365 100.972  88.595  1.00  0.00    -0.000 C 
BRANCH  28  29
ATOM     29  C   UNL     1      93.489 102.001  88.835  1.00  0.00    -0.000 C 
BRANCH  29  30
ATOM     30  C   UNL     1      93.093 103.158  89.774  1.00  0.00    -0.000 C 
BRANCH  30  31
ATOM     31  C   UNL     1      94.267 103.753  90.574  1.00  0.00    -0.003 C 
ATOM     32  C   UNL     1      95.513 103.974  89.716  1.00  0.00     0.004 C 
ENDBRANCH  30  31
ENDBRANCH  29  30
ENDBRANCH  28  29
ENDBRANCH  27  28
ENDBRANCH  26  27
ENDBRANCH  25  26
ENDBRANCH  24  25
ENDBRANCH  23  24
ENDBRANCH  22  23
ENDBRANCH  21  22
ENDBRANCH  20  21
ENDBRANCH  19  20
ENDBRANCH  18  19
ENDBRANCH   1  18
TORSDOF 28
ENDMDL
MODEL 9
REMARK VINA RESULT:    -4.318      4.054     10.820
REMARK INTER + INTRA:         -16.121
REMARK INTER:                 -12.313
REMARK INTRA:                  -3.808
REMARK UNBOUND:                -4.735
REMARK SMILES CCCCCCCCCCCCCCCCCCCCCCCCCCCCCC(=O)[O-]
REMARK SMILES IDX 16 1 17 2 18 3 19 4 20 5 21 6 22 7 23 8 24 9 25 10 26 11
REMARK SMILES IDX 27 12 28 13 29 14 30 15 31 16 32 17 15 18 14 19 13 20 12 21
REMARK SMILES IDX 11 22 10 23 9 24 8 25 7 26 6 27 5 28 4 29 3 30 2 31 1 32
REMARK H PARENT
REMARK Flexibility Score: inf
ROOT
ATOM      1  C   UNL     1     100.141  97.232  91.616  1.00  0.00     0.000 C 
ENDROOT
BRANCH   1   2
ATOM      2  C   UNL     1      99.543  98.650  91.520  1.00  0.00     0.000 C 
BRANCH   2   3
ATOM      3  C   UNL     1      98.292  98.916  92.385  1.00  0.00     0.000 C 
BRANCH   3   4
ATOM      4  C   UNL     1      97.414 100.103  91.927  1.00  0.00     0.000 C 
BRANCH   4   5
ATOM      5  C   UNL     1      98.142 101.462  91.918  1.00  0.00     0.000 C 
BRANCH   5   6
ATOM      6  C   UNL     1      98.197 102.168  90.553  1.00  0.00     0.000 C 
BRANCH   6   7
ATOM      7  C   UNL     1      97.400 101.482  89.425  1.00  0.00     0.000 C 
BRANCH   7   8
ATOM      8  C   UNL     1      96.717 102.463  88.447  1.00  0.00     0.000 C 
BRANCH   8   9
ATOM      9  C   UNL     1      96.244 103.758  89.133  1.00  0.00     0.000 C 
BRANCH   9  10
ATOM     10  C   UNL     1      94.744 103.758  89.479  1.00  0.00     0.000 C 
BRANCH  10  11
ATOM     11  C   UNL     1      94.427 103.801  90.990  1.00  0.00     0.000 C 
BRANCH  11  12
ATOM     12  C   UNL     1      94.588 102.471  91.759  1.00  0.00     0.000 C 
BRANCH  12  13
ATOM     13  C   UNL     1      93.949 101.230  91.102  1.00  0.00     0.006 C 
BRANCH  13  14
ATOM     14  C   UNL     1      93.702 100.058  92.064  1.00  0.00     0.053 C 
BRANCH  14  15
ATOM     15  C   UNL     1      92.280 100.013  92.534  1.00  0.00     0.041 C 
ATOM     16  O   UNL     1      91.911  99.126  93.348  1.00  0.00    -0.550 OA
ATOM     17  O   UNL     1      91.376 100.982  92.114  1.00  0.00    -0.550 OA
ENDBRANCH  14  15
ENDBRANCH  13  14
ENDBRANCH  12  13
ENDBRANCH  11  12
ENDBRANCH  10  11
ENDBRANCH   9  10
ENDBRANCH   8   9
ENDBRANCH   7   8
ENDBRANCH   6   7
ENDBRANCH   5   6
ENDBRANCH   4   5
ENDBRANCH   3   4
ENDBRANCH   2   3
ENDBRANCH   1   2
BRANCH   1  18
ATOM     18  C   UNL     1     101.555  97.074  91.025  1.00  0.00     0.000 C 
BRANCH  18  19
ATOM     19  C   UNL     1     102.198  95.688  91.241  1.00  0.00     0.000 C 
BRANCH  19  20
ATOM     20  C   UNL     1     102.212  94.773  90.002  1.00  0.00     0.000 C 
BRANCH  20  21
ATOM     21  C   UNL     1     103.610  94.373  89.492  1.00  0.00     0.000 C 
BRANCH  21  22
ATOM     22  C   UNL     1     104.744  94.596  90.514  1.00  0.00     0.000 C 
BRANCH  22  23
ATOM     23  C   UNL     1     105.751  95.671  90.060  1.00  0.00     0.000 C 
BRANCH  23  24
ATOM     24  C   UNL     1     105.273  96.434  88.814  1.00  0.00    -0.000 C 
BRANCH  24  25
ATOM     25  C   UNL     1     104.822  97.869  89.144  1.00  0.00    -0.000 C 
BRANCH  25  26
ATOM     26  C   UNL     1     105.734  98.933  88.501  1.00  0.00    -0.000 C 
BRANCH  26  27
ATOM     27  C   UNL     1     106.154 100.053  89.466  1.00  0.00    -0.000 C 
BRANCH  27  28
ATOM     28  C   UNL     1     107.677 100.126  89.674  1.00  0.00    -0.000 C 
BRANCH  28  29
ATOM     29  C   UNL     1     108.087  99.796  91.123  1.00  0.00    -0.000 C 
BRANCH  29  30
ATOM     30  C   UNL     1     107.686  98.381  91.584  1.00  0.00    -0.000 C 
BRANCH  30  31
ATOM     31  C   UNL     1     106.922  98.344  92.921  1.00  0.00    -0.003 C 
ATOM     32  C   UNL     1     105.409  98.463  92.739  1.00  0.00     0.004 C 
ENDBRANCH  30  31
ENDBRANCH  29  30
ENDBRANCH  28  29
ENDBRANCH  27  28
ENDBRANCH  26  27
ENDBRANCH  25  26
ENDBRANCH  24  25
ENDBRANCH  23  24
ENDBRANCH  22  23
ENDBRANCH  21  22
ENDBRANCH  20  21
ENDBRANCH  19  20
ENDBRANCH  18  19
ENDBRANCH   1  18
TORSDOF 28
ENDMDL
