MODEL 1
REMARK VINA RESULT:    -3.505      0.000      0.000
REMARK INTER + INTRA:          -3.928
REMARK INTER:                  -3.915
REMARK INTRA:                  -0.013
REMARK UNBOUND:                -0.013
REMARK SMILES CCCC(=O)[O-]
REMARK SMILES IDX 3 1 4 2 5 3 6 4 2 5 1 6
REMARK H PARENT
REMARK Flexibility Score: inf
ROOT
ATOM      1  C   UNL     1      75.458  62.254  97.919  1.00  0.00     0.052 C 
ENDROOT
BRANCH   1   2
ATOM      2  C   UNL     1      74.840  63.536  97.456  1.00  0.00     0.041 C 
ATOM      3  O   UNL     1      74.329  64.329  98.289  1.00  0.00    -0.550 OA
ATOM      4  O   UNL     1      74.787  63.832  96.100  1.00  0.00    -0.550 OA
ENDBRANCH   1   2
BRANCH   1   5
ATOM      5  C   UNL     1      75.496  61.235  96.777  1.00  0.00     0.003 C 
ATOM      6  C   UNL     1      76.528  60.144  97.048  1.00  0.00     0.004 C 
ENDBRANCH   1   5
TORSDOF 2
ENDMDL
MODEL 2
REMARK VINA RESULT:    -2.918     14.466     15.542
REMARK INTER + INTRA:          -3.272
REMARK INTER:                  -3.247
REMARK INTRA:                  -0.025
REMARK UNBOUND:                -0.013
REMARK SMILES CCCC(=O)[O-]
REMARK SMILES IDX 3 1 4 2 5 3 6 4 2 5 1 6
REMARK H PARENT
REMARK Flexibility Score: inf
ROOT
ATOM      1  C   UNL     1      68.152  75.445  90.879  1.00  0.00     0.052 C 
ENDROOT
BRANCH   1   2
ATOM      2  C   UNL     1      68.816  74.173  91.302  1.00  0.00     0.041 C 
ATOM      3  O   UNL     1      69.943  74.204  91.863  1.00  0.00    -0.550 OA
ATOM      4  O   UNL     1      68.214  72.951  91.033  1.00  0.00    -0.550 OA
ENDBRANCH   1   2
BRANCH   1   5
ATOM      5  C   UNL     1      68.654  76.619  91.725  1.00  0.00     0.003 C 
ATOM      6  C   UNL     1      67.875  76.728  93.031  1.00  0.00     0.004 C 
ENDBRANCH   1   5
TORSDOF 2
ENDMDL
MODEL 3
REMARK VINA RESULT:    -2.881     14.434     15.462
REMARK INTER + INTRA:          -3.231
REMARK INTER:                  -3.222
REMARK INTRA:                  -0.008
REMARK UNBOUND:                -0.013
REMARK SMILES CCCC(=O)[O-]
REMARK SMILES IDX 3 1 4 2 5 3 6 4 2 5 1 6
REMARK H PARENT
REMARK Flexibility Score: inf
ROOT
ATOM      1  C   UNL     1      68.945  74.836  91.992  1.00  0.00     0.052 C 
ENDROOT
BRANCH   1   2
ATOM      2  C   UNL     1      68.241  76.157  91.995  1.00  0.00     0.041 C 
ATOM      3  O   UNL     1      68.009  76.752  90.910  1.00  0.00    -0.550 OA
ATOM      4  O   UNL     1      67.884  76.752  93.198  1.00  0.00    -0.550 OA
ENDBRANCH   1   2
BRANCH   1   5
ATOM      5  C   UNL     1      68.399  73.942  90.875  1.00  0.00     0.003 C 
ATOM      6  C   UNL     1      69.005  72.543  90.945  1.00  0.00     0.004 C 
ENDBRANCH   1   5
TORSDOF 2
ENDMDL
MODEL 4
REMARK VINA RESULT:    -2.851      2.446      3.424
REMARK INTER + INTRA:          -3.197
REMARK INTER:                  -3.182
REMARK INTRA:                  -0.015
REMARK UNBOUND:                -0.013
REMARK SMILES CCCC(=O)[O-]
REMARK SMILES IDX 3 1 4 2 5 3 6 4 2 5 1 6
REMARK H PARENT
REMARK Flexibility Score: inf
ROOT
ATOM      1  C   UNL     1      75.406  62.395  96.878  1.00  0.00     0.052 C 
ENDROOT
BRANCH   1   2
ATOM      2  C   UNL     1      75.611  60.922  97.047  1.00  0.00     0.041 C 
ATOM      3  O   UNL     1      75.045  60.309  97.990  1.00  0.00    -0.550 OA
ATOM      4  O   UNL     1      76.464  60.236  96.192  1.00  0.00    -0.550 OA
ENDBRANCH   1   2
BRANCH   1   5
ATOM      5  C   UNL     1      75.100  63.051  98.228  1.00  0.00     0.003 C 
ATOM      6  C   UNL     1      74.405  64.396  98.041  1.00  0.00     0.004 C 
ENDBRANCH   1   5
TORSDOF 2
ENDMDL
MODEL 5
REMARK VINA RESULT:    -2.801     17.493     18.020
REMARK INTER + INTRA:          -3.141
REMARK INTER:                  -3.135
REMARK INTRA:                  -0.007
REMARK UNBOUND:                -0.013
REMARK SMILES CCCC(=O)[O-]
REMARK SMILES IDX 3 1 4 2 5 3 6 4 2 5 1 6
REMARK H PARENT
REMARK Flexibility Score: inf
ROOT
ATOM      1  C   UNL     1      86.626  65.535 110.004  1.00  0.00     0.052 C 
ENDROOT
BRANCH   1   2
ATOM      2  C   UNL     1      86.256  66.773 110.759  1.00  0.00     0.041 C 
ATOM      3  O   UNL     1      87.146  67.594 111.104  1.00  0.00    -0.550 OA
ATOM      4  O   UNL     1      84.934  66.995 111.125  1.00  0.00    -0.550 OA
ENDBRANCH   1   2
BRANCH   1   5
ATOM      5  C   UNL     1      87.765  64.797 110.713  1.00  0.00     0.003 C 
ATOM      6  C   UNL     1      87.749  63.309 110.377  1.00  0.00     0.004 C 
ENDBRANCH   1   5
TORSDOF 2
ENDMDL
MODEL 6
REMARK VINA RESULT:    -2.088      1.988      3.156
REMARK INTER + INTRA:          -2.345
REMARK INTER:                  -2.617
REMARK INTRA:                   0.272
REMARK UNBOUND:                -0.013
REMARK SMILES CCCC(=O)[O-]
REMARK SMILES IDX 3 1 4 2 5 3 6 4 2 5 1 6
REMARK H PARENT
REMARK Flexibility Score: inf
ROOT
ATOM      1  C   UNL     1      75.304  63.193  96.432  1.00  0.00     0.052 C 
ENDROOT
BRANCH   1   2
ATOM      2  C   UNL     1      75.438  61.818  97.006  1.00  0.00     0.041 C 
ATOM      3  O   UNL     1      75.059  61.585  98.185  1.00  0.00    -0.550 OA
ATOM      4  O   UNL     1      76.025  60.806  96.258  1.00  0.00    -0.550 OA
ENDBRANCH   1   2
BRANCH   1   5
ATOM      5  C   UNL     1      74.161  63.949  97.115  1.00  0.00     0.003 C 
ATOM      6  C   UNL     1      74.617  64.561  98.436  1.00  0.00     0.004 C 
ENDBRANCH   1   5
TORSDOF 2
ENDMDL
MODEL 7
REMARK VINA RESULT:    -1.651      1.523      1.880
REMARK INTER + INTRA:          -1.857
REMARK INTER:                  -2.146
REMARK INTRA:                   0.289
REMARK UNBOUND:                -0.013
REMARK SMILES CCCC(=O)[O-]
REMARK SMILES IDX 3 1 4 2 5 3 6 4 2 5 1 6
REMARK H PARENT
REMARK Flexibility Score: inf
ROOT
ATOM      1  C   UNL     1      74.620  63.584  96.758  1.00  0.00     0.052 C 
ENDROOT
BRANCH   1   2
ATOM      2  C   UNL     1      74.790  63.958  98.197  1.00  0.00     0.041 C 
ATOM      3  O   UNL     1      75.887  63.750  98.779  1.00  0.00    -0.550 OA
ATOM      4  O   UNL     1      73.723  64.493  98.907  1.00  0.00    -0.550 OA
ENDBRANCH   1   2
BRANCH   1   5
ATOM      5  C   UNL     1      75.604  62.476  96.373  1.00  0.00     0.003 C 
ATOM      6  C   UNL     1      75.404  61.236  97.240  1.00  0.00     0.004 C 
ENDBRANCH   1   5
TORSDOF 2
ENDMDL
MODEL 8
REMARK VINA RESULT:    -1.237      2.426      2.710
REMARK INTER + INTRA:          -1.395
REMARK INTER:                  -1.606
REMARK INTRA:                   0.211
REMARK UNBOUND:                -0.013
REMARK SMILES CCCC(=O)[O-]
REMARK SMILES IDX 3 1 4 2 5 3 6 4 2 5 1 6
REMARK H PARENT
REMARK Flexibility Score: inf
ROOT
ATOM      1  C   UNL     1      74.430  64.377  97.762  1.00  0.00     0.052 C 
ENDROOT
BRANCH   1   2
ATOM      2  C   UNL     1      75.053  63.262  98.541  1.00  0.00     0.041 C 
ATOM      3  O   UNL     1      75.557  63.484  99.673  1.00  0.00    -0.550 OA
ATOM      4  O   UNL     1      75.120  61.986  97.995  1.00  0.00    -0.550 OA
ENDBRANCH   1   2
BRANCH   1   5
ATOM      5  C   UNL     1      74.226  63.963  96.303  1.00  0.00     0.003 C 
ATOM      6  C   UNL     1      75.560  63.827  95.576  1.00  0.00     0.004 C 
ENDBRANCH   1   5
TORSDOF 2
ENDMDL
