MODEL 1
REMARK VINA RESULT:    -2.890      0.000      0.000
REMARK INTER + INTRA:          -2.890
REMARK INTER:                  -2.890
REMARK INTRA:                   0.000
REMARK UNBOUND:                 0.000
REMARK SMILES Cc1cc2cc3c(C)cc(=O)oc3c(C)c2o1
REMARK SMILES IDX 8 1 7 2 9 3 10 4 11 5 12 6 13 7 6 8 5 9 4 10 3 11 2 12 17 13
REMARK SMILES IDX 16 14 14 15 15 16 1 17
REMARK H PARENT
REMARK Flexibility Score: inf
ROOT
ATOM      1  C   UNL     1      12.243  28.186  37.424  1.00  0.00     0.045 C 
ATOM      2  C   UNL     1      13.732  28.119  37.200  1.00  0.00    -0.033 A 
ATOM      3  C   UNL     1      14.227  28.099  35.890  1.00  0.00     0.098 A 
ATOM      4  C   UNL     1      15.605  28.034  35.674  1.00  0.00     0.336 A 
ATOM      5  O   UNL     1      16.054  28.015  34.498  1.00  0.00    -0.246 OA
ATOM      6  O   UNL     1      16.447  27.995  36.698  1.00  0.00    -0.422 OA
ATOM      7  C   UNL     1      16.046  28.012  37.966  1.00  0.00     0.145 A 
ATOM      8  C   UNL     1      14.649  28.073  38.274  1.00  0.00     0.022 A 
ATOM      9  C   UNL     1      14.231  28.082  39.627  1.00  0.00     0.024 A 
ATOM     10  C   UNL     1      15.207  28.026  40.614  1.00  0.00     0.022 A 
ATOM     11  C   UNL     1      15.091  28.006  41.985  1.00  0.00     0.054 A 
ATOM     12  C   UNL     1      16.404  27.937  42.437  1.00  0.00     0.102 A 
ATOM     13  O   UNL     1      17.250  27.912  41.423  1.00  0.00    -0.461 OA
ATOM     14  C   UNL     1      16.542  27.967  40.320  1.00  0.00     0.140 A 
ATOM     15  C   UNL     1      17.009  27.969  39.003  1.00  0.00     0.036 A 
ATOM     16  C   UNL     1      18.477  27.875  38.699  1.00  0.00     0.052 C 
ATOM     17  C   UNL     1      16.819  27.876  43.868  1.00  0.00     0.087 C 
ENDROOT
TORSDOF 0
ENDMDL
MODEL 2
REMARK VINA RESULT:    -1.565      1.294      2.891
REMARK INTER + INTRA:          -1.565
REMARK INTER:                  -1.565
REMARK INTRA:                   0.000
REMARK UNBOUND:                 0.000
REMARK SMILES Cc1cc2cc3c(C)cc(=O)oc3c(C)c2o1
REMARK SMILES IDX 8 1 7 2 9 3 10 4 11 5 12 6 13 7 6 8 5 9 4 10 3 11 2 12 17 13
REMARK SMILES IDX 16 14 14 15 15 16 1 17
REMARK H PARENT
REMARK Flexibility Score: inf
ROOT
ATOM      1  C   UNL     1      19.125  27.876  37.259  1.00  0.00     0.045 C 
ATOM      2  C   UNL     1      17.619  27.906  37.221  1.00  0.00    -0.033 A 
ATOM      3  C   UNL     1      16.966  27.942  35.983  1.00  0.00     0.098 A 
ATOM      4  C   UNL     1      15.571  27.973  35.939  1.00  0.00     0.336 A 
ATOM      5  O   UNL     1      14.979  28.006  34.828  1.00  0.00    -0.246 OA
ATOM      6  O   UNL     1      14.860  27.966  37.059  1.00  0.00    -0.422 OA
ATOM      7  C   UNL     1      15.415  27.932  38.268  1.00  0.00     0.145 A 
ATOM      8  C   UNL     1      16.840  27.903  38.401  1.00  0.00     0.022 A 
ATOM      9  C   UNL     1      17.422  27.876  39.691  1.00  0.00     0.024 A 
ATOM     10  C   UNL     1      16.573  27.883  40.792  1.00  0.00     0.022 A 
ATOM     11  C   UNL     1      16.857  27.875  42.138  1.00  0.00     0.054 A 
ATOM     12  C   UNL     1      15.609  27.898  42.750  1.00  0.00     0.102 A 
ATOM     13  O   UNL     1      14.644  27.922  41.848  1.00  0.00    -0.461 OA
ATOM     14  C   UNL     1      15.211  27.911  40.665  1.00  0.00     0.140 A 
ATOM     15  C   UNL     1      14.586  27.925  39.415  1.00  0.00     0.036 A 
ATOM     16  C   UNL     1      13.090  27.985  39.296  1.00  0.00     0.052 C 
ATOM     17  C   UNL     1      15.371  27.916  44.222  1.00  0.00     0.087 C 
ENDROOT
TORSDOF 0
ENDMDL
MODEL 3
REMARK VINA RESULT:     0.015      1.549      5.014
REMARK INTER + INTRA:           0.015
REMARK INTER:                   0.015
REMARK INTRA:                   0.000
REMARK UNBOUND:                 0.000
REMARK SMILES Cc1cc2cc3c(C)cc(=O)oc3c(C)c2o1
REMARK SMILES IDX 8 1 7 2 9 3 10 4 11 5 12 6 13 7 6 8 5 9 4 10 3 11 2 12 17 13
REMARK SMILES IDX 16 14 14 15 15 16 1 17
REMARK H PARENT
REMARK Flexibility Score: inf
ROOT
ATOM      1  C   UNL     1      15.520  27.916  41.537  1.00  0.00     0.045 C 
ATOM      2  C   UNL     1      16.026  27.906  40.117  1.00  0.00    -0.033 A 
ATOM      3  C   UNL     1      17.406  27.907  39.882  1.00  0.00     0.098 A 
ATOM      4  C   UNL     1      17.882  27.901  38.570  1.00  0.00     0.336 A 
ATOM      5  O   UNL     1      19.122  27.903  38.353  1.00  0.00    -0.246 OA
ATOM      6  O   UNL     1      17.039  27.891  37.546  1.00  0.00    -0.422 OA
ATOM      7  C   UNL     1      15.717  27.888  37.697  1.00  0.00     0.145 A 
ATOM      8  C   UNL     1      15.147  27.898  39.011  1.00  0.00     0.022 A 
ATOM      9  C   UNL     1      13.739  27.904  39.162  1.00  0.00     0.024 A 
ATOM     10  C   UNL     1      12.958  27.904  38.013  1.00  0.00     0.022 A 
ATOM     11  C   UNL     1      11.590  27.922  37.863  1.00  0.00     0.054 A 
ATOM     12  C   UNL     1      11.398  27.920  36.487  1.00  0.00     0.102 A 
ATOM     13  O   UNL     1      12.555  27.907  35.850  1.00  0.00    -0.461 OA
ATOM     14  C   UNL     1      13.502  27.894  36.758  1.00  0.00     0.140 A 
ATOM     15  C   UNL     1      14.884  27.875  36.553  1.00  0.00     0.036 A 
ATOM     16  C   UNL     1      15.464  27.893  35.167  1.00  0.00     0.052 C 
ATOM     17  C   UNL     1      10.073  27.952  35.802  1.00  0.00     0.087 C 
ENDROOT
TORSDOF 0
ENDMDL
