MODEL 1
REMARK VINA RESULT:    -5.528      0.000      0.000
REMARK INTER + INTRA:          -6.013
REMARK INTER:                  -6.013
REMARK INTRA:                   0.000
REMARK UNBOUND:                 0.000
REMARK SMILES Cc1cc(O)c2c(c1)C(=O)c1cc(O)cc(O)c1C2=O
REMARK SMILES IDX 1 1 2 2 8 3 7 4 6 5 4 6 3 7 19 8 20 9 18 10 11 11 9 12 10 13
REMARK SMILES IDX 12 14 13 15 15 16 16 17 5 18 17 20 14 22
REMARK H PARENT 5 19 17 21 14 23
REMARK Flexibility Score: inf
ROOT
ATOM      1  C   UNL     1       2.353  34.135  -0.125  1.00  0.00     0.044 C 
ATOM      2  C   UNL     1       3.448  34.697   0.734  1.00  0.00    -0.047 A 
ATOM      3  C   UNL     1       3.533  34.346   2.087  1.00  0.00     0.016 A 
ATOM      4  C   UNL     1       4.532  34.897   2.909  1.00  0.00     0.038 A 
ATOM      5  C   UNL     1       5.456  35.816   2.369  1.00  0.00     0.076 A 
ATOM      6  C   UNL     1       5.350  36.188   1.009  1.00  0.00     0.127 A 
ATOM      7  C   UNL     1       4.347  35.631   0.207  1.00  0.00     0.050 A 
ATOM      8  C   UNL     1       6.532  36.357   3.241  1.00  0.00     0.201 C 
ATOM      9  O   UNL     1       7.555  36.872   2.716  1.00  0.00    -0.288 OA
ATOM     10  C   UNL     1       6.454  36.187   4.719  1.00  0.00     0.076 A 
ATOM     11  C   UNL     1       5.563  35.217   5.239  1.00  0.00     0.041 A 
ATOM     12  C   UNL     1       4.619  34.516   4.337  1.00  0.00     0.194 C 
ATOM     13  O   UNL     1       3.875  33.603   4.790  1.00  0.00    -0.289 OA
ATOM     14  C   UNL     1       5.568  34.928   6.614  1.00  0.00     0.059 A 
ATOM     15  C   UNL     1       6.432  35.597   7.478  1.00  0.00     0.120 A 
ATOM     16  C   UNL     1       7.280  36.588   6.980  1.00  0.00     0.093 A 
ATOM     17  C   UNL     1       7.278  36.916   5.621  1.00  0.00     0.131 A 
ENDROOT
BRANCH   6  18
ATOM     18  O   UNL     1       6.230  37.119   0.456  1.00  0.00    -0.507 OA
ATOM     19  H   UNL     1       7.091  36.834   0.003  1.00  0.00     0.293 HD
ENDBRANCH   6  18
BRANCH  17  20
ATOM     20  O   UNL     1       8.076  37.991   5.223  1.00  0.00    -0.507 OA
ATOM     21  H   UNL     1       8.501  38.066   4.309  1.00  0.00     0.293 HD
ENDBRANCH  17  20
BRANCH  15  22
ATOM     22  O   UNL     1       6.430  35.280   8.834  1.00  0.00    -0.508 OA
ATOM     23  H   UNL     1       6.930  35.844   9.512  1.00  0.00     0.293 HD
ENDBRANCH  15  22
TORSDOF 3
ENDMDL
MODEL 2
REMARK VINA RESULT:    -5.303      2.431      4.932
REMARK INTER + INTRA:          -5.768
REMARK INTER:                  -5.768
REMARK INTRA:                   0.000
REMARK UNBOUND:                 0.000
REMARK SMILES Cc1cc(O)c2c(c1)C(=O)c1cc(O)cc(O)c1C2=O
REMARK SMILES IDX 1 1 2 2 8 3 7 4 6 5 4 6 3 7 19 8 20 9 18 10 11 11 9 12 10 13
REMARK SMILES IDX 12 14 13 15 15 16 16 17 5 18 17 20 14 22
REMARK H PARENT 5 19 17 21 14 23
REMARK Flexibility Score: inf
ROOT
ATOM      1  C   UNL     1       8.550  39.411   3.545  1.00  0.00     0.044 C 
ATOM      2  C   UNL     1       7.243  38.697   3.359  1.00  0.00    -0.047 A 
ATOM      3  C   UNL     1       7.012  37.473   3.996  1.00  0.00     0.016 A 
ATOM      4  C   UNL     1       5.805  36.778   3.798  1.00  0.00     0.038 A 
ATOM      5  C   UNL     1       4.819  37.315   2.945  1.00  0.00     0.076 A 
ATOM      6  C   UNL     1       5.068  38.538   2.282  1.00  0.00     0.127 A 
ATOM      7  C   UNL     1       6.275  39.215   2.490  1.00  0.00     0.050 A 
ATOM      8  C   UNL     1       3.532  36.588   2.778  1.00  0.00     0.201 C 
ATOM      9  O   UNL     1       2.527  37.203   2.334  1.00  0.00    -0.288 OA
ATOM     10  C   UNL     1       3.403  35.178   3.242  1.00  0.00     0.076 A 
ATOM     11  C   UNL     1       4.371  34.677   4.146  1.00  0.00     0.041 A 
ATOM     12  C   UNL     1       5.566  35.486   4.482  1.00  0.00     0.194 C 
ATOM     13  O   UNL     1       6.391  35.067   5.339  1.00  0.00    -0.289 OA
ATOM     14  C   UNL     1       4.202  33.404   4.717  1.00  0.00     0.059 A 
ATOM     15  C   UNL     1       3.096  32.620   4.391  1.00  0.00     0.120 A 
ATOM     16  C   UNL     1       2.163  33.089   3.465  1.00  0.00     0.093 A 
ATOM     17  C   UNL     1       2.319  34.340   2.861  1.00  0.00     0.131 A 
ENDROOT
BRANCH   6  18
ATOM     18  O   UNL     1       4.123  39.078   1.407  1.00  0.00    -0.507 OA
ATOM     19  H   UNL     1       4.158  40.049   1.118  1.00  0.00     0.293 HD
ENDBRANCH   6  18
BRANCH  17  20
ATOM     20  O   UNL     1       1.402  34.688   1.868  1.00  0.00    -0.507 OA
ATOM     21  H   UNL     1       0.421  34.860   2.045  1.00  0.00     0.293 HD
ENDBRANCH  17  20
BRANCH  15  22
ATOM     22  O   UNL     1       2.942  31.369   4.984  1.00  0.00    -0.508 OA
ATOM     23  H   UNL     1       2.809  31.269   5.984  1.00  0.00     0.293 HD
ENDBRANCH  15  22
TORSDOF 3
ENDMDL
MODEL 3
REMARK VINA RESULT:    -5.292      1.885      3.787
REMARK INTER + INTRA:          -5.756
REMARK INTER:                  -5.756
REMARK INTRA:                   0.000
REMARK UNBOUND:                 0.000
REMARK SMILES Cc1cc(O)c2c(c1)C(=O)c1cc(O)cc(O)c1C2=O
REMARK SMILES IDX 1 1 2 2 8 3 7 4 6 5 4 6 3 7 19 8 20 9 18 10 11 11 9 12 10 13
REMARK SMILES IDX 12 14 13 15 15 16 16 17 5 18 17 20 14 22
REMARK H PARENT 5 19 17 21 14 23
REMARK Flexibility Score: inf
ROOT
ATOM      1  C   UNL     1       1.042  33.871   1.115  1.00  0.00     0.044 C 
ATOM      2  C   UNL     1       2.136  34.282   2.058  1.00  0.00    -0.047 A 
ATOM      3  C   UNL     1       2.843  35.470   1.841  1.00  0.00     0.016 A 
ATOM      4  C   UNL     1       3.894  35.845   2.697  1.00  0.00     0.038 A 
ATOM      5  C   UNL     1       4.245  35.015   3.781  1.00  0.00     0.076 A 
ATOM      6  C   UNL     1       3.546  33.802   3.981  1.00  0.00     0.127 A 
ATOM      7  C   UNL     1       2.503  33.444   3.117  1.00  0.00     0.050 A 
ATOM      8  C   UNL     1       5.330  35.446   4.702  1.00  0.00     0.201 C 
ATOM      9  O   UNL     1       5.413  34.928   5.847  1.00  0.00    -0.288 OA
ATOM     10  C   UNL     1       6.240  36.561   4.316  1.00  0.00     0.076 A 
ATOM     11  C   UNL     1       5.841  37.420   3.263  1.00  0.00     0.041 A 
ATOM     12  C   UNL     1       4.632  37.107   2.465  1.00  0.00     0.194 C 
ATOM     13  O   UNL     1       4.241  37.910   1.574  1.00  0.00    -0.289 OA
ATOM     14  C   UNL     1       6.601  38.565   2.969  1.00  0.00     0.059 A 
ATOM     15  C   UNL     1       7.754  38.859   3.695  1.00  0.00     0.120 A 
ATOM     16  C   UNL     1       8.179  37.991   4.702  1.00  0.00     0.093 A 
ATOM     17  C   UNL     1       7.458  36.830   4.999  1.00  0.00     0.131 A 
ENDROOT
BRANCH   6  18
ATOM     18  O   UNL     1       3.891  32.945   5.027  1.00  0.00    -0.507 OA
ATOM     19  H   UNL     1       4.587  33.201   5.718  1.00  0.00     0.293 HD
ENDBRANCH   6  18
BRANCH  17  20
ATOM     20  O   UNL     1       8.007  35.963   5.945  1.00  0.00    -0.507 OA
ATOM     21  H   UNL     1       7.657  35.866   6.888  1.00  0.00     0.293 HD
ENDBRANCH  17  20
BRANCH  15  22
ATOM     22  O   UNL     1       8.480  40.009   3.396  1.00  0.00    -0.508 OA
ATOM     23  H   UNL     1       8.059  40.930   3.447  1.00  0.00     0.293 HD
ENDBRANCH  15  22
TORSDOF 3
ENDMDL
MODEL 4
REMARK VINA RESULT:    -5.279      2.022      4.995
REMARK INTER + INTRA:          -5.742
REMARK INTER:                  -5.742
REMARK INTRA:                   0.000
REMARK UNBOUND:                 0.000
REMARK SMILES Cc1cc(O)c2c(c1)C(=O)c1cc(O)cc(O)c1C2=O
REMARK SMILES IDX 1 1 2 2 8 3 7 4 6 5 4 6 3 7 19 8 20 9 18 10 11 11 9 12 10 13
REMARK SMILES IDX 12 14 13 15 15 16 16 17 5 18 17 20 14 22
REMARK H PARENT 5 19 17 21 14 23
REMARK Flexibility Score: inf
ROOT
ATOM      1  C   UNL     1       9.886  39.026   5.352  1.00  0.00     0.044 C 
ATOM      2  C   UNL     1       8.616  38.488   4.761  1.00  0.00    -0.047 A 
ATOM      3  C   UNL     1       8.014  37.346   5.303  1.00  0.00     0.016 A 
ATOM      4  C   UNL     1       6.845  36.813   4.733  1.00  0.00     0.038 A 
ATOM      5  C   UNL     1       6.273  37.430   3.601  1.00  0.00     0.076 A 
ATOM      6  C   UNL     1       6.898  38.567   3.041  1.00  0.00     0.127 A 
ATOM      7  C   UNL     1       8.063  39.083   3.620  1.00  0.00     0.050 A 
ATOM      8  C   UNL     1       5.013  36.879   3.035  1.00  0.00     0.201 C 
ATOM      9  O   UNL     1       4.304  37.599   2.283  1.00  0.00    -0.288 OA
ATOM     10  C   UNL     1       4.534  35.529   3.447  1.00  0.00     0.076 A 
ATOM     11  C   UNL     1       5.079  34.952   4.620  1.00  0.00     0.041 A 
ATOM     12  C   UNL     1       6.211  35.609   5.316  1.00  0.00     0.194 C 
ATOM     13  O   UNL     1       6.648  35.130   6.398  1.00  0.00    -0.289 OA
ATOM     14  C   UNL     1       4.549  33.750   5.120  1.00  0.00     0.059 A 
ATOM     15  C   UNL     1       3.501  33.109   4.462  1.00  0.00     0.120 A 
ATOM     16  C   UNL     1       2.991  33.646   3.279  1.00  0.00     0.093 A 
ATOM     17  C   UNL     1       3.516  34.827   2.745  1.00  0.00     0.131 A 
ENDROOT
BRANCH   6  18
ATOM     18  O   UNL     1       6.373  39.180   1.902  1.00  0.00    -0.507 OA
ATOM     19  H   UNL     1       6.902  39.862   1.371  1.00  0.00     0.293 HD
ENDBRANCH   6  18
BRANCH  17  20
ATOM     20  O   UNL     1       3.025  35.239   1.505  1.00  0.00    -0.507 OA
ATOM     21  H   UNL     1       2.051  35.182   1.240  1.00  0.00     0.293 HD
ENDBRANCH  17  20
BRANCH  15  22
ATOM     22  O   UNL     1       2.982  31.927   4.987  1.00  0.00    -0.508 OA
ATOM     23  H   UNL     1       3.084  31.692   5.967  1.00  0.00     0.293 HD
ENDBRANCH  15  22
TORSDOF 3
ENDMDL
MODEL 5
REMARK VINA RESULT:    -5.257     10.764     11.866
REMARK INTER + INTRA:          -5.718
REMARK INTER:                  -5.718
REMARK INTRA:                   0.000
REMARK UNBOUND:                 0.000
REMARK SMILES Cc1cc(O)c2c(c1)C(=O)c1cc(O)cc(O)c1C2=O
REMARK SMILES IDX 1 1 2 2 8 3 7 4 6 5 4 6 3 7 19 8 20 9 18 10 11 11 9 12 10 13
REMARK SMILES IDX 12 14 13 15 15 16 16 17 5 18 17 20 14 22
REMARK H PARENT 5 19 17 21 14 23
REMARK Flexibility Score: inf
ROOT
ATOM      1  C   UNL     1       4.304  24.000   7.333  1.00  0.00     0.044 C 
ATOM      2  C   UNL     1       5.571  24.667   6.884  1.00  0.00    -0.047 A 
ATOM      3  C   UNL     1       6.597  23.913   6.304  1.00  0.00     0.016 A 
ATOM      4  C   UNL     1       7.803  24.523   5.914  1.00  0.00     0.038 A 
ATOM      5  C   UNL     1       7.984  25.907   6.113  1.00  0.00     0.076 A 
ATOM      6  C   UNL     1       6.955  26.661   6.723  1.00  0.00     0.127 A 
ATOM      7  C   UNL     1       5.763  26.036   7.107  1.00  0.00     0.050 A 
ATOM      8  C   UNL     1       9.248  26.545   5.657  1.00  0.00     0.201 C 
ATOM      9  O   UNL     1       9.287  27.793   5.488  1.00  0.00    -0.288 OA
ATOM     10  C   UNL     1      10.421  25.703   5.291  1.00  0.00     0.076 A 
ATOM     11  C   UNL     1      10.208  24.326   5.038  1.00  0.00     0.041 A 
ATOM     12  C   UNL     1       8.881  23.719   5.295  1.00  0.00     0.194 C 
ATOM     13  O   UNL     1       8.675  22.509   5.004  1.00  0.00    -0.289 OA
ATOM     14  C   UNL     1      11.261  23.534   4.550  1.00  0.00     0.059 A 
ATOM     15  C   UNL     1      12.521  24.085   4.326  1.00  0.00     0.120 A 
ATOM     16  C   UNL     1      12.751  25.430   4.619  1.00  0.00     0.093 A 
ATOM     17  C   UNL     1      11.730  26.237   5.130  1.00  0.00     0.131 A 
ENDROOT
BRANCH   6  18
ATOM     18  O   UNL     1       7.118  28.026   6.961  1.00  0.00    -0.507 OA
ATOM     19  H   UNL     1       6.340  28.617   7.232  1.00  0.00     0.293 HD
ENDBRANCH   6  18
BRANCH  17  20
ATOM     20  O   UNL     1      12.070  27.540   5.497  1.00  0.00    -0.507 OA
ATOM     21  H   UNL     1      11.392  28.250   5.739  1.00  0.00     0.293 HD
ENDBRANCH  17  20
BRANCH  15  22
ATOM     22  O   UNL     1      13.544  23.282   3.826  1.00  0.00    -0.508 OA
ATOM     23  H   UNL     1      13.384  22.634   3.063  1.00  0.00     0.293 HD
ENDBRANCH  15  22
TORSDOF 3
ENDMDL
MODEL 6
REMARK VINA RESULT:    -5.159      1.804      3.083
REMARK INTER + INTRA:          -5.611
REMARK INTER:                  -5.611
REMARK INTRA:                   0.000
REMARK UNBOUND:                 0.000
REMARK SMILES Cc1cc(O)c2c(c1)C(=O)c1cc(O)cc(O)c1C2=O
REMARK SMILES IDX 1 1 2 2 8 3 7 4 6 5 4 6 3 7 19 8 20 9 18 10 11 11 9 12 10 13
REMARK SMILES IDX 12 14 13 15 15 16 16 17 5 18 17 20 14 22
REMARK H PARENT 5 19 17 21 14 23
REMARK Flexibility Score: inf
ROOT
ATOM      1  C   UNL     1       2.662  32.234   4.378  1.00  0.00     0.044 C 
ATOM      2  C   UNL     1       3.524  33.384   3.944  1.00  0.00    -0.047 A 
ATOM      3  C   UNL     1       4.522  33.876   4.794  1.00  0.00     0.016 A 
ATOM      4  C   UNL     1       5.310  34.976   4.412  1.00  0.00     0.038 A 
ATOM      5  C   UNL     1       5.090  35.596   3.164  1.00  0.00     0.076 A 
ATOM      6  C   UNL     1       4.064  35.113   2.321  1.00  0.00     0.127 A 
ATOM      7  C   UNL     1       3.288  34.017   2.719  1.00  0.00     0.050 A 
ATOM      8  C   UNL     1       5.959  36.733   2.758  1.00  0.00     0.201 C 
ATOM      9  O   UNL     1       6.029  37.055   1.542  1.00  0.00    -0.288 OA
ATOM     10  C   UNL     1       6.827  37.408   3.763  1.00  0.00     0.076 A 
ATOM     11  C   UNL     1       7.083  36.742   4.986  1.00  0.00     0.041 A 
ATOM     12  C   UNL     1       6.368  35.486   5.313  1.00  0.00     0.194 C 
ATOM     13  O   UNL     1       6.649  34.859   6.371  1.00  0.00    -0.289 OA
ATOM     14  C   UNL     1       8.011  37.280   5.894  1.00  0.00     0.059 A 
ATOM     15  C   UNL     1       8.673  38.474   5.611  1.00  0.00     0.120 A 
ATOM     16  C   UNL     1       8.390  39.160   4.430  1.00  0.00     0.093 A 
ATOM     17  C   UNL     1       7.452  38.662   3.519  1.00  0.00     0.131 A 
ENDROOT
BRANCH   6  18
ATOM     18  O   UNL     1       3.803  35.726   1.095  1.00  0.00    -0.507 OA
ATOM     19  H   UNL     1       3.302  35.247   0.355  1.00  0.00     0.293 HD
ENDBRANCH   6  18
BRANCH  17  20
ATOM     20  O   UNL     1       7.149  39.462   2.416  1.00  0.00    -0.507 OA
ATOM     21  H   UNL     1       7.814  40.078   1.969  1.00  0.00     0.293 HD
ENDBRANCH  17  20
BRANCH  15  22
ATOM     22  O   UNL     1       9.601  38.977   6.520  1.00  0.00    -0.508 OA
ATOM     23  H   UNL     1       9.814  38.491   7.384  1.00  0.00     0.293 HD
ENDBRANCH  15  22
TORSDOF 3
ENDMDL
MODEL 7
REMARK VINA RESULT:    -5.122      2.282      4.485
REMARK INTER + INTRA:          -5.571
REMARK INTER:                  -5.571
REMARK INTRA:                   0.000
REMARK UNBOUND:                 0.000
REMARK SMILES Cc1cc(O)c2c(c1)C(=O)c1cc(O)cc(O)c1C2=O
REMARK SMILES IDX 1 1 2 2 8 3 7 4 6 5 4 6 3 7 19 8 20 9 18 10 11 11 9 12 10 13
REMARK SMILES IDX 12 14 13 15 15 16 16 17 5 18 17 20 14 22
REMARK H PARENT 5 19 17 21 14 23
REMARK Flexibility Score: inf
ROOT
ATOM      1  C   UNL     1      10.450  40.000   1.168  1.00  0.00     0.044 C 
ATOM      2  C   UNL     1       9.334  39.147   1.697  1.00  0.00    -0.047 A 
ATOM      3  C   UNL     1       9.243  38.878   3.068  1.00  0.00     0.016 A 
ATOM      4  C   UNL     1       8.223  38.049   3.568  1.00  0.00     0.038 A 
ATOM      5  C   UNL     1       7.287  37.476   2.683  1.00  0.00     0.076 A 
ATOM      6  C   UNL     1       7.399  37.729   1.297  1.00  0.00     0.127 A 
ATOM      7  C   UNL     1       8.422  38.556   0.816  1.00  0.00     0.050 A 
ATOM      8  C   UNL     1       6.190  36.636   3.233  1.00  0.00     0.201 C 
ATOM      9  O   UNL     1       5.162  36.424   2.536  1.00  0.00    -0.288 OA
ATOM     10  C   UNL     1       6.256  36.146   4.638  1.00  0.00     0.076 A 
ATOM     11  C   UNL     1       7.161  36.773   5.528  1.00  0.00     0.041 A 
ATOM     12  C   UNL     1       8.129  37.774   5.021  1.00  0.00     0.194 C 
ATOM     13  O   UNL     1       8.887  38.382   5.825  1.00  0.00    -0.289 OA
ATOM     14  C   UNL     1       7.148  36.438   6.892  1.00  0.00     0.059 A 
ATOM     15  C   UNL     1       6.260  35.480   7.380  1.00  0.00     0.120 A 
ATOM     16  C   UNL     1       5.398  34.823   6.501  1.00  0.00     0.093 A 
ATOM     17  C   UNL     1       5.407  35.117   5.134  1.00  0.00     0.131 A 
ENDROOT
BRANCH   6  18
ATOM     18  O   UNL     1       6.505  37.152   0.393  1.00  0.00    -0.507 OA
ATOM     19  H   UNL     1       5.751  36.549   0.701  1.00  0.00     0.293 HD
ENDBRANCH   6  18
BRANCH  17  20
ATOM     20  O   UNL     1       4.591  34.341   4.309  1.00  0.00    -0.507 OA
ATOM     21  H   UNL     1       4.938  33.784   3.539  1.00  0.00     0.293 HD
ENDBRANCH  17  20
BRANCH  15  22
ATOM     22  O   UNL     1       6.254  35.177   8.739  1.00  0.00    -0.508 OA
ATOM     23  H   UNL     1       7.067  34.783   9.199  1.00  0.00     0.293 HD
ENDBRANCH  15  22
TORSDOF 3
ENDMDL
MODEL 8
REMARK VINA RESULT:    -5.046     13.561     14.372
REMARK INTER + INTRA:          -5.488
REMARK INTER:                  -5.488
REMARK INTRA:                   0.000
REMARK UNBOUND:                 0.000
REMARK SMILES Cc1cc(O)c2c(c1)C(=O)c1cc(O)cc(O)c1C2=O
REMARK SMILES IDX 1 1 2 2 8 3 7 4 6 5 4 6 3 7 19 8 20 9 18 10 11 11 9 12 10 13
REMARK SMILES IDX 12 14 13 15 15 16 16 17 5 18 17 20 14 22
REMARK H PARENT 5 19 17 21 14 23
REMARK Flexibility Score: inf
ROOT
ATOM      1  C   UNL     1      19.353  26.296   1.425  1.00  0.00     0.044 C 
ATOM      2  C   UNL     1      18.016  25.759   1.846  1.00  0.00    -0.047 A 
ATOM      3  C   UNL     1      17.038  26.623   2.353  1.00  0.00     0.016 A 
ATOM      4  C   UNL     1      15.796  26.125   2.786  1.00  0.00     0.038 A 
ATOM      5  C   UNL     1      15.533  24.741   2.714  1.00  0.00     0.076 A 
ATOM      6  C   UNL     1      16.533  23.869   2.226  1.00  0.00     0.127 A 
ATOM      7  C   UNL     1      17.764  24.383   1.802  1.00  0.00     0.050 A 
ATOM      8  C   UNL     1      14.199  24.236   3.136  1.00  0.00     0.201 C 
ATOM      9  O   UNL     1      13.817  23.099   2.751  1.00  0.00    -0.288 OA
ATOM     10  C   UNL     1      13.277  25.113   3.911  1.00  0.00     0.076 A 
ATOM     11  C   UNL     1      13.525  26.507   3.922  1.00  0.00     0.041 A 
ATOM     12  C   UNL     1      14.765  27.046   3.315  1.00  0.00     0.194 C 
ATOM     13  O   UNL     1      14.951  28.293   3.264  1.00  0.00    -0.289 OA
ATOM     14  C   UNL     1      12.598  27.378   4.518  1.00  0.00     0.059 A 
ATOM     15  C   UNL     1      11.440  26.883   5.115  1.00  0.00     0.120 A 
ATOM     16  C   UNL     1      11.212  25.506   5.151  1.00  0.00     0.093 A 
ATOM     17  C   UNL     1      12.130  24.614   4.588  1.00  0.00     0.131 A 
ENDROOT
BRANCH   6  18
ATOM     18  O   UNL     1      16.312  22.492   2.173  1.00  0.00    -0.507 OA
ATOM     19  H   UNL     1      17.020  21.827   2.464  1.00  0.00     0.293 HD
ENDBRANCH   6  18
BRANCH  17  20
ATOM     20  O   UNL     1      11.882  23.251   4.760  1.00  0.00    -0.507 OA
ATOM     21  H   UNL     1      12.382  22.667   5.417  1.00  0.00     0.293 HD
ENDBRANCH  17  20
BRANCH  15  22
ATOM     22  O   UNL     1      10.528  27.768   5.685  1.00  0.00    -0.508 OA
ATOM     23  H   UNL     1       9.665  28.017   5.213  1.00  0.00     0.293 HD
ENDBRANCH  15  22
TORSDOF 3
ENDMDL
MODEL 9
REMARK VINA RESULT:    -5.040     11.211     13.040
REMARK INTER + INTRA:          -5.482
REMARK INTER:                  -5.482
REMARK INTRA:                   0.000
REMARK UNBOUND:                 0.000
REMARK SMILES Cc1cc(O)c2c(c1)C(=O)c1cc(O)cc(O)c1C2=O
REMARK SMILES IDX 1 1 2 2 8 3 7 4 6 5 4 6 3 7 19 8 20 9 18 10 11 11 9 12 10 13
REMARK SMILES IDX 12 14 13 15 15 16 16 17 5 18 17 20 14 22
REMARK H PARENT 5 19 17 21 14 23
REMARK Flexibility Score: inf
ROOT
ATOM      1  C   UNL     1       8.747  19.875   8.122  1.00  0.00     0.044 C 
ATOM      2  C   UNL     1       7.978  20.816   7.241  1.00  0.00    -0.047 A 
ATOM      3  C   UNL     1       7.513  22.035   7.748  1.00  0.00     0.016 A 
ATOM      4  C   UNL     1       6.760  22.907   6.942  1.00  0.00     0.038 A 
ATOM      5  C   UNL     1       6.463  22.549   5.610  1.00  0.00     0.076 A 
ATOM      6  C   UNL     1       6.912  21.305   5.110  1.00  0.00     0.127 A 
ATOM      7  C   UNL     1       7.659  20.449   5.928  1.00  0.00     0.050 A 
ATOM      8  C   UNL     1       5.702  23.500   4.758  1.00  0.00     0.201 C 
ATOM      9  O   UNL     1       5.741  23.376   3.504  1.00  0.00    -0.288 OA
ATOM     10  C   UNL     1       4.994  24.656   5.375  1.00  0.00     0.076 A 
ATOM     11  C   UNL     1       5.348  25.037   6.692  1.00  0.00     0.041 A 
ATOM     12  C   UNL     1       6.278  24.197   7.484  1.00  0.00     0.194 C 
ATOM     13  O   UNL     1       6.645  24.574   8.631  1.00  0.00    -0.289 OA
ATOM     14  C   UNL     1       4.809  26.208   7.251  1.00  0.00     0.059 A 
ATOM     15  C   UNL     1       3.914  26.994   6.527  1.00  0.00     0.120 A 
ATOM     16  C   UNL     1       3.523  26.600   5.247  1.00  0.00     0.093 A 
ATOM     17  C   UNL     1       4.023  25.426   4.675  1.00  0.00     0.131 A 
ENDROOT
BRANCH   6  18
ATOM     18  O   UNL     1       6.608  20.910   3.807  1.00  0.00    -0.507 OA
ATOM     19  H   UNL     1       7.329  20.635   3.150  1.00  0.00     0.293 HD
ENDBRANCH   6  18
BRANCH  17  20
ATOM     20  O   UNL     1       3.502  25.047   3.437  1.00  0.00    -0.507 OA
ATOM     21  H   UNL     1       2.793  24.336   3.320  1.00  0.00     0.293 HD
ENDBRANCH  17  20
BRANCH  15  22
ATOM     22  O   UNL     1       3.406  28.159   7.097  1.00  0.00    -0.508 OA
ATOM     23  H   UNL     1       3.314  28.262   8.102  1.00  0.00     0.293 HD
ENDBRANCH  15  22
TORSDOF 3
ENDMDL
