MODEL 1
REMARK VINA RESULT:    -5.236      0.000      0.000
REMARK INTER + INTRA:          -7.705
REMARK INTER:                  -7.073
REMARK INTRA:                  -0.632
REMARK UNBOUND:                -0.632
REMARK SMILES CCCCCCC=CC(=O)[O-]
REMARK SMILES IDX 5 1 6 2 7 3 8 4 9 5 10 6 11 7 4 8 3 9 2 10 1 11
REMARK H PARENT
REMARK Flexibility Score: inf
ROOT
ATOM      1  C   UNL     1     -44.465 -38.951 108.200  1.00  0.00     0.004 C 
ENDROOT
BRANCH   1   2
ATOM      2  C   UNL     1     -45.080 -39.556 106.932  1.00  0.00     0.027 C 
BRANCH   2   3
ATOM      3  C   UNL     1     -44.299 -40.755 106.464  1.00  0.00    -0.025 C 
ATOM      4  C   UNL     1     -43.415 -40.775 105.452  1.00  0.00     0.020 C 
BRANCH   4   5
ATOM      5  C   UNL     1     -43.058 -39.644 104.570  1.00  0.00     0.064 C 
ATOM      6  O   UNL     1     -42.037 -38.936 104.768  1.00  0.00    -0.545 OA
ATOM      7  O   UNL     1     -43.889 -39.341 103.500  1.00  0.00    -0.545 OA
ENDBRANCH   4   5
ENDBRANCH   2   3
ENDBRANCH   1   2
BRANCH   1   8
ATOM      8  C   UNL     1     -43.908 -37.550 107.925  1.00  0.00     0.000 C 
BRANCH   8   9
ATOM      9  C   UNL     1     -44.443 -36.994 106.600  1.00  0.00    -0.000 C 
BRANCH   9  10
ATOM     10  C   UNL     1     -43.659 -35.749 106.169  1.00  0.00    -0.003 C 
ATOM     11  C   UNL     1     -43.269 -34.899 107.374  1.00  0.00     0.004 C 
ENDBRANCH   9  10
ENDBRANCH   8   9
ENDBRANCH   1   8
TORSDOF 6
ENDMDL
MODEL 2
REMARK VINA RESULT:    -5.078      2.075      4.292
REMARK INTER + INTRA:          -7.492
REMARK INTER:                  -6.831
REMARK INTRA:                  -0.661
REMARK UNBOUND:                -0.632
REMARK SMILES CCCCCCC=CC(=O)[O-]
REMARK SMILES IDX 5 1 6 2 7 3 8 4 9 5 10 6 11 7 4 8 3 9 2 10 1 11
REMARK H PARENT
REMARK Flexibility Score: inf
ROOT
ATOM      1  C   UNL     1     -44.447 -39.525 108.039  1.00  0.00     0.004 C 
ENDROOT
BRANCH   1   2
ATOM      2  C   UNL     1     -44.021 -38.051 108.048  1.00  0.00     0.027 C 
BRANCH   2   3
ATOM      3  C   UNL     1     -44.561 -37.320 106.849  1.00  0.00    -0.025 C 
ATOM      4  C   UNL     1     -44.099 -36.156 106.361  1.00  0.00     0.020 C 
BRANCH   4   5
ATOM      5  C   UNL     1     -43.000 -35.339 106.918  1.00  0.00     0.064 C 
ATOM      6  O   UNL     1     -43.210 -34.261 107.531  1.00  0.00    -0.545 OA
ATOM      7  O   UNL     1     -41.691 -35.768 106.740  1.00  0.00    -0.545 OA
ENDBRANCH   4   5
ENDBRANCH   2   3
ENDBRANCH   1   2
BRANCH   1   8
ATOM      8  C   UNL     1     -45.125 -39.893 106.715  1.00  0.00     0.000 C 
BRANCH   8   9
ATOM      9  C   UNL     1     -44.384 -41.039 106.016  1.00  0.00    -0.000 C 
BRANCH   9  10
ATOM     10  C   UNL     1     -43.066 -40.549 105.405  1.00  0.00    -0.003 C 
ATOM     11  C   UNL     1     -43.316 -39.524 104.303  1.00  0.00     0.004 C 
ENDBRANCH   9  10
ENDBRANCH   8   9
ENDBRANCH   1   8
TORSDOF 6
ENDMDL
MODEL 3
REMARK VINA RESULT:    -5.046      2.098      3.084
REMARK INTER + INTRA:          -7.448
REMARK INTER:                  -6.908
REMARK INTRA:                  -0.540
REMARK UNBOUND:                -0.632
REMARK SMILES CCCCCCC=CC(=O)[O-]
REMARK SMILES IDX 5 1 6 2 7 3 8 4 9 5 10 6 11 7 4 8 3 9 2 10 1 11
REMARK H PARENT
REMARK Flexibility Score: inf
ROOT
ATOM      1  C   UNL     1     -44.748 -38.920 105.734  1.00  0.00     0.004 C 
ENDROOT
BRANCH   1   2
ATOM      2  C   UNL     1     -44.731 -39.878 106.932  1.00  0.00     0.027 C 
BRANCH   2   3
ATOM      3  C   UNL     1     -44.663 -39.124 108.233  1.00  0.00    -0.025 C 
ATOM      4  C   UNL     1     -43.567 -38.961 108.993  1.00  0.00     0.020 C 
BRANCH   4   5
ATOM      5  C   UNL     1     -42.222 -39.516 108.733  1.00  0.00     0.064 C 
ATOM      6  O   UNL     1     -41.515 -39.135 107.764  1.00  0.00    -0.545 OA
ATOM      7  O   UNL     1     -41.732 -40.506 109.574  1.00  0.00    -0.545 OA
ENDBRANCH   4   5
ENDBRANCH   2   3
ENDBRANCH   1   2
BRANCH   1   8
ATOM      8  C   UNL     1     -44.728 -37.459 106.198  1.00  0.00     0.000 C 
BRANCH   8   9
ATOM      9  C   UNL     1     -43.449 -36.752 105.736  1.00  0.00    -0.000 C 
BRANCH   9  10
ATOM     10  C   UNL     1     -43.358 -35.339 106.324  1.00  0.00    -0.003 C 
ATOM     11  C   UNL     1     -43.251 -35.381 107.845  1.00  0.00     0.004 C 
ENDBRANCH   9  10
ENDBRANCH   8   9
ENDBRANCH   1   8
TORSDOF 6
ENDMDL
MODEL 4
REMARK VINA RESULT:    -5.032      2.193      4.109
REMARK INTER + INTRA:          -7.430
REMARK INTER:                  -6.909
REMARK INTRA:                  -0.521
REMARK UNBOUND:                -0.632
REMARK SMILES CCCCCCC=CC(=O)[O-]
REMARK SMILES IDX 5 1 6 2 7 3 8 4 9 5 10 6 11 7 4 8 3 9 2 10 1 11
REMARK H PARENT
REMARK Flexibility Score: inf
ROOT
ATOM      1  C   UNL     1     -44.684 -39.516 105.877  1.00  0.00     0.004 C 
ENDROOT
BRANCH   1   2
ATOM      2  C   UNL     1     -43.680 -38.379 105.646  1.00  0.00     0.027 C 
BRANCH   2   3
ATOM      3  C   UNL     1     -44.373 -37.045 105.578  1.00  0.00    -0.025 C 
ATOM      4  C   UNL     1     -43.964 -35.912 106.176  1.00  0.00     0.020 C 
BRANCH   4   5
ATOM      5  C   UNL     1     -42.782 -35.752 107.049  1.00  0.00     0.064 C 
ATOM      6  O   UNL     1     -42.879 -35.380 108.247  1.00  0.00    -0.545 OA
ATOM      7  O   UNL     1     -41.522 -36.002 106.521  1.00  0.00    -0.545 OA
ENDBRANCH   4   5
ENDBRANCH   2   3
ENDBRANCH   1   2
BRANCH   1   8
ATOM      8  C   UNL     1     -44.394 -40.244 107.194  1.00  0.00     0.000 C 
BRANCH   8   9
ATOM      9  C   UNL     1     -44.738 -39.362 108.400  1.00  0.00    -0.000 C 
BRANCH   9  10
ATOM     10  C   UNL     1     -43.467 -38.851 109.089  1.00  0.00    -0.003 C 
ATOM     11  C   UNL     1     -42.334 -39.866 108.976  1.00  0.00     0.004 C 
ENDBRANCH   9  10
ENDBRANCH   8   9
ENDBRANCH   1   8
TORSDOF 6
ENDMDL
MODEL 5
REMARK VINA RESULT:    -4.966      6.966      8.543
REMARK INTER + INTRA:          -7.340
REMARK INTER:                  -6.641
REMARK INTRA:                  -0.699
REMARK UNBOUND:                -0.632
REMARK SMILES CCCCCCC=CC(=O)[O-]
REMARK SMILES IDX 5 1 6 2 7 3 8 4 9 5 10 6 11 7 4 8 3 9 2 10 1 11
REMARK H PARENT
REMARK Flexibility Score: inf
ROOT
ATOM      1  C   UNL     1     -40.570 -42.520 102.425  1.00  0.00     0.004 C 
ENDROOT
BRANCH   1   2
ATOM      2  C   UNL     1     -39.463 -41.613 101.875  1.00  0.00     0.027 C 
BRANCH   2   3
ATOM      3  C   UNL     1     -38.121 -42.292 101.933  1.00  0.00    -0.025 C 
ATOM      4  C   UNL     1     -37.294 -42.316 102.993  1.00  0.00     0.020 C 
BRANCH   4   5
ATOM      5  C   UNL     1     -37.510 -41.654 104.296  1.00  0.00     0.064 C 
ATOM      6  O   UNL     1     -36.845 -40.648 104.656  1.00  0.00    -0.545 OA
ATOM      7  O   UNL     1     -38.465 -42.173 105.161  1.00  0.00    -0.545 OA
ENDBRANCH   4   5
ENDBRANCH   2   3
ENDBRANCH   1   2
BRANCH   1   8
ATOM      8  C   UNL     1     -40.339 -43.979 102.014  1.00  0.00     0.000 C 
BRANCH   8   9
ATOM      9  C   UNL     1     -40.610 -44.931 103.185  1.00  0.00    -0.000 C 
BRANCH   9  10
ATOM     10  C   UNL     1     -39.304 -45.338 103.877  1.00  0.00    -0.003 C 
ATOM     11  C   UNL     1     -38.618 -46.479 103.133  1.00  0.00     0.004 C 
ENDBRANCH   9  10
ENDBRANCH   8   9
ENDBRANCH   1   8
TORSDOF 6
ENDMDL
MODEL 6
REMARK VINA RESULT:    -4.898      5.290      8.126
REMARK INTER + INTRA:          -7.248
REMARK INTER:                  -6.763
REMARK INTRA:                  -0.485
REMARK UNBOUND:                -0.632
REMARK SMILES CCCCCCC=CC(=O)[O-]
REMARK SMILES IDX 5 1 6 2 7 3 8 4 9 5 10 6 11 7 4 8 3 9 2 10 1 11
REMARK H PARENT
REMARK Flexibility Score: inf
ROOT
ATOM      1  C   UNL     1     -37.726 -42.456 102.285  1.00  0.00     0.004 C 
ENDROOT
BRANCH   1   2
ATOM      2  C   UNL     1     -38.694 -41.451 102.920  1.00  0.00     0.027 C 
BRANCH   2   3
ATOM      3  C   UNL     1     -39.541 -40.774 101.875  1.00  0.00    -0.025 C 
ATOM      4  C   UNL     1     -40.883 -40.695 101.877  1.00  0.00     0.020 C 
BRANCH   4   5
ATOM      5  C   UNL     1     -41.800 -41.286 102.874  1.00  0.00     0.064 C 
ATOM      6  O   UNL     1     -42.051 -40.722 103.971  1.00  0.00    -0.545 OA
ATOM      7  O   UNL     1     -42.387 -42.514 102.600  1.00  0.00    -0.545 OA
ENDBRANCH   4   5
ENDBRANCH   2   3
ENDBRANCH   1   2
BRANCH   1   8
ATOM      8  C   UNL     1     -38.128 -43.896 102.624  1.00  0.00     0.000 C 
BRANCH   8   9
ATOM      9  C   UNL     1     -39.451 -44.273 101.948  1.00  0.00    -0.000 C 
BRANCH   9  10
ATOM     10  C   UNL     1     -40.179 -45.368 102.735  1.00  0.00    -0.003 C 
ATOM     11  C   UNL     1     -39.221 -46.482 103.146  1.00  0.00     0.004 C 
ENDBRANCH   9  10
ENDBRANCH   8   9
ENDBRANCH   1   8
TORSDOF 6
ENDMDL
MODEL 7
REMARK VINA RESULT:    -4.883      2.406      4.516
REMARK INTER + INTRA:          -7.228
REMARK INTER:                  -6.609
REMARK INTRA:                  -0.619
REMARK UNBOUND:                -0.632
REMARK SMILES CCCCCCC=CC(=O)[O-]
REMARK SMILES IDX 5 1 6 2 7 3 8 4 9 5 10 6 11 7 4 8 3 9 2 10 1 11
REMARK H PARENT
REMARK Flexibility Score: inf
ROOT
ATOM      1  C   UNL     1     -42.974 -39.148 104.723  1.00  0.00     0.004 C 
ENDROOT
BRANCH   1   2
ATOM      2  C   UNL     1     -42.852 -37.732 105.299  1.00  0.00     0.027 C 
BRANCH   2   3
ATOM      3  C   UNL     1     -44.206 -37.102 105.491  1.00  0.00    -0.025 C 
ATOM      4  C   UNL     1     -44.532 -36.205 106.437  1.00  0.00     0.020 C 
BRANCH   4   5
ATOM      5  C   UNL     1     -43.648 -35.684 107.501  1.00  0.00     0.064 C 
ATOM      6  O   UNL     1     -43.198 -34.509 107.483  1.00  0.00    -0.545 OA
ATOM      7  O   UNL     1     -43.287 -36.527 108.544  1.00  0.00    -0.545 OA
ENDBRANCH   4   5
ENDBRANCH   2   3
ENDBRANCH   1   2
BRANCH   1   8
ATOM      8  C   UNL     1     -42.879 -40.202 105.832  1.00  0.00     0.000 C 
BRANCH   8   9
ATOM      9  C   UNL     1     -44.228 -40.899 106.046  1.00  0.00    -0.000 C 
BRANCH   9  10
ATOM     10  C   UNL     1     -45.125 -40.085 106.986  1.00  0.00    -0.003 C 
ATOM     11  C   UNL     1     -44.389 -39.721 108.272  1.00  0.00     0.004 C 
ENDBRANCH   9  10
ENDBRANCH   8   9
ENDBRANCH   1   8
TORSDOF 6
ENDMDL
MODEL 8
REMARK VINA RESULT:    -4.799      2.379      4.184
REMARK INTER + INTRA:          -7.115
REMARK INTER:                  -6.234
REMARK INTRA:                  -0.881
REMARK UNBOUND:                -0.632
REMARK SMILES CCCCCCC=CC(=O)[O-]
REMARK SMILES IDX 5 1 6 2 7 3 8 4 9 5 10 6 11 7 4 8 3 9 2 10 1 11
REMARK H PARENT
REMARK Flexibility Score: inf
ROOT
ATOM      1  C   UNL     1     -44.186 -40.861 106.100  1.00  0.00     0.004 C 
ENDROOT
BRANCH   1   2
ATOM      2  C   UNL     1     -44.983 -39.713 106.730  1.00  0.00     0.027 C 
BRANCH   2   3
ATOM      3  C   UNL     1     -44.544 -39.458 108.148  1.00  0.00    -0.025 C 
ATOM      4  C   UNL     1     -43.908 -38.360 108.591  1.00  0.00     0.020 C 
BRANCH   4   5
ATOM      5  C   UNL     1     -43.475 -37.203 107.780  1.00  0.00     0.064 C 
ATOM      6  O   UNL     1     -42.411 -37.216 107.108  1.00  0.00    -0.545 OA
ATOM      7  O   UNL     1     -44.259 -36.057 107.777  1.00  0.00    -0.545 OA
ENDBRANCH   4   5
ENDBRANCH   2   3
ENDBRANCH   1   2
BRANCH   1   8
ATOM      8  C   UNL     1     -42.797 -40.388 105.656  1.00  0.00     0.000 C 
BRANCH   8   9
ATOM      9  C   UNL     1     -41.693 -41.203 106.339  1.00  0.00    -0.000 C 
BRANCH   9  10
ATOM     10  C   UNL     1     -40.812 -40.307 107.219  1.00  0.00    -0.003 C 
ATOM     11  C   UNL     1     -40.994 -40.636 108.697  1.00  0.00     0.004 C 
ENDBRANCH   9  10
ENDBRANCH   8   9
ENDBRANCH   1   8
TORSDOF 6
ENDMDL
MODEL 9
REMARK VINA RESULT:    -4.746      1.451      2.082
REMARK INTER + INTRA:          -7.043
REMARK INTER:                  -6.289
REMARK INTRA:                  -0.754
REMARK UNBOUND:                -0.632
REMARK SMILES CCCCCCC=CC(=O)[O-]
REMARK SMILES IDX 5 1 6 2 7 3 8 4 9 5 10 6 11 7 4 8 3 9 2 10 1 11
REMARK H PARENT
REMARK Flexibility Score: inf
ROOT
ATOM      1  C   UNL     1     -45.125 -39.502 106.929  1.00  0.00     0.004 C 
ENDROOT
BRANCH   1   2
ATOM      2  C   UNL     1     -44.446 -40.760 106.372  1.00  0.00     0.027 C 
BRANCH   2   3
ATOM      3  C   UNL     1     -43.732 -40.468 105.079  1.00  0.00    -0.025 C 
ATOM      4  C   UNL     1     -42.440 -40.122 104.952  1.00  0.00     0.020 C 
BRANCH   4   5
ATOM      5  C   UNL     1     -41.469 -39.918 106.048  1.00  0.00     0.064 C 
ATOM      6  O   UNL     1     -41.056 -38.775 106.373  1.00  0.00    -0.545 OA
ATOM      7  O   UNL     1     -40.981 -41.028 106.725  1.00  0.00    -0.545 OA
ENDBRANCH   4   5
ENDBRANCH   2   3
ENDBRANCH   1   2
BRANCH   1   8
ATOM      8  C   UNL     1     -44.455 -39.046 108.230  1.00  0.00     0.000 C 
BRANCH   8   9
ATOM      9  C   UNL     1     -43.884 -37.630 108.089  1.00  0.00    -0.000 C 
BRANCH   9  10
ATOM     10  C   UNL     1     -44.325 -36.988 106.769  1.00  0.00    -0.003 C 
ATOM     11  C   UNL     1     -43.980 -35.502 106.737  1.00  0.00     0.004 C 
ENDBRANCH   9  10
ENDBRANCH   8   9
ENDBRANCH   1   8
TORSDOF 6
ENDMDL
