MODEL 1
REMARK VINA RESULT:    -4.848      0.000      0.000
REMARK INTER + INTRA:          -4.848
REMARK INTER:                  -4.848
REMARK INTRA:                   0.000
REMARK UNBOUND:                 0.000
REMARK SMILES O=c1ccc2ccccc2o1
REMARK SMILES IDX 7 1 8 2 9 3 10 4 5 5 6 6 4 7 3 8 2 9 1 10 11 11
REMARK H PARENT
REMARK Flexibility Score: inf
ROOT
ATOM      1  C   UNL     1      12.068 -23.574  18.260  1.00  0.00     0.001 A 
ATOM      2  C   UNL     1      10.978 -22.836  18.732  1.00  0.00     0.004 A 
ATOM      3  C   UNL     1      11.142 -21.498  19.105  1.00  0.00     0.048 A 
ATOM      4  C   UNL     1      12.399 -20.892  19.006  1.00  0.00     0.138 A 
ATOM      5  C   UNL     1      13.501 -21.637  18.528  1.00  0.00     0.018 A 
ATOM      6  C   UNL     1      13.329 -22.979  18.157  1.00  0.00     0.012 A 
ATOM      7  C   UNL     1      14.744 -21.004  18.441  1.00  0.00     0.019 A 
ATOM      8  C   UNL     1      14.861 -19.668  18.823  1.00  0.00     0.094 A 
ATOM      9  C   UNL     1      13.726 -18.994  19.287  1.00  0.00     0.336 A 
ATOM     10  O   UNL     1      13.812 -17.788  19.636  1.00  0.00    -0.246 OA
ATOM     11  O   UNL     1      12.554 -19.618  19.361  1.00  0.00    -0.423 OA
ENDROOT
TORSDOF 0
ENDMDL
MODEL 2
REMARK VINA RESULT:    -4.803      1.859      4.259
REMARK INTER + INTRA:          -4.803
REMARK INTER:                  -4.803
REMARK INTRA:                   0.000
REMARK UNBOUND:                 0.000
REMARK SMILES O=c1ccc2ccccc2o1
REMARK SMILES IDX 7 1 8 2 9 3 10 4 5 5 6 6 4 7 3 8 2 9 1 10 11 11
REMARK H PARENT
REMARK Flexibility Score: inf
ROOT
ATOM      1  C   UNL     1      14.799 -18.576  19.116  1.00  0.00     0.001 A 
ATOM      2  C   UNL     1      15.472 -19.737  18.725  1.00  0.00     0.004 A 
ATOM      3  C   UNL     1      14.768 -20.932  18.545  1.00  0.00     0.048 A 
ATOM      4  C   UNL     1      13.385 -20.969  18.755  1.00  0.00     0.138 A 
ATOM      5  C   UNL     1      12.703 -19.795  19.148  1.00  0.00     0.018 A 
ATOM      6  C   UNL     1      13.417 -18.600  19.328  1.00  0.00     0.012 A 
ATOM      7  C   UNL     1      11.322 -19.862  19.350  1.00  0.00     0.019 A 
ATOM      8  C   UNL     1      10.661 -21.075  19.158  1.00  0.00     0.094 A 
ATOM      9  C   UNL     1      11.400 -22.197  18.768  1.00  0.00     0.336 A 
ATOM     10  O   UNL     1      10.821 -23.300  18.590  1.00  0.00    -0.246 OA
ATOM     11  O   UNL     1      12.715 -22.106  18.582  1.00  0.00    -0.423 OA
ENDROOT
TORSDOF 0
ENDMDL
MODEL 3
REMARK VINA RESULT:    -4.802      1.591      3.818
REMARK INTER + INTRA:          -4.802
REMARK INTER:                  -4.802
REMARK INTRA:                   0.000
REMARK UNBOUND:                 0.000
REMARK SMILES O=c1ccc2ccccc2o1
REMARK SMILES IDX 7 1 8 2 9 3 10 4 5 5 6 6 4 7 3 8 2 9 1 10 11 11
REMARK H PARENT
REMARK Flexibility Score: inf
ROOT
ATOM      1  C   UNL     1      14.897 -18.814  19.024  1.00  0.00     0.001 A 
ATOM      2  C   UNL     1      13.618 -18.316  19.290  1.00  0.00     0.004 A 
ATOM      3  C   UNL     1      12.508 -19.166  19.243  1.00  0.00     0.048 A 
ATOM      4  C   UNL     1      12.674 -20.519  18.929  1.00  0.00     0.138 A 
ATOM      5  C   UNL     1      13.967 -21.024  18.661  1.00  0.00     0.018 A 
ATOM      6  C   UNL     1      15.075 -20.166  18.710  1.00  0.00     0.012 A 
ATOM      7  C   UNL     1      14.101 -22.380  18.351  1.00  0.00     0.019 A 
ATOM      8  C   UNL     1      12.967 -23.190  18.316  1.00  0.00     0.094 A 
ATOM      9  C   UNL     1      11.719 -22.621  18.592  1.00  0.00     0.336 A 
ATOM     10  O   UNL     1      10.683 -23.337  18.566  1.00  0.00    -0.246 OA
ATOM     11  O   UNL     1      11.617 -21.328  18.885  1.00  0.00    -0.423 OA
ENDROOT
TORSDOF 0
ENDMDL
MODEL 4
REMARK VINA RESULT:    -4.785      1.288      3.719
REMARK INTER + INTRA:          -4.785
REMARK INTER:                  -4.785
REMARK INTRA:                   0.000
REMARK UNBOUND:                 0.000
REMARK SMILES O=c1ccc2ccccc2o1
REMARK SMILES IDX 7 1 8 2 9 3 10 4 5 5 6 6 4 7 3 8 2 9 1 10 11 11
REMARK H PARENT
REMARK Flexibility Score: inf
ROOT
ATOM      1  C   UNL     1      15.970 -19.548  18.789  1.00  0.00     0.001 A 
ATOM      2  C   UNL     1      15.347 -18.362  19.190  1.00  0.00     0.004 A 
ATOM      3  C   UNL     1      13.967 -18.333  19.416  1.00  0.00     0.048 A 
ATOM      4  C   UNL     1      13.204 -19.492  19.240  1.00  0.00     0.138 A 
ATOM      5  C   UNL     1      13.833 -20.692  18.836  1.00  0.00     0.018 A 
ATOM      6  C   UNL     1      15.217 -20.713  18.611  1.00  0.00     0.012 A 
ATOM      7  C   UNL     1      13.045 -21.834  18.669  1.00  0.00     0.019 A 
ATOM      8  C   UNL     1      11.672 -21.759  18.906  1.00  0.00     0.094 A 
ATOM      9  C   UNL     1      11.118 -20.537  19.304  1.00  0.00     0.336 A 
ATOM     10  O   UNL     1       9.882 -20.450  19.522  1.00  0.00    -0.246 OA
ATOM     11  O   UNL     1      11.890 -19.464  19.455  1.00  0.00    -0.423 OA
ENDROOT
TORSDOF 0
ENDMDL
MODEL 5
REMARK VINA RESULT:    -4.741      1.185      2.145
REMARK INTER + INTRA:          -4.741
REMARK INTER:                  -4.741
REMARK INTRA:                   0.000
REMARK UNBOUND:                 0.000
REMARK SMILES O=c1ccc2ccccc2o1
REMARK SMILES IDX 7 1 8 2 9 3 10 4 5 5 6 6 4 7 3 8 2 9 1 10 11 11
REMARK H PARENT
REMARK Flexibility Score: inf
ROOT
ATOM      1  C   UNL     1      11.003 -22.533  18.796  1.00  0.00     0.001 A 
ATOM      2  C   UNL     1      12.133 -23.240  18.375  1.00  0.00     0.004 A 
ATOM      3  C   UNL     1      13.373 -22.597  18.287  1.00  0.00     0.048 A 
ATOM      4  C   UNL     1      13.486 -21.243  18.621  1.00  0.00     0.138 A 
ATOM      5  C   UNL     1      12.343 -20.528  19.048  1.00  0.00     0.018 A 
ATOM      6  C   UNL     1      11.103 -21.179  19.133  1.00  0.00     0.012 A 
ATOM      7  C   UNL     1      12.487 -19.177  19.375  1.00  0.00     0.019 A 
ATOM      8  C   UNL     1      13.742 -18.578  19.273  1.00  0.00     0.094 A 
ATOM      9  C   UNL     1      14.828 -19.348  18.844  1.00  0.00     0.336 A 
ATOM     10  O   UNL     1      15.969 -18.825  18.745  1.00  0.00    -0.246 OA
ATOM     11  O   UNL     1      14.666 -20.632  18.538  1.00  0.00    -0.423 OA
ENDROOT
TORSDOF 0
ENDMDL
MODEL 6
REMARK VINA RESULT:    -4.715      1.493      2.125
REMARK INTER + INTRA:          -4.715
REMARK INTER:                  -4.715
REMARK INTRA:                   0.000
REMARK UNBOUND:                 0.000
REMARK SMILES O=c1ccc2ccccc2o1
REMARK SMILES IDX 7 1 8 2 9 3 10 4 5 5 6 6 4 7 3 8 2 9 1 10 11 11
REMARK H PARENT
REMARK Flexibility Score: inf
ROOT
ATOM      1  C   UNL     1      13.246 -23.913  18.750  1.00  0.00     0.001 A 
ATOM      2  C   UNL     1      14.036 -23.892  19.904  1.00  0.00     0.004 A 
ATOM      3  C   UNL     1      14.282 -22.686  20.568  1.00  0.00     0.048 A 
ATOM      4  C   UNL     1      13.735 -21.494  20.080  1.00  0.00     0.138 A 
ATOM      5  C   UNL     1      12.935 -21.514  18.915  1.00  0.00     0.018 A 
ATOM      6  C   UNL     1      12.694 -22.728  18.254  1.00  0.00     0.012 A 
ATOM      7  C   UNL     1      12.402 -20.308  18.452  1.00  0.00     0.019 A 
ATOM      8  C   UNL     1      12.673 -19.129  19.146  1.00  0.00     0.094 A 
ATOM      9  C   UNL     1      13.473 -19.185  20.292  1.00  0.00     0.336 A 
ATOM     10  O   UNL     1      13.728 -18.132  20.932  1.00  0.00    -0.246 OA
ATOM     11  O   UNL     1      13.968 -20.346  20.713  1.00  0.00    -0.423 OA
ENDROOT
TORSDOF 0
ENDMDL
MODEL 7
REMARK VINA RESULT:    -4.614      2.056      4.221
REMARK INTER + INTRA:          -4.614
REMARK INTER:                  -4.614
REMARK INTRA:                   0.000
REMARK UNBOUND:                 0.000
REMARK SMILES O=c1ccc2ccccc2o1
REMARK SMILES IDX 7 1 8 2 9 3 10 4 5 5 6 6 4 7 3 8 2 9 1 10 11 11
REMARK H PARENT
REMARK Flexibility Score: inf
ROOT
ATOM      1  C   UNL     1      13.222 -18.537  18.403  1.00  0.00     0.001 A 
ATOM      2  C   UNL     1      14.574 -18.810  18.636  1.00  0.00     0.004 A 
ATOM      3  C   UNL     1      14.991 -20.115  18.918  1.00  0.00     0.048 A 
ATOM      4  C   UNL     1      14.055 -21.154  18.966  1.00  0.00     0.138 A 
ATOM      5  C   UNL     1      12.689 -20.880  18.729  1.00  0.00     0.018 A 
ATOM      6  C   UNL     1      12.278 -19.568  18.448  1.00  0.00     0.012 A 
ATOM      7  C   UNL     1      11.778 -21.938  18.784  1.00  0.00     0.019 A 
ATOM      8  C   UNL     1      12.238 -23.224  19.068  1.00  0.00     0.094 A 
ATOM      9  C   UNL     1      13.605 -23.420  19.291  1.00  0.00     0.336 A 
ATOM     10  O   UNL     1      14.040 -24.573  19.549  1.00  0.00    -0.246 OA
ATOM     11  O   UNL     1      14.452 -22.396  19.233  1.00  0.00    -0.423 OA
ENDROOT
TORSDOF 0
ENDMDL
MODEL 8
REMARK VINA RESULT:    -4.567      1.890      2.716
REMARK INTER + INTRA:          -4.567
REMARK INTER:                  -4.567
REMARK INTRA:                   0.000
REMARK UNBOUND:                 0.000
REMARK SMILES O=c1ccc2ccccc2o1
REMARK SMILES IDX 7 1 8 2 9 3 10 4 5 5 6 6 4 7 3 8 2 9 1 10 11 11
REMARK H PARENT
REMARK Flexibility Score: inf
ROOT
ATOM      1  C   UNL     1      15.015 -23.744  20.598  1.00  0.00     0.001 A 
ATOM      2  C   UNL     1      14.070 -24.363  19.774  1.00  0.00     0.004 A 
ATOM      3  C   UNL     1      13.080 -23.603  19.143  1.00  0.00     0.048 A 
ATOM      4  C   UNL     1      13.032 -22.218  19.335  1.00  0.00     0.138 A 
ATOM      5  C   UNL     1      13.987 -21.591  20.167  1.00  0.00     0.018 A 
ATOM      6  C   UNL     1      14.977 -22.360  20.797  1.00  0.00     0.012 A 
ATOM      7  C   UNL     1      13.914 -20.206  20.339  1.00  0.00     0.019 A 
ATOM      8  C   UNL     1      12.909 -19.488  19.691  1.00  0.00     0.094 A 
ATOM      9  C   UNL     1      11.998 -20.175  18.882  1.00  0.00     0.336 A 
ATOM     10  O   UNL     1      11.085 -19.544  18.289  1.00  0.00    -0.246 OA
ATOM     11  O   UNL     1      12.089 -21.494  18.734  1.00  0.00    -0.423 OA
ENDROOT
TORSDOF 0
ENDMDL
MODEL 9
REMARK VINA RESULT:    -4.495      2.514      3.651
REMARK INTER + INTRA:          -4.495
REMARK INTER:                  -4.495
REMARK INTRA:                   0.000
REMARK UNBOUND:                 0.000
REMARK SMILES O=c1ccc2ccccc2o1
REMARK SMILES IDX 7 1 8 2 9 3 10 4 5 5 6 6 4 7 3 8 2 9 1 10 11 11
REMARK H PARENT
REMARK Flexibility Score: inf
ROOT
ATOM      1  C   UNL     1      15.548 -24.874  21.004  1.00  0.00     0.001 A 
ATOM      2  C   UNL     1      16.321 -23.732  21.235  1.00  0.00     0.004 A 
ATOM      3  C   UNL     1      15.938 -22.501  20.692  1.00  0.00     0.048 A 
ATOM      4  C   UNL     1      14.778 -22.408  19.916  1.00  0.00     0.138 A 
ATOM      5  C   UNL     1      13.995 -23.562  19.683  1.00  0.00     0.018 A 
ATOM      6  C   UNL     1      14.386 -24.793  20.230  1.00  0.00     0.012 A 
ATOM      7  C   UNL     1      12.841 -23.438  18.904  1.00  0.00     0.019 A 
ATOM      8  C   UNL     1      12.497 -22.191  18.383  1.00  0.00     0.094 A 
ATOM      9  C   UNL     1      13.320 -21.092  18.655  1.00  0.00     0.336 A 
ATOM     10  O   UNL     1      13.026 -19.959  18.194  1.00  0.00    -0.246 OA
ATOM     11  O   UNL     1      14.413 -21.236  19.400  1.00  0.00    -0.423 OA
ENDROOT
TORSDOF 0
ENDMDL
