MODEL 1
REMARK VINA RESULT:    -6.870      0.000      0.000
REMARK INTER + INTRA:          -7.493
REMARK INTER:                  -7.272
REMARK INTRA:                  -0.221
REMARK UNBOUND:                -0.221
REMARK SMILES CC1=CC[C@@H]2[C@H]3[C@H](C(C)C)CC[C@]2(C)[C@@H]13
REMARK SMILES IDX 1 1 2 2 3 3 4 4 5 5 6 6 15 7 13 8 12 9 11 10 7 11 14 12 8 13
REMARK SMILES IDX 9 14 10 15
REMARK H PARENT
REMARK Flexibility Score: inf
ROOT
ATOM      1  C   UNL     1     112.629 109.866 108.623  1.00  0.00     0.039 C 
ATOM      2  C   UNL     1     111.618 110.699 109.351  1.00  0.00    -0.073 C 
ATOM      3  C   UNL     1     110.907 111.664 108.709  1.00  0.00    -0.027 C 
ATOM      4  C   UNL     1     109.871 112.470 109.502  1.00  0.00     0.031 C 
ATOM      5  C   UNL     1     109.861 112.020 110.999  1.00  0.00     0.003 C 
ATOM      6  C   UNL     1     111.331 111.935 111.470  1.00  0.00     0.004 C 
ATOM      7  C   UNL     1     111.354 110.518 110.848  1.00  0.00     0.024 C 
ATOM      8  C   UNL     1     109.828 110.480 111.124  1.00  0.00    -0.022 C 
ATOM      9  C   UNL     1     109.538 110.108 112.606  1.00  0.00     0.008 C 
ATOM     10  C   UNL     1     110.628 110.637 113.572  1.00  0.00     0.005 C 
ATOM     11  C   UNL     1     111.395 111.891 113.031  1.00  0.00    -0.005 C 
ATOM     12  C   UNL     1     108.916 109.675 110.167  1.00  0.00     0.012 C 
ENDROOT
BRANCH  11  13
ATOM     13  C   UNL     1     112.859 111.942 113.576  1.00  0.00    -0.014 C 
ATOM     14  C   UNL     1     112.935 112.531 114.998  1.00  0.00     0.007 C 
ATOM     15  C   UNL     1     113.497 110.539 113.590  1.00  0.00     0.007 C 
ENDBRANCH  11  13
TORSDOF 1
ENDMDL
MODEL 2
REMARK VINA RESULT:    -6.839      1.318      3.269
REMARK INTER + INTRA:          -7.460
REMARK INTER:                  -7.200
REMARK INTRA:                  -0.260
REMARK UNBOUND:                -0.221
REMARK SMILES CC1=CC[C@@H]2[C@H]3[C@H](C(C)C)CC[C@]2(C)[C@@H]13
REMARK SMILES IDX 1 1 2 2 3 3 4 4 5 5 6 6 15 7 13 8 12 9 11 10 7 11 14 12 8 13
REMARK SMILES IDX 9 14 10 15
REMARK H PARENT
REMARK Flexibility Score: inf
ROOT
ATOM      1  C   UNL     1     109.569 112.323 109.042  1.00  0.00     0.039 C 
ATOM      2  C   UNL     1     110.618 111.500 109.728  1.00  0.00    -0.073 C 
ATOM      3  C   UNL     1     111.297 110.529 109.062  1.00  0.00    -0.027 C 
ATOM      4  C   UNL     1     112.374 109.734 109.810  1.00  0.00     0.031 C 
ATOM      5  C   UNL     1     112.460 110.202 111.300  1.00  0.00     0.003 C 
ATOM      6  C   UNL     1     111.015 110.290 111.844  1.00  0.00     0.004 C 
ATOM      7  C   UNL     1     110.958 111.700 111.207  1.00  0.00     0.024 C 
ATOM      8  C   UNL     1     112.496 111.744 111.404  1.00  0.00    -0.022 C 
ATOM      9  C   UNL     1     112.860 112.133 112.866  1.00  0.00     0.008 C 
ATOM     10  C   UNL     1     111.822 111.613 113.892  1.00  0.00     0.005 C 
ATOM     11  C   UNL     1     111.032 110.352 113.405  1.00  0.00    -0.005 C 
ATOM     12  C   UNL     1     113.356 112.538 110.393  1.00  0.00     0.012 C 
ENDROOT
BRANCH  11  13
ATOM     13  C   UNL     1     109.597 110.305 114.025  1.00  0.00    -0.014 C 
ATOM     14  C   UNL     1     109.561 109.542 115.363  1.00  0.00     0.007 C 
ATOM     15  C   UNL     1     109.042 111.725 114.253  1.00  0.00     0.007 C 
ENDBRANCH  11  13
TORSDOF 1
ENDMDL
MODEL 3
REMARK VINA RESULT:    -6.780      1.626      4.977
REMARK INTER + INTRA:          -7.398
REMARK INTER:                  -6.963
REMARK INTRA:                  -0.435
REMARK UNBOUND:                -0.221
REMARK SMILES CC1=CC[C@@H]2[C@H]3[C@H](C(C)C)CC[C@]2(C)[C@@H]13
REMARK SMILES IDX 1 1 2 2 3 3 4 4 5 5 6 6 15 7 13 8 12 9 11 10 7 11 14 12 8 13
REMARK SMILES IDX 9 14 10 15
REMARK H PARENT
REMARK Flexibility Score: inf
ROOT
ATOM      1  C   UNL     1     109.123 110.681 112.271  1.00  0.00     0.039 C 
ATOM      2  C   UNL     1     110.392 111.142 111.621  1.00  0.00    -0.073 C 
ATOM      3  C   UNL     1     111.215 112.033 112.235  1.00  0.00    -0.027 C 
ATOM      4  C   UNL     1     112.511 112.452 111.529  1.00  0.00     0.031 C 
ATOM      5  C   UNL     1     112.620 111.754 110.134  1.00  0.00     0.003 C 
ATOM      6  C   UNL     1     111.251 111.899 109.432  1.00  0.00     0.004 C 
ATOM      7  C   UNL     1     110.810 110.650 110.232  1.00  0.00     0.024 C 
ATOM      8  C   UNL     1     112.307 110.244 110.234  1.00  0.00    -0.022 C 
ATOM      9  C   UNL     1     112.702 109.565 108.891  1.00  0.00     0.008 C 
ATOM     10  C   UNL     1     111.911 110.135 107.686  1.00  0.00     0.005 C 
ATOM     11  C   UNL     1     111.394 111.596 107.905  1.00  0.00    -0.005 C 
ATOM     12  C   UNL     1     112.863 109.446 111.438  1.00  0.00     0.012 C 
ENDROOT
BRANCH  11  13
ATOM     13  C   UNL     1     110.073 111.858 107.112  1.00  0.00    -0.014 C 
ATOM     14  C   UNL     1     109.289 110.561 106.835  1.00  0.00     0.007 C 
ATOM     15  C   UNL     1     109.154 112.837 107.868  1.00  0.00     0.007 C 
ENDBRANCH  11  13
TORSDOF 1
ENDMDL
MODEL 4
REMARK VINA RESULT:    -6.769      2.279      5.202
REMARK INTER + INTRA:          -7.386
REMARK INTER:                  -6.950
REMARK INTRA:                  -0.436
REMARK UNBOUND:                -0.221
REMARK SMILES CC1=CC[C@@H]2[C@H]3[C@H](C(C)C)CC[C@]2(C)[C@@H]13
REMARK SMILES IDX 1 1 2 2 3 3 4 4 5 5 6 6 15 7 13 8 12 9 11 10 7 11 14 12 8 13
REMARK SMILES IDX 9 14 10 15
REMARK H PARENT
REMARK Flexibility Score: inf
ROOT
ATOM      1  C   UNL     1     113.239 111.585 117.122  1.00  0.00     0.039 C 
ATOM      2  C   UNL     1     111.946 111.137 116.509  1.00  0.00    -0.073 C 
ATOM      3  C   UNL     1     111.127 110.263 117.150  1.00  0.00    -0.027 C 
ATOM      4  C   UNL     1     109.807 109.858 116.483  1.00  0.00     0.031 C 
ATOM      5  C   UNL     1     109.670 110.548 115.086  1.00  0.00     0.003 C 
ATOM      6  C   UNL     1     111.018 110.379 114.349  1.00  0.00     0.004 C 
ATOM      7  C   UNL     1     111.498 111.626 115.128  1.00  0.00     0.024 C 
ATOM      8  C   UNL     1     110.008 112.054 115.166  1.00  0.00    -0.022 C 
ATOM      9  C   UNL     1     109.587 112.728 113.829  1.00  0.00     0.008 C 
ATOM     10  C   UNL     1     110.337 112.140 112.609  1.00  0.00     0.005 C 
ATOM     11  C   UNL     1     110.838 110.672 112.825  1.00  0.00    -0.005 C 
ATOM     12  C   UNL     1     109.496 112.869 116.379  1.00  0.00     0.012 C 
ENDROOT
BRANCH  11  13
ATOM     13  C   UNL     1     112.134 110.386 111.999  1.00  0.00    -0.014 C 
ATOM     14  C   UNL     1     112.936 111.667 111.703  1.00  0.00     0.007 C 
ATOM     15  C   UNL     1     113.052 109.388 112.730  1.00  0.00     0.007 C 
ENDBRANCH  11  13
TORSDOF 1
ENDMDL
MODEL 5
REMARK VINA RESULT:    -6.766      1.363      4.507
REMARK INTER + INTRA:          -7.383
REMARK INTER:                  -6.948
REMARK INTRA:                  -0.435
REMARK UNBOUND:                -0.221
REMARK SMILES CC1=CC[C@@H]2[C@H]3[C@H](C(C)C)CC[C@]2(C)[C@@H]13
REMARK SMILES IDX 1 1 2 2 3 3 4 4 5 5 6 6 15 7 13 8 12 9 11 10 7 11 14 12 8 13
REMARK SMILES IDX 9 14 10 15
REMARK H PARENT
REMARK Flexibility Score: inf
ROOT
ATOM      1  C   UNL     1     113.252 111.707 112.227  1.00  0.00     0.039 C 
ATOM      2  C   UNL     1     111.968 111.204 111.639  1.00  0.00    -0.073 C 
ATOM      3  C   UNL     1     111.187 110.317 112.309  1.00  0.00    -0.027 C 
ATOM      4  C   UNL     1     109.874 109.854 111.666  1.00  0.00     0.031 C 
ATOM      5  C   UNL     1     109.697 110.510 110.258  1.00  0.00     0.003 C 
ATOM      6  C   UNL     1     111.041 110.371 109.507  1.00  0.00     0.004 C 
ATOM      7  C   UNL     1     111.488 111.650 110.255  1.00  0.00     0.024 C 
ATOM      8  C   UNL     1     109.985 112.028 110.303  1.00  0.00    -0.022 C 
ATOM      9  C   UNL     1     109.526 112.661 108.959  1.00  0.00     0.008 C 
ATOM     10  C   UNL     1     110.281 112.073 107.741  1.00  0.00     0.005 C 
ATOM     11  C   UNL     1     110.833 110.627 107.980  1.00  0.00    -0.005 C 
ATOM     12  C   UNL     1     109.460 112.850 111.506  1.00  0.00     0.012 C 
ENDROOT
BRANCH  11  13
ATOM     13  C   UNL     1     112.128 110.368 107.143  1.00  0.00    -0.014 C 
ATOM     14  C   UNL     1     112.866 111.672 106.785  1.00  0.00     0.007 C 
ATOM     15  C   UNL     1     113.103 109.442 107.898  1.00  0.00     0.007 C 
ENDBRANCH  11  13
TORSDOF 1
ENDMDL
MODEL 6
REMARK VINA RESULT:    -6.766      1.990      5.520
REMARK INTER + INTRA:          -7.383
REMARK INTER:                  -6.951
REMARK INTRA:                  -0.431
REMARK UNBOUND:                -0.221
REMARK SMILES CC1=CC[C@@H]2[C@H]3[C@H](C(C)C)CC[C@]2(C)[C@@H]13
REMARK SMILES IDX 1 1 2 2 3 3 4 4 5 5 6 6 15 7 13 8 12 9 11 10 7 11 14 12 8 13
REMARK SMILES IDX 9 14 10 15
REMARK H PARENT
REMARK Flexibility Score: inf
ROOT
ATOM      1  C   UNL     1     109.103 110.622 117.013  1.00  0.00     0.039 C 
ATOM      2  C   UNL     1     110.394 111.062 116.390  1.00  0.00    -0.073 C 
ATOM      3  C   UNL     1     111.243 111.898 117.044  1.00  0.00    -0.027 C 
ATOM      4  C   UNL     1     112.559 112.297 116.364  1.00  0.00     0.031 C 
ATOM      5  C   UNL     1     112.655 111.649 114.944  1.00  0.00     0.003 C 
ATOM      6  C   UNL     1     111.298 111.871 114.238  1.00  0.00     0.004 C 
ATOM      7  C   UNL     1     110.805 110.609 114.987  1.00  0.00     0.024 C 
ATOM      8  C   UNL     1     112.287 110.149 114.982  1.00  0.00    -0.022 C 
ATOM      9  C   UNL     1     112.668 109.509 113.617  1.00  0.00     0.008 C 
ATOM     10  C   UNL     1     111.909 110.153 112.430  1.00  0.00     0.005 C 
ATOM     11  C   UNL     1     111.443 111.623 112.702  1.00  0.00    -0.005 C 
ATOM     12  C   UNL     1     112.804 109.285 116.158  1.00  0.00     0.012 C 
ENDROOT
BRANCH  11  13
ATOM     13  C   UNL     1     110.139 111.962 111.911  1.00  0.00    -0.014 C 
ATOM     14  C   UNL     1     109.339 110.702 111.529  1.00  0.00     0.007 C 
ATOM     15  C   UNL     1     109.223 112.900 112.721  1.00  0.00     0.007 C 
ENDBRANCH  11  13
TORSDOF 1
ENDMDL
MODEL 7
REMARK VINA RESULT:    -6.746      3.459      6.025
REMARK INTER + INTRA:          -7.362
REMARK INTER:                  -7.148
REMARK INTRA:                  -0.214
REMARK UNBOUND:                -0.221
REMARK SMILES CC1=CC[C@@H]2[C@H]3[C@H](C(C)C)CC[C@]2(C)[C@@H]13
REMARK SMILES IDX 1 1 2 2 3 3 4 4 5 5 6 6 15 7 13 8 12 9 11 10 7 11 14 12 8 13
REMARK SMILES IDX 9 14 10 15
REMARK H PARENT
REMARK Flexibility Score: inf
ROOT
ATOM      1  C   UNL     1     109.511 112.369 113.772  1.00  0.00     0.039 C 
ATOM      2  C   UNL     1     110.543 111.522 114.455  1.00  0.00    -0.073 C 
ATOM      3  C   UNL     1     111.200 110.538 113.787  1.00  0.00    -0.027 C 
ATOM      4  C   UNL     1     112.260 109.718 114.532  1.00  0.00     0.031 C 
ATOM      5  C   UNL     1     112.358 110.181 116.022  1.00  0.00     0.003 C 
ATOM      6  C   UNL     1     110.916 110.300 116.568  1.00  0.00     0.004 C 
ATOM      7  C   UNL     1     110.888 111.711 115.934  1.00  0.00     0.024 C 
ATOM      8  C   UNL     1     112.427 111.721 116.130  1.00  0.00    -0.022 C 
ATOM      9  C   UNL     1     112.801 112.100 117.591  1.00  0.00     0.008 C 
ATOM     10  C   UNL     1     111.753 111.600 118.618  1.00  0.00     0.005 C 
ATOM     11  C   UNL     1     110.936 110.358 118.130  1.00  0.00    -0.005 C 
ATOM     12  C   UNL     1     113.303 112.500 115.119  1.00  0.00     0.012 C 
ENDROOT
BRANCH  11  13
ATOM     13  C   UNL     1     109.502 110.340 118.751  1.00  0.00    -0.014 C 
ATOM     14  C   UNL     1     109.493 109.799 120.193  1.00  0.00     0.007 C 
ATOM     15  C   UNL     1     108.877 111.749 118.750  1.00  0.00     0.007 C 
ENDBRANCH  11  13
TORSDOF 1
ENDMDL
MODEL 8
REMARK VINA RESULT:    -6.743      2.800      5.262
REMARK INTER + INTRA:          -7.358
REMARK INTER:                  -7.111
REMARK INTRA:                  -0.247
REMARK UNBOUND:                -0.221
REMARK SMILES CC1=CC[C@@H]2[C@H]3[C@H](C(C)C)CC[C@]2(C)[C@@H]13
REMARK SMILES IDX 1 1 2 2 3 3 4 4 5 5 6 6 15 7 13 8 12 9 11 10 7 11 14 12 8 13
REMARK SMILES IDX 9 14 10 15
REMARK H PARENT
REMARK Flexibility Score: inf
ROOT
ATOM      1  C   UNL     1     109.416 112.262 104.483  1.00  0.00     0.039 C 
ATOM      2  C   UNL     1     110.430 111.417 105.193  1.00  0.00    -0.073 C 
ATOM      3  C   UNL     1     110.980 110.327 104.596  1.00  0.00    -0.027 C 
ATOM      4  C   UNL     1     112.029 109.512 105.363  1.00  0.00     0.031 C 
ATOM      5  C   UNL     1     112.247 110.114 106.790  1.00  0.00     0.003 C 
ATOM      6  C   UNL     1     110.853 110.389 107.399  1.00  0.00     0.004 C 
ATOM      7  C   UNL     1     110.878 111.728 106.623  1.00  0.00     0.024 C 
ATOM      8  C   UNL     1     112.423 111.649 106.733  1.00  0.00    -0.022 C 
ATOM      9  C   UNL     1     112.910 112.144 108.125  1.00  0.00     0.008 C 
ATOM     10  C   UNL     1     111.897 111.826 109.253  1.00  0.00     0.005 C 
ATOM     11  C   UNL     1     110.972 110.601 108.942  1.00  0.00    -0.005 C 
ATOM     12  C   UNL     1     113.284 112.258 105.600  1.00  0.00     0.012 C 
ENDROOT
BRANCH  11  13
ATOM     13  C   UNL     1     109.580 110.748 109.639  1.00  0.00    -0.014 C 
ATOM     14  C   UNL     1     109.208 109.508 110.473  1.00  0.00     0.007 C 
ATOM     15  C   UNL     1     109.544 111.987 110.555  1.00  0.00     0.007 C 
ENDBRANCH  11  13
TORSDOF 1
ENDMDL
MODEL 9
REMARK VINA RESULT:    -6.728      1.726      3.822
REMARK INTER + INTRA:          -7.343
REMARK INTER:                  -6.968
REMARK INTRA:                  -0.375
REMARK UNBOUND:                -0.221
REMARK SMILES CC1=CC[C@@H]2[C@H]3[C@H](C(C)C)CC[C@]2(C)[C@@H]13
REMARK SMILES IDX 1 1 2 2 3 3 4 4 5 5 6 6 15 7 13 8 12 9 11 10 7 11 14 12 8 13
REMARK SMILES IDX 9 14 10 15
REMARK H PARENT
REMARK Flexibility Score: inf
ROOT
ATOM      1  C   UNL     1     109.476 110.846 110.911  1.00  0.00     0.039 C 
ATOM      2  C   UNL     1     110.723 110.495 111.667  1.00  0.00    -0.073 C 
ATOM      3  C   UNL     1     111.570 109.532 111.219  1.00  0.00    -0.027 C 
ATOM      4  C   UNL     1     112.840 109.230 112.024  1.00  0.00     0.031 C 
ATOM      5  C   UNL     1     112.897 110.125 113.306  1.00  0.00     0.003 C 
ATOM      6  C   UNL     1     111.503 110.072 113.972  1.00  0.00     0.004 C 
ATOM      7  C   UNL     1     111.087 111.188 112.983  1.00  0.00     0.024 C 
ATOM      8  C   UNL     1     112.582 111.602 112.976  1.00  0.00    -0.022 C 
ATOM      9  C   UNL     1     112.926 112.471 114.219  1.00  0.00     0.008 C 
ATOM     10  C   UNL     1     112.093 112.077 115.465  1.00  0.00     0.005 C 
ATOM     11  C   UNL     1     111.589 110.594 115.442  1.00  0.00    -0.005 C 
ATOM     12  C   UNL     1     113.180 112.221 111.690  1.00  0.00     0.012 C 
ENDROOT
BRANCH  11  13
ATOM     13  C   UNL     1     110.241 110.440 116.217  1.00  0.00    -0.014 C 
ATOM     14  C   UNL     1     109.585 111.798 116.530  1.00  0.00     0.007 C 
ATOM     15  C   UNL     1     109.237 109.580 115.424  1.00  0.00     0.007 C 
ENDBRANCH  11  13
TORSDOF 1
ENDMDL
