MODEL 1
REMARK VINA RESULT:    -4.453      0.000      0.000
REMARK INTER + INTRA:          -7.464
REMARK INTER:                  -6.796
REMARK INTRA:                  -0.668
REMARK UNBOUND:                -0.668
REMARK SMILES O=C([O-])CCCCCCCCC(=O)[O-]
REMARK SMILES IDX 7 1 6 2 5 3 4 4 2 5 1 6 3 7 8 8 9 9 10 10 11 11 12 12 13 13
REMARK SMILES IDX 14 14
REMARK H PARENT
REMARK Flexibility Score: inf
ROOT
ATOM      1  C   UNL     1      27.612   6.624   7.614  1.00  0.00     0.000 C 
ENDROOT
BRANCH   1   2
ATOM      2  C   UNL     1      26.884   5.658   6.664  1.00  0.00     0.000 C 
BRANCH   2   3
ATOM      3  C   UNL     1      25.868   6.374   5.760  1.00  0.00     0.006 C 
BRANCH   3   4
ATOM      4  C   UNL     1      25.410   7.722   6.332  1.00  0.00     0.053 C 
BRANCH   4   5
ATOM      5  C   UNL     1      23.987   7.992   5.957  1.00  0.00     0.041 C 
ATOM      6  O   UNL     1      23.103   7.119   6.158  1.00  0.00    -0.550 OA
ATOM      7  O   UNL     1      23.630   9.227   5.430  1.00  0.00    -0.550 OA
ENDBRANCH   4   5
ENDBRANCH   3   4
ENDBRANCH   2   3
ENDBRANCH   1   2
BRANCH   1   8
ATOM      8  C   UNL     1      27.624   6.122   9.068  1.00  0.00     0.000 C 
BRANCH   8   9
ATOM      9  C   UNL     1      27.390   7.254  10.084  1.00  0.00     0.000 C 
BRANCH   9  10
ATOM     10  C   UNL     1      27.196   8.626   9.412  1.00  0.00     0.006 C 
BRANCH  10  11
ATOM     11  C   UNL     1      25.847   9.298   9.716  1.00  0.00     0.053 C 
BRANCH  11  12
ATOM     12  C   UNL     1      25.935  10.792   9.645  1.00  0.00     0.041 C 
ATOM     13  O   UNL     1      25.740  11.487  10.676  1.00  0.00    -0.550 OA
ATOM     14  O   UNL     1      26.266  11.413   8.448  1.00  0.00    -0.550 OA
ENDBRANCH  11  12
ENDBRANCH  10  11
ENDBRANCH   9  10
ENDBRANCH   8   9
ENDBRANCH   1   8
TORSDOF 9
ENDMDL
MODEL 2
REMARK VINA RESULT:    -4.441      0.237      4.479
REMARK INTER + INTRA:          -7.446
REMARK INTER:                  -6.733
REMARK INTRA:                  -0.712
REMARK UNBOUND:                -0.668
REMARK SMILES O=C([O-])CCCCCCCCC(=O)[O-]
REMARK SMILES IDX 7 1 6 2 5 3 4 4 2 5 1 6 3 7 8 8 9 9 10 10 11 11 12 12 13 13
REMARK SMILES IDX 14 14
REMARK H PARENT
REMARK Flexibility Score: inf
ROOT
ATOM      1  C   UNL     1      27.685   5.971   8.933  1.00  0.00     0.000 C 
ENDROOT
BRANCH   1   2
ATOM      2  C   UNL     1      27.476   7.039  10.021  1.00  0.00     0.000 C 
BRANCH   2   3
ATOM      3  C   UNL     1      27.272   8.446   9.437  1.00  0.00     0.006 C 
BRANCH   3   4
ATOM      4  C   UNL     1      25.898   9.037   9.779  1.00  0.00     0.053 C 
BRANCH   4   5
ATOM      5  C   UNL     1      25.890  10.513   9.533  1.00  0.00     0.041 C 
ATOM      6  O   UNL     1      25.867  11.317  10.501  1.00  0.00    -0.550 OA
ATOM      7  O   UNL     1      25.956  11.001   8.234  1.00  0.00    -0.550 OA
ENDBRANCH   4   5
ENDBRANCH   3   4
ENDBRANCH   2   3
ENDBRANCH   1   2
BRANCH   1   8
ATOM      8  C   UNL     1      27.658   6.564   7.514  1.00  0.00     0.000 C 
BRANCH   8   9
ATOM      9  C   UNL     1      26.967   5.635   6.500  1.00  0.00     0.000 C 
BRANCH   9  10
ATOM     10  C   UNL     1      25.822   6.331   5.741  1.00  0.00     0.006 C 
BRANCH  10  11
ATOM     11  C   UNL     1      25.426   7.704   6.307  1.00  0.00     0.053 C 
BRANCH  11  12
ATOM     12  C   UNL     1      24.011   8.064   5.968  1.00  0.00     0.041 C 
ATOM     13  O   UNL     1      23.743   9.201   5.499  1.00  0.00    -0.550 OA
ATOM     14  O   UNL     1      22.996   7.132   6.138  1.00  0.00    -0.550 OA
ENDBRANCH  11  12
ENDBRANCH  10  11
ENDBRANCH   9  10
ENDBRANCH   8   9
ENDBRANCH   1   8
TORSDOF 9
ENDMDL
MODEL 3
REMARK VINA RESULT:    -4.244     14.445     16.122
REMARK INTER + INTRA:          -7.145
REMARK INTER:                  -6.290
REMARK INTRA:                  -0.856
REMARK UNBOUND:                -0.668
REMARK SMILES O=C([O-])CCCCCCCCC(=O)[O-]
REMARK SMILES IDX 7 1 6 2 5 3 4 4 2 5 1 6 3 7 8 8 9 9 10 10 11 11 12 12 13 13
REMARK SMILES IDX 14 14
REMARK H PARENT
REMARK Flexibility Score: inf
ROOT
ATOM      1  C   UNL     1      14.581   3.607   2.031  1.00  0.00     0.000 C 
ENDROOT
BRANCH   1   2
ATOM      2  C   UNL     1      13.664   4.762   1.591  1.00  0.00     0.000 C 
BRANCH   2   3
ATOM      3  C   UNL     1      12.251   4.654   2.186  1.00  0.00     0.006 C 
BRANCH   3   4
ATOM      4  C   UNL     1      11.165   4.502   1.113  1.00  0.00     0.053 C 
BRANCH   4   5
ATOM      5  C   UNL     1      11.444   3.310   0.254  1.00  0.00     0.041 C 
ATOM      6  O   UNL     1      11.460   2.156   0.756  1.00  0.00    -0.550 OA
ATOM      7  O   UNL     1      11.640   3.469  -1.113  1.00  0.00    -0.550 OA
ENDBRANCH   4   5
ENDBRANCH   3   4
ENDBRANCH   2   3
ENDBRANCH   1   2
BRANCH   1   8
ATOM      8  C   UNL     1      15.250   2.900   0.841  1.00  0.00     0.000 C 
BRANCH   8   9
ATOM      9  C   UNL     1      15.566   3.864  -0.316  1.00  0.00     0.000 C 
BRANCH   9  10
ATOM     10  C   UNL     1      15.184   3.288  -1.692  1.00  0.00     0.006 C 
BRANCH  10  11
ATOM     11  C   UNL     1      14.698   1.829  -1.657  1.00  0.00     0.053 C 
BRANCH  11  12
ATOM     12  C   UNL     1      15.722   0.883  -2.207  1.00  0.00     0.041 C 
ATOM     13  O   UNL     1      15.362  -0.119  -2.878  1.00  0.00    -0.550 OA
ATOM     14  O   UNL     1      17.074   1.128  -2.006  1.00  0.00    -0.550 OA
ENDBRANCH  11  12
ENDBRANCH  10  11
ENDBRANCH   9  10
ENDBRANCH   8   9
ENDBRANCH   1   8
TORSDOF 9
ENDMDL
MODEL 4
REMARK VINA RESULT:    -4.226     13.622     16.314
REMARK INTER + INTRA:          -7.117
REMARK INTER:                  -6.269
REMARK INTRA:                  -0.848
REMARK UNBOUND:                -0.668
REMARK SMILES O=C([O-])CCCCCCCCC(=O)[O-]
REMARK SMILES IDX 7 1 6 2 5 3 4 4 2 5 1 6 3 7 8 8 9 9 10 10 11 11 12 12 13 13
REMARK SMILES IDX 14 14
REMARK H PARENT
REMARK Flexibility Score: inf
ROOT
ATOM      1  C   UNL     1      14.691   3.722  -1.721  1.00  0.00     0.000 C 
ENDROOT
BRANCH   1   2
ATOM      2  C   UNL     1      15.401   4.066  -0.400  1.00  0.00     0.000 C 
BRANCH   2   3
ATOM      3  C   UNL     1      15.507   2.858   0.545  1.00  0.00     0.006 C 
BRANCH   3   4
ATOM      4  C   UNL     1      15.044   3.177   1.972  1.00  0.00     0.053 C 
BRANCH   4   5
ATOM      5  C   UNL     1      14.886   1.918   2.763  1.00  0.00     0.041 C 
ATOM      6  O   UNL     1      14.222   0.955   2.297  1.00  0.00    -0.550 OA
ATOM      7  O   UNL     1      15.513   1.789   3.996  1.00  0.00    -0.550 OA
ENDBRANCH   4   5
ENDBRANCH   3   4
ENDBRANCH   2   3
ENDBRANCH   1   2
BRANCH   1   8
ATOM      8  C   UNL     1      13.327   3.048  -1.499  1.00  0.00     0.000 C 
BRANCH   8   9
ATOM      9  C   UNL     1      13.067   1.902  -2.493  1.00  0.00     0.000 C 
BRANCH   9  10
ATOM     10  C   UNL     1      13.030   0.521  -1.812  1.00  0.00     0.006 C 
BRANCH  10  11
ATOM     11  C   UNL     1      14.403  -0.002  -1.361  1.00  0.00     0.053 C 
BRANCH  11  12
ATOM     12  C   UNL     1      15.429   0.104  -2.449  1.00  0.00     0.041 C 
ATOM     13  O   UNL     1      16.432   0.850  -2.302  1.00  0.00    -0.550 OA
ATOM     14  O   UNL     1      15.292  -0.646  -3.609  1.00  0.00    -0.550 OA
ENDBRANCH  11  12
ENDBRANCH  10  11
ENDBRANCH   9  10
ENDBRANCH   8   9
ENDBRANCH   1   8
TORSDOF 9
ENDMDL
MODEL 5
REMARK VINA RESULT:    -4.214     14.885     16.009
REMARK INTER + INTRA:          -7.100
REMARK INTER:                  -6.220
REMARK INTRA:                  -0.880
REMARK UNBOUND:                -0.668
REMARK SMILES O=C([O-])CCCCCCCCC(=O)[O-]
REMARK SMILES IDX 7 1 6 2 5 3 4 4 2 5 1 6 3 7 8 8 9 9 10 10 11 11 12 12 13 13
REMARK SMILES IDX 14 14
REMARK H PARENT
REMARK Flexibility Score: inf
ROOT
ATOM      1  C   UNL     1      15.335   2.648   0.927  1.00  0.00     0.000 C 
ENDROOT
BRANCH   1   2
ATOM      2  C   UNL     1      15.748   3.516  -0.274  1.00  0.00     0.000 C 
BRANCH   2   3
ATOM      3  C   UNL     1      15.414   2.857  -1.622  1.00  0.00     0.006 C 
BRANCH   3   4
ATOM      4  C   UNL     1      16.040   1.464  -1.772  1.00  0.00     0.053 C 
BRANCH   4   5
ATOM      5  C   UNL     1      15.010   0.475  -2.220  1.00  0.00     0.041 C 
ATOM      6  O   UNL     1      13.867   0.468  -1.693  1.00  0.00    -0.550 OA
ATOM      7  O   UNL     1      15.298  -0.407  -3.254  1.00  0.00    -0.550 OA
ENDBRANCH   4   5
ENDBRANCH   3   4
ENDBRANCH   2   3
ENDBRANCH   1   2
BRANCH   1   8
ATOM      8  C   UNL     1      14.708   3.474   2.063  1.00  0.00     0.000 C 
BRANCH   8   9
ATOM      9  C   UNL     1      13.844   4.635   1.540  1.00  0.00     0.000 C 
BRANCH   9  10
ATOM     10  C   UNL     1      12.388   4.562   2.036  1.00  0.00     0.006 C 
BRANCH  10  11
ATOM     11  C   UNL     1      11.350   4.332   0.925  1.00  0.00     0.053 C 
BRANCH  11  12
ATOM     12  C   UNL     1      11.715   3.175   0.047  1.00  0.00     0.041 C 
ATOM     13  O   UNL     1      11.960   3.359  -1.174  1.00  0.00    -0.550 OA
ATOM     14  O   UNL     1      11.817   1.899   0.584  1.00  0.00    -0.550 OA
ENDBRANCH  11  12
ENDBRANCH  10  11
ENDBRANCH   9  10
ENDBRANCH   8   9
ENDBRANCH   1   8
TORSDOF 9
ENDMDL
MODEL 6
REMARK VINA RESULT:    -4.206     14.461     16.738
REMARK INTER + INTRA:          -7.087
REMARK INTER:                  -6.607
REMARK INTRA:                  -0.480
REMARK UNBOUND:                -0.668
REMARK SMILES O=C([O-])CCCCCCCCC(=O)[O-]
REMARK SMILES IDX 7 1 6 2 5 3 4 4 2 5 1 6 3 7 8 8 9 9 10 10 11 11 12 12 13 13
REMARK SMILES IDX 14 14
REMARK H PARENT
REMARK Flexibility Score: inf
ROOT
ATOM      1  C   UNL     1      11.749   4.083   1.340  1.00  0.00     0.000 C 
ENDROOT
BRANCH   1   2
ATOM      2  C   UNL     1      10.700   4.991   2.005  1.00  0.00     0.000 C 
BRANCH   2   3
ATOM      3  C   UNL     1       9.387   5.056   1.208  1.00  0.00     0.006 C 
BRANCH   3   4
ATOM      4  C   UNL     1       9.408   6.134   0.116  1.00  0.00     0.053 C 
BRANCH   4   5
ATOM      5  C   UNL     1       9.199   5.516  -1.231  1.00  0.00     0.041 C 
ATOM      6  O   UNL     1       9.074   4.268  -1.343  1.00  0.00    -0.550 OA
ATOM      7  O   UNL     1       9.094   6.323  -2.357  1.00  0.00    -0.550 OA
ENDBRANCH   4   5
ENDBRANCH   3   4
ENDBRANCH   2   3
ENDBRANCH   1   2
BRANCH   1   8
ATOM      8  C   UNL     1      13.189   4.526   1.646  1.00  0.00     0.000 C 
BRANCH   8   9
ATOM      9  C   UNL     1      14.090   3.352   2.068  1.00  0.00     0.000 C 
BRANCH   9  10
ATOM     10  C   UNL     1      15.233   3.091   1.068  1.00  0.00     0.006 C 
BRANCH  10  11
ATOM     11  C   UNL     1      15.357   4.143  -0.045  1.00  0.00     0.053 C 
BRANCH  11  12
ATOM     12  C   UNL     1      15.185   3.543  -1.407  1.00  0.00     0.041 C 
ATOM     13  O   UNL     1      14.542   4.161  -2.295  1.00  0.00    -0.550 OA
ATOM     14  O   UNL     1      15.762   2.315  -1.703  1.00  0.00    -0.550 OA
ENDBRANCH  11  12
ENDBRANCH  10  11
ENDBRANCH   9  10
ENDBRANCH   8   9
ENDBRANCH   1   8
TORSDOF 9
ENDMDL
MODEL 7
REMARK VINA RESULT:    -4.159     14.846     16.342
REMARK INTER + INTRA:          -7.015
REMARK INTER:                  -6.197
REMARK INTRA:                  -0.818
REMARK UNBOUND:                -0.668
REMARK SMILES O=C([O-])CCCCCCCCC(=O)[O-]
REMARK SMILES IDX 7 1 6 2 5 3 4 4 2 5 1 6 3 7 8 8 9 9 10 10 11 11 12 12 13 13
REMARK SMILES IDX 14 14
REMARK H PARENT
REMARK Flexibility Score: inf
ROOT
ATOM      1  C   UNL     1      15.386   2.812   0.922  1.00  0.00     0.000 C 
ENDROOT
BRANCH   1   2
ATOM      2  C   UNL     1      14.494   3.424   2.015  1.00  0.00     0.000 C 
BRANCH   2   3
ATOM      3  C   UNL     1      13.743   4.675   1.532  1.00  0.00     0.006 C 
BRANCH   3   4
ATOM      4  C   UNL     1      12.261   4.668   1.928  1.00  0.00     0.053 C 
BRANCH   4   5
ATOM      5  C   UNL     1      11.471   3.826   0.976  1.00  0.00     0.041 C 
ATOM      6  O   UNL     1      10.347   3.371   1.315  1.00  0.00    -0.550 OA
ATOM      7  O   UNL     1      11.955   3.585  -0.304  1.00  0.00    -0.550 OA
ENDBRANCH   4   5
ENDBRANCH   3   4
ENDBRANCH   2   3
ENDBRANCH   1   2
BRANCH   1   8
ATOM      8  C   UNL     1      15.587   3.758  -0.273  1.00  0.00     0.000 C 
BRANCH   8   9
ATOM      9  C   UNL     1      15.393   3.051  -1.626  1.00  0.00     0.000 C 
BRANCH   9  10
ATOM     10  C   UNL     1      15.970   1.622  -1.638  1.00  0.00     0.006 C 
BRANCH  10  11
ATOM     11  C   UNL     1      15.042   0.567  -2.261  1.00  0.00     0.053 C 
BRANCH  11  12
ATOM     12  C   UNL     1      13.609   0.785  -1.880  1.00  0.00     0.041 C 
ATOM     13  O   UNL     1      12.785   1.205  -2.733  1.00  0.00    -0.550 OA
ATOM     14  O   UNL     1      13.180   0.491  -0.593  1.00  0.00    -0.550 OA
ENDBRANCH  11  12
ENDBRANCH  10  11
ENDBRANCH   9  10
ENDBRANCH   8   9
ENDBRANCH   1   8
TORSDOF 9
ENDMDL
MODEL 8
REMARK VINA RESULT:    -4.133     11.438     13.488
REMARK INTER + INTRA:          -6.976
REMARK INTER:                  -6.611
REMARK INTRA:                  -0.364
REMARK UNBOUND:                -0.668
REMARK SMILES O=C([O-])CCCCCCCCC(=O)[O-]
REMARK SMILES IDX 7 1 6 2 5 3 4 4 2 5 1 6 3 7 8 8 9 9 10 10 11 11 12 12 13 13
REMARK SMILES IDX 14 14
REMARK H PARENT
REMARK Flexibility Score: inf
ROOT
ATOM      1  C   UNL     1      14.854   2.921   2.366  1.00  0.00     0.000 C 
ENDROOT
BRANCH   1   2
ATOM      2  C   UNL     1      15.240   2.356   0.988  1.00  0.00     0.000 C 
BRANCH   2   3
ATOM      3  C   UNL     1      15.691   3.449   0.007  1.00  0.00     0.006 C 
BRANCH   3   4
ATOM      4  C   UNL     1      15.491   3.049  -1.461  1.00  0.00     0.053 C 
BRANCH   4   5
ATOM      5  C   UNL     1      16.128   1.723  -1.731  1.00  0.00     0.041 C 
ATOM      6  O   UNL     1      15.432   0.756  -2.138  1.00  0.00    -0.550 OA
ATOM      7  O   UNL     1      17.500   1.568  -1.579  1.00  0.00    -0.550 OA
ENDBRANCH   4   5
ENDBRANCH   3   4
ENDBRANCH   2   3
ENDBRANCH   1   2
BRANCH   1   8
ATOM      8  C   UNL     1      15.350   2.039   3.524  1.00  0.00     0.000 C 
BRANCH   8   9
ATOM      9  C   UNL     1      14.282   1.844   4.616  1.00  0.00     0.000 C 
BRANCH   9  10
ATOM     10  C   UNL     1      14.889   1.723   6.026  1.00  0.00     0.006 C 
BRANCH  10  11
ATOM     11  C   UNL     1      16.348   2.194   6.133  1.00  0.00     0.053 C 
BRANCH  11  12
ATOM     12  C   UNL     1      17.250   1.113   6.646  1.00  0.00     0.041 C 
ATOM     13  O   UNL     1      17.216  -0.036   6.134  1.00  0.00    -0.550 OA
ATOM     14  O   UNL     1      18.151   1.385   7.667  1.00  0.00    -0.550 OA
ENDBRANCH  11  12
ENDBRANCH  10  11
ENDBRANCH   9  10
ENDBRANCH   8   9
ENDBRANCH   1   8
TORSDOF 9
ENDMDL
MODEL 9
REMARK VINA RESULT:    -4.130     14.344     16.733
REMARK INTER + INTRA:          -6.970
REMARK INTER:                  -6.183
REMARK INTRA:                  -0.787
REMARK UNBOUND:                -0.668
REMARK SMILES O=C([O-])CCCCCCCCC(=O)[O-]
REMARK SMILES IDX 7 1 6 2 5 3 4 4 2 5 1 6 3 7 8 8 9 9 10 10 11 11 12 12 13 13
REMARK SMILES IDX 14 14
REMARK H PARENT
REMARK Flexibility Score: inf
ROOT
ATOM      1  C   UNL     1      14.103  16.960  -0.112  1.00  0.00     0.000 C 
ENDROOT
BRANCH   1   2
ATOM      2  C   UNL     1      13.741  18.383  -0.574  1.00  0.00     0.000 C 
BRANCH   2   3
ATOM      3  C   UNL     1      14.321  18.720  -1.957  1.00  0.00     0.006 C 
BRANCH   3   4
ATOM      4  C   UNL     1      14.562  17.475  -2.819  1.00  0.00     0.053 C 
BRANCH   4   5
ATOM      5  C   UNL     1      13.406  17.246  -3.741  1.00  0.00     0.041 C 
ATOM      6  O   UNL     1      13.502  17.536  -4.962  1.00  0.00    -0.550 OA
ATOM      7  O   UNL     1      12.238  16.667  -3.259  1.00  0.00    -0.550 OA
ENDBRANCH   4   5
ENDBRANCH   3   4
ENDBRANCH   2   3
ENDBRANCH   1   2
BRANCH   1   8
ATOM      8  C   UNL     1      14.656  16.929   1.322  1.00  0.00     0.000 C 
BRANCH   8   9
ATOM      9  C   UNL     1      15.570  18.129   1.628  1.00  0.00     0.000 C 
BRANCH   9  10
ATOM     10  C   UNL     1      17.013  17.707   1.961  1.00  0.00     0.006 C 
BRANCH  10  11
ATOM     11  C   UNL     1      17.997  17.824   0.784  1.00  0.00     0.053 C 
BRANCH  11  12
ATOM     12  C   UNL     1      18.238  16.503   0.121  1.00  0.00     0.041 C 
ATOM     13  O   UNL     1      19.187  15.768   0.499  1.00  0.00    -0.550 OA
ATOM     14  O   UNL     1      17.393  16.069  -0.893  1.00  0.00    -0.550 OA
ENDBRANCH  11  12
ENDBRANCH  10  11
ENDBRANCH   9  10
ENDBRANCH   8   9
ENDBRANCH   1   8
TORSDOF 9
ENDMDL
