MODEL 1
REMARK VINA RESULT:    -3.297      0.000      0.000
REMARK INTER + INTRA:          -3.986
REMARK INTER:                  -3.875
REMARK INTRA:                  -0.110
REMARK UNBOUND:                -0.110
REMARK SMILES O=C([O-])CCC(=O)[O-]
REMARK SMILES IDX 4 1 2 2 1 3 3 4 5 5 6 6 7 7 8 8
REMARK H PARENT
REMARK Flexibility Score: inf
ROOT
ATOM      1  C   UNL     1     139.281 138.209 123.247  1.00  0.00     0.059 C 
ENDROOT
BRANCH   1   2
ATOM      2  C   UNL     1     139.316 137.381 124.492  1.00  0.00     0.042 C 
ATOM      3  O   UNL     1     139.140 136.135 124.431  1.00  0.00    -0.550 OA
ATOM      4  O   UNL     1     139.593 137.977 125.715  1.00  0.00    -0.550 OA
ENDBRANCH   1   2
BRANCH   1   5
ATOM      5  C   UNL     1     137.887 138.801 123.036  1.00  0.00     0.059 C 
BRANCH   5   6
ATOM      6  C   UNL     1     137.234 138.189 121.837  1.00  0.00     0.042 C 
ATOM      7  O   UNL     1     137.417 136.973 121.568  1.00  0.00    -0.550 OA
ATOM      8  O   UNL     1     136.385 138.950 121.044  1.00  0.00    -0.550 OA
ENDBRANCH   5   6
ENDBRANCH   1   5
TORSDOF 3
ENDMDL
MODEL 2
REMARK VINA RESULT:    -3.292     11.639     12.560
REMARK INTER + INTRA:          -3.980
REMARK INTER:                  -3.870
REMARK INTRA:                  -0.109
REMARK UNBOUND:                -0.110
REMARK SMILES O=C([O-])CCC(=O)[O-]
REMARK SMILES IDX 4 1 2 2 1 3 3 4 5 5 6 6 7 7 8 8
REMARK H PARENT
REMARK Flexibility Score: inf
ROOT
ATOM      1  C   UNL     1     135.742 126.062 123.094  1.00  0.00     0.059 C 
ENDROOT
BRANCH   1   2
ATOM      2  C   UNL     1     135.645 126.969 121.909  1.00  0.00     0.042 C 
ATOM      3  O   UNL     1     134.528 127.422 121.545  1.00  0.00    -0.550 OA
ATOM      4  O   UNL     1     136.796 127.357 121.235  1.00  0.00    -0.550 OA
ENDBRANCH   1   2
BRANCH   1   5
ATOM      5  C   UNL     1     134.444 125.272 123.270  1.00  0.00     0.059 C 
BRANCH   5   6
ATOM      6  C   UNL     1     133.737 125.698 124.518  1.00  0.00     0.042 C 
ATOM      7  O   UNL     1     132.784 126.518 124.457  1.00  0.00    -0.550 OA
ATOM      8  O   UNL     1     134.100 125.154 125.743  1.00  0.00    -0.550 OA
ENDBRANCH   5   6
ENDBRANCH   1   5
TORSDOF 3
ENDMDL
MODEL 3
REMARK VINA RESULT:    -3.290     11.613     12.604
REMARK INTER + INTRA:          -3.977
REMARK INTER:                  -3.872
REMARK INTRA:                  -0.105
REMARK UNBOUND:                -0.110
REMARK SMILES O=C([O-])CCC(=O)[O-]
REMARK SMILES IDX 4 1 2 2 1 3 3 4 5 5 6 6 7 7 8 8
REMARK H PARENT
REMARK Flexibility Score: inf
ROOT
ATOM      1  C   UNL     1     125.780 134.474 123.072  1.00  0.00     0.059 C 
ENDROOT
BRANCH   1   2
ATOM      2  C   UNL     1     126.598 134.090 121.880  1.00  0.00     0.042 C 
ATOM      3  O   UNL     1     127.543 134.828 121.495  1.00  0.00    -0.550 OA
ATOM      4  O   UNL     1     126.349 132.892 121.223  1.00  0.00    -0.550 OA
ENDBRANCH   1   2
BRANCH   1   5
ATOM      5  C   UNL     1     125.757 135.994 123.239  1.00  0.00     0.059 C 
BRANCH   5   6
ATOM      6  C   UNL     1     126.435 136.391 124.513  1.00  0.00     0.042 C 
ATOM      7  O   UNL     1     127.599 136.870 124.488  1.00  0.00    -0.550 OA
ATOM      8  O   UNL     1     125.762 136.277 125.722  1.00  0.00    -0.550 OA
ENDBRANCH   5   6
ENDBRANCH   1   5
TORSDOF 3
ENDMDL
MODEL 4
REMARK VINA RESULT:    -3.284     11.630     12.317
REMARK INTER + INTRA:          -3.971
REMARK INTER:                  -3.860
REMARK INTRA:                  -0.111
REMARK UNBOUND:                -0.110
REMARK SMILES O=C([O-])CCC(=O)[O-]
REMARK SMILES IDX 4 1 2 2 1 3 3 4 5 5 6 6 7 7 8 8
REMARK H PARENT
REMARK Flexibility Score: inf
ROOT
ATOM      1  C   UNL     1     134.422 125.304 123.259  1.00  0.00     0.059 C 
ENDROOT
BRANCH   1   2
ATOM      2  C   UNL     1     133.762 125.692 124.544  1.00  0.00     0.042 C 
ATOM      3  O   UNL     1     132.842 126.551 124.550  1.00  0.00    -0.550 OA
ATOM      4  O   UNL     1     134.129 125.068 125.729  1.00  0.00    -0.550 OA
ENDBRANCH   1   2
BRANCH   1   5
ATOM      5  C   UNL     1     135.732 126.071 123.076  1.00  0.00     0.059 C 
BRANCH   5   6
ATOM      6  C   UNL     1     135.640 126.990 121.898  1.00  0.00     0.042 C 
ATOM      7  O   UNL     1     134.524 127.447 121.537  1.00  0.00    -0.550 OA
ATOM      8  O   UNL     1     136.793 127.378 121.228  1.00  0.00    -0.550 OA
ENDBRANCH   5   6
ENDBRANCH   1   5
TORSDOF 3
ENDMDL
MODEL 5
REMARK VINA RESULT:    -3.283      0.086      3.859
REMARK INTER + INTRA:          -3.969
REMARK INTER:                  -3.857
REMARK INTRA:                  -0.112
REMARK UNBOUND:                -0.110
REMARK SMILES O=C([O-])CCC(=O)[O-]
REMARK SMILES IDX 4 1 2 2 1 3 3 4 5 5 6 6 7 7 8 8
REMARK H PARENT
REMARK Flexibility Score: inf
ROOT
ATOM      1  C   UNL     1     137.969 138.800 123.066  1.00  0.00     0.059 C 
ENDROOT
BRANCH   1   2
ATOM      2  C   UNL     1     137.286 138.222 121.868  1.00  0.00     0.042 C 
ATOM      3  O   UNL     1     137.461 137.013 121.560  1.00  0.00    -0.550 OA
ATOM      4  O   UNL     1     136.417 139.004 121.119  1.00  0.00    -0.550 OA
ENDBRANCH   1   2
BRANCH   1   5
ATOM      5  C   UNL     1     139.328 138.134 123.282  1.00  0.00     0.059 C 
BRANCH   5   6
ATOM      6  C   UNL     1     139.332 137.354 124.559  1.00  0.00     0.042 C 
ATOM      7  O   UNL     1     139.104 136.115 124.545  1.00  0.00    -0.550 OA
ATOM      8  O   UNL     1     139.633 137.985 125.759  1.00  0.00    -0.550 OA
ENDBRANCH   5   6
ENDBRANCH   1   5
TORSDOF 3
ENDMDL
MODEL 6
REMARK VINA RESULT:    -3.273     11.595     12.333
REMARK INTER + INTRA:          -3.958
REMARK INTER:                  -3.858
REMARK INTRA:                  -0.100
REMARK UNBOUND:                -0.110
REMARK SMILES O=C([O-])CCC(=O)[O-]
REMARK SMILES IDX 4 1 2 2 1 3 3 4 5 5 6 6 7 7 8 8
REMARK H PARENT
REMARK Flexibility Score: inf
ROOT
ATOM      1  C   UNL     1     125.822 135.928 123.246  1.00  0.00     0.059 C 
ENDROOT
BRANCH   1   2
ATOM      2  C   UNL     1     126.464 136.323 124.538  1.00  0.00     0.042 C 
ATOM      3  O   UNL     1     127.633 136.792 124.548  1.00  0.00    -0.550 OA
ATOM      4  O   UNL     1     125.753 136.221 125.727  1.00  0.00    -0.550 OA
ENDBRANCH   1   2
BRANCH   1   5
ATOM      5  C   UNL     1     125.814 134.406 123.095  1.00  0.00     0.059 C 
BRANCH   5   6
ATOM      6  C   UNL     1     126.610 133.995 121.897  1.00  0.00     0.042 C 
ATOM      7  O   UNL     1     127.580 134.698 121.510  1.00  0.00    -0.550 OA
ATOM      8  O   UNL     1     126.311 132.811 121.237  1.00  0.00    -0.550 OA
ENDBRANCH   5   6
ENDBRANCH   1   5
TORSDOF 3
ENDMDL
MODEL 7
REMARK VINA RESULT:    -3.248      2.187      4.328
REMARK INTER + INTRA:          -3.928
REMARK INTER:                  -3.800
REMARK INTRA:                  -0.128
REMARK UNBOUND:                -0.110
REMARK SMILES O=C([O-])CCC(=O)[O-]
REMARK SMILES IDX 4 1 2 2 1 3 3 4 5 5 6 6 7 7 8 8
REMARK H PARENT
REMARK Flexibility Score: inf
ROOT
ATOM      1  C   UNL     1     138.454 137.947 124.877  1.00  0.00     0.059 C 
ENDROOT
BRANCH   1   2
ATOM      2  C   UNL     1     139.061 137.683 123.535  1.00  0.00     0.042 C 
ATOM      3  O   UNL     1     139.968 138.436 123.091  1.00  0.00    -0.550 OA
ATOM      4  O   UNL     1     138.661 136.578 122.797  1.00  0.00    -0.550 OA
ENDBRANCH   1   2
BRANCH   1   5
ATOM      5  C   UNL     1     139.412 137.522 125.991  1.00  0.00     0.059 C 
BRANCH   5   6
ATOM      6  C   UNL     1     139.094 136.134 126.452  1.00  0.00     0.042 C 
ATOM      7  O   UNL     1     138.255 135.950 127.372  1.00  0.00    -0.550 OA
ATOM      8  O   UNL     1     139.691 135.043 125.834  1.00  0.00    -0.550 OA
ENDBRANCH   5   6
ENDBRANCH   1   5
TORSDOF 3
ENDMDL
MODEL 8
REMARK VINA RESULT:    -3.220     11.006     12.169
REMARK INTER + INTRA:          -3.896
REMARK INTER:                  -3.766
REMARK INTRA:                  -0.130
REMARK UNBOUND:                -0.110
REMARK SMILES O=C([O-])CCC(=O)[O-]
REMARK SMILES IDX 4 1 2 2 1 3 3 4 5 5 6 6 7 7 8 8
REMARK H PARENT
REMARK Flexibility Score: inf
ROOT
ATOM      1  C   UNL     1     126.275 135.309 124.965  1.00  0.00     0.059 C 
ENDROOT
BRANCH   1   2
ATOM      2  C   UNL     1     126.233 135.982 123.630  1.00  0.00     0.042 C 
ATOM      3  O   UNL     1     125.134 136.353 123.141  1.00  0.00    -0.550 OA
ATOM      4  O   UNL     1     127.414 136.247 122.948  1.00  0.00    -0.550 OA
ENDBRANCH   1   2
BRANCH   1   5
ATOM      5  C   UNL     1     126.256 136.345 126.089  1.00  0.00     0.059 C 
BRANCH   5   6
ATOM      6  C   UNL     1     127.652 136.731 126.468  1.00  0.00     0.042 C 
ATOM      7  O   UNL     1     128.293 136.046 127.307  1.00  0.00    -0.550 OA
ATOM      8  O   UNL     1     128.261 137.820 125.858  1.00  0.00    -0.550 OA
ENDBRANCH   5   6
ENDBRANCH   1   5
TORSDOF 3
ENDMDL
MODEL 9
REMARK VINA RESULT:    -3.217      1.957      2.580
REMARK INTER + INTRA:          -3.892
REMARK INTER:                  -3.800
REMARK INTRA:                  -0.092
REMARK UNBOUND:                -0.110
REMARK SMILES O=C([O-])CCC(=O)[O-]
REMARK SMILES IDX 4 1 2 2 1 3 3 4 5 5 6 6 7 7 8 8
REMARK H PARENT
REMARK Flexibility Score: inf
ROOT
ATOM      1  C   UNL     1     139.363 137.514 125.837  1.00  0.00     0.059 C 
ENDROOT
BRANCH   1   2
ATOM      2  C   UNL     1     139.139 136.135 126.372  1.00  0.00     0.042 C 
ATOM      3  O   UNL     1     138.402 135.957 127.378  1.00  0.00    -0.550 OA
ATOM      4  O   UNL     1     139.704 135.040 125.731  1.00  0.00    -0.550 OA
ENDBRANCH   1   2
BRANCH   1   5
ATOM      5  C   UNL     1     138.175 137.956 124.983  1.00  0.00     0.059 C 
BRANCH   5   6
ATOM      6  C   UNL     1     138.621 138.277 123.591  1.00  0.00     0.042 C 
ATOM      7  O   UNL     1     139.693 137.792 123.143  1.00  0.00    -0.550 OA
ATOM      8  O   UNL     1     137.830 139.073 122.773  1.00  0.00    -0.550 OA
ENDBRANCH   5   6
ENDBRANCH   1   5
TORSDOF 3
ENDMDL
