MODEL 1
REMARK VINA RESULT:    -4.410      0.000      0.000
REMARK INTER + INTRA:          -4.810
REMARK INTER:                  -4.797
REMARK INTRA:                  -0.013
REMARK UNBOUND:                -0.013
REMARK SMILES OCc1ccccc1
REMARK SMILES IDX 2 1 3 2 6 3 5 4 7 5 4 6 8 7 1 8
REMARK H PARENT 1 9
REMARK Flexibility Score: inf
ROOT
ATOM      1  C   UNL     1      20.817  30.100 -22.969  1.00  0.00     0.191 C 
ENDROOT
BRANCH   1   2
ATOM      2  C   UNL     1      19.594  30.927 -22.697  1.00  0.00    -0.023 A 
ATOM      3  C   UNL     1      17.276  32.448 -22.261  1.00  0.00     0.000 A 
ATOM      4  C   UNL     1      18.357  33.004 -22.949  1.00  0.00     0.000 A 
ATOM      5  C   UNL     1      17.344  31.130 -21.799  1.00  0.00     0.000 A 
ATOM      6  C   UNL     1      19.512  32.247 -23.174  1.00  0.00     0.006 A 
ATOM      7  C   UNL     1      18.497  30.369 -22.021  1.00  0.00     0.006 A 
ENDBRANCH   1   2
BRANCH   1   8
ATOM      8  O   UNL     1      21.016  30.009 -24.351  1.00  0.00    -0.392 OA
ATOM      9  H   UNL     1      20.885  29.053 -24.586  1.00  0.00     0.211 HD
ENDBRANCH   1   8
TORSDOF 2
ENDMDL
MODEL 2
REMARK VINA RESULT:    -4.393      0.071      1.715
REMARK INTER + INTRA:          -4.792
REMARK INTER:                  -4.779
REMARK INTRA:                  -0.013
REMARK UNBOUND:                -0.013
REMARK SMILES OCc1ccccc1
REMARK SMILES IDX 2 1 3 2 6 3 5 4 7 5 4 6 8 7 1 8
REMARK H PARENT 1 9
REMARK Flexibility Score: inf
ROOT
ATOM      1  C   UNL     1      20.763  30.001 -22.960  1.00  0.00     0.191 C 
ENDROOT
BRANCH   1   2
ATOM      2  C   UNL     1      19.544  30.848 -22.739  1.00  0.00    -0.023 A 
ATOM      3  C   UNL     1      17.296  32.456 -22.254  1.00  0.00     0.000 A 
ATOM      4  C   UNL     1      17.322  31.136 -21.796  1.00  0.00     0.000 A 
ATOM      5  C   UNL     1      18.393  32.980 -22.942  1.00  0.00     0.000 A 
ATOM      6  C   UNL     1      18.443  30.334 -22.032  1.00  0.00     0.006 A 
ATOM      7  C   UNL     1      19.517  32.181 -23.180  1.00  0.00     0.006 A 
ENDBRANCH   1   2
BRANCH   1   8
ATOM      8  O   UNL     1      21.076  29.987 -24.324  1.00  0.00    -0.392 OA
ATOM      9  H   UNL     1      22.062  29.877 -24.379  1.00  0.00     0.211 HD
ENDBRANCH   1   8
TORSDOF 2
ENDMDL
MODEL 3
REMARK VINA RESULT:    -4.393      8.931     10.173
REMARK INTER + INTRA:          -4.792
REMARK INTER:                  -4.779
REMARK INTRA:                  -0.013
REMARK UNBOUND:                -0.013
REMARK SMILES OCc1ccccc1
REMARK SMILES IDX 2 1 3 2 6 3 5 4 7 5 4 6 8 7 1 8
REMARK H PARENT 1 9
REMARK Flexibility Score: inf
ROOT
ATOM      1  C   UNL     1      25.531  22.154 -26.517  1.00  0.00     0.191 C 
ENDROOT
BRANCH   1   2
ATOM      2  C   UNL     1      24.514  22.765 -25.598  1.00  0.00    -0.023 A 
ATOM      3  C   UNL     1      22.648  23.983 -23.891  1.00  0.00     0.000 A 
ATOM      4  C   UNL     1      23.836  23.463 -23.370  1.00  0.00     0.000 A 
ATOM      5  C   UNL     1      22.394  23.908 -25.263  1.00  0.00     0.000 A 
ATOM      6  C   UNL     1      24.770  22.861 -24.220  1.00  0.00     0.006 A 
ATOM      7  C   UNL     1      23.325  23.306 -26.116  1.00  0.00     0.006 A 
ENDBRANCH   1   2
BRANCH   1   8
ATOM      8  O   UNL     1      25.816  20.852 -26.091  1.00  0.00    -0.392 OA
ATOM      9  H   UNL     1      26.173  20.374 -26.885  1.00  0.00     0.211 HD
ENDBRANCH   1   8
TORSDOF 2
ENDMDL
MODEL 4
REMARK VINA RESULT:    -4.353      8.847     10.030
REMARK INTER + INTRA:          -4.748
REMARK INTER:                  -4.733
REMARK INTRA:                  -0.015
REMARK UNBOUND:                -0.013
REMARK SMILES OCc1ccccc1
REMARK SMILES IDX 2 1 3 2 6 3 5 4 7 5 4 6 8 7 1 8
REMARK H PARENT 1 9
REMARK Flexibility Score: inf
ROOT
ATOM      1  C   UNL     1      25.498  22.225 -26.413  1.00  0.00     0.191 C 
ENDROOT
BRANCH   1   2
ATOM      2  C   UNL     1      24.517  22.886 -25.489  1.00  0.00    -0.023 A 
ATOM      3  C   UNL     1      22.642  24.048 -23.754  1.00  0.00     0.000 A 
ATOM      4  C   UNL     1      22.408  24.040 -25.131  1.00  0.00     0.000 A 
ATOM      5  C   UNL     1      23.804  23.467 -23.239  1.00  0.00     0.000 A 
ATOM      6  C   UNL     1      23.337  23.456 -25.998  1.00  0.00     0.006 A 
ATOM      7  C   UNL     1      24.737  22.883 -24.101  1.00  0.00     0.006 A 
ENDBRANCH   1   2
BRANCH   1   8
ATOM      8  O   UNL     1      25.802  20.948 -25.929  1.00  0.00    -0.392 OA
ATOM      9  H   UNL     1      25.783  21.017 -24.939  1.00  0.00     0.211 HD
ENDBRANCH   1   8
TORSDOF 2
ENDMDL
MODEL 5
REMARK VINA RESULT:    -4.211     18.735     19.689
REMARK INTER + INTRA:          -4.593
REMARK INTER:                  -4.576
REMARK INTRA:                  -0.017
REMARK UNBOUND:                -0.013
REMARK SMILES OCc1ccccc1
REMARK SMILES IDX 2 1 3 2 6 3 5 4 7 5 4 6 8 7 1 8
REMARK H PARENT 1 9
REMARK Flexibility Score: inf
ROOT
ATOM      1  C   UNL     1      34.375  31.234 -10.794  1.00  0.00     0.191 C 
ENDROOT
BRANCH   1   2
ATOM      2  C   UNL     1      35.164  31.377 -12.064  1.00  0.00    -0.023 A 
ATOM      3  C   UNL     1      36.680  31.577 -14.417  1.00  0.00     0.000 A 
ATOM      4  C   UNL     1      37.121  32.200 -13.246  1.00  0.00     0.000 A 
ATOM      5  C   UNL     1      35.490  30.845 -14.413  1.00  0.00     0.000 A 
ATOM      6  C   UNL     1      36.371  32.098 -12.071  1.00  0.00     0.006 A 
ATOM      7  C   UNL     1      34.736  30.740 -13.240  1.00  0.00     0.006 A 
ENDBRANCH   1   2
BRANCH   1   8
ATOM      8  O   UNL     1      34.540  32.383 -10.015  1.00  0.00    -0.392 OA
ATOM      9  H   UNL     1      35.459  32.333  -9.640  1.00  0.00     0.211 HD
ENDBRANCH   1   8
TORSDOF 2
ENDMDL
MODEL 6
REMARK VINA RESULT:    -4.197     10.281     11.136
REMARK INTER + INTRA:          -4.578
REMARK INTER:                  -4.566
REMARK INTRA:                  -0.012
REMARK UNBOUND:                -0.013
REMARK SMILES OCc1ccccc1
REMARK SMILES IDX 2 1 3 2 6 3 5 4 7 5 4 6 8 7 1 8
REMARK H PARENT 1 9
REMARK Flexibility Score: inf
ROOT
ATOM      1  C   UNL     1      19.500  27.404 -10.845  1.00  0.00     0.191 C 
ENDROOT
BRANCH   1   2
ATOM      2  C   UNL     1      18.863  27.409 -12.204  1.00  0.00    -0.023 A 
ATOM      3  C   UNL     1      17.623  27.483 -14.721  1.00  0.00     0.000 A 
ATOM      4  C   UNL     1      17.083  26.698 -13.699  1.00  0.00     0.000 A 
ATOM      5  C   UNL     1      18.774  28.241 -14.487  1.00  0.00     0.000 A 
ATOM      6  C   UNL     1      17.695  26.664 -12.442  1.00  0.00     0.006 A 
ATOM      7  C   UNL     1      19.390  28.209 -13.231  1.00  0.00     0.006 A 
ENDBRANCH   1   2
BRANCH   1   8
ATOM      8  O   UNL     1      19.860  26.094 -10.508  1.00  0.00    -0.392 OA
ATOM      9  H   UNL     1      19.173  25.777  -9.864  1.00  0.00     0.211 HD
ENDBRANCH   1   8
TORSDOF 2
ENDMDL
MODEL 7
REMARK VINA RESULT:    -4.192     10.330     11.066
REMARK INTER + INTRA:          -4.573
REMARK INTER:                  -4.560
REMARK INTRA:                  -0.013
REMARK UNBOUND:                -0.013
REMARK SMILES OCc1ccccc1
REMARK SMILES IDX 2 1 3 2 6 3 5 4 7 5 4 6 8 7 1 8
REMARK H PARENT 1 9
REMARK Flexibility Score: inf
ROOT
ATOM      1  C   UNL     1      19.504  27.378 -10.815  1.00  0.00     0.191 C 
ENDROOT
BRANCH   1   2
ATOM      2  C   UNL     1      18.824  27.399 -12.154  1.00  0.00    -0.023 A 
ATOM      3  C   UNL     1      17.600  27.373 -14.679  1.00  0.00     0.000 A 
ATOM      4  C   UNL     1      18.759  28.126 -14.472  1.00  0.00     0.000 A 
ATOM      5  C   UNL     1      17.057  26.623 -13.632  1.00  0.00     0.000 A 
ATOM      6  C   UNL     1      19.374  28.136 -13.216  1.00  0.00     0.006 A 
ATOM      7  C   UNL     1      17.669  26.631 -12.375  1.00  0.00     0.006 A 
ENDBRANCH   1   2
BRANCH   1   8
ATOM      8  O   UNL     1      19.875  26.065 -10.505  1.00  0.00    -0.392 OA
ATOM      9  H   UNL     1      20.760  26.127 -10.059  1.00  0.00     0.211 HD
ENDBRANCH   1   8
TORSDOF 2
ENDMDL
MODEL 8
REMARK VINA RESULT:    -4.066     12.395     13.202
REMARK INTER + INTRA:          -4.436
REMARK INTER:                  -4.420
REMARK INTRA:                  -0.016
REMARK UNBOUND:                -0.013
REMARK SMILES OCc1ccccc1
REMARK SMILES IDX 2 1 3 2 6 3 5 4 7 5 4 6 8 7 1 8
REMARK H PARENT 1 9
REMARK Flexibility Score: inf
ROOT
ATOM      1  C   UNL     1      32.027  36.927 -21.420  1.00  0.00     0.191 C 
ENDROOT
BRANCH   1   2
ATOM      2  C   UNL     1      30.931  37.470 -22.291  1.00  0.00    -0.023 A 
ATOM      3  C   UNL     1      28.917  38.560 -23.913  1.00  0.00     0.000 A 
ATOM      4  C   UNL     1      28.754  38.524 -22.525  1.00  0.00     0.000 A 
ATOM      5  C   UNL     1      30.088  38.064 -24.492  1.00  0.00     0.000 A 
ATOM      6  C   UNL     1      29.758  37.987 -21.714  1.00  0.00     0.006 A 
ATOM      7  C   UNL     1      31.095  37.525 -23.685  1.00  0.00     0.006 A 
ENDBRANCH   1   2
BRANCH   1   8
ATOM      8  O   UNL     1      31.463  36.198 -20.367  1.00  0.00    -0.392 OA
ATOM      9  H   UNL     1      31.275  35.293 -20.729  1.00  0.00     0.211 HD
ENDBRANCH   1   8
TORSDOF 2
ENDMDL
MODEL 9
REMARK VINA RESULT:    -4.049     12.280     13.424
REMARK INTER + INTRA:          -4.417
REMARK INTER:                  -4.406
REMARK INTRA:                  -0.010
REMARK UNBOUND:                -0.013
REMARK SMILES OCc1ccccc1
REMARK SMILES IDX 2 1 3 2 6 3 5 4 7 5 4 6 8 7 1 8
REMARK H PARENT 1 9
REMARK Flexibility Score: inf
ROOT
ATOM      1  C   UNL     1      31.175  30.812 -18.880  1.00  0.00     0.191 C 
ENDROOT
BRANCH   1   2
ATOM      2  C   UNL     1      31.666  32.084 -19.509  1.00  0.00    -0.023 A 
ATOM      3  C   UNL     1      32.588  34.422 -20.757  1.00  0.00     0.000 A 
ATOM      4  C   UNL     1      33.501  33.513 -20.214  1.00  0.00     0.000 A 
ATOM      5  C   UNL     1      31.217  34.161 -20.688  1.00  0.00     0.000 A 
ATOM      6  C   UNL     1      33.044  32.344 -19.597  1.00  0.00     0.006 A 
ATOM      7  C   UNL     1      30.756  32.994 -20.071  1.00  0.00     0.006 A 
ENDBRANCH   1   2
BRANCH   1   8
ATOM      8  O   UNL     1      31.122  29.806 -19.851  1.00  0.00    -0.392 OA
ATOM      9  H   UNL     1      30.467  30.114 -20.531  1.00  0.00     0.211 HD
ENDBRANCH   1   8
TORSDOF 2
ENDMDL
