MODEL 1
REMARK VINA RESULT:    -4.063      0.000      0.000
REMARK INTER + INTRA:          -6.267
REMARK INTER:                  -5.962
REMARK INTRA:                  -0.305
REMARK UNBOUND:                -0.305
REMARK SMILES O=C([O-])CCCCCCCC(=O)[O-]
REMARK SMILES IDX 7 1 6 2 5 3 4 4 2 5 1 6 3 7 8 8 9 9 10 10 11 11 12 12 13 13
REMARK H PARENT
REMARK Flexibility Score: inf
ROOT
ATOM      1  C   UNL     1       9.584  15.298  22.253  1.00  0.00     0.000 C 
ENDROOT
BRANCH   1   2
ATOM      2  C   UNL     1      10.977  15.691  22.777  1.00  0.00     0.000 C 
BRANCH   2   3
ATOM      3  C   UNL     1      11.249  15.168  24.198  1.00  0.00     0.006 C 
BRANCH   3   4
ATOM      4  C   UNL     1      12.745  15.171  24.538  1.00  0.00     0.053 C 
BRANCH   4   5
ATOM      5  C   UNL     1      13.248  16.551  24.831  1.00  0.00     0.041 C 
ATOM      6  O   UNL     1      14.148  17.063  24.114  1.00  0.00    -0.550 OA
ATOM      7  O   UNL     1      12.745  17.262  25.913  1.00  0.00    -0.550 OA
ENDBRANCH   4   5
ENDBRANCH   3   4
ENDBRANCH   2   3
ENDBRANCH   1   2
BRANCH   1   8
ATOM      8  C   UNL     1       9.188  13.825  22.486  1.00  0.00     0.000 C 
BRANCH   8   9
ATOM      9  C   UNL     1       7.774  13.444  22.006  1.00  0.00     0.006 C 
BRANCH   9  10
ATOM     10  C   UNL     1       6.827  12.984  23.125  1.00  0.00     0.053 C 
BRANCH  10  11
ATOM     11  C   UNL     1       6.441  11.545  22.976  1.00  0.00     0.041 C 
ATOM     12  O   UNL     1       5.241  11.229  22.765  1.00  0.00    -0.550 OA
ATOM     13  O   UNL     1       7.402  10.551  23.104  1.00  0.00    -0.550 OA
ENDBRANCH  10  11
ENDBRANCH   9  10
ENDBRANCH   8   9
ENDBRANCH   1   8
TORSDOF 8
ENDMDL
MODEL 2
REMARK VINA RESULT:    -4.059      1.105      1.592
REMARK INTER + INTRA:          -6.261
REMARK INTER:                  -5.952
REMARK INTRA:                  -0.310
REMARK UNBOUND:                -0.305
REMARK SMILES O=C([O-])CCCCCCCC(=O)[O-]
REMARK SMILES IDX 7 1 6 2 5 3 4 4 2 5 1 6 3 7 8 8 9 9 10 10 11 11 12 12 13 13
REMARK H PARENT
REMARK Flexibility Score: inf
ROOT
ATOM      1  C   UNL     1      10.452  15.066  22.619  1.00  0.00     0.000 C 
ENDROOT
BRANCH   1   2
ATOM      2  C   UNL     1      11.309  14.744  23.857  1.00  0.00     0.000 C 
BRANCH   2   3
ATOM      3  C   UNL     1      11.485  15.952  24.791  1.00  0.00     0.006 C 
BRANCH   3   4
ATOM      4  C   UNL     1      12.959  16.214  25.126  1.00  0.00     0.053 C 
BRANCH   4   5
ATOM      5  C   UNL     1      13.505  17.383  24.366  1.00  0.00     0.041 C 
ATOM      6  O   UNL     1      13.524  18.527  24.892  1.00  0.00    -0.550 OA
ATOM      7  O   UNL     1      13.967  17.217  23.067  1.00  0.00    -0.550 OA
ENDBRANCH   4   5
ENDBRANCH   3   4
ENDBRANCH   2   3
ENDBRANCH   1   2
BRANCH   1   8
ATOM      8  C   UNL     1       9.469  13.955  22.195  1.00  0.00     0.000 C 
BRANCH   8   9
ATOM      9  C   UNL     1       7.978  14.341  22.257  1.00  0.00     0.006 C 
BRANCH   9  10
ATOM     10  C   UNL     1       7.101  13.356  23.045  1.00  0.00     0.053 C 
BRANCH  10  11
ATOM     11  C   UNL     1       7.184  11.967  22.490  1.00  0.00     0.041 C 
ATOM     12  O   UNL     1       7.626  11.026  23.201  1.00  0.00    -0.550 OA
ATOM     13  O   UNL     1       6.805  11.719  21.178  1.00  0.00    -0.550 OA
ENDBRANCH  10  11
ENDBRANCH   9  10
ENDBRANCH   8   9
ENDBRANCH   1   8
TORSDOF 8
ENDMDL
MODEL 3
REMARK VINA RESULT:    -3.993      1.193      7.262
REMARK INTER + INTRA:          -6.165
REMARK INTER:                  -5.866
REMARK INTRA:                  -0.299
REMARK UNBOUND:                -0.305
REMARK SMILES O=C([O-])CCCCCCCC(=O)[O-]
REMARK SMILES IDX 7 1 6 2 5 3 4 4 2 5 1 6 3 7 8 8 9 9 10 10 11 11 12 12 13 13
REMARK H PARENT
REMARK Flexibility Score: inf
ROOT
ATOM      1  C   UNL     1      10.535  15.031  22.712  1.00  0.00     0.000 C 
ENDROOT
BRANCH   1   2
ATOM      2  C   UNL     1       9.594  13.900  22.259  1.00  0.00     0.000 C 
BRANCH   2   3
ATOM      3  C   UNL     1       8.116  14.323  22.246  1.00  0.00     0.006 C 
BRANCH   3   4
ATOM      4  C   UNL     1       7.229  13.346  23.028  1.00  0.00     0.053 C 
BRANCH   4   5
ATOM      5  C   UNL     1       7.231  11.978  22.418  1.00  0.00     0.041 C 
ATOM      6  O   UNL     1       6.885  11.819  21.218  1.00  0.00    -0.550 OA
ATOM      7  O   UNL     1       7.589  10.875  23.182  1.00  0.00    -0.550 OA
ENDBRANCH   4   5
ENDBRANCH   3   4
ENDBRANCH   2   3
ENDBRANCH   1   2
BRANCH   1   8
ATOM      8  C   UNL     1      10.997  14.950  24.181  1.00  0.00     0.000 C 
BRANCH   8   9
ATOM      9  C   UNL     1      11.762  16.186  24.696  1.00  0.00     0.006 C 
BRANCH   9  10
ATOM     10  C   UNL     1      13.284  16.115  24.499  1.00  0.00     0.053 C 
BRANCH  10  11
ATOM     11  C   UNL     1      13.817  17.339  23.819  1.00  0.00     0.041 C 
ATOM     12  O   UNL     1      14.039  18.386  24.481  1.00  0.00    -0.550 OA
ATOM     13  O   UNL     1      14.036  17.332  22.447  1.00  0.00    -0.550 OA
ENDBRANCH  10  11
ENDBRANCH   9  10
ENDBRANCH   8   9
ENDBRANCH   1   8
TORSDOF 8
ENDMDL
MODEL 4
REMARK VINA RESULT:    -3.922      2.898      4.355
REMARK INTER + INTRA:          -6.060
REMARK INTER:                  -5.443
REMARK INTRA:                  -0.617
REMARK UNBOUND:                -0.305
REMARK SMILES O=C([O-])CCCCCCCC(=O)[O-]
REMARK SMILES IDX 7 1 6 2 5 3 4 4 2 5 1 6 3 7 8 8 9 9 10 10 11 11 12 12 13 13
REMARK H PARENT
REMARK Flexibility Score: inf
ROOT
ATOM      1  C   UNL     1      12.832  16.633  25.507  1.00  0.00     0.000 C 
ENDROOT
BRANCH   1   2
ATOM      2  C   UNL     1      12.423  18.097  25.750  1.00  0.00     0.000 C 
BRANCH   2   3
ATOM      3  C   UNL     1      13.147  19.081  24.815  1.00  0.00     0.006 C 
BRANCH   3   4
ATOM      4  C   UNL     1      14.360  18.441  24.129  1.00  0.00     0.053 C 
BRANCH   4   5
ATOM      5  C   UNL     1      14.273  18.538  22.637  1.00  0.00     0.041 C 
ATOM      6  O   UNL     1      13.990  17.520  21.951  1.00  0.00    -0.550 OA
ATOM      7  O   UNL     1      14.532  19.745  22.000  1.00  0.00    -0.550 OA
ENDBRANCH   4   5
ENDBRANCH   3   4
ENDBRANCH   2   3
ENDBRANCH   1   2
BRANCH   1   8
ATOM      8  C   UNL     1      11.755  15.755  24.838  1.00  0.00     0.000 C 
BRANCH   8   9
ATOM      9  C   UNL     1      11.071  16.382  23.606  1.00  0.00     0.006 C 
BRANCH   9  10
ATOM     10  C   UNL     1      11.083  15.491  22.354  1.00  0.00     0.053 C 
BRANCH  10  11
ATOM     11  C   UNL     1      10.059  14.401  22.433  1.00  0.00     0.041 C 
ATOM     12  O   UNL     1      10.408  13.222  22.703  1.00  0.00    -0.550 OA
ATOM     13  O   UNL     1       8.724  14.681  22.174  1.00  0.00    -0.550 OA
ENDBRANCH  10  11
ENDBRANCH   9  10
ENDBRANCH   8   9
ENDBRANCH   1   8
TORSDOF 8
ENDMDL
MODEL 5
REMARK VINA RESULT:    -3.918      5.705      8.023
REMARK INTER + INTRA:          -6.056
REMARK INTER:                  -5.482
REMARK INTRA:                  -0.574
REMARK UNBOUND:                -0.305
REMARK SMILES O=C([O-])CCCCCCCC(=O)[O-]
REMARK SMILES IDX 7 1 6 2 5 3 4 4 2 5 1 6 3 7 8 8 9 9 10 10 11 11 12 12 13 13
REMARK H PARENT
REMARK Flexibility Score: inf
ROOT
ATOM      1  C   UNL     1      11.742  20.161  23.909  1.00  0.00     0.000 C 
ENDROOT
BRANCH   1   2
ATOM      2  C   UNL     1      11.262  18.869  24.594  1.00  0.00     0.000 C 
BRANCH   2   3
ATOM      3  C   UNL     1      12.151  18.457  25.780  1.00  0.00     0.006 C 
BRANCH   3   4
ATOM      4  C   UNL     1      12.760  17.062  25.589  1.00  0.00     0.053 C 
BRANCH   4   5
ATOM      5  C   UNL     1      13.591  16.980  24.346  1.00  0.00     0.041 C 
ATOM      6  O   UNL     1      13.324  16.127  23.460  1.00  0.00    -0.550 OA
ATOM      7  O   UNL     1      14.679  17.828  24.178  1.00  0.00    -0.550 OA
ENDBRANCH   4   5
ENDBRANCH   3   4
ENDBRANCH   2   3
ENDBRANCH   1   2
BRANCH   1   8
ATOM      8  C   UNL     1      12.349  19.970  22.503  1.00  0.00     0.000 C 
BRANCH   8   9
ATOM      9  C   UNL     1      13.720  20.641  22.286  1.00  0.00     0.006 C 
BRANCH   9  10
ATOM     10  C   UNL     1      14.669  19.859  21.364  1.00  0.00     0.053 C 
BRANCH  10  11
ATOM     11  C   UNL     1      14.636  20.377  19.959  1.00  0.00     0.041 C 
ATOM     12  O   UNL     1      15.289  19.794  19.054  1.00  0.00    -0.550 OA
ATOM     13  O   UNL     1      13.913  21.523  19.657  1.00  0.00    -0.550 OA
ENDBRANCH  10  11
ENDBRANCH   9  10
ENDBRANCH   8   9
ENDBRANCH   1   8
TORSDOF 8
ENDMDL
MODEL 6
REMARK VINA RESULT:    -3.906      5.770      7.533
REMARK INTER + INTRA:          -6.038
REMARK INTER:                  -5.395
REMARK INTRA:                  -0.642
REMARK UNBOUND:                -0.305
REMARK SMILES O=C([O-])CCCCCCCC(=O)[O-]
REMARK SMILES IDX 7 1 6 2 5 3 4 4 2 5 1 6 3 7 8 8 9 9 10 10 11 11 12 12 13 13
REMARK H PARENT
REMARK Flexibility Score: inf
ROOT
ATOM      1  C   UNL     1      14.703  18.751  24.118  1.00  0.00     0.000 C 
ENDROOT
BRANCH   1   2
ATOM      2  C   UNL     1      13.985  17.389  24.151  1.00  0.00     0.000 C 
BRANCH   2   3
ATOM      3  C   UNL     1      12.951  17.288  25.285  1.00  0.00     0.006 C 
BRANCH   3   4
ATOM      4  C   UNL     1      12.337  18.651  25.630  1.00  0.00     0.053 C 
BRANCH   4   5
ATOM      5  C   UNL     1      11.041  18.877  24.914  1.00  0.00     0.041 C 
ATOM      6  O   UNL     1      10.275  19.812  25.269  1.00  0.00    -0.550 OA
ATOM      7  O   UNL     1      10.665  18.039  23.872  1.00  0.00    -0.550 OA
ENDBRANCH   4   5
ENDBRANCH   3   4
ENDBRANCH   2   3
ENDBRANCH   1   2
BRANCH   1   8
ATOM      8  C   UNL     1      14.820  19.395  22.721  1.00  0.00     0.000 C 
BRANCH   8   9
ATOM      9  C   UNL     1      13.626  20.277  22.305  1.00  0.00     0.006 C 
BRANCH   9  10
ATOM     10  C   UNL     1      12.577  19.556  21.443  1.00  0.00     0.053 C 
BRANCH  10  11
ATOM     11  C   UNL     1      12.910  19.622  19.984  1.00  0.00     0.041 C 
ATOM     12  O   UNL     1      12.803  18.596  19.263  1.00  0.00    -0.550 OA
ATOM     13  O   UNL     1      13.372  20.809  19.430  1.00  0.00    -0.550 OA
ENDBRANCH  10  11
ENDBRANCH   9  10
ENDBRANCH   8   9
ENDBRANCH   1   8
TORSDOF 8
ENDMDL
MODEL 7
REMARK VINA RESULT:    -3.889      5.257      6.624
REMARK INTER + INTRA:          -6.013
REMARK INTER:                  -5.208
REMARK INTRA:                  -0.805
REMARK UNBOUND:                -0.305
REMARK SMILES O=C([O-])CCCCCCCC(=O)[O-]
REMARK SMILES IDX 7 1 6 2 5 3 4 4 2 5 1 6 3 7 8 8 9 9 10 10 11 11 12 12 13 13
REMARK H PARENT
REMARK Flexibility Score: inf
ROOT
ATOM      1  C   UNL     1      12.398  19.245  25.588  1.00  0.00     0.000 C 
ENDROOT
BRANCH   1   2
ATOM      2  C   UNL     1      11.424  19.524  24.430  1.00  0.00     0.000 C 
BRANCH   2   3
ATOM      3  C   UNL     1      11.879  20.688  23.534  1.00  0.00     0.006 C 
BRANCH   3   4
ATOM      4  C   UNL     1      12.114  20.245  22.084  1.00  0.00     0.053 C 
BRANCH   4   5
ATOM      5  C   UNL     1      13.568  20.255  21.726  1.00  0.00     0.041 C 
ATOM      6  O   UNL     1      14.442  20.321  22.629  1.00  0.00    -0.550 OA
ATOM      7  O   UNL     1      13.957  20.221  20.393  1.00  0.00    -0.550 OA
ENDBRANCH   4   5
ENDBRANCH   3   4
ENDBRANCH   2   3
ENDBRANCH   1   2
BRANCH   1   8
ATOM      8  C   UNL     1      12.558  17.758  25.967  1.00  0.00     0.000 C 
BRANCH   8   9
ATOM      9  C   UNL     1      12.367  16.763  24.805  1.00  0.00     0.006 C 
BRANCH   9  10
ATOM     10  C   UNL     1      13.568  16.665  23.851  1.00  0.00     0.053 C 
BRANCH  10  11
ATOM     11  C   UNL     1      13.146  16.706  22.415  1.00  0.00     0.041 C 
ATOM     12  O   UNL     1      14.010  16.798  21.503  1.00  0.00    -0.550 OA
ATOM     13  O   UNL     1      11.797  16.677  22.085  1.00  0.00    -0.550 OA
ENDBRANCH  10  11
ENDBRANCH   9  10
ENDBRANCH   8   9
ENDBRANCH   1   8
TORSDOF 8
ENDMDL
MODEL 8
REMARK VINA RESULT:    -3.862      5.297      6.629
REMARK INTER + INTRA:          -5.973
REMARK INTER:                  -5.070
REMARK INTRA:                  -0.903
REMARK UNBOUND:                -0.305
REMARK SMILES O=C([O-])CCCCCCCC(=O)[O-]
REMARK SMILES IDX 7 1 6 2 5 3 4 4 2 5 1 6 3 7 8 8 9 9 10 10 11 11 12 12 13 13
REMARK H PARENT
REMARK Flexibility Score: inf
ROOT
ATOM      1  C   UNL     1      11.542  16.044  22.779  1.00  0.00     0.000 C 
ENDROOT
BRANCH   1   2
ATOM      2  C   UNL     1      11.438  15.912  24.310  1.00  0.00     0.000 C 
BRANCH   2   3
ATOM      3  C   UNL     1      12.735  16.311  25.032  1.00  0.00     0.006 C 
BRANCH   3   4
ATOM      4  C   UNL     1      12.656  17.726  25.622  1.00  0.00     0.053 C 
BRANCH   4   5
ATOM      5  C   UNL     1      13.241  18.749  24.699  1.00  0.00     0.041 C 
ATOM      6  O   UNL     1      12.521  19.676  24.243  1.00  0.00    -0.550 OA
ATOM      7  O   UNL     1      14.574  18.665  24.319  1.00  0.00    -0.550 OA
ENDBRANCH   4   5
ENDBRANCH   3   4
ENDBRANCH   2   3
ENDBRANCH   1   2
BRANCH   1   8
ATOM      8  C   UNL     1      10.856  17.289  22.181  1.00  0.00     0.000 C 
BRANCH   8   9
ATOM      9  C   UNL     1      11.710  18.089  21.178  1.00  0.00     0.006 C 
BRANCH   9  10
ATOM     10  C   UNL     1      13.183  17.656  21.114  1.00  0.00     0.053 C 
BRANCH  10  11
ATOM     11  C   UNL     1      14.097  18.817  20.862  1.00  0.00     0.041 C 
ATOM     12  O   UNL     1      15.246  18.626  20.385  1.00  0.00    -0.550 OA
ATOM     13  O   UNL     1      13.690  20.105  21.185  1.00  0.00    -0.550 OA
ENDBRANCH  10  11
ENDBRANCH   9  10
ENDBRANCH   8   9
ENDBRANCH   1   8
TORSDOF 8
ENDMDL
MODEL 9
REMARK VINA RESULT:    -3.854      3.821      5.743
REMARK INTER + INTRA:          -5.961
REMARK INTER:                  -5.313
REMARK INTRA:                  -0.648
REMARK UNBOUND:                -0.305
REMARK SMILES O=C([O-])CCCCCCCC(=O)[O-]
REMARK SMILES IDX 7 1 6 2 5 3 4 4 2 5 1 6 3 7 8 8 9 9 10 10 11 11 12 12 13 13
REMARK H PARENT
REMARK Flexibility Score: inf
ROOT
ATOM      1  C   UNL     1      13.285  18.517  25.131  1.00  0.00     0.000 C 
ENDROOT
BRANCH   1   2
ATOM      2  C   UNL     1      14.362  18.154  24.092  1.00  0.00     0.000 C 
BRANCH   2   3
ATOM      3  C   UNL     1      14.307  19.046  22.840  1.00  0.00     0.006 C 
BRANCH   3   4
ATOM      4  C   UNL     1      12.877  19.492  22.511  1.00  0.00     0.053 C 
BRANCH   4   5
ATOM      5  C   UNL     1      12.833  20.905  22.014  1.00  0.00     0.041 C 
ATOM      6  O   UNL     1      13.246  21.182  20.857  1.00  0.00    -0.550 OA
ATOM      7  O   UNL     1      12.364  21.919  22.838  1.00  0.00    -0.550 OA
ENDBRANCH   4   5
ENDBRANCH   3   4
ENDBRANCH   2   3
ENDBRANCH   1   2
BRANCH   1   8
ATOM      8  C   UNL     1      12.460  17.326  25.661  1.00  0.00     0.000 C 
BRANCH   8   9
ATOM      9  C   UNL     1      12.662  16.000  24.902  1.00  0.00     0.006 C 
BRANCH   9  10
ATOM     10  C   UNL     1      11.367  15.379  24.355  1.00  0.00     0.053 C 
BRANCH  10  11
ATOM     11  C   UNL     1      11.214  15.611  22.883  1.00  0.00     0.041 C 
ATOM     12  O   UNL     1      12.179  16.053  22.207  1.00  0.00    -0.550 OA
ATOM     13  O   UNL     1       9.993  15.372  22.265  1.00  0.00    -0.550 OA
ENDBRANCH  10  11
ENDBRANCH   9  10
ENDBRANCH   8   9
ENDBRANCH   1   8
TORSDOF 8
ENDMDL
