MODEL 1
REMARK VINA RESULT:    -2.521      0.000      0.000
REMARK INTER + INTRA:          -6.452
REMARK INTER:                  -4.437
REMARK INTRA:                  -2.014
REMARK UNBOUND:                -2.014
REMARK SMILES CCCCCCCCCCCCCCC(=O)[O-]
REMARK SMILES IDX 9 1 10 2 11 3 12 4 13 5 14 6 15 7 16 8 17 9 8 10 7 11 6 12
REMARK SMILES IDX 5 13 4 14 3 15 2 16 1 17
REMARK H PARENT
REMARK Flexibility Score: inf
ROOT
ATOM      1  C   UNL     1     144.359 150.262 140.735  1.00  0.00     0.000 C 
ENDROOT
BRANCH   1   2
ATOM      2  C   UNL     1     143.310 150.487 141.839  1.00  0.00     0.000 C 
BRANCH   2   3
ATOM      3  C   UNL     1     143.365 149.481 143.004  1.00  0.00     0.000 C 
BRANCH   3   4
ATOM      4  C   UNL     1     143.310 150.140 144.399  1.00  0.00     0.000 C 
BRANCH   4   5
ATOM      5  C   UNL     1     144.559 149.833 145.244  1.00  0.00     0.006 C 
BRANCH   5   6
ATOM      6  C   UNL     1     144.304 150.016 146.746  1.00  0.00     0.053 C 
BRANCH   6   7
ATOM      7  C   UNL     1     144.890 151.294 147.260  1.00  0.00     0.041 C 
ATOM      8  O   UNL     1     145.801 151.270 148.130  1.00  0.00    -0.550 OA
ATOM      9  O   UNL     1     144.454 152.513 146.755  1.00  0.00    -0.550 OA
ENDBRANCH   6   7
ENDBRANCH   5   6
ENDBRANCH   4   5
ENDBRANCH   3   4
ENDBRANCH   2   3
ENDBRANCH   1   2
BRANCH   1  10
ATOM     10  C   UNL     1     144.739 148.790 140.489  1.00  0.00     0.000 C 
BRANCH  10  11
ATOM     11  C   UNL     1     146.250 148.536 140.586  1.00  0.00    -0.000 C 
BRANCH  11  12
ATOM     12  C   UNL     1     146.874 149.360 141.718  1.00  0.00    -0.000 C 
BRANCH  12  13
ATOM     13  C   UNL     1     147.091 148.500 142.970  1.00  0.00    -0.000 C 
BRANCH  13  14
ATOM     14  C   UNL     1     147.490 147.069 142.593  1.00  0.00    -0.000 C 
BRANCH  14  15
ATOM     15  C   UNL     1     146.823 146.049 143.528  1.00  0.00    -0.000 C 
BRANCH  15  16
ATOM     16  C   UNL     1     145.358 146.397 143.832  1.00  0.00    -0.003 C 
ATOM     17  C   UNL     1     144.397 145.917 142.746  1.00  0.00     0.004 C 
ENDBRANCH  15  16
ENDBRANCH  14  15
ENDBRANCH  13  14
ENDBRANCH  12  13
ENDBRANCH  11  12
ENDBRANCH  10  11
ENDBRANCH   1  10
TORSDOF 13
ENDMDL
MODEL 2
REMARK VINA RESULT:    -2.516      5.816     10.695
REMARK INTER + INTRA:          -6.442
REMARK INTER:                  -4.869
REMARK INTRA:                  -1.573
REMARK UNBOUND:                -2.014
REMARK SMILES CCCCCCCCCCCCCCC(=O)[O-]
REMARK SMILES IDX 9 1 10 2 11 3 12 4 13 5 14 6 15 7 16 8 17 9 8 10 7 11 6 12
REMARK SMILES IDX 5 13 4 14 3 15 2 16 1 17
REMARK H PARENT
REMARK Flexibility Score: inf
ROOT
ATOM      1  C   UNL     1     144.541 150.390 153.269  1.00  0.00     0.000 C 
ENDROOT
BRANCH   1   2
ATOM      2  C   UNL     1     143.937 151.625 152.575  1.00  0.00     0.000 C 
BRANCH   2   3
ATOM      3  C   UNL     1     144.284 151.769 151.082  1.00  0.00     0.000 C 
BRANCH   3   4
ATOM      4  C   UNL     1     144.188 150.447 150.290  1.00  0.00     0.000 C 
BRANCH   4   5
ATOM      5  C   UNL     1     145.523 150.056 149.634  1.00  0.00     0.006 C 
BRANCH   5   6
ATOM      6  C   UNL     1     145.988 151.090 148.600  1.00  0.00     0.053 C 
BRANCH   6   7
ATOM      7  C   UNL     1     145.028 151.205 147.456  1.00  0.00     0.041 C 
ATOM      8  O   UNL     1     144.555 152.327 147.135  1.00  0.00    -0.550 OA
ATOM      9  O   UNL     1     144.682 150.078 146.722  1.00  0.00    -0.550 OA
ENDBRANCH   6   7
ENDBRANCH   5   6
ENDBRANCH   4   5
ENDBRANCH   3   4
ENDBRANCH   2   3
ENDBRANCH   1   2
BRANCH   1  10
ATOM     10  C   UNL     1     144.724 150.525 154.792  1.00  0.00     0.000 C 
BRANCH  10  11
ATOM     11  C   UNL     1     145.908 151.425 155.175  1.00  0.00    -0.000 C 
BRANCH  11  12
ATOM     12  C   UNL     1     145.432 152.665 155.940  1.00  0.00    -0.000 C 
BRANCH  12  13
ATOM     13  C   UNL     1     145.577 153.930 155.085  1.00  0.00    -0.000 C 
BRANCH  13  14
ATOM     14  C   UNL     1     146.652 153.746 154.007  1.00  0.00    -0.000 C 
BRANCH  14  15
ATOM     15  C   UNL     1     146.456 154.749 152.860  1.00  0.00    -0.000 C 
BRANCH  15  16
ATOM     16  C   UNL     1     144.996 155.206 152.719  1.00  0.00    -0.003 C 
ATOM     17  C   UNL     1     144.871 156.680 152.338  1.00  0.00     0.004 C 
ENDBRANCH  15  16
ENDBRANCH  14  15
ENDBRANCH  13  14
ENDBRANCH  12  13
ENDBRANCH  11  12
ENDBRANCH  10  11
ENDBRANCH   1  10
TORSDOF 13
ENDMDL
MODEL 3
REMARK VINA RESULT:    -2.426      0.892      3.156
REMARK INTER + INTRA:          -6.284
REMARK INTER:                  -4.198
REMARK INTRA:                  -2.085
REMARK UNBOUND:                -2.014
REMARK SMILES CCCCCCCCCCCCCCC(=O)[O-]
REMARK SMILES IDX 9 1 10 2 11 3 12 4 13 5 14 6 15 7 16 8 17 9 8 10 7 11 6 12
REMARK SMILES IDX 5 13 4 14 3 15 2 16 1 17
REMARK H PARENT
REMARK Flexibility Score: inf
ROOT
ATOM      1  C   UNL     1     144.776 145.962 144.650  1.00  0.00     0.000 C 
ENDROOT
BRANCH   1   2
ATOM      2  C   UNL     1     143.825 147.142 144.926  1.00  0.00     0.000 C 
BRANCH   2   3
ATOM      3  C   UNL     1     143.483 148.004 143.697  1.00  0.00     0.000 C 
BRANCH   3   4
ATOM      4  C   UNL     1     143.685 149.518 143.923  1.00  0.00     0.000 C 
BRANCH   4   5
ATOM      5  C   UNL     1     144.436 149.822 145.230  1.00  0.00     0.006 C 
BRANCH   5   6
ATOM      6  C   UNL     1     143.593 150.657 146.204  1.00  0.00     0.053 C 
BRANCH   6   7
ATOM      7  C   UNL     1     144.334 151.864 146.689  1.00  0.00     0.041 C 
ATOM      8  O   UNL     1     144.113 152.993 146.175  1.00  0.00    -0.550 OA
ATOM      9  O   UNL     1     145.246 151.750 147.731  1.00  0.00    -0.550 OA
ENDBRANCH   6   7
ENDBRANCH   5   6
ENDBRANCH   4   5
ENDBRANCH   3   4
ENDBRANCH   2   3
ENDBRANCH   1   2
BRANCH   1  10
ATOM     10  C   UNL     1     145.492 146.011 143.286  1.00  0.00     0.000 C 
BRANCH  10  11
ATOM     11  C   UNL     1     147.020 145.934 143.409  1.00  0.00    -0.000 C 
BRANCH  11  12
ATOM     12  C   UNL     1     147.694 147.052 142.606  1.00  0.00    -0.000 C 
BRANCH  12  13
ATOM     13  C   UNL     1     147.134 148.426 142.997  1.00  0.00    -0.000 C 
BRANCH  13  14
ATOM     14  C   UNL     1     146.768 149.245 141.754  1.00  0.00    -0.000 C 
BRANCH  14  15
ATOM     15  C   UNL     1     146.361 148.327 140.592  1.00  0.00    -0.000 C 
BRANCH  15  16
ATOM     16  C   UNL     1     144.863 148.419 140.264  1.00  0.00    -0.003 C 
ATOM     17  C   UNL     1     144.340 149.855 140.279  1.00  0.00     0.004 C 
ENDBRANCH  15  16
ENDBRANCH  14  15
ENDBRANCH  13  14
ENDBRANCH  12  13
ENDBRANCH  11  12
ENDBRANCH  10  11
ENDBRANCH   1  10
TORSDOF 13
ENDMDL
MODEL 4
REMARK VINA RESULT:    -2.416      3.335      5.700
REMARK INTER + INTRA:          -6.266
REMARK INTER:                  -3.843
REMARK INTRA:                  -2.423
REMARK UNBOUND:                -2.014
REMARK SMILES CCCCCCCCCCCCCCC(=O)[O-]
REMARK SMILES IDX 9 1 10 2 11 3 12 4 13 5 14 6 15 7 16 8 17 9 8 10 7 11 6 12
REMARK SMILES IDX 5 13 4 14 3 15 2 16 1 17
REMARK H PARENT
REMARK Flexibility Score: inf
ROOT
ATOM      1  C   UNL     1     146.862 146.602 141.988  1.00  0.00     0.000 C 
ENDROOT
BRANCH   1   2
ATOM      2  C   UNL     1     147.531 147.594 142.958  1.00  0.00     0.000 C 
BRANCH   2   3
ATOM      3  C   UNL     1     147.096 149.063 142.791  1.00  0.00     0.000 C 
BRANCH   3   4
ATOM      4  C   UNL     1     146.598 149.407 141.370  1.00  0.00     0.000 C 
BRANCH   4   5
ATOM      5  C   UNL     1     145.147 149.917 141.364  1.00  0.00     0.006 C 
BRANCH   5   6
ATOM      6  C   UNL     1     144.213 149.003 140.560  1.00  0.00     0.053 C 
BRANCH   6   7
ATOM      7  C   UNL     1     144.177 149.377 139.110  1.00  0.00     0.041 C 
ATOM      8  O   UNL     1     144.636 148.589 138.241  1.00  0.00    -0.550 OA
ATOM      9  O   UNL     1     143.608 150.580 138.715  1.00  0.00    -0.550 OA
ENDBRANCH   6   7
ENDBRANCH   5   6
ENDBRANCH   4   5
ENDBRANCH   3   4
ENDBRANCH   2   3
ENDBRANCH   1   2
BRANCH   1  10
ATOM     10  C   UNL     1     145.578 145.939 142.521  1.00  0.00     0.000 C 
BRANCH  10  11
ATOM     11  C   UNL     1     145.587 145.757 144.046  1.00  0.00    -0.000 C 
BRANCH  11  12
ATOM     12  C   UNL     1     144.341 146.386 144.681  1.00  0.00    -0.000 C 
BRANCH  12  13
ATOM     13  C   UNL     1     143.540 147.188 143.648  1.00  0.00    -0.000 C 
BRANCH  13  14
ATOM     14  C   UNL     1     143.096 148.538 144.224  1.00  0.00    -0.000 C 
BRANCH  14  15
ATOM     15  C   UNL     1     144.244 149.212 144.990  1.00  0.00    -0.000 C 
BRANCH  15  16
ATOM     16  C   UNL     1     144.180 150.746 144.917  1.00  0.00    -0.003 C 
ATOM     17  C   UNL     1     143.037 151.250 144.037  1.00  0.00     0.004 C 
ENDBRANCH  15  16
ENDBRANCH  14  15
ENDBRANCH  13  14
ENDBRANCH  12  13
ENDBRANCH  11  12
ENDBRANCH  10  11
ENDBRANCH   1  10
TORSDOF 13
ENDMDL
MODEL 5
REMARK VINA RESULT:    -2.380      1.541      3.268
REMARK INTER + INTRA:          -6.204
REMARK INTER:                  -4.626
REMARK INTRA:                  -1.578
REMARK UNBOUND:                -2.014
REMARK SMILES CCCCCCCCCCCCCCC(=O)[O-]
REMARK SMILES IDX 9 1 10 2 11 3 12 4 13 5 14 6 15 7 16 8 17 9 8 10 7 11 6 12
REMARK SMILES IDX 5 13 4 14 3 15 2 16 1 17
REMARK H PARENT
REMARK Flexibility Score: inf
ROOT
ATOM      1  C   UNL     1     145.756 149.873 143.366  1.00  0.00     0.000 C 
ENDROOT
BRANCH   1   2
ATOM      2  C   UNL     1     144.735 148.888 143.962  1.00  0.00     0.000 C 
BRANCH   2   3
ATOM      3  C   UNL     1     144.259 149.225 145.388  1.00  0.00     0.000 C 
BRANCH   3   4
ATOM      4  C   UNL     1     144.351 150.727 145.735  1.00  0.00     0.000 C 
BRANCH   4   5
ATOM      5  C   UNL     1     144.161 150.995 147.238  1.00  0.00     0.006 C 
BRANCH   5   6
ATOM      6  C   UNL     1     144.599 149.804 148.101  1.00  0.00     0.053 C 
BRANCH   6   7
ATOM      7  C   UNL     1     145.736 150.160 149.008  1.00  0.00     0.041 C 
ATOM      8  O   UNL     1     146.221 151.322 148.991  1.00  0.00    -0.550 OA
ATOM      9  O   UNL     1     146.239 149.218 149.896  1.00  0.00    -0.550 OA
ENDBRANCH   6   7
ENDBRANCH   5   6
ENDBRANCH   4   5
ENDBRANCH   3   4
ENDBRANCH   2   3
ENDBRANCH   1   2
BRANCH   1  10
ATOM     10  C   UNL     1     147.017 149.220 142.770  1.00  0.00     0.000 C 
BRANCH  10  11
ATOM     11  C   UNL     1     147.053 147.698 142.967  1.00  0.00    -0.000 C 
BRANCH  11  12
ATOM     12  C   UNL     1     147.012 146.967 141.620  1.00  0.00    -0.000 C 
BRANCH  12  13
ATOM     13  C   UNL     1     145.626 146.364 141.362  1.00  0.00    -0.000 C 
BRANCH  13  14
ATOM     14  C   UNL     1     145.145 146.679 139.940  1.00  0.00    -0.000 C 
BRANCH  14  15
ATOM     15  C   UNL     1     145.191 148.189 139.667  1.00  0.00    -0.000 C 
BRANCH  15  16
ATOM     16  C   UNL     1     144.004 148.938 140.292  1.00  0.00    -0.003 C 
ATOM     17  C   UNL     1     144.033 150.439 140.005  1.00  0.00     0.004 C 
ENDBRANCH  15  16
ENDBRANCH  14  15
ENDBRANCH  13  14
ENDBRANCH  12  13
ENDBRANCH  11  12
ENDBRANCH  10  11
ENDBRANCH   1  10
TORSDOF 13
ENDMDL
MODEL 6
REMARK VINA RESULT:    -2.379      1.342      2.235
REMARK INTER + INTRA:          -6.201
REMARK INTER:                  -4.482
REMARK INTRA:                  -1.719
REMARK UNBOUND:                -2.014
REMARK SMILES CCCCCCCCCCCCCCC(=O)[O-]
REMARK SMILES IDX 9 1 10 2 11 3 12 4 13 5 14 6 15 7 16 8 17 9 8 10 7 11 6 12
REMARK SMILES IDX 5 13 4 14 3 15 2 16 1 17
REMARK H PARENT
REMARK Flexibility Score: inf
ROOT
ATOM      1  C   UNL     1     144.758 148.994 141.409  1.00  0.00     0.000 C 
ENDROOT
BRANCH   1   2
ATOM      2  C   UNL     1     143.425 149.632 141.842  1.00  0.00     0.000 C 
BRANCH   2   3
ATOM      3  C   UNL     1     143.520 150.584 143.049  1.00  0.00     0.000 C 
BRANCH   3   4
ATOM      4  C   UNL     1     143.369 149.877 144.413  1.00  0.00     0.000 C 
BRANCH   4   5
ATOM      5  C   UNL     1     144.568 150.131 145.342  1.00  0.00     0.006 C 
BRANCH   5   6
ATOM      6  C   UNL     1     144.187 150.976 146.565  1.00  0.00     0.053 C 
BRANCH   6   7
ATOM      7  C   UNL     1     145.087 150.707 147.732  1.00  0.00     0.041 C 
ATOM      8  O   UNL     1     146.020 151.506 148.010  1.00  0.00    -0.550 OA
ATOM      9  O   UNL     1     144.875 149.592 148.532  1.00  0.00    -0.550 OA
ENDBRANCH   6   7
ENDBRANCH   5   6
ENDBRANCH   4   5
ENDBRANCH   3   4
ENDBRANCH   2   3
ENDBRANCH   1   2
BRANCH   1  10
ATOM     10  C   UNL     1     146.005 149.863 141.659  1.00  0.00     0.000 C 
BRANCH  10  11
ATOM     11  C   UNL     1     146.965 149.249 142.689  1.00  0.00    -0.000 C 
BRANCH  11  12
ATOM     12  C   UNL     1     146.610 147.784 142.967  1.00  0.00    -0.000 C 
BRANCH  12  13
ATOM     13  C   UNL     1     147.873 146.921 143.071  1.00  0.00    -0.000 C 
BRANCH  13  14
ATOM     14  C   UNL     1     147.855 145.792 142.033  1.00  0.00    -0.000 C 
BRANCH  14  15
ATOM     15  C   UNL     1     146.592 145.866 141.164  1.00  0.00    -0.000 C 
BRANCH  15  16
ATOM     16  C   UNL     1     146.911 145.901 139.661  1.00  0.00    -0.003 C 
ATOM     17  C   UNL     1     147.101 147.320 139.128  1.00  0.00     0.004 C 
ENDBRANCH  15  16
ENDBRANCH  14  15
ENDBRANCH  13  14
ENDBRANCH  12  13
ENDBRANCH  11  12
ENDBRANCH  10  11
ENDBRANCH   1  10
TORSDOF 13
ENDMDL
MODEL 7
REMARK VINA RESULT:    -2.376      0.999      1.572
REMARK INTER + INTRA:          -6.196
REMARK INTER:                  -3.846
REMARK INTRA:                  -2.350
REMARK UNBOUND:                -2.014
REMARK SMILES CCCCCCCCCCCCCCC(=O)[O-]
REMARK SMILES IDX 9 1 10 2 11 3 12 4 13 5 14 6 15 7 16 8 17 9 8 10 7 11 6 12
REMARK SMILES IDX 5 13 4 14 3 15 2 16 1 17
REMARK H PARENT
REMARK Flexibility Score: inf
ROOT
ATOM      1  C   UNL     1     144.470 150.176 140.910  1.00  0.00     0.000 C 
ENDROOT
BRANCH   1   2
ATOM      2  C   UNL     1     143.664 150.265 142.219  1.00  0.00     0.000 C 
BRANCH   2   3
ATOM      3  C   UNL     1     143.214 148.912 142.801  1.00  0.00     0.000 C 
BRANCH   3   4
ATOM      4  C   UNL     1     143.501 148.756 144.310  1.00  0.00     0.000 C 
BRANCH   4   5
ATOM      5  C   UNL     1     144.558 149.754 144.813  1.00  0.00     0.006 C 
BRANCH   5   6
ATOM      6  C   UNL     1     144.384 150.083 146.301  1.00  0.00     0.053 C 
BRANCH   6   7
ATOM      7  C   UNL     1     144.019 151.520 146.516  1.00  0.00     0.041 C 
ATOM      8  O   UNL     1     143.789 152.270 145.531  1.00  0.00    -0.550 OA
ATOM      9  O   UNL     1     143.899 152.022 147.805  1.00  0.00    -0.550 OA
ENDBRANCH   6   7
ENDBRANCH   5   6
ENDBRANCH   4   5
ENDBRANCH   3   4
ENDBRANCH   2   3
ENDBRANCH   1   2
BRANCH   1  10
ATOM     10  C   UNL     1     145.742 149.312 140.988  1.00  0.00     0.000 C 
BRANCH  10  11
ATOM     11  C   UNL     1     146.795 149.882 141.950  1.00  0.00    -0.000 C 
BRANCH  11  12
ATOM     12  C   UNL     1     147.357 148.786 142.863  1.00  0.00    -0.000 C 
BRANCH  12  13
ATOM     13  C   UNL     1     146.993 147.392 142.339  1.00  0.00    -0.000 C 
BRANCH  13  14
ATOM     14  C   UNL     1     146.435 146.510 143.462  1.00  0.00    -0.000 C 
BRANCH  14  15
ATOM     15  C   UNL     1     145.204 145.725 142.984  1.00  0.00    -0.000 C 
BRANCH  15  16
ATOM     16  C   UNL     1     145.036 145.766 141.457  1.00  0.00    -0.003 C 
ATOM     17  C   UNL     1     143.574 145.688 141.020  1.00  0.00     0.004 C 
ENDBRANCH  15  16
ENDBRANCH  14  15
ENDBRANCH  13  14
ENDBRANCH  12  13
ENDBRANCH  11  12
ENDBRANCH  10  11
ENDBRANCH   1  10
TORSDOF 13
ENDMDL
MODEL 8
REMARK VINA RESULT:    -2.354      6.680     11.511
REMARK INTER + INTRA:          -6.157
REMARK INTER:                  -4.319
REMARK INTRA:                  -1.838
REMARK UNBOUND:                -2.014
REMARK SMILES CCCCCCCCCCCCCCC(=O)[O-]
REMARK SMILES IDX 9 1 10 2 11 3 12 4 13 5 14 6 15 7 16 8 17 9 8 10 7 11 6 12
REMARK SMILES IDX 5 13 4 14 3 15 2 16 1 17
REMARK H PARENT
REMARK Flexibility Score: inf
ROOT
ATOM      1  C   UNL     1     144.837 150.306 155.653  1.00  0.00     0.000 C 
ENDROOT
BRANCH   1   2
ATOM      2  C   UNL     1     144.284 149.942 154.263  1.00  0.00     0.000 C 
BRANCH   2   3
ATOM      3  C   UNL     1     143.235 150.920 153.702  1.00  0.00     0.000 C 
BRANCH   3   4
ATOM      4  C   UNL     1     143.452 151.281 152.217  1.00  0.00     0.000 C 
BRANCH   4   5
ATOM      5  C   UNL     1     144.752 150.685 151.651  1.00  0.00     0.006 C 
BRANCH   5   6
ATOM      6  C   UNL     1     145.353 151.552 150.536  1.00  0.00     0.053 C 
BRANCH   6   7
ATOM      7  C   UNL     1     144.868 151.135 149.182  1.00  0.00     0.041 C 
ATOM      8  O   UNL     1     145.353 150.117 148.621  1.00  0.00    -0.550 OA
ATOM      9  O   UNL     1     143.858 151.851 148.554  1.00  0.00    -0.550 OA
ENDBRANCH   6   7
ENDBRANCH   5   6
ENDBRANCH   4   5
ENDBRANCH   3   4
ENDBRANCH   2   3
ENDBRANCH   1   2
BRANCH   1  10
ATOM     10  C   UNL     1     145.969 151.351 155.648  1.00  0.00     0.000 C 
BRANCH  10  11
ATOM     11  C   UNL     1     145.508 152.736 156.125  1.00  0.00    -0.000 C 
BRANCH  11  12
ATOM     12  C   UNL     1     145.374 153.706 154.946  1.00  0.00    -0.000 C 
BRANCH  12  13
ATOM     13  C   UNL     1     146.318 153.318 153.802  1.00  0.00    -0.000 C 
BRANCH  13  14
ATOM     14  C   UNL     1     146.495 154.479 152.816  1.00  0.00    -0.000 C 
BRANCH  14  15
ATOM     15  C   UNL     1     145.249 155.377 152.797  1.00  0.00    -0.000 C 
BRANCH  15  16
ATOM     16  C   UNL     1     145.601 156.873 152.795  1.00  0.00    -0.003 C 
ATOM     17  C   UNL     1     145.178 157.582 154.081  1.00  0.00     0.004 C 
ENDBRANCH  15  16
ENDBRANCH  14  15
ENDBRANCH  13  14
ENDBRANCH  12  13
ENDBRANCH  11  12
ENDBRANCH  10  11
ENDBRANCH   1  10
TORSDOF 13
ENDMDL
MODEL 9
REMARK VINA RESULT:    -2.339      1.493      3.453
REMARK INTER + INTRA:          -6.130
REMARK INTER:                  -3.954
REMARK INTRA:                  -2.176
REMARK UNBOUND:                -2.014
REMARK SMILES CCCCCCCCCCCCCCC(=O)[O-]
REMARK SMILES IDX 9 1 10 2 11 3 12 4 13 5 14 6 15 7 16 8 17 9 8 10 7 11 6 12
REMARK SMILES IDX 5 13 4 14 3 15 2 16 1 17
REMARK H PARENT
REMARK Flexibility Score: inf
ROOT
ATOM      1  C   UNL     1     147.359 148.520 142.946  1.00  0.00     0.000 C 
ENDROOT
BRANCH   1   2
ATOM      2  C   UNL     1     146.547 149.415 141.992  1.00  0.00     0.000 C 
BRANCH   2   3
ATOM      3  C   UNL     1     145.230 149.963 142.575  1.00  0.00     0.000 C 
BRANCH   3   4
ATOM      4  C   UNL     1     145.142 149.865 144.114  1.00  0.00     0.000 C 
BRANCH   4   5
ATOM      5  C   UNL     1     143.712 150.083 144.635  1.00  0.00     0.006 C 
BRANCH   5   6
ATOM      6  C   UNL     1     143.247 151.536 144.466  1.00  0.00     0.053 C 
BRANCH   6   7
ATOM      7  C   UNL     1     143.612 152.380 145.649  1.00  0.00     0.041 C 
ATOM      8  O   UNL     1     143.902 153.596 145.495  1.00  0.00    -0.550 OA
ATOM      9  O   UNL     1     143.601 151.832 146.925  1.00  0.00    -0.550 OA
ENDBRANCH   6   7
ENDBRANCH   5   6
ENDBRANCH   4   5
ENDBRANCH   3   4
ENDBRANCH   2   3
ENDBRANCH   1   2
BRANCH   1  10
ATOM     10  C   UNL     1     147.449 147.040 142.529  1.00  0.00     0.000 C 
BRANCH  10  11
ATOM     11  C   UNL     1     146.772 146.093 143.530  1.00  0.00    -0.000 C 
BRANCH  11  12
ATOM     12  C   UNL     1     145.246 146.170 143.413  1.00  0.00    -0.000 C 
BRANCH  12  13
ATOM     13  C   UNL     1     144.776 145.735 142.019  1.00  0.00    -0.000 C 
BRANCH  13  14
ATOM     14  C   UNL     1     143.758 146.728 141.446  1.00  0.00    -0.000 C 
BRANCH  14  15
ATOM     15  C   UNL     1     144.253 147.314 140.115  1.00  0.00    -0.000 C 
BRANCH  15  16
ATOM     16  C   UNL     1     145.412 146.507 139.510  1.00  0.00    -0.003 C 
ATOM     17  C   UNL     1     146.495 147.394 138.898  1.00  0.00     0.004 C 
ENDBRANCH  15  16
ENDBRANCH  14  15
ENDBRANCH  13  14
ENDBRANCH  12  13
ENDBRANCH  11  12
ENDBRANCH  10  11
ENDBRANCH   1  10
TORSDOF 13
ENDMDL
