MODEL 1
REMARK VINA RESULT:    -5.260      0.000      0.000
REMARK INTER + INTRA:          -5.260
REMARK INTER:                  -5.260
REMARK INTRA:                   0.000
REMARK UNBOUND:                 0.000
REMARK SMILES CC1=CC[C@@]2(C)CCCC(C)(C)[C@]23C[C@H]13
REMARK SMILES IDX 1 1 2 2 3 3 4 4 5 5 7 6 8 7 9 8 10 9 13 10 15 11 14 12 11 13
REMARK SMILES IDX 12 14 6 15
REMARK H PARENT
REMARK Flexibility Score: inf
ROOT
ATOM      1  C   UNL     1      33.125  10.942  32.998  1.00  0.00     0.039 C 
ATOM      2  C   UNL     1      32.027  10.001  33.415  1.00  0.00    -0.074 C 
ATOM      3  C   UNL     1      31.661   9.025  32.576  1.00  0.00    -0.027 C 
ATOM      4  C   UNL     1      30.480   8.152  32.843  1.00  0.00     0.034 C 
ATOM      5  C   UNL     1      30.282   7.775  34.344  1.00  0.00    -0.022 C 
ATOM      6  C   UNL     1      31.256   6.617  34.686  1.00  0.00     0.008 C 
ATOM      7  C   UNL     1      31.253   6.232  36.172  1.00  0.00     0.001 C 
ATOM      8  C   UNL     1      31.605   7.421  37.071  1.00  0.00     0.007 C 
ATOM      9  C   UNL     1      30.692   8.666  36.887  1.00  0.00    -0.029 C 
ATOM     10  C   UNL     1      30.558   8.980  35.333  1.00  0.00    -0.012 C 
ATOM     11  C   UNL     1      31.448  10.129  34.807  1.00  0.00     0.022 C 
ATOM     12  C   UNL     1      29.936  10.321  34.910  1.00  0.00     0.017 C 
ATOM     13  C   UNL     1      29.298   8.414  37.517  1.00  0.00     0.012 C 
ATOM     14  C   UNL     1      31.345   9.805  37.726  1.00  0.00     0.012 C 
ATOM     15  C   UNL     1      28.812   7.284  34.453  1.00  0.00     0.012 C 
ENDROOT
TORSDOF 0
ENDMDL
MODEL 2
REMARK VINA RESULT:    -4.571      1.419      3.475
REMARK INTER + INTRA:          -4.571
REMARK INTER:                  -4.571
REMARK INTRA:                   0.000
REMARK UNBOUND:                 0.000
REMARK SMILES CC1=CC[C@@]2(C)CCCC(C)(C)[C@]23C[C@H]13
REMARK SMILES IDX 1 1 2 2 3 3 4 4 5 5 7 6 8 7 9 8 10 9 13 10 15 11 14 12 11 13
REMARK SMILES IDX 12 14 6 15
REMARK H PARENT
REMARK Flexibility Score: inf
ROOT
ATOM      1  C   UNL     1      30.440   8.000  29.946  1.00  0.00     0.039 C 
ATOM      2  C   UNL     1      30.813   8.485  31.321  1.00  0.00    -0.074 C 
ATOM      3  C   UNL     1      31.084   9.784  31.493  1.00  0.00    -0.027 C 
ATOM      4  C   UNL     1      31.614  10.319  32.783  1.00  0.00     0.034 C 
ATOM      5  C   UNL     1      31.014   9.643  34.056  1.00  0.00    -0.022 C 
ATOM      6  C   UNL     1      29.623  10.273  34.329  1.00  0.00     0.008 C 
ATOM      7  C   UNL     1      28.866   9.608  35.486  1.00  0.00     0.001 C 
ATOM      8  C   UNL     1      28.663   8.108  35.249  1.00  0.00     0.007 C 
ATOM      9  C   UNL     1      29.972   7.308  34.998  1.00  0.00    -0.029 C 
ATOM     10  C   UNL     1      30.844   8.076  33.911  1.00  0.00    -0.012 C 
ATOM     11  C   UNL     1      30.768   7.509  32.475  1.00  0.00     0.022 C 
ATOM     12  C   UNL     1      32.048   7.348  33.292  1.00  0.00     0.017 C 
ATOM     13  C   UNL     1      30.768   7.141  36.318  1.00  0.00     0.012 C 
ATOM     14  C   UNL     1      29.527   5.875  34.579  1.00  0.00     0.012 C 
ATOM     15  C   UNL     1      31.995   9.998  35.208  1.00  0.00     0.012 C 
ENDROOT
TORSDOF 0
ENDMDL
MODEL 3
REMARK VINA RESULT:    -4.556      1.207      3.269
REMARK INTER + INTRA:          -4.556
REMARK INTER:                  -4.556
REMARK INTRA:                   0.000
REMARK UNBOUND:                 0.000
REMARK SMILES CC1=CC[C@@]2(C)CCCC(C)(C)[C@]23C[C@H]13
REMARK SMILES IDX 1 1 2 2 3 3 4 4 5 5 7 6 8 7 9 8 10 9 13 10 15 11 14 12 11 13
REMARK SMILES IDX 12 14 6 15
REMARK H PARENT
REMARK Flexibility Score: inf
ROOT
ATOM      1  C   UNL     1      30.896   8.156  31.122  1.00  0.00     0.039 C 
ATOM      2  C   UNL     1      31.122   8.523  32.564  1.00  0.00    -0.074 C 
ATOM      3  C   UNL     1      31.707   9.693  32.846  1.00  0.00    -0.027 C 
ATOM      4  C   UNL     1      32.112  10.062  34.236  1.00  0.00     0.034 C 
ATOM      5  C   UNL     1      31.118   9.590  35.343  1.00  0.00    -0.022 C 
ATOM      6  C   UNL     1      29.932  10.590  35.388  1.00  0.00     0.008 C 
ATOM      7  C   UNL     1      28.815  10.172  36.354  1.00  0.00     0.001 C 
ATOM      8  C   UNL     1      28.250   8.790  36.011  1.00  0.00     0.007 C 
ATOM      9  C   UNL     1      29.307   7.650  35.965  1.00  0.00    -0.029 C 
ATOM     10  C   UNL     1      30.547   8.135  35.094  1.00  0.00    -0.012 C 
ATOM     11  C   UNL     1      30.589   7.605  33.642  1.00  0.00     0.022 C 
ATOM     12  C   UNL     1      31.595   7.092  34.671  1.00  0.00     0.017 C 
ATOM     13  C   UNL     1      29.761   7.271  37.398  1.00  0.00     0.012 C 
ATOM     14  C   UNL     1      28.567   6.400  35.401  1.00  0.00     0.012 C 
ATOM     15  C   UNL     1      31.923   9.659  36.671  1.00  0.00     0.012 C 
ENDROOT
TORSDOF 0
ENDMDL
MODEL 4
REMARK VINA RESULT:    -4.534     11.949     14.039
REMARK INTER + INTRA:          -4.534
REMARK INTER:                  -4.534
REMARK INTRA:                   0.000
REMARK UNBOUND:                 0.000
REMARK SMILES CC1=CC[C@@]2(C)CCCC(C)(C)[C@]23C[C@H]13
REMARK SMILES IDX 1 1 2 2 3 3 4 4 5 5 7 6 8 7 9 8 10 9 13 10 15 11 14 12 11 13
REMARK SMILES IDX 12 14 6 15
REMARK H PARENT
REMARK Flexibility Score: inf
ROOT
ATOM      1  C   UNL     1      16.259  10.088  30.513  1.00  0.00     0.039 C 
ATOM      2  C   UNL     1      17.699  10.330  30.148  1.00  0.00    -0.074 C 
ATOM      3  C   UNL     1      18.603   9.385  30.435  1.00  0.00    -0.027 C 
ATOM      4  C   UNL     1      20.068   9.610  30.253  1.00  0.00     0.034 C 
ATOM      5  C   UNL     1      20.440  10.452  28.992  1.00  0.00    -0.022 C 
ATOM      6  C   UNL     1      20.396   9.517  27.755  1.00  0.00     0.008 C 
ATOM      7  C   UNL     1      20.621  10.251  26.425  1.00  0.00     0.001 C 
ATOM      8  C   UNL     1      19.594  11.366  26.207  1.00  0.00     0.007 C 
ATOM      9  C   UNL     1      19.534  12.424  27.344  1.00  0.00    -0.029 C 
ATOM     10  C   UNL     1      19.462  11.671  28.744  1.00  0.00    -0.012 C 
ATOM     11  C   UNL     1      18.056  11.583  29.381  1.00  0.00     0.022 C 
ATOM     12  C   UNL     1      19.117  12.492  29.998  1.00  0.00     0.017 C 
ATOM     13  C   UNL     1      20.774  13.354  27.287  1.00  0.00     0.012 C 
ATOM     14  C   UNL     1      18.304  13.326  27.028  1.00  0.00     0.012 C 
ATOM     15  C   UNL     1      21.895  10.939  29.241  1.00  0.00     0.012 C 
ENDROOT
TORSDOF 0
ENDMDL
MODEL 5
REMARK VINA RESULT:    -4.451      1.002      4.447
REMARK INTER + INTRA:          -4.451
REMARK INTER:                  -4.451
REMARK INTRA:                   0.000
REMARK UNBOUND:                 0.000
REMARK SMILES CC1=CC[C@@]2(C)CCCC(C)(C)[C@]23C[C@H]13
REMARK SMILES IDX 1 1 2 2 3 3 4 4 5 5 7 6 8 7 9 8 10 9 13 10 15 11 14 12 11 13
REMARK SMILES IDX 12 14 6 15
REMARK H PARENT
REMARK Flexibility Score: inf
ROOT
ATOM      1  C   UNL     1      31.100   5.875  37.128  1.00  0.00     0.039 C 
ATOM      2  C   UNL     1      30.651   7.079  36.345  1.00  0.00    -0.074 C 
ATOM      3  C   UNL     1      30.376   8.211  37.005  1.00  0.00    -0.027 C 
ATOM      4  C   UNL     1      29.776   9.398  36.327  1.00  0.00     0.034 C 
ATOM      5  C   UNL     1      30.299   9.646  34.878  1.00  0.00    -0.022 C 
ATOM      6  C   UNL     1      31.675  10.355  34.973  1.00  0.00     0.008 C 
ATOM      7  C   UNL     1      32.361  10.546  33.614  1.00  0.00     0.001 C 
ATOM      8  C   UNL     1      32.571   9.214  32.887  1.00  0.00     0.007 C 
ATOM      9  C   UNL     1      31.274   8.384  32.667  1.00  0.00    -0.029 C 
ATOM     10  C   UNL     1      30.470   8.314  34.038  1.00  0.00    -0.012 C 
ATOM     11  C   UNL     1      30.625   6.998  34.835  1.00  0.00     0.022 C 
ATOM     12  C   UNL     1      29.299   7.323  34.149  1.00  0.00     0.017 C 
ATOM     13  C   UNL     1      30.403   9.022  31.554  1.00  0.00     0.012 C 
ATOM     14  C   UNL     1      31.736   7.003  32.115  1.00  0.00     0.012 C 
ATOM     15  C   UNL     1      29.255  10.593  34.222  1.00  0.00     0.012 C 
ENDROOT
TORSDOF 0
ENDMDL
MODEL 6
REMARK VINA RESULT:    -4.397      6.660      9.565
REMARK INTER + INTRA:          -4.397
REMARK INTER:                  -4.397
REMARK INTRA:                   0.000
REMARK UNBOUND:                 0.000
REMARK SMILES CC1=CC[C@@]2(C)CCCC(C)(C)[C@]23C[C@H]13
REMARK SMILES IDX 1 1 2 2 3 3 4 4 5 5 7 6 8 7 9 8 10 9 13 10 15 11 14 12 11 13
REMARK SMILES IDX 12 14 6 15
REMARK H PARENT
REMARK Flexibility Score: inf
ROOT
ATOM      1  C   UNL     1      30.469   7.803  29.485  1.00  0.00     0.039 C 
ATOM      2  C   UNL     1      29.822   8.921  28.714  1.00  0.00    -0.074 C 
ATOM      3  C   UNL     1      29.396  10.000  29.382  1.00  0.00    -0.027 C 
ATOM      4  C   UNL     1      28.603  11.079  28.721  1.00  0.00     0.034 C 
ATOM      5  C   UNL     1      29.043  11.398  27.257  1.00  0.00    -0.022 C 
ATOM      6  C   UNL     1      30.297  12.309  27.315  1.00  0.00     0.008 C 
ATOM      7  C   UNL     1      30.909  12.597  25.937  1.00  0.00     0.001 C 
ATOM      8  C   UNL     1      31.299  11.309  25.205  1.00  0.00     0.007 C 
ATOM      9  C   UNL     1      30.139  10.291  25.021  1.00  0.00    -0.029 C 
ATOM     10  C   UNL     1      29.392  10.105  26.413  1.00  0.00    -0.012 C 
ATOM     11  C   UNL     1      29.767   8.831  27.206  1.00  0.00     0.022 C 
ATOM     12  C   UNL     1      28.390   8.948  26.556  1.00  0.00     0.017 C 
ATOM     13  C   UNL     1      29.151  10.785  23.932  1.00  0.00     0.012 C 
ATOM     14  C   UNL     1      30.791   8.994  24.456  1.00  0.00     0.012 C 
ATOM     15  C   UNL     1      27.850  12.173  26.631  1.00  0.00     0.012 C 
ENDROOT
TORSDOF 0
ENDMDL
MODEL 7
REMARK VINA RESULT:    -4.376     10.935     12.805
REMARK INTER + INTRA:          -4.376
REMARK INTER:                  -4.376
REMARK INTRA:                   0.000
REMARK UNBOUND:                 0.000
REMARK SMILES CC1=CC[C@@]2(C)CCCC(C)(C)[C@]23C[C@H]13
REMARK SMILES IDX 1 1 2 2 3 3 4 4 5 5 7 6 8 7 9 8 10 9 13 10 15 11 14 12 11 13
REMARK SMILES IDX 12 14 6 15
REMARK H PARENT
REMARK Flexibility Score: inf
ROOT
ATOM      1  C   UNL     1      20.423  10.071  25.999  1.00  0.00     0.039 C 
ATOM      2  C   UNL     1      20.688  10.552  27.400  1.00  0.00    -0.074 C 
ATOM      3  C   UNL     1      21.374  11.688  27.571  1.00  0.00    -0.027 C 
ATOM      4  C   UNL     1      21.816  12.151  28.921  1.00  0.00     0.034 C 
ATOM      5  C   UNL     1      20.790  11.877  30.065  1.00  0.00    -0.022 C 
ATOM      6  C   UNL     1      19.697  12.975  30.009  1.00  0.00     0.008 C 
ATOM      7  C   UNL     1      18.552  12.751  31.007  1.00  0.00     0.001 C 
ATOM      8  C   UNL     1      17.867  11.397  30.795  1.00  0.00     0.007 C 
ATOM      9  C   UNL     1      18.820  10.171  30.862  1.00  0.00    -0.029 C 
ATOM     10  C   UNL     1      20.094  10.460  29.953  1.00  0.00    -0.012 C 
ATOM     11  C   UNL     1      20.082   9.792  28.558  1.00  0.00     0.022 C 
ATOM     12  C   UNL     1      21.044   9.293  29.635  1.00  0.00     0.017 C 
ATOM     13  C   UNL     1      19.245   9.892  32.326  1.00  0.00     0.012 C 
ATOM     14  C   UNL     1      17.971   8.942  30.417  1.00  0.00     0.012 C 
ATOM     15  C   UNL     1      21.605  12.000  31.383  1.00  0.00     0.012 C 
ENDROOT
TORSDOF 0
ENDMDL
MODEL 8
REMARK VINA RESULT:    -4.346      1.235      3.447
REMARK INTER + INTRA:          -4.346
REMARK INTER:                  -4.346
REMARK INTRA:                   0.000
REMARK UNBOUND:                 0.000
REMARK SMILES CC1=CC[C@@]2(C)CCCC(C)(C)[C@]23C[C@H]13
REMARK SMILES IDX 1 1 2 2 3 3 4 4 5 5 7 6 8 7 9 8 10 9 13 10 15 11 14 12 11 13
REMARK SMILES IDX 12 14 6 15
REMARK H PARENT
REMARK Flexibility Score: inf
ROOT
ATOM      1  C   UNL     1      30.453   6.628  32.498  1.00  0.00     0.039 C 
ATOM      2  C   UNL     1      30.813   7.443  33.711  1.00  0.00    -0.074 C 
ATOM      3  C   UNL     1      31.324   8.667  33.536  1.00  0.00    -0.027 C 
ATOM      4  C   UNL     1      31.853   9.476  34.674  1.00  0.00     0.034 C 
ATOM      5  C   UNL     1      31.039   9.335  35.999  1.00  0.00    -0.022 C 
ATOM      6  C   UNL     1      29.785  10.242  35.895  1.00  0.00     0.008 C 
ATOM      7  C   UNL     1      28.828  10.101  37.087  1.00  0.00     0.001 C 
ATOM      8  C   UNL     1      28.349   8.657  37.268  1.00  0.00     0.007 C 
ATOM      9  C   UNL     1      29.488   7.612  37.431  1.00  0.00    -0.029 C 
ATOM     10  C   UNL     1      30.572   7.851  36.291  1.00  0.00    -0.012 C 
ATOM     11  C   UNL     1      30.491   6.891  35.082  1.00  0.00     0.022 C 
ATOM     12  C   UNL     1      31.650   6.777  36.070  1.00  0.00     0.017 C 
ATOM     13  C   UNL     1      30.136   7.728  38.834  1.00  0.00     0.012 C 
ATOM     14  C   UNL     1      28.799   6.215  37.387  1.00  0.00     0.012 C 
ATOM     15  C   UNL     1      31.984   9.858  37.117  1.00  0.00     0.012 C 
ENDROOT
TORSDOF 0
ENDMDL
MODEL 9
REMARK VINA RESULT:    -4.329      1.424      4.053
REMARK INTER + INTRA:          -4.329
REMARK INTER:                  -4.329
REMARK INTRA:                   0.000
REMARK UNBOUND:                 0.000
REMARK SMILES CC1=CC[C@@]2(C)CCCC(C)(C)[C@]23C[C@H]13
REMARK SMILES IDX 1 1 2 2 3 3 4 4 5 5 7 6 8 7 9 8 10 9 13 10 15 11 14 12 11 13
REMARK SMILES IDX 12 14 6 15
REMARK H PARENT
REMARK Flexibility Score: inf
ROOT
ATOM      1  C   UNL     1      26.235   9.202  34.609  1.00  0.00     0.039 C 
ATOM      2  C   UNL     1      27.670   9.080  35.048  1.00  0.00    -0.074 C 
ATOM      3  C   UNL     1      27.950   8.352  36.135  1.00  0.00    -0.027 C 
ATOM      4  C   UNL     1      29.319   8.310  36.729  1.00  0.00     0.034 C 
ATOM      5  C   UNL     1      30.477   8.317  35.682  1.00  0.00    -0.022 C 
ATOM      6  C   UNL     1      30.637   6.878  35.126  1.00  0.00     0.008 C 
ATOM      7  C   UNL     1      31.664   6.771  33.990  1.00  0.00     0.001 C 
ATOM      8  C   UNL     1      31.315   7.691  32.816  1.00  0.00     0.007 C 
ATOM      9  C   UNL     1      31.157   9.191  33.192  1.00  0.00    -0.029 C 
ATOM     10  C   UNL     1      30.218   9.304  34.472  1.00  0.00    -0.012 C 
ATOM     11  C   UNL     1      28.750   9.698  34.188  1.00  0.00     0.022 C 
ATOM     12  C   UNL     1      29.689  10.693  34.869  1.00  0.00     0.017 C 
ATOM     13  C   UNL     1      32.542   9.831  33.471  1.00  0.00     0.012 C 
ATOM     14  C   UNL     1      30.604   9.898  31.917  1.00  0.00     0.012 C 
ATOM     15  C   UNL     1      31.747   8.726  36.479  1.00  0.00     0.012 C 
ENDROOT
TORSDOF 0
ENDMDL
