MODEL 1
REMARK VINA RESULT:    -3.186      0.000      0.000
REMARK INTER + INTRA:          -9.772
REMARK INTER:                  -6.911
REMARK INTRA:                  -2.861
REMARK UNBOUND:                -2.861
REMARK SMILES CCCCCCCCCCCCCCCCCCCCCC(=O)[O-]
REMARK SMILES IDX 12 1 11 2 10 3 9 4 8 5 7 6 6 7 5 8 4 9 3 10 2 11 1 12 13 13
REMARK SMILES IDX 14 14 15 15 16 16 17 17 18 18 19 19 20 20 21 21 22 22 23 23
REMARK SMILES IDX 24 24
REMARK H PARENT
REMARK Flexibility Score: inf
ROOT
ATOM      1  C   UNL     1     142.858 142.827 148.375  1.00  0.00     0.000 C 
ENDROOT
BRANCH   1   2
ATOM      2  C   UNL     1     143.700 142.375 149.582  1.00  0.00     0.000 C 
BRANCH   2   3
ATOM      3  C   UNL     1     143.112 141.151 150.298  1.00  0.00     0.000 C 
BRANCH   3   4
ATOM      4  C   UNL     1     144.000 140.717 151.471  1.00  0.00    -0.000 C 
BRANCH   4   5
ATOM      5  C   UNL     1     143.266 140.898 152.807  1.00  0.00    -0.000 C 
BRANCH   5   6
ATOM      6  C   UNL     1     143.406 142.319 153.382  1.00  0.00    -0.000 C 
BRANCH   6   7
ATOM      7  C   UNL     1     142.158 142.847 154.111  1.00  0.00    -0.000 C 
BRANCH   7   8
ATOM      8  C   UNL     1     140.913 141.973 153.878  1.00  0.00    -0.000 C 
BRANCH   8   9
ATOM      9  C   UNL     1     139.875 142.663 152.967  1.00  0.00    -0.000 C 
BRANCH   9  10
ATOM     10  C   UNL     1     140.305 144.067 152.507  1.00  0.00    -0.000 C 
BRANCH  10  11
ATOM     11  C   UNL     1     140.671 144.120 151.018  1.00  0.00    -0.003 C 
ATOM     12  C   UNL     1     141.509 145.354 150.700  1.00  0.00     0.004 C 
ENDBRANCH  10  11
ENDBRANCH   9  10
ENDBRANCH   8   9
ENDBRANCH   7   8
ENDBRANCH   6   7
ENDBRANCH   5   6
ENDBRANCH   4   5
ENDBRANCH   3   4
ENDBRANCH   2   3
ENDBRANCH   1   2
BRANCH   1  13
ATOM     13  C   UNL     1     141.783 141.824 147.913  1.00  0.00     0.000 C 
BRANCH  13  14
ATOM     14  C   UNL     1     141.041 142.283 146.646  1.00  0.00     0.000 C 
BRANCH  14  15
ATOM     15  C   UNL     1     141.111 141.246 145.513  1.00  0.00     0.000 C 
BRANCH  15  16
ATOM     16  C   UNL     1     142.050 140.070 145.842  1.00  0.00     0.000 C 
BRANCH  16  17
ATOM     17  C   UNL     1     143.261 139.991 144.893  1.00  0.00     0.000 C 
BRANCH  17  18
ATOM     18  C   UNL     1     144.600 140.434 145.511  1.00  0.00     0.000 C 
BRANCH  18  19
ATOM     19  C   UNL     1     144.860 141.943 145.347  1.00  0.00     0.000 C 
BRANCH  19  20
ATOM     20  C   UNL     1     144.393 142.479 143.983  1.00  0.00     0.006 C 
BRANCH  20  21
ATOM     21  C   UNL     1     145.154 143.736 143.543  1.00  0.00     0.053 C 
BRANCH  21  22
ATOM     22  C   UNL     1     144.832 144.072 142.121  1.00  0.00     0.041 C 
ATOM     23  O   UNL     1     143.929 144.909 141.853  1.00  0.00    -0.550 OA
ATOM     24  O   UNL     1     145.514 143.442 141.087  1.00  0.00    -0.550 OA
ENDBRANCH  21  22
ENDBRANCH  20  21
ENDBRANCH  19  20
ENDBRANCH  18  19
ENDBRANCH  17  18
ENDBRANCH  16  17
ENDBRANCH  15  16
ENDBRANCH  14  15
ENDBRANCH  13  14
ENDBRANCH   1  13
TORSDOF 20
ENDMDL
MODEL 2
REMARK VINA RESULT:    -3.102      4.101      8.296
REMARK INTER + INTRA:          -9.589
REMARK INTER:                  -6.731
REMARK INTRA:                  -2.858
REMARK UNBOUND:                -2.861
REMARK SMILES CCCCCCCCCCCCCCCCCCCCCC(=O)[O-]
REMARK SMILES IDX 12 1 11 2 10 3 9 4 8 5 7 6 6 7 5 8 4 9 3 10 2 11 1 12 13 13
REMARK SMILES IDX 14 14 15 15 16 16 17 17 18 18 19 19 20 20 21 21 22 22 23 23
REMARK SMILES IDX 24 24
REMARK H PARENT
REMARK Flexibility Score: inf
ROOT
ATOM      1  C   UNL     1     145.783 142.339 149.438  1.00  0.00     0.000 C 
ENDROOT
BRANCH   1   2
ATOM      2  C   UNL     1     145.002 141.077 149.030  1.00  0.00     0.000 C 
BRANCH   2   3
ATOM      3  C   UNL     1     143.835 140.762 149.976  1.00  0.00     0.000 C 
BRANCH   3   4
ATOM      4  C   UNL     1     142.616 140.248 149.199  1.00  0.00    -0.000 C 
BRANCH   4   5
ATOM      5  C   UNL     1     141.438 141.224 149.326  1.00  0.00    -0.000 C 
BRANCH   5   6
ATOM      6  C   UNL     1     141.767 142.633 148.800  1.00  0.00    -0.000 C 
BRANCH   6   7
ATOM      7  C   UNL     1     141.952 142.726 147.274  1.00  0.00    -0.000 C 
BRANCH   7   8
ATOM      8  C   UNL     1     140.830 142.023 146.490  1.00  0.00    -0.000 C 
BRANCH   8   9
ATOM      9  C   UNL     1     141.380 141.102 145.380  1.00  0.00    -0.000 C 
BRANCH   9  10
ATOM     10  C   UNL     1     142.611 140.289 145.816  1.00  0.00    -0.000 C 
BRANCH  10  11
ATOM     11  C   UNL     1     143.725 140.282 144.760  1.00  0.00    -0.003 C 
ATOM     12  C   UNL     1     144.091 141.701 144.338  1.00  0.00     0.004 C 
ENDBRANCH  10  11
ENDBRANCH   9  10
ENDBRANCH   8   9
ENDBRANCH   7   8
ENDBRANCH   6   7
ENDBRANCH   5   6
ENDBRANCH   4   5
ENDBRANCH   3   4
ENDBRANCH   2   3
ENDBRANCH   1   2
BRANCH   1  13
ATOM     13  C   UNL     1     144.981 143.654 149.380  1.00  0.00     0.000 C 
BRANCH  13  14
ATOM     14  C   UNL     1     144.734 144.267 150.769  1.00  0.00     0.000 C 
BRANCH  14  15
ATOM     15  C   UNL     1     145.058 143.291 151.912  1.00  0.00     0.000 C 
BRANCH  15  16
ATOM     16  C   UNL     1     143.999 143.315 153.030  1.00  0.00     0.000 C 
BRANCH  16  17
ATOM     17  C   UNL     1     143.413 141.921 153.325  1.00  0.00     0.000 C 
BRANCH  17  18
ATOM     18  C   UNL     1     141.936 141.739 152.929  1.00  0.00     0.000 C 
BRANCH  18  19
ATOM     19  C   UNL     1     140.967 142.060 154.082  1.00  0.00     0.000 C 
BRANCH  19  20
ATOM     20  C   UNL     1     139.950 143.154 153.713  1.00  0.00     0.006 C 
BRANCH  20  21
ATOM     21  C   UNL     1     139.876 144.275 154.757  1.00  0.00     0.053 C 
BRANCH  21  22
ATOM     22  C   UNL     1     141.188 144.990 154.852  1.00  0.00     0.041 C 
ATOM     23  O   UNL     1     141.551 145.778 153.940  1.00  0.00    -0.550 OA
ATOM     24  O   UNL     1     142.022 144.767 155.941  1.00  0.00    -0.550 OA
ENDBRANCH  21  22
ENDBRANCH  20  21
ENDBRANCH  19  20
ENDBRANCH  18  19
ENDBRANCH  17  18
ENDBRANCH  16  17
ENDBRANCH  15  16
ENDBRANCH  14  15
ENDBRANCH  13  14
ENDBRANCH   1  13
TORSDOF 20
ENDMDL
MODEL 3
REMARK VINA RESULT:    -3.062      2.930      7.320
REMARK INTER + INTRA:          -9.502
REMARK INTER:                  -5.726
REMARK INTRA:                  -3.775
REMARK UNBOUND:                -2.861
REMARK SMILES CCCCCCCCCCCCCCCCCCCCCC(=O)[O-]
REMARK SMILES IDX 12 1 11 2 10 3 9 4 8 5 7 6 6 7 5 8 4 9 3 10 2 11 1 12 13 13
REMARK SMILES IDX 14 14 15 15 16 16 17 17 18 18 19 19 20 20 21 21 22 22 23 23
REMARK SMILES IDX 24 24
REMARK H PARENT
REMARK Flexibility Score: inf
ROOT
ATOM      1  C   UNL     1     144.775 141.326 148.968  1.00  0.00     0.000 C 
ENDROOT
BRANCH   1   2
ATOM      2  C   UNL     1     144.956 141.254 147.441  1.00  0.00     0.000 C 
BRANCH   2   3
ATOM      3  C   UNL     1     144.372 139.973 146.827  1.00  0.00     0.000 C 
BRANCH   3   4
ATOM      4  C   UNL     1     143.715 140.259 145.472  1.00  0.00    -0.000 C 
BRANCH   4   5
ATOM      5  C   UNL     1     142.217 139.926 145.511  1.00  0.00    -0.000 C 
BRANCH   5   6
ATOM      6  C   UNL     1     141.323 141.179 145.500  1.00  0.00    -0.000 C 
BRANCH   6   7
ATOM      7  C   UNL     1     141.049 141.789 146.887  1.00  0.00    -0.000 C 
BRANCH   7   8
ATOM      8  C   UNL     1     141.860 143.070 147.150  1.00  0.00    -0.000 C 
BRANCH   8   9
ATOM      9  C   UNL     1     142.057 143.911 145.870  1.00  0.00    -0.000 C 
BRANCH   9  10
ATOM     10  C   UNL     1     143.511 144.366 145.656  1.00  0.00    -0.000 C 
BRANCH  10  11
ATOM     11  C   UNL     1     143.993 144.160 144.214  1.00  0.00    -0.003 C 
ATOM     12  C   UNL     1     145.195 143.222 144.164  1.00  0.00     0.004 C 
ENDBRANCH  10  11
ENDBRANCH   9  10
ENDBRANCH   8   9
ENDBRANCH   7   8
ENDBRANCH   6   7
ENDBRANCH   5   6
ENDBRANCH   4   5
ENDBRANCH   3   4
ENDBRANCH   2   3
ENDBRANCH   1   2
BRANCH   1  13
ATOM     13  C   UNL     1     143.560 140.556 149.521  1.00  0.00     0.000 C 
BRANCH  13  14
ATOM     14  C   UNL     1     143.630 140.340 151.042  1.00  0.00     0.000 C 
BRANCH  14  15
ATOM     15  C   UNL     1     144.234 141.544 151.783  1.00  0.00     0.000 C 
BRANCH  15  16
ATOM     16  C   UNL     1     143.702 141.683 153.222  1.00  0.00     0.000 C 
BRANCH  16  17
ATOM     17  C   UNL     1     142.233 141.241 153.360  1.00  0.00     0.000 C 
BRANCH  17  18
ATOM     18  C   UNL     1     141.198 142.375 153.240  1.00  0.00     0.000 C 
BRANCH  18  19
ATOM     19  C   UNL     1     140.358 142.280 151.953  1.00  0.00     0.000 C 
BRANCH  19  20
ATOM     20  C   UNL     1     141.026 142.980 150.758  1.00  0.00     0.006 C 
BRANCH  20  21
ATOM     21  C   UNL     1     141.253 144.479 150.996  1.00  0.00     0.053 C 
BRANCH  21  22
ATOM     22  C   UNL     1     142.714 144.802 150.944  1.00  0.00     0.041 C 
ATOM     23  O   UNL     1     143.306 144.897 149.836  1.00  0.00    -0.550 OA
ATOM     24  O   UNL     1     143.428 144.975 152.123  1.00  0.00    -0.550 OA
ENDBRANCH  21  22
ENDBRANCH  20  21
ENDBRANCH  19  20
ENDBRANCH  18  19
ENDBRANCH  17  18
ENDBRANCH  16  17
ENDBRANCH  15  16
ENDBRANCH  14  15
ENDBRANCH  13  14
ENDBRANCH   1  13
TORSDOF 20
ENDMDL
MODEL 4
REMARK VINA RESULT:    -3.053     13.730     16.804
REMARK INTER + INTRA:          -9.483
REMARK INTER:                  -6.357
REMARK INTRA:                  -3.126
REMARK UNBOUND:                -2.861
REMARK SMILES CCCCCCCCCCCCCCCCCCCCCC(=O)[O-]
REMARK SMILES IDX 12 1 11 2 10 3 9 4 8 5 7 6 6 7 5 8 4 9 3 10 2 11 1 12 13 13
REMARK SMILES IDX 14 14 15 15 16 16 17 17 18 18 19 19 20 20 21 21 22 22 23 23
REMARK SMILES IDX 24 24
REMARK H PARENT
REMARK Flexibility Score: inf
ROOT
ATOM      1  C   UNL     1     142.210 154.165 152.194  1.00  0.00     0.000 C 
ENDROOT
BRANCH   1   2
ATOM      2  C   UNL     1     142.102 155.061 150.947  1.00  0.00     0.000 C 
BRANCH   2   3
ATOM      3  C   UNL     1     140.983 156.107 151.056  1.00  0.00     0.000 C 
BRANCH   3   4
ATOM      4  C   UNL     1     141.341 157.382 150.284  1.00  0.00    -0.000 C 
BRANCH   4   5
ATOM      5  C   UNL     1     140.875 158.630 151.047  1.00  0.00    -0.000 C 
BRANCH   5   6
ATOM      6  C   UNL     1     140.780 158.404 152.567  1.00  0.00    -0.000 C 
BRANCH   6   7
ATOM      7  C   UNL     1     140.899 159.681 153.418  1.00  0.00    -0.000 C 
BRANCH   7   8
ATOM      8  C   UNL     1     142.265 159.812 154.116  1.00  0.00    -0.000 C 
BRANCH   8   9
ATOM      9  C   UNL     1     143.433 159.866 153.109  1.00  0.00    -0.000 C 
BRANCH   9  10
ATOM     10  C   UNL     1     144.359 158.639 153.182  1.00  0.00    -0.000 C 
BRANCH  10  11
ATOM     11  C   UNL     1     144.620 158.007 151.809  1.00  0.00    -0.003 C 
ATOM     12  C   UNL     1     144.614 159.062 150.707  1.00  0.00     0.004 C 
ENDBRANCH  10  11
ENDBRANCH   9  10
ENDBRANCH   8   9
ENDBRANCH   7   8
ENDBRANCH   6   7
ENDBRANCH   5   6
ENDBRANCH   4   5
ENDBRANCH   3   4
ENDBRANCH   2   3
ENDBRANCH   1   2
BRANCH   1  13
ATOM     13  C   UNL     1     142.805 154.845 153.442  1.00  0.00     0.000 C 
BRANCH  13  14
ATOM     14  C   UNL     1     141.780 155.015 154.577  1.00  0.00     0.000 C 
BRANCH  14  15
ATOM     15  C   UNL     1     141.147 153.681 155.006  1.00  0.00     0.000 C 
BRANCH  15  16
ATOM     16  C   UNL     1     140.456 153.767 156.380  1.00  0.00     0.000 C 
BRANCH  16  17
ATOM     17  C   UNL     1     141.432 154.123 157.517  1.00  0.00     0.000 C 
BRANCH  17  18
ATOM     18  C   UNL     1     142.322 152.962 157.998  1.00  0.00     0.000 C 
BRANCH  18  19
ATOM     19  C   UNL     1     143.804 153.155 157.626  1.00  0.00     0.000 C 
BRANCH  19  20
ATOM     20  C   UNL     1     144.326 154.556 157.988  1.00  0.00     0.006 C 
BRANCH  20  21
ATOM     21  C   UNL     1     144.848 155.331 156.771  1.00  0.00     0.053 C 
BRANCH  21  22
ATOM     22  C   UNL     1     144.736 156.805 157.002  1.00  0.00     0.041 C 
ATOM     23  O   UNL     1     143.972 157.506 156.287  1.00  0.00    -0.550 OA
ATOM     24  O   UNL     1     145.496 157.411 157.995  1.00  0.00    -0.550 OA
ENDBRANCH  21  22
ENDBRANCH  20  21
ENDBRANCH  19  20
ENDBRANCH  18  19
ENDBRANCH  17  18
ENDBRANCH  16  17
ENDBRANCH  15  16
ENDBRANCH  14  15
ENDBRANCH  13  14
ENDBRANCH   1  13
TORSDOF 20
ENDMDL
MODEL 5
REMARK VINA RESULT:    -3.045      3.026      5.508
REMARK INTER + INTRA:          -9.467
REMARK INTER:                  -6.119
REMARK INTRA:                  -3.347
REMARK UNBOUND:                -2.861
REMARK SMILES CCCCCCCCCCCCCCCCCCCCCC(=O)[O-]
REMARK SMILES IDX 12 1 11 2 10 3 9 4 8 5 7 6 6 7 5 8 4 9 3 10 2 11 1 12 13 13
REMARK SMILES IDX 14 14 15 15 16 16 17 17 18 18 19 19 20 20 21 21 22 22 23 23
REMARK SMILES IDX 24 24
REMARK H PARENT
REMARK Flexibility Score: inf
ROOT
ATOM      1  C   UNL     1     145.518 142.040 145.184  1.00  0.00     0.000 C 
ENDROOT
BRANCH   1   2
ATOM      2  C   UNL     1     144.880 140.814 145.862  1.00  0.00     0.000 C 
BRANCH   2   3
ATOM      3  C   UNL     1     143.805 140.142 144.996  1.00  0.00     0.000 C 
BRANCH   3   4
ATOM      4  C   UNL     1     142.503 139.946 145.783  1.00  0.00    -0.000 C 
BRANCH   4   5
ATOM      5  C   UNL     1     141.456 140.992 145.375  1.00  0.00    -0.000 C 
BRANCH   5   6
ATOM      6  C   UNL     1     140.947 141.826 146.565  1.00  0.00    -0.000 C 
BRANCH   6   7
ATOM      7  C   UNL     1     141.673 141.563 147.896  1.00  0.00    -0.000 C 
BRANCH   7   8
ATOM      8  C   UNL     1     142.082 142.857 148.623  1.00  0.00    -0.000 C 
BRANCH   8   9
ATOM      9  C   UNL     1     143.334 143.508 147.999  1.00  0.00    -0.000 C 
BRANCH   9  10
ATOM     10  C   UNL     1     143.137 144.991 147.641  1.00  0.00    -0.000 C 
BRANCH  10  11
ATOM     11  C   UNL     1     141.718 145.301 147.145  1.00  0.00    -0.003 C 
ATOM     12  C   UNL     1     141.673 145.385 145.623  1.00  0.00     0.004 C 
ENDBRANCH  10  11
ENDBRANCH   9  10
ENDBRANCH   8   9
ENDBRANCH   7   8
ENDBRANCH   6   7
ENDBRANCH   5   6
ENDBRANCH   4   5
ENDBRANCH   3   4
ENDBRANCH   2   3
ENDBRANCH   1   2
BRANCH   1  13
ATOM     13  C   UNL     1     144.522 143.093 144.662  1.00  0.00     0.000 C 
BRANCH  13  14
ATOM     14  C   UNL     1     144.483 143.170 143.126  1.00  0.00     0.000 C 
BRANCH  14  15
ATOM     15  C   UNL     1     144.214 144.594 142.613  1.00  0.00     0.000 C 
BRANCH  15  16
ATOM     16  C   UNL     1     144.671 145.679 143.605  1.00  0.00     0.000 C 
BRANCH  16  17
ATOM     17  C   UNL     1     145.429 146.832 142.920  1.00  0.00     0.000 C 
BRANCH  17  18
ATOM     18  C   UNL     1     146.964 146.750 143.018  1.00  0.00     0.000 C 
BRANCH  18  19
ATOM     19  C   UNL     1     147.588 145.918 141.882  1.00  0.00     0.000 C 
BRANCH  19  20
ATOM     20  C   UNL     1     148.580 144.862 142.399  1.00  0.00     0.006 C 
BRANCH  20  21
ATOM     21  C   UNL     1     147.914 143.510 142.688  1.00  0.00     0.053 C 
BRANCH  21  22
ATOM     22  C   UNL     1     147.821 142.695 141.437  1.00  0.00     0.041 C 
ATOM     23  O   UNL     1     146.854 142.850 140.646  1.00  0.00    -0.550 OA
ATOM     24  O   UNL     1     148.793 141.743 141.155  1.00  0.00    -0.550 OA
ENDBRANCH  21  22
ENDBRANCH  20  21
ENDBRANCH  19  20
ENDBRANCH  18  19
ENDBRANCH  17  18
ENDBRANCH  16  17
ENDBRANCH  15  16
ENDBRANCH  14  15
ENDBRANCH  13  14
ENDBRANCH   1  13
TORSDOF 20
ENDMDL
MODEL 6
REMARK VINA RESULT:    -3.018      3.395      5.533
REMARK INTER + INTRA:          -9.407
REMARK INTER:                  -5.748
REMARK INTRA:                  -3.660
REMARK UNBOUND:                -2.861
REMARK SMILES CCCCCCCCCCCCCCCCCCCCCC(=O)[O-]
REMARK SMILES IDX 12 1 11 2 10 3 9 4 8 5 7 6 6 7 5 8 4 9 3 10 2 11 1 12 13 13
REMARK SMILES IDX 14 14 15 15 16 16 17 17 18 18 19 19 20 20 21 21 22 22 23 23
REMARK SMILES IDX 24 24
REMARK H PARENT
REMARK Flexibility Score: inf
ROOT
ATOM      1  C   UNL     1     145.072 142.145 145.441  1.00  0.00     0.000 C 
ENDROOT
BRANCH   1   2
ATOM      2  C   UNL     1     143.975 141.613 144.501  1.00  0.00     0.000 C 
BRANCH   2   3
ATOM      3  C   UNL     1     143.515 140.193 144.860  1.00  0.00     0.000 C 
BRANCH   3   4
ATOM      4  C   UNL     1     142.377 140.223 145.887  1.00  0.00    -0.000 C 
BRANCH   4   5
ATOM      5  C   UNL     1     141.161 140.978 145.332  1.00  0.00    -0.000 C 
BRANCH   5   6
ATOM      6  C   UNL     1     140.624 142.047 146.303  1.00  0.00    -0.000 C 
BRANCH   6   7
ATOM      7  C   UNL     1     141.399 142.162 147.628  1.00  0.00    -0.000 C 
BRANCH   7   8
ATOM      8  C   UNL     1     141.668 143.620 148.040  1.00  0.00    -0.000 C 
BRANCH   8   9
ATOM      9  C   UNL     1     143.121 144.052 147.749  1.00  0.00    -0.000 C 
BRANCH   9  10
ATOM     10  C   UNL     1     143.224 145.229 146.765  1.00  0.00    -0.000 C 
BRANCH  10  11
ATOM     11  C   UNL     1     142.595 144.920 145.399  1.00  0.00    -0.003 C 
ATOM     12  C   UNL     1     141.484 145.912 145.068  1.00  0.00     0.004 C 
ENDBRANCH  10  11
ENDBRANCH   9  10
ENDBRANCH   8   9
ENDBRANCH   7   8
ENDBRANCH   6   7
ENDBRANCH   5   6
ENDBRANCH   4   5
ENDBRANCH   3   4
ENDBRANCH   2   3
ENDBRANCH   1   2
BRANCH   1  13
ATOM     13  C   UNL     1     146.006 141.071 146.032  1.00  0.00     0.000 C 
BRANCH  13  14
ATOM     14  C   UNL     1     147.436 141.147 145.469  1.00  0.00     0.000 C 
BRANCH  14  15
ATOM     15  C   UNL     1     147.555 140.519 144.071  1.00  0.00     0.000 C 
BRANCH  15  16
ATOM     16  C   UNL     1     148.068 141.515 143.014  1.00  0.00     0.000 C 
BRANCH  16  17
ATOM     17  C   UNL     1     148.025 142.975 143.501  1.00  0.00     0.000 C 
BRANCH  17  18
ATOM     18  C   UNL     1     147.489 143.989 142.472  1.00  0.00     0.000 C 
BRANCH  18  19
ATOM     19  C   UNL     1     146.285 143.450 141.679  1.00  0.00     0.000 C 
BRANCH  19  20
ATOM     20  C   UNL     1     144.957 144.095 142.108  1.00  0.00     0.006 C 
BRANCH  20  21
ATOM     21  C   UNL     1     145.147 145.460 142.781  1.00  0.00     0.053 C 
BRANCH  21  22
ATOM     22  C   UNL     1     144.545 146.545 141.944  1.00  0.00     0.041 C 
ATOM     23  O   UNL     1     144.898 146.693 140.744  1.00  0.00    -0.550 OA
ATOM     24  O   UNL     1     143.609 147.411 142.497  1.00  0.00    -0.550 OA
ENDBRANCH  21  22
ENDBRANCH  20  21
ENDBRANCH  19  20
ENDBRANCH  18  19
ENDBRANCH  17  18
ENDBRANCH  16  17
ENDBRANCH  15  16
ENDBRANCH  14  15
ENDBRANCH  13  14
ENDBRANCH   1  13
TORSDOF 20
ENDMDL
MODEL 7
REMARK VINA RESULT:    -2.966      4.636      8.100
REMARK INTER + INTRA:          -9.294
REMARK INTER:                  -5.552
REMARK INTRA:                  -3.742
REMARK UNBOUND:                -2.861
REMARK SMILES CCCCCCCCCCCCCCCCCCCCCC(=O)[O-]
REMARK SMILES IDX 12 1 11 2 10 3 9 4 8 5 7 6 6 7 5 8 4 9 3 10 2 11 1 12 13 13
REMARK SMILES IDX 14 14 15 15 16 16 17 17 18 18 19 19 20 20 21 21 22 22 23 23
REMARK SMILES IDX 24 24
REMARK H PARENT
REMARK Flexibility Score: inf
ROOT
ATOM      1  C   UNL     1     145.017 142.368 151.287  1.00  0.00     0.000 C 
ENDROOT
BRANCH   1   2
ATOM      2  C   UNL     1     145.478 142.022 149.860  1.00  0.00     0.000 C 
BRANCH   2   3
ATOM      3  C   UNL     1     144.965 140.657 149.379  1.00  0.00     0.000 C 
BRANCH   3   4
ATOM      4  C   UNL     1     143.668 140.268 150.098  1.00  0.00    -0.000 C 
BRANCH   4   5
ATOM      5  C   UNL     1     142.479 140.291 149.127  1.00  0.00    -0.000 C 
BRANCH   5   6
ATOM      6  C   UNL     1     142.899 140.552 147.669  1.00  0.00    -0.000 C 
BRANCH   6   7
ATOM      7  C   UNL     1     141.863 141.318 146.826  1.00  0.00    -0.000 C 
BRANCH   7   8
ATOM      8  C   UNL     1     141.323 142.573 147.534  1.00  0.00    -0.000 C 
BRANCH   8   9
ATOM      9  C   UNL     1     141.816 143.877 146.871  1.00  0.00    -0.000 C 
BRANCH   9  10
ATOM     10  C   UNL     1     143.103 143.695 146.049  1.00  0.00    -0.000 C 
BRANCH  10  11
ATOM     11  C   UNL     1     144.375 143.949 146.870  1.00  0.00    -0.003 C 
ATOM     12  C   UNL     1     145.562 143.182 146.296  1.00  0.00     0.004 C 
ENDBRANCH  10  11
ENDBRANCH   9  10
ENDBRANCH   8   9
ENDBRANCH   7   8
ENDBRANCH   6   7
ENDBRANCH   5   6
ENDBRANCH   4   5
ENDBRANCH   3   4
ENDBRANCH   2   3
ENDBRANCH   1   2
BRANCH   1  13
ATOM     13  C   UNL     1     144.256 143.701 151.426  1.00  0.00     0.000 C 
BRANCH  13  14
ATOM     14  C   UNL     1     143.114 143.846 150.406  1.00  0.00     0.000 C 
BRANCH  14  15
ATOM     15  C   UNL     1     142.033 144.837 150.866  1.00  0.00     0.000 C 
BRANCH  15  16
ATOM     16  C   UNL     1     140.643 144.185 150.990  1.00  0.00     0.000 C 
BRANCH  16  17
ATOM     17  C   UNL     1     140.718 142.665 151.228  1.00  0.00     0.000 C 
BRANCH  17  18
ATOM     18  C   UNL     1     139.919 142.156 152.442  1.00  0.00     0.000 C 
BRANCH  18  19
ATOM     19  C   UNL     1     140.798 141.954 153.690  1.00  0.00     0.000 C 
BRANCH  19  20
ATOM     20  C   UNL     1     140.901 143.224 154.552  1.00  0.00     0.006 C 
BRANCH  20  21
ATOM     21  C   UNL     1     142.311 143.828 154.558  1.00  0.00     0.053 C 
BRANCH  21  22
ATOM     22  C   UNL     1     142.458 144.802 155.685  1.00  0.00     0.041 C 
ATOM     23  O   UNL     1     143.219 144.543 156.655  1.00  0.00    -0.550 OA
ATOM     24  O   UNL     1     141.736 145.989 155.675  1.00  0.00    -0.550 OA
ENDBRANCH  21  22
ENDBRANCH  20  21
ENDBRANCH  19  20
ENDBRANCH  18  19
ENDBRANCH  17  18
ENDBRANCH  16  17
ENDBRANCH  15  16
ENDBRANCH  14  15
ENDBRANCH  13  14
ENDBRANCH   1  13
TORSDOF 20
ENDMDL
MODEL 8
REMARK VINA RESULT:    -2.916      4.304      8.388
REMARK INTER + INTRA:          -9.187
REMARK INTER:                  -6.233
REMARK INTRA:                  -2.954
REMARK UNBOUND:                -2.861
REMARK SMILES CCCCCCCCCCCCCCCCCCCCCC(=O)[O-]
REMARK SMILES IDX 12 1 11 2 10 3 9 4 8 5 7 6 6 7 5 8 4 9 3 10 2 11 1 12 13 13
REMARK SMILES IDX 14 14 15 15 16 16 17 17 18 18 19 19 20 20 21 21 22 22 23 23
REMARK SMILES IDX 24 24
REMARK H PARENT
REMARK Flexibility Score: inf
ROOT
ATOM      1  C   UNL     1     141.915 142.246 147.773  1.00  0.00     0.000 C 
ENDROOT
BRANCH   1   2
ATOM      2  C   UNL     1     141.141 141.905 146.487  1.00  0.00     0.000 C 
BRANCH   2   3
ATOM      3  C   UNL     1     141.795 140.779 145.673  1.00  0.00     0.000 C 
BRANCH   3   4
ATOM      4  C   UNL     1     143.324 140.843 145.771  1.00  0.00    -0.000 C 
BRANCH   4   5
ATOM      5  C   UNL     1     143.942 141.231 144.420  1.00  0.00    -0.000 C 
BRANCH   5   6
ATOM      6  C   UNL     1     144.655 142.595 144.456  1.00  0.00    -0.000 C 
BRANCH   6   7
ATOM      7  C   UNL     1     144.874 143.172 145.866  1.00  0.00    -0.000 C 
BRANCH   7   8
ATOM      8  C   UNL     1     144.261 144.573 146.043  1.00  0.00    -0.000 C 
BRANCH   8   9
ATOM      9  C   UNL     1     143.398 144.991 144.834  1.00  0.00    -0.000 C 
BRANCH   9  10
ATOM     10  C   UNL     1     141.924 145.247 145.196  1.00  0.00    -0.000 C 
BRANCH  10  11
ATOM     11  C   UNL     1     141.746 145.793 146.619  1.00  0.00    -0.003 C 
ATOM     12  C   UNL     1     141.296 147.250 146.596  1.00  0.00     0.004 C 
ENDBRANCH  10  11
ENDBRANCH   9  10
ENDBRANCH   8   9
ENDBRANCH   7   8
ENDBRANCH   6   7
ENDBRANCH   5   6
ENDBRANCH   4   5
ENDBRANCH   3   4
ENDBRANCH   2   3
ENDBRANCH   1   2
BRANCH   1  13
ATOM     13  C   UNL     1     141.379 141.583 149.056  1.00  0.00     0.000 C 
BRANCH  13  14
ATOM     14  C   UNL     1     142.430 140.710 149.764  1.00  0.00     0.000 C 
BRANCH  14  15
ATOM     15  C   UNL     1     143.583 141.537 150.355  1.00  0.00     0.000 C 
BRANCH  15  16
ATOM     16  C   UNL     1     143.175 142.299 151.630  1.00  0.00     0.000 C 
BRANCH  16  17
ATOM     17  C   UNL     1     142.723 141.361 152.765  1.00  0.00     0.000 C 
BRANCH  17  18
ATOM     18  C   UNL     1     141.341 141.684 153.364  1.00  0.00     0.000 C 
BRANCH  18  19
ATOM     19  C   UNL     1     140.596 142.782 152.583  1.00  0.00     0.000 C 
BRANCH  19  20
ATOM     20  C   UNL     1     140.341 144.040 153.430  1.00  0.00     0.006 C 
BRANCH  20  21
ATOM     21  C   UNL     1     140.880 143.916 154.860  1.00  0.00     0.053 C 
BRANCH  21  22
ATOM     22  C   UNL     1     142.060 144.816 155.055  1.00  0.00     0.041 C 
ATOM     23  O   UNL     1     143.113 144.641 154.385  1.00  0.00    -0.550 OA
ATOM     24  O   UNL     1     142.006 145.838 155.995  1.00  0.00    -0.550 OA
ENDBRANCH  21  22
ENDBRANCH  20  21
ENDBRANCH  19  20
ENDBRANCH  18  19
ENDBRANCH  17  18
ENDBRANCH  16  17
ENDBRANCH  15  16
ENDBRANCH  14  15
ENDBRANCH  13  14
ENDBRANCH   1  13
TORSDOF 20
ENDMDL
MODEL 9
REMARK VINA RESULT:    -2.904      4.139      7.543
REMARK INTER + INTRA:          -9.159
REMARK INTER:                  -6.010
REMARK INTRA:                  -3.149
REMARK UNBOUND:                -2.861
REMARK SMILES CCCCCCCCCCCCCCCCCCCCCC(=O)[O-]
REMARK SMILES IDX 12 1 11 2 10 3 9 4 8 5 7 6 6 7 5 8 4 9 3 10 2 11 1 12 13 13
REMARK SMILES IDX 14 14 15 15 16 16 17 17 18 18 19 19 20 20 21 21 22 22 23 23
REMARK SMILES IDX 24 24
REMARK H PARENT
REMARK Flexibility Score: inf
ROOT
ATOM      1  C   UNL     1     141.412 143.900 147.935  1.00  0.00     0.000 C 
ENDROOT
BRANCH   1   2
ATOM      2  C   UNL     1     142.638 144.731 147.516  1.00  0.00     0.000 C 
BRANCH   2   3
ATOM      3  C   UNL     1     142.873 144.730 145.999  1.00  0.00     0.000 C 
BRANCH   3   4
ATOM      4  C   UNL     1     141.762 145.492 145.266  1.00  0.00    -0.000 C 
BRANCH   4   5
ATOM      5  C   UNL     1     141.427 146.801 145.994  1.00  0.00    -0.000 C 
BRANCH   5   6
ATOM      6  C   UNL     1     140.909 147.899 145.046  1.00  0.00    -0.000 C 
BRANCH   6   7
ATOM      7  C   UNL     1     140.195 147.380 143.786  1.00  0.00    -0.000 C 
BRANCH   7   8
ATOM      8  C   UNL     1     140.624 148.119 142.506  1.00  0.00    -0.000 C 
BRANCH   8   9
ATOM      9  C   UNL     1     142.154 148.296 142.418  1.00  0.00    -0.000 C 
BRANCH   9  10
ATOM     10  C   UNL     1     142.865 147.127 141.714  1.00  0.00    -0.000 C 
BRANCH  10  11
ATOM     11  C   UNL     1     144.258 146.842 142.292  1.00  0.00    -0.003 C 
ATOM     12  C   UNL     1     144.402 147.425 143.694  1.00  0.00     0.004 C 
ENDBRANCH  10  11
ENDBRANCH   9  10
ENDBRANCH   8   9
ENDBRANCH   7   8
ENDBRANCH   6   7
ENDBRANCH   5   6
ENDBRANCH   4   5
ENDBRANCH   3   4
ENDBRANCH   2   3
ENDBRANCH   1   2
BRANCH   1  13
ATOM     13  C   UNL     1     141.450 142.418 147.516  1.00  0.00     0.000 C 
BRANCH  13  14
ATOM     14  C   UNL     1     140.551 142.115 146.305  1.00  0.00     0.000 C 
BRANCH  14  15
ATOM     15  C   UNL     1     141.122 141.003 145.410  1.00  0.00     0.000 C 
BRANCH  15  16
ATOM     16  C   UNL     1     142.632 141.164 145.154  1.00  0.00     0.000 C 
BRANCH  16  17
ATOM     17  C   UNL     1     143.431 139.888 145.481  1.00  0.00     0.000 C 
BRANCH  17  18
ATOM     18  C   UNL     1     144.764 140.126 146.216  1.00  0.00     0.000 C 
BRANCH  18  19
ATOM     19  C   UNL     1     144.961 141.597 146.628  1.00  0.00     0.000 C 
BRANCH  19  20
ATOM     20  C   UNL     1     145.050 141.776 148.153  1.00  0.00     0.006 C 
BRANCH  20  21
ATOM     21  C   UNL     1     144.931 140.452 148.917  1.00  0.00     0.053 C 
BRANCH  21  22
ATOM     22  C   UNL     1     143.664 140.419 149.713  1.00  0.00     0.041 C 
ATOM     23  O   UNL     1     142.630 139.875 149.242  1.00  0.00    -0.550 OA
ATOM     24  O   UNL     1     143.618 141.011 150.969  1.00  0.00    -0.550 OA
ENDBRANCH  21  22
ENDBRANCH  20  21
ENDBRANCH  19  20
ENDBRANCH  18  19
ENDBRANCH  17  18
ENDBRANCH  16  17
ENDBRANCH  15  16
ENDBRANCH  14  15
ENDBRANCH  13  14
ENDBRANCH   1  13
TORSDOF 20
ENDMDL
