MODEL 1
REMARK VINA RESULT:    -5.234      0.000      0.000
REMARK INTER + INTRA:          -6.424
REMARK INTER:                  -6.305
REMARK INTRA:                  -0.119
REMARK UNBOUND:                -0.119
REMARK SMILES CC[C@@H](C)[C@H]([NH3+])C(=O)[O-]
REMARK SMILES IDX 3 1 4 2 5 3 6 4 7 8 8 9 9 10 2 11 1 12
REMARK H PARENT 6 5 6 6 6 7
REMARK Flexibility Score: inf
ROOT
ATOM      1  C   UNL     1      13.974   6.643  54.727  1.00  0.00     0.050 C 
ATOM      2  C   UNL     1      12.490   6.596  55.138  1.00  0.00     0.014 C 
ENDROOT
BRANCH   1   3
ATOM      3  C   UNL     1      14.750   7.728  55.542  1.00  0.00     0.230 C 
BRANCH   3   4
ATOM      4  N   UNL     1      14.834   7.390  56.972  1.00  0.00    -0.350 N 
ATOM      5  H   UNL     1      15.487   6.587  57.125  1.00  0.00     0.345 HD
ATOM      6  H   UNL     1      13.888   7.132  57.338  1.00  0.00     0.345 HD
ATOM      7  H   UNL     1      15.158   8.217  57.522  1.00  0.00     0.345 HD
ENDBRANCH   3   4
BRANCH   3   8
ATOM      8  C   UNL     1      14.106   9.082  55.390  1.00  0.00     0.099 C 
ATOM      9  O   UNL     1      13.724   9.720  56.405  1.00  0.00    -0.544 OA
ATOM     10  O   UNL     1      13.940   9.638  54.126  1.00  0.00    -0.544 OA
ENDBRANCH   3   8
ENDBRANCH   1   3
BRANCH   1  11
ATOM     11  C   UNL     1      14.603   5.228  54.897  1.00  0.00     0.006 C 
ATOM     12  C   UNL     1      16.015   5.132  54.314  1.00  0.00     0.004 C 
ENDBRANCH   1  11
TORSDOF 4
ENDMDL
MODEL 2
REMARK VINA RESULT:    -5.031      2.431      3.279
REMARK INTER + INTRA:          -6.180
REMARK INTER:                  -6.046
REMARK INTRA:                  -0.134
REMARK UNBOUND:                -0.119
REMARK SMILES CC[C@@H](C)[C@H]([NH3+])C(=O)[O-]
REMARK SMILES IDX 3 1 4 2 5 3 6 4 7 8 8 9 9 10 2 11 1 12
REMARK H PARENT 6 5 6 6 6 7
REMARK Flexibility Score: inf
ROOT
ATOM      1  C   UNL     1      13.537   7.146  55.282  1.00  0.00     0.050 C 
ATOM      2  C   UNL     1      12.269   6.303  55.045  1.00  0.00     0.014 C 
ENDROOT
BRANCH   1   3
ATOM      3  C   UNL     1      14.828   6.284  55.100  1.00  0.00     0.230 C 
BRANCH   3   4
ATOM      4  N   UNL     1      14.524   4.848  54.998  1.00  0.00    -0.350 N 
ATOM      5  H   UNL     1      14.259   4.458  55.932  1.00  0.00     0.345 HD
ATOM      6  H   UNL     1      15.357   4.327  54.637  1.00  0.00     0.345 HD
ATOM      7  H   UNL     1      13.747   4.689  54.318  1.00  0.00     0.345 HD
ENDBRANCH   3   4
BRANCH   3   8
ATOM      8  C   UNL     1      15.791   6.507  56.239  1.00  0.00     0.099 C 
ATOM      9  O   UNL     1      15.385   6.993  57.326  1.00  0.00    -0.544 OA
ATOM     10  O   UNL     1      17.132   6.168  56.096  1.00  0.00    -0.544 OA
ENDBRANCH   3   8
ENDBRANCH   1   3
BRANCH   1  11
ATOM     11  C   UNL     1      13.523   8.380  54.331  1.00  0.00     0.006 C 
ATOM     12  C   UNL     1      14.107   9.637  54.981  1.00  0.00     0.004 C 
ENDBRANCH   1  11
TORSDOF 4
ENDMDL
MODEL 3
REMARK VINA RESULT:    -4.965      2.702      3.465
REMARK INTER + INTRA:          -6.101
REMARK INTER:                  -5.958
REMARK INTRA:                  -0.142
REMARK UNBOUND:                -0.119
REMARK SMILES CC[C@@H](C)[C@H]([NH3+])C(=O)[O-]
REMARK SMILES IDX 3 1 4 2 5 3 6 4 7 8 8 9 9 10 2 11 1 12
REMARK H PARENT 6 5 6 6 6 7
REMARK Flexibility Score: inf
ROOT
ATOM      1  C   UNL     1      14.723   7.995  55.813  1.00  0.00     0.050 C 
ATOM      2  C   UNL     1      13.982   9.142  56.528  1.00  0.00     0.014 C 
ENDROOT
BRANCH   1   3
ATOM      3  C   UNL     1      15.139   6.877  56.823  1.00  0.00     0.230 C 
BRANCH   3   4
ATOM      4  N   UNL     1      15.552   7.431  58.122  1.00  0.00    -0.350 N 
ATOM      5  H   UNL     1      14.806   7.286  58.841  1.00  0.00     0.345 HD
ATOM      6  H   UNL     1      15.742   8.456  58.033  1.00  0.00     0.345 HD
ATOM      7  H   UNL     1      16.440   6.983  58.442  1.00  0.00     0.345 HD
ENDBRANCH   3   4
BRANCH   3   8
ATOM      8  C   UNL     1      16.257   6.034  56.265  1.00  0.00     0.099 C 
ATOM      9  O   UNL     1      17.413   6.517  56.139  1.00  0.00    -0.544 OA
ATOM     10  O   UNL     1      16.020   4.715  55.896  1.00  0.00    -0.544 OA
ENDBRANCH   3   8
ENDBRANCH   1   3
BRANCH   1  11
ATOM     11  C   UNL     1      13.830   7.438  54.665  1.00  0.00     0.006 C 
ATOM     12  C   UNL     1      12.708   6.530  55.173  1.00  0.00     0.004 C 
ENDBRANCH   1  11
TORSDOF 4
ENDMDL
MODEL 4
REMARK VINA RESULT:    -4.950      2.522      3.706
REMARK INTER + INTRA:          -6.082
REMARK INTER:                  -5.971
REMARK INTRA:                  -0.111
REMARK UNBOUND:                -0.119
REMARK SMILES CC[C@@H](C)[C@H]([NH3+])C(=O)[O-]
REMARK SMILES IDX 3 1 4 2 5 3 6 4 7 8 8 9 9 10 2 11 1 12
REMARK H PARENT 6 5 6 6 6 7
REMARK Flexibility Score: inf
ROOT
ATOM      1  C   UNL     1      14.872   9.018  56.217  1.00  0.00     0.050 C 
ATOM      2  C   UNL     1      15.170  10.187  57.176  1.00  0.00     0.014 C 
ENDROOT
BRANCH   1   3
ATOM      3  C   UNL     1      14.856   7.654  56.980  1.00  0.00     0.230 C 
BRANCH   3   4
ATOM      4  N   UNL     1      15.780   7.650  58.125  1.00  0.00    -0.350 N 
ATOM      5  H   UNL     1      16.634   8.216  57.913  1.00  0.00     0.345 HD
ATOM      6  H   UNL     1      16.070   6.671  58.352  1.00  0.00     0.345 HD
ATOM      7  H   UNL     1      15.308   8.033  58.974  1.00  0.00     0.345 HD
ENDBRANCH   3   4
BRANCH   3   8
ATOM      8  C   UNL     1      15.205   6.515  56.057  1.00  0.00     0.099 C 
ATOM      9  O   UNL     1      14.296   5.872  55.471  1.00  0.00    -0.544 OA
ATOM     10  O   UNL     1      16.536   6.175  55.839  1.00  0.00    -0.544 OA
ENDBRANCH   3   8
ENDBRANCH   1   3
BRANCH   1  11
ATOM     11  C   UNL     1      13.527   9.286  55.478  1.00  0.00     0.006 C 
ATOM     12  C   UNL     1      13.666   9.231  53.955  1.00  0.00     0.004 C 
ENDBRANCH   1  11
TORSDOF 4
ENDMDL
MODEL 5
REMARK VINA RESULT:    -4.926      2.070      2.358
REMARK INTER + INTRA:          -6.053
REMARK INTER:                  -5.932
REMARK INTRA:                  -0.121
REMARK UNBOUND:                -0.119
REMARK SMILES CC[C@@H](C)[C@H]([NH3+])C(=O)[O-]
REMARK SMILES IDX 3 1 4 2 5 3 6 4 7 8 8 9 9 10 2 11 1 12
REMARK H PARENT 6 5 6 6 6 7
REMARK Flexibility Score: inf
ROOT
ATOM      1  C   UNL     1      14.284   7.334  55.188  1.00  0.00     0.050 C 
ATOM      2  C   UNL     1      13.147   8.219  54.642  1.00  0.00     0.014 C 
ENDROOT
BRANCH   1   3
ATOM      3  C   UNL     1      14.621   7.699  56.671  1.00  0.00     0.230 C 
BRANCH   3   4
ATOM      4  N   UNL     1      13.832   8.846  57.149  1.00  0.00    -0.350 N 
ATOM      5  H   UNL     1      14.442   9.530  57.655  1.00  0.00     0.345 HD
ATOM      6  H   UNL     1      13.078   8.521  57.797  1.00  0.00     0.345 HD
ATOM      7  H   UNL     1      13.361   9.322  56.347  1.00  0.00     0.345 HD
ENDBRANCH   3   4
BRANCH   3   8
ATOM      8  C   UNL     1      16.088   8.005  56.832  1.00  0.00     0.099 C 
ATOM      9  O   UNL     1      16.482   9.197  56.918  1.00  0.00    -0.544 OA
ATOM     10  O   UNL     1      17.014   6.969  56.897  1.00  0.00    -0.544 OA
ENDBRANCH   3   8
ENDBRANCH   1   3
BRANCH   1  11
ATOM     11  C   UNL     1      13.892   5.834  55.035  1.00  0.00     0.006 C 
ATOM     12  C   UNL     1      15.091   4.935  54.725  1.00  0.00     0.004 C 
ENDBRANCH   1  11
TORSDOF 4
ENDMDL
MODEL 6
REMARK VINA RESULT:    -4.832      1.429      2.379
REMARK INTER + INTRA:          -5.940
REMARK INTER:                  -5.813
REMARK INTRA:                  -0.127
REMARK UNBOUND:                -0.119
REMARK SMILES CC[C@@H](C)[C@H]([NH3+])C(=O)[O-]
REMARK SMILES IDX 3 1 4 2 5 3 6 4 7 8 8 9 9 10 2 11 1 12
REMARK H PARENT 6 5 6 6 6 7
REMARK Flexibility Score: inf
ROOT
ATOM      1  C   UNL     1      14.953   6.217  55.739  1.00  0.00     0.050 C 
ATOM      2  C   UNL     1      15.777   5.076  55.112  1.00  0.00     0.014 C 
ENDROOT
BRANCH   1   3
ATOM      3  C   UNL     1      15.882   7.355  56.274  1.00  0.00     0.230 C 
BRANCH   3   4
ATOM      4  N   UNL     1      16.736   6.897  57.381  1.00  0.00    -0.350 N 
ATOM      5  H   UNL     1      17.012   5.897  57.246  1.00  0.00     0.345 HD
ATOM      6  H   UNL     1      16.228   6.988  58.291  1.00  0.00     0.345 HD
ATOM      7  H   UNL     1      17.592   7.492  57.449  1.00  0.00     0.345 HD
ENDBRANCH   3   4
BRANCH   3   8
ATOM      8  C   UNL     1      15.073   8.543  56.730  1.00  0.00     0.099 C 
ATOM      9  O   UNL     1      14.345   8.458  57.754  1.00  0.00    -0.544 OA
ATOM     10  O   UNL     1      15.135   9.741  56.029  1.00  0.00    -0.544 OA
ENDBRANCH   3   8
ENDBRANCH   1   3
BRANCH   1  11
ATOM     11  C   UNL     1      13.926   6.748  54.695  1.00  0.00     0.006 C 
ATOM     12  C   UNL     1      12.474   6.480  55.100  1.00  0.00     0.004 C 
ENDBRANCH   1  11
TORSDOF 4
ENDMDL
MODEL 7
REMARK VINA RESULT:    -4.788      2.231      3.901
REMARK INTER + INTRA:          -5.887
REMARK INTER:                  -5.826
REMARK INTRA:                  -0.062
REMARK UNBOUND:                -0.119
REMARK SMILES CC[C@@H](C)[C@H]([NH3+])C(=O)[O-]
REMARK SMILES IDX 3 1 4 2 5 3 6 4 7 8 8 9 9 10 2 11 1 12
REMARK H PARENT 6 5 6 6 6 7
REMARK Flexibility Score: inf
ROOT
ATOM      1  C   UNL     1      15.203   8.616  56.269  1.00  0.00     0.050 C 
ATOM      2  C   UNL     1      16.510   8.694  57.081  1.00  0.00     0.014 C 
ENDROOT
BRANCH   1   3
ATOM      3  C   UNL     1      14.463   7.262  56.521  1.00  0.00     0.230 C 
BRANCH   3   4
ATOM      4  N   UNL     1      15.361   6.236  57.074  1.00  0.00    -0.350 N 
ATOM      5  H   UNL     1      16.359   6.546  57.014  1.00  0.00     0.345 HD
ATOM      6  H   UNL     1      15.253   5.339  56.546  1.00  0.00     0.345 HD
ATOM      7  H   UNL     1      15.115   6.036  58.069  1.00  0.00     0.345 HD
ENDBRANCH   3   4
BRANCH   3   8
ATOM      8  C   UNL     1      13.839   6.743  55.251  1.00  0.00     0.099 C 
ATOM      9  O   UNL     1      14.556   6.208  54.365  1.00  0.00    -0.544 OA
ATOM     10  O   UNL     1      12.466   6.842  55.056  1.00  0.00    -0.544 OA
ENDBRANCH   3   8
ENDBRANCH   1   3
BRANCH   1  11
ATOM     11  C   UNL     1      14.306   9.841  56.614  1.00  0.00     0.006 C 
ATOM     12  C   UNL     1      15.000  10.845  57.538  1.00  0.00     0.004 C 
ENDBRANCH   1  11
TORSDOF 4
ENDMDL
MODEL 8
REMARK VINA RESULT:    -4.714      2.399      2.968
REMARK INTER + INTRA:          -5.798
REMARK INTER:                  -5.804
REMARK INTRA:                   0.006
REMARK UNBOUND:                -0.119
REMARK SMILES CC[C@@H](C)[C@H]([NH3+])C(=O)[O-]
REMARK SMILES IDX 3 1 4 2 5 3 6 4 7 8 8 9 9 10 2 11 1 12
REMARK H PARENT 6 5 6 6 6 7
REMARK Flexibility Score: inf
ROOT
ATOM      1  C   UNL     1      12.873   8.070  55.180  1.00  0.00     0.050 C 
ATOM      2  C   UNL     1      12.414   6.599  55.160  1.00  0.00     0.014 C 
ENDROOT
BRANCH   1   3
ATOM      3  C   UNL     1      13.439   8.464  56.583  1.00  0.00     0.230 C 
BRANCH   3   4
ATOM      4  N   UNL     1      13.337   9.911  56.833  1.00  0.00    -0.350 N 
ATOM      5  H   UNL     1      12.473  10.303  56.392  1.00  0.00     0.345 HD
ATOM      6  H   UNL     1      14.172  10.405  56.442  1.00  0.00     0.345 HD
ATOM      7  H   UNL     1      13.324  10.102  57.860  1.00  0.00     0.345 HD
ENDBRANCH   3   4
BRANCH   3   8
ATOM      8  C   UNL     1      14.878   8.037  56.724  1.00  0.00     0.099 C 
ATOM      9  O   UNL     1      15.801   8.890  56.664  1.00  0.00    -0.544 OA
ATOM     10  O   UNL     1      15.191   6.698  56.932  1.00  0.00    -0.544 OA
ENDBRANCH   3   8
ENDBRANCH   1   3
BRANCH   1  11
ATOM     11  C   UNL     1      13.915   8.303  54.047  1.00  0.00     0.006 C 
ATOM     12  C   UNL     1      13.695   9.620  53.299  1.00  0.00     0.004 C 
ENDBRANCH   1  11
TORSDOF 4
ENDMDL
MODEL 9
REMARK VINA RESULT:    -4.694      2.578      3.840
REMARK INTER + INTRA:          -5.773
REMARK INTER:                  -5.713
REMARK INTRA:                  -0.061
REMARK UNBOUND:                -0.119
REMARK SMILES CC[C@@H](C)[C@H]([NH3+])C(=O)[O-]
REMARK SMILES IDX 3 1 4 2 5 3 6 4 7 8 8 9 9 10 2 11 1 12
REMARK H PARENT 6 5 6 6 6 7
REMARK Flexibility Score: inf
ROOT
ATOM      1  C   UNL     1      14.180   8.718  56.343  1.00  0.00     0.050 C 
ATOM      2  C   UNL     1      12.967   9.626  56.619  1.00  0.00     0.014 C 
ENDROOT
BRANCH   1   3
ATOM      3  C   UNL     1      14.177   8.208  54.865  1.00  0.00     0.230 C 
BRANCH   3   4
ATOM      4  N   UNL     1      13.288   9.007  54.007  1.00  0.00    -0.350 N 
ATOM      5  H   UNL     1      13.518   8.860  52.997  1.00  0.00     0.345 HD
ATOM      6  H   UNL     1      13.386  10.024  54.232  1.00  0.00     0.345 HD
ATOM      7  H   UNL     1      12.290   8.751  54.180  1.00  0.00     0.345 HD
ENDBRANCH   3   4
BRANCH   3   8
ATOM      8  C   UNL     1      13.764   6.759  54.795  1.00  0.00     0.099 C 
ATOM      9  O   UNL     1      12.614   6.409  55.169  1.00  0.00    -0.544 OA
ATOM     10  O   UNL     1      14.648   5.804  54.306  1.00  0.00    -0.544 OA
ENDBRANCH   3   8
ENDBRANCH   1   3
BRANCH   1  11
ATOM     11  C   UNL     1      15.491   9.485  56.689  1.00  0.00     0.006 C 
ATOM     12  C   UNL     1      15.237  10.765  57.489  1.00  0.00     0.004 C 
ENDBRANCH   1  11
TORSDOF 4
ENDMDL
