MODEL 1
REMARK VINA RESULT:    -3.644      0.000      0.000
REMARK INTER + INTRA:          -4.030
REMARK INTER:                  -3.857
REMARK INTRA:                  -0.172
REMARK UNBOUND:                -0.172
REMARK SMILES CC(C)[C@@H]1CC[C@H](C)CC1=O
REMARK SMILES IDX 8 1 7 2 6 3 5 4 4 5 10 6 11 7 9 8 2 9 1 10 3 11
REMARK H PARENT
REMARK Flexibility Score: inf
ROOT
ATOM      1  C   UNL     1     114.332 117.075 119.732  1.00  0.00     0.008 C 
ATOM      2  C   UNL     1     114.100 115.580 120.007  1.00  0.00    -0.007 C 
ATOM      3  C   UNL     1     114.315 114.721 118.739  1.00  0.00     0.004 C 
ATOM      4  C   UNL     1     115.798 114.603 118.333  1.00  0.00     0.012 C 
ATOM      5  C   UNL     1     116.674 114.066 119.490  1.00  0.00     0.058 C 
ATOM      6  C   UNL     1     116.401 114.930 120.708  1.00  0.00     0.136 C 
ATOM      7  O   UNL     1     117.285 115.570 121.259  1.00  0.00    -0.299 OA
ATOM      8  C   UNL     1     114.978 115.076 121.167  1.00  0.00     0.079 C 
ENDROOT
BRANCH   5   9
ATOM      9  C   UNL     1     118.195 113.986 119.128  1.00  0.00    -0.007 C 
ATOM     10  C   UNL     1     118.603 115.006 118.050  1.00  0.00     0.008 C 
ATOM     11  C   UNL     1     118.568 112.576 118.633  1.00  0.00     0.008 C 
ENDBRANCH   5   9
TORSDOF 1
ENDMDL
MODEL 2
REMARK VINA RESULT:    -3.617      2.364      3.746
REMARK INTER + INTRA:          -4.001
REMARK INTER:                  -3.827
REMARK INTRA:                  -0.174
REMARK UNBOUND:                -0.172
REMARK SMILES CC(C)[C@@H]1CC[C@H](C)CC1=O
REMARK SMILES IDX 8 1 7 2 6 3 5 4 4 5 10 6 11 7 9 8 2 9 1 10 3 11
REMARK H PARENT
REMARK Flexibility Score: inf
ROOT
ATOM      1  C   UNL     1     117.096 118.837 119.744  1.00  0.00     0.008 C 
ATOM      2  C   UNL     1     115.606 119.068 120.044  1.00  0.00    -0.007 C 
ATOM      3  C   UNL     1     114.728 118.866 118.787  1.00  0.00     0.004 C 
ATOM      4  C   UNL     1     114.601 117.387 118.369  1.00  0.00     0.012 C 
ATOM      5  C   UNL     1     114.081 116.500 119.526  1.00  0.00     0.058 C 
ATOM      6  C   UNL     1     114.964 116.761 120.733  1.00  0.00     0.136 C 
ATOM      7  O   UNL     1     115.611 115.871 121.265  1.00  0.00    -0.299 OA
ATOM      8  C   UNL     1     115.119 118.179 121.203  1.00  0.00     0.079 C 
ENDROOT
BRANCH   5   9
ATOM      9  C   UNL     1     113.993 114.983 119.151  1.00  0.00    -0.007 C 
ATOM     10  C   UNL     1     114.986 114.587 118.042  1.00  0.00     0.008 C 
ATOM     11  C   UNL     1     112.572 114.613 118.689  1.00  0.00     0.008 C 
ENDBRANCH   5   9
TORSDOF 1
ENDMDL
MODEL 3
REMARK VINA RESULT:    -3.616      2.369      3.748
REMARK INTER + INTRA:          -4.000
REMARK INTER:                  -3.829
REMARK INTRA:                  -0.171
REMARK UNBOUND:                -0.172
REMARK SMILES CC(C)[C@@H]1CC[C@H](C)CC1=O
REMARK SMILES IDX 8 1 7 2 6 3 5 4 4 5 10 6 11 7 9 8 2 9 1 10 3 11
REMARK H PARENT
REMARK Flexibility Score: inf
ROOT
ATOM      1  C   UNL     1     116.088 114.413 119.671  1.00  0.00     0.008 C 
ATOM      2  C   UNL     1     117.555 114.177 120.066  1.00  0.00    -0.007 C 
ATOM      3  C   UNL     1     118.507 114.314 118.854  1.00  0.00     0.004 C 
ATOM      4  C   UNL     1     118.678 115.772 118.381  1.00  0.00     0.012 C 
ATOM      5  C   UNL     1     119.144 116.702 119.528  1.00  0.00     0.058 C 
ATOM      6  C   UNL     1     118.190 116.504 120.693  1.00  0.00     0.136 C 
ATOM      7  O   UNL     1     117.527 117.423 121.149  1.00  0.00    -0.299 OA
ATOM      8  C   UNL     1     117.989 115.109 121.212  1.00  0.00     0.079 C 
ENDROOT
BRANCH   5   9
ATOM      9  C   UNL     1     119.275 118.200 119.095  1.00  0.00    -0.007 C 
ATOM     10  C   UNL     1     118.335 118.566 117.932  1.00  0.00     0.008 C 
ATOM     11  C   UNL     1     120.720 118.527 118.676  1.00  0.00     0.008 C 
ENDBRANCH   5   9
TORSDOF 1
ENDMDL
MODEL 4
REMARK VINA RESULT:    -3.615      3.064      5.367
REMARK INTER + INTRA:          -3.998
REMARK INTER:                  -3.823
REMARK INTRA:                  -0.176
REMARK UNBOUND:                -0.172
REMARK SMILES CC(C)[C@@H]1CC[C@H](C)CC1=O
REMARK SMILES IDX 8 1 7 2 6 3 5 4 4 5 10 6 11 7 9 8 2 9 1 10 3 11
REMARK H PARENT
REMARK Flexibility Score: inf
ROOT
ATOM      1  C   UNL     1     118.888 116.130 119.482  1.00  0.00     0.008 C 
ATOM      2  C   UNL     1     119.159 117.615 119.774  1.00  0.00    -0.007 C 
ATOM      3  C   UNL     1     118.887 118.504 118.538  1.00  0.00     0.004 C 
ATOM      4  C   UNL     1     117.386 118.654 118.220  1.00  0.00     0.012 C 
ATOM      5  C   UNL     1     116.585 119.179 119.436  1.00  0.00     0.058 C 
ATOM      6  C   UNL     1     116.913 118.284 120.619  1.00  0.00     0.136 C 
ATOM      7  O   UNL     1     116.051 117.646 121.206  1.00  0.00    -0.299 OA
ATOM      8  C   UNL     1     118.357 118.107 120.992  1.00  0.00     0.079 C 
ENDROOT
BRANCH   5   9
ATOM      9  C   UNL     1     115.048 119.289 119.164  1.00  0.00    -0.007 C 
ATOM     10  C   UNL     1     114.570 118.329 118.059  1.00  0.00     0.008 C 
ATOM     11  C   UNL     1     114.664 120.726 118.761  1.00  0.00     0.008 C 
ENDBRANCH   5   9
TORSDOF 1
ENDMDL
MODEL 5
REMARK VINA RESULT:    -3.574      2.373      4.591
REMARK INTER + INTRA:          -3.956
REMARK INTER:                  -3.787
REMARK INTRA:                  -0.169
REMARK UNBOUND:                -0.172
REMARK SMILES CC(C)[C@@H]1CC[C@H](C)CC1=O
REMARK SMILES IDX 8 1 7 2 6 3 5 4 4 5 10 6 11 7 9 8 2 9 1 10 3 11
REMARK H PARENT
REMARK Flexibility Score: inf
ROOT
ATOM      1  C   UNL     1     115.933 114.389 119.695  1.00  0.00     0.008 C 
ATOM      2  C   UNL     1     114.895 115.088 120.588  1.00  0.00    -0.007 C 
ATOM      3  C   UNL     1     115.537 116.194 121.459  1.00  0.00     0.004 C 
ATOM      4  C   UNL     1     115.948 117.440 120.649  1.00  0.00     0.012 C 
ATOM      5  C   UNL     1     114.762 118.023 119.842  1.00  0.00     0.058 C 
ATOM      6  C   UNL     1     114.160 116.889 119.031  1.00  0.00     0.136 C 
ATOM      7  O   UNL     1     114.107 116.924 117.810  1.00  0.00    -0.299 OA
ATOM      8  C   UNL     1     113.725 115.651 119.761  1.00  0.00     0.079 C 
ENDROOT
BRANCH   5   9
ATOM      9  C   UNL     1     115.158 119.256 118.964  1.00  0.00    -0.007 C 
ATOM     10  C   UNL     1     116.635 119.226 118.529  1.00  0.00     0.008 C 
ATOM     11  C   UNL     1     114.899 120.573 119.719  1.00  0.00     0.008 C 
ENDBRANCH   5   9
TORSDOF 1
ENDMDL
MODEL 6
REMARK VINA RESULT:    -3.564      3.059      4.124
REMARK INTER + INTRA:          -3.945
REMARK INTER:                  -3.794
REMARK INTRA:                  -0.151
REMARK UNBOUND:                -0.172
REMARK SMILES CC(C)[C@@H]1CC[C@H](C)CC1=O
REMARK SMILES IDX 8 1 7 2 6 3 5 4 4 5 10 6 11 7 9 8 2 9 1 10 3 11
REMARK H PARENT
REMARK Flexibility Score: inf
ROOT
ATOM      1  C   UNL     1     114.359 117.168 119.755  1.00  0.00     0.008 C 
ATOM      2  C   UNL     1     115.044 118.246 120.610  1.00  0.00    -0.007 C 
ATOM      3  C   UNL     1     116.183 117.658 121.475  1.00  0.00     0.004 C 
ATOM      4  C   UNL     1     117.426 117.264 120.651  1.00  0.00     0.012 C 
ATOM      5  C   UNL     1     117.959 118.446 119.806  1.00  0.00     0.058 C 
ATOM      6  C   UNL     1     116.794 118.996 119.002  1.00  0.00     0.136 C 
ATOM      7  O   UNL     1     116.805 119.021 117.780  1.00  0.00    -0.299 OA
ATOM      8  C   UNL     1     115.557 119.413 119.746  1.00  0.00     0.079 C 
ENDROOT
BRANCH   5   9
ATOM      9  C   UNL     1     119.188 118.065 118.915  1.00  0.00    -0.007 C 
ATOM     10  C   UNL     1     119.140 116.604 118.431  1.00  0.00     0.008 C 
ATOM     11  C   UNL     1     120.508 118.284 119.677  1.00  0.00     0.008 C 
ENDBRANCH   5   9
TORSDOF 1
ENDMDL
MODEL 7
REMARK VINA RESULT:    -3.564      2.475      3.511
REMARK INTER + INTRA:          -3.944
REMARK INTER:                  -3.789
REMARK INTRA:                  -0.156
REMARK UNBOUND:                -0.172
REMARK SMILES CC(C)[C@@H]1CC[C@H](C)CC1=O
REMARK SMILES IDX 8 1 7 2 6 3 5 4 4 5 10 6 11 7 9 8 2 9 1 10 3 11
REMARK H PARENT
REMARK Flexibility Score: inf
ROOT
ATOM      1  C   UNL     1     117.167 118.883 119.717  1.00  0.00     0.008 C 
ATOM      2  C   UNL     1     118.237 118.199 120.583  1.00  0.00    -0.007 C 
ATOM      3  C   UNL     1     117.638 117.071 121.456  1.00  0.00     0.004 C 
ATOM      4  C   UNL     1     117.240 115.823 120.641  1.00  0.00     0.012 C 
ATOM      5  C   UNL     1     118.423 115.276 119.807  1.00  0.00     0.058 C 
ATOM      6  C   UNL     1     118.983 116.430 118.994  1.00  0.00     0.136 C 
ATOM      7  O   UNL     1     119.013 116.408 117.773  1.00  0.00    -0.299 OA
ATOM      8  C   UNL     1     119.404 117.671 119.728  1.00  0.00     0.079 C 
ENDROOT
BRANCH   5   9
ATOM      9  C   UNL     1     118.038 114.041 118.925  1.00  0.00    -0.007 C 
ATOM     10  C   UNL     1     116.573 114.083 118.452  1.00  0.00     0.008 C 
ATOM     11  C   UNL     1     118.265 112.726 119.692  1.00  0.00     0.008 C 
ENDBRANCH   5   9
TORSDOF 1
ENDMDL
MODEL 8
REMARK VINA RESULT:    -3.563      1.700      4.025
REMARK INTER + INTRA:          -3.943
REMARK INTER:                  -3.777
REMARK INTRA:                  -0.167
REMARK UNBOUND:                -0.172
REMARK SMILES CC(C)[C@@H]1CC[C@H](C)CC1=O
REMARK SMILES IDX 8 1 7 2 6 3 5 4 4 5 10 6 11 7 9 8 2 9 1 10 3 11
REMARK H PARENT
REMARK Flexibility Score: inf
ROOT
ATOM      1  C   UNL     1     118.879 115.946 119.683  1.00  0.00     0.008 C 
ATOM      2  C   UNL     1     118.182 114.903 120.572  1.00  0.00    -0.007 C 
ATOM      3  C   UNL     1     117.082 115.540 121.453  1.00  0.00     0.004 C 
ATOM      4  C   UNL     1     115.833 115.960 120.652  1.00  0.00     0.012 C 
ATOM      5  C   UNL     1     115.243 114.782 119.839  1.00  0.00     0.058 C 
ATOM      6  C   UNL     1     116.372 114.184 119.017  1.00  0.00     0.136 C 
ATOM      7  O   UNL     1     116.330 114.141 117.797  1.00  0.00    -0.299 OA
ATOM      8  C   UNL     1     117.612 113.740 119.738  1.00  0.00     0.079 C 
ENDROOT
BRANCH   5   9
ATOM      9  C   UNL     1     114.006 115.188 118.971  1.00  0.00    -0.007 C 
ATOM     10  C   UNL     1     114.045 116.664 118.536  1.00  0.00     0.008 C 
ATOM     11  C   UNL     1     112.693 114.939 119.736  1.00  0.00     0.008 C 
ENDBRANCH   5   9
TORSDOF 1
ENDMDL
MODEL 9
REMARK VINA RESULT:    -3.499      2.474      4.290
REMARK INTER + INTRA:          -3.876
REMARK INTER:                  -3.700
REMARK INTRA:                  -0.176
REMARK UNBOUND:                -0.172
REMARK SMILES CC(C)[C@@H]1CC[C@H](C)CC1=O
REMARK SMILES IDX 8 1 7 2 6 3 5 4 4 5 10 6 11 7 9 8 2 9 1 10 3 11
REMARK H PARENT
REMARK Flexibility Score: inf
ROOT
ATOM      1  C   UNL     1     118.282 118.370 120.897  1.00  0.00     0.008 C 
ATOM      2  C   UNL     1     117.608 118.594 119.534  1.00  0.00    -0.007 C 
ATOM      3  C   UNL     1     117.524 117.287 118.710  1.00  0.00     0.004 C 
ATOM      4  C   UNL     1     116.486 116.289 119.264  1.00  0.00     0.012 C 
ATOM      5  C   UNL     1     115.081 116.926 119.390  1.00  0.00     0.058 C 
ATOM      6  C   UNL     1     115.232 118.213 120.182  1.00  0.00     0.136 C 
ATOM      7  O   UNL     1     114.649 118.393 121.241  1.00  0.00    -0.299 OA
ATOM      8  C   UNL     1     116.216 119.235 119.689  1.00  0.00     0.079 C 
ENDROOT
BRANCH   5   9
ATOM      9  C   UNL     1     114.016 115.956 120.001  1.00  0.00    -0.007 C 
ATOM     10  C   UNL     1     114.645 114.863 120.885  1.00  0.00     0.008 C 
ATOM     11  C   UNL     1     113.195 115.273 118.891  1.00  0.00     0.008 C 
ENDBRANCH   5   9
TORSDOF 1
ENDMDL
