MODEL 1
REMARK VINA RESULT:    -3.398      0.000      0.000
REMARK INTER + INTRA:          -7.485
REMARK INTER:                  -5.781
REMARK INTRA:                  -1.703
REMARK UNBOUND:                -1.703
REMARK SMILES CCCCCCCCCCCCCC(=O)[O-]
REMARK SMILES IDX 8 1 9 2 10 3 11 4 12 5 13 6 14 7 15 8 16 9 7 10 6 11 5 12
REMARK SMILES IDX 4 13 3 14 2 15 1 16
REMARK H PARENT
REMARK Flexibility Score: inf
ROOT
ATOM      1  C   UNL     1      32.455  11.528  22.296  1.00  0.00     0.000 C 
ENDROOT
BRANCH   1   2
ATOM      2  C   UNL     1      32.058  10.527  23.394  1.00  0.00     0.000 C 
BRANCH   2   3
ATOM      3  C   UNL     1      31.195   9.370  22.859  1.00  0.00     0.000 C 
BRANCH   3   4
ATOM      4  C   UNL     1      31.841   8.660  21.658  1.00  0.00     0.000 C 
BRANCH   4   5
ATOM      5  C   UNL     1      31.347   7.213  21.492  1.00  0.00     0.006 C 
BRANCH   5   6
ATOM      6  C   UNL     1      32.463   6.269  21.025  1.00  0.00     0.053 C 
BRANCH   6   7
ATOM      7  C   UNL     1      32.200   4.853  21.437  1.00  0.00     0.041 C 
ATOM      8  O   UNL     1      32.902   4.313  22.331  1.00  0.00    -0.550 OA
ATOM      9  O   UNL     1      31.157   4.141  20.857  1.00  0.00    -0.550 OA
ENDBRANCH   6   7
ENDBRANCH   5   6
ENDBRANCH   4   5
ENDBRANCH   3   4
ENDBRANCH   2   3
ENDBRANCH   1   2
BRANCH   1  10
ATOM     10  C   UNL     1      33.865  12.107  22.509  1.00  0.00     0.000 C 
BRANCH  10  11
ATOM     11  C   UNL     1      34.737  11.232  23.430  1.00  0.00    -0.000 C 
BRANCH  11  12
ATOM     12  C   UNL     1      35.908  10.513  22.733  1.00  0.00    -0.000 C 
BRANCH  12  13
ATOM     13  C   UNL     1      35.508   9.308  21.859  1.00  0.00    -0.000 C 
BRANCH  13  14
ATOM     14  C   UNL     1      35.843   9.450  20.360  1.00  0.00    -0.000 C 
BRANCH  14  15
ATOM     15  C   UNL     1      34.662   9.200  19.408  1.00  0.00    -0.003 C 
ATOM     16  C   UNL     1      33.871  10.470  19.093  1.00  0.00     0.004 C 
ENDBRANCH  14  15
ENDBRANCH  13  14
ENDBRANCH  12  13
ENDBRANCH  11  12
ENDBRANCH  10  11
ENDBRANCH   1  10
TORSDOF 12
ENDMDL
MODEL 2
REMARK VINA RESULT:    -3.201      1.320      2.867
REMARK INTER + INTRA:          -7.150
REMARK INTER:                  -5.779
REMARK INTRA:                  -1.371
REMARK UNBOUND:                -1.703
REMARK SMILES CCCCCCCCCCCCCC(=O)[O-]
REMARK SMILES IDX 8 1 9 2 10 3 11 4 12 5 13 6 14 7 15 8 16 9 7 10 6 11 5 12
REMARK SMILES IDX 4 13 3 14 2 15 1 16
REMARK H PARENT
REMARK Flexibility Score: inf
ROOT
ATOM      1  C   UNL     1      31.944   8.727  21.843  1.00  0.00     0.000 C 
ENDROOT
BRANCH   1   2
ATOM      2  C   UNL     1      31.130   7.488  21.437  1.00  0.00     0.000 C 
BRANCH   2   3
ATOM      3  C   UNL     1      31.487   6.977  20.029  1.00  0.00     0.000 C 
BRANCH   3   4
ATOM      4  C   UNL     1      32.982   7.132  19.709  1.00  0.00     0.000 C 
BRANCH   4   5
ATOM      5  C   UNL     1      33.717   5.781  19.649  1.00  0.00     0.006 C 
BRANCH   5   6
ATOM      6  C   UNL     1      34.130   5.284  21.040  1.00  0.00     0.053 C 
BRANCH   6   7
ATOM      7  C   UNL     1      33.337   4.085  21.459  1.00  0.00     0.041 C 
ATOM      8  O   UNL     1      32.322   4.221  22.190  1.00  0.00    -0.550 OA
ATOM      9  O   UNL     1      33.698   2.820  21.013  1.00  0.00    -0.550 OA
ENDBRANCH   6   7
ENDBRANCH   5   6
ENDBRANCH   4   5
ENDBRANCH   3   4
ENDBRANCH   2   3
ENDBRANCH   1   2
BRANCH   1  10
ATOM     10  C   UNL     1      31.265   9.538  22.960  1.00  0.00     0.000 C 
BRANCH  10  11
ATOM     11  C   UNL     1      32.167  10.652  23.523  1.00  0.00    -0.000 C 
BRANCH  11  12
ATOM     12  C   UNL     1      33.376  11.022  22.642  1.00  0.00    -0.000 C 
BRANCH  12  13
ATOM     13  C   UNL     1      34.693  11.261  23.406  1.00  0.00    -0.000 C 
BRANCH  13  14
ATOM     14  C   UNL     1      35.923  10.531  22.829  1.00  0.00    -0.000 C 
BRANCH  14  15
ATOM     15  C   UNL     1      35.674   9.795  21.502  1.00  0.00    -0.003 C 
ATOM     16  C   UNL     1      36.121   8.333  21.539  1.00  0.00     0.004 C 
ENDBRANCH  14  15
ENDBRANCH  13  14
ENDBRANCH  12  13
ENDBRANCH  11  12
ENDBRANCH  10  11
ENDBRANCH   1  10
TORSDOF 12
ENDMDL
MODEL 3
REMARK VINA RESULT:    -3.179      1.126      1.574
REMARK INTER + INTRA:          -7.112
REMARK INTER:                  -5.890
REMARK INTRA:                  -1.222
REMARK UNBOUND:                -1.703
REMARK SMILES CCCCCCCCCCCCCC(=O)[O-]
REMARK SMILES IDX 8 1 9 2 10 3 11 4 12 5 13 6 14 7 15 8 16 9 7 10 6 11 5 12
REMARK SMILES IDX 4 13 3 14 2 15 1 16
REMARK H PARENT
REMARK Flexibility Score: inf
ROOT
ATOM      1  C   UNL     1      32.625  11.691  22.225  1.00  0.00     0.000 C 
ENDROOT
BRANCH   1   2
ATOM      2  C   UNL     1      32.106  10.831  23.389  1.00  0.00     0.000 C 
BRANCH   2   3
ATOM      3  C   UNL     1      31.310   9.603  22.912  1.00  0.00     0.000 C 
BRANCH   3   4
ATOM      4  C   UNL     1      32.090   8.754  21.896  1.00  0.00     0.000 C 
BRANCH   4   5
ATOM      5  C   UNL     1      31.327   7.485  21.478  1.00  0.00     0.006 C 
BRANCH   5   6
ATOM      6  C   UNL     1      32.223   6.491  20.727  1.00  0.00     0.053 C 
BRANCH   6   7
ATOM      7  C   UNL     1      31.980   5.082  21.170  1.00  0.00     0.041 C 
ATOM      8  O   UNL     1      32.572   4.625  22.183  1.00  0.00    -0.550 OA
ATOM      9  O   UNL     1      31.073   4.282  20.485  1.00  0.00    -0.550 OA
ENDBRANCH   6   7
ENDBRANCH   5   6
ENDBRANCH   4   5
ENDBRANCH   3   4
ENDBRANCH   2   3
ENDBRANCH   1   2
BRANCH   1  10
ATOM     10  C   UNL     1      34.095  12.105  22.408  1.00  0.00     0.000 C 
BRANCH  10  11
ATOM     11  C   UNL     1      34.905  11.085  23.229  1.00  0.00    -0.000 C 
BRANCH  11  12
ATOM     12  C   UNL     1      36.316  10.782  22.687  1.00  0.00    -0.000 C 
BRANCH  12  13
ATOM     13  C   UNL     1      36.594   9.297  22.381  1.00  0.00    -0.000 C 
BRANCH  13  14
ATOM     14  C   UNL     1      35.670   8.666  21.321  1.00  0.00    -0.000 C 
BRANCH  14  15
ATOM     15  C   UNL     1      36.243   7.422  20.620  1.00  0.00    -0.003 C 
ATOM     16  C   UNL     1      35.866   6.117  21.322  1.00  0.00     0.004 C 
ENDBRANCH  14  15
ENDBRANCH  13  14
ENDBRANCH  12  13
ENDBRANCH  11  12
ENDBRANCH  10  11
ENDBRANCH   1  10
TORSDOF 12
ENDMDL
MODEL 4
REMARK VINA RESULT:    -3.161      1.269      2.013
REMARK INTER + INTRA:          -7.083
REMARK INTER:                  -5.789
REMARK INTRA:                  -1.293
REMARK UNBOUND:                -1.703
REMARK SMILES CCCCCCCCCCCCCC(=O)[O-]
REMARK SMILES IDX 8 1 9 2 10 3 11 4 12 5 13 6 14 7 15 8 16 9 7 10 6 11 5 12
REMARK SMILES IDX 4 13 3 14 2 15 1 16
REMARK H PARENT
REMARK Flexibility Score: inf
ROOT
ATOM      1  C   UNL     1      32.167  10.601  23.455  1.00  0.00     0.000 C 
ENDROOT
BRANCH   1   2
ATOM      2  C   UNL     1      31.231   9.548  22.839  1.00  0.00     0.000 C 
BRANCH   2   3
ATOM      3  C   UNL     1      31.955   8.614  21.853  1.00  0.00     0.000 C 
BRANCH   3   4
ATOM      4  C   UNL     1      31.028   7.530  21.281  1.00  0.00     0.000 C 
BRANCH   4   5
ATOM      5  C   UNL     1      31.611   6.113  21.434  1.00  0.00     0.006 C 
BRANCH   5   6
ATOM      6  C   UNL     1      32.882   5.916  20.598  1.00  0.00     0.053 C 
BRANCH   6   7
ATOM      7  C   UNL     1      33.745   4.824  21.151  1.00  0.00     0.041 C 
ATOM      8  O   UNL     1      34.983   4.820  20.928  1.00  0.00    -0.550 OA
ATOM      9  O   UNL     1      33.186   3.828  21.942  1.00  0.00    -0.550 OA
ENDBRANCH   6   7
ENDBRANCH   5   6
ENDBRANCH   4   5
ENDBRANCH   3   4
ENDBRANCH   2   3
ENDBRANCH   1   2
BRANCH   1  10
ATOM     10  C   UNL     1      32.500  11.738  22.474  1.00  0.00     0.000 C 
BRANCH  10  11
ATOM     11  C   UNL     1      34.011  12.017  22.374  1.00  0.00    -0.000 C 
BRANCH  11  12
ATOM     12  C   UNL     1      34.882  11.282  23.411  1.00  0.00    -0.000 C 
BRANCH  12  13
ATOM     13  C   UNL     1      36.082  10.509  22.828  1.00  0.00    -0.000 C 
BRANCH  13  14
ATOM     14  C   UNL     1      35.867   9.946  21.409  1.00  0.00    -0.000 C 
BRANCH  14  15
ATOM     15  C   UNL     1      35.611   8.431  21.346  1.00  0.00    -0.003 C 
ATOM     16  C   UNL     1      36.778   7.607  21.892  1.00  0.00     0.004 C 
ENDBRANCH  14  15
ENDBRANCH  13  14
ENDBRANCH  12  13
ENDBRANCH  11  12
ENDBRANCH  10  11
ENDBRANCH   1  10
TORSDOF 12
ENDMDL
MODEL 5
REMARK VINA RESULT:    -3.147      1.193      1.725
REMARK INTER + INTRA:          -7.059
REMARK INTER:                  -5.337
REMARK INTRA:                  -1.722
REMARK UNBOUND:                -1.703
REMARK SMILES CCCCCCCCCCCCCC(=O)[O-]
REMARK SMILES IDX 8 1 9 2 10 3 11 4 12 5 13 6 14 7 15 8 16 9 7 10 6 11 5 12
REMARK SMILES IDX 4 13 3 14 2 15 1 16
REMARK H PARENT
REMARK Flexibility Score: inf
ROOT
ATOM      1  C   UNL     1      34.014  12.010  22.393  1.00  0.00     0.000 C 
ENDROOT
BRANCH   1   2
ATOM      2  C   UNL     1      32.509  11.699  22.372  1.00  0.00     0.000 C 
BRANCH   2   3
ATOM      3  C   UNL     1      32.100  10.670  23.441  1.00  0.00     0.000 C 
BRANCH   3   4
ATOM      4  C   UNL     1      31.292   9.501  22.854  1.00  0.00     0.000 C 
BRANCH   4   5
ATOM      5  C   UNL     1      32.064   8.739  21.763  1.00  0.00     0.006 C 
BRANCH   5   6
ATOM      6  C   UNL     1      31.410   7.393  21.422  1.00  0.00     0.053 C 
BRANCH   6   7
ATOM      7  C   UNL     1      32.158   6.670  20.345  1.00  0.00     0.041 C 
ATOM      8  O   UNL     1      32.851   5.658  20.625  1.00  0.00    -0.550 OA
ATOM      9  O   UNL     1      32.062   7.094  19.025  1.00  0.00    -0.550 OA
ENDBRANCH   6   7
ENDBRANCH   5   6
ENDBRANCH   4   5
ENDBRANCH   3   4
ENDBRANCH   2   3
ENDBRANCH   1   2
BRANCH   1  10
ATOM     10  C   UNL     1      34.801  11.049  23.302  1.00  0.00     0.000 C 
BRANCH  10  11
ATOM     11  C   UNL     1      36.270  10.886  22.870  1.00  0.00    -0.000 C 
BRANCH  11  12
ATOM     12  C   UNL     1      36.633   9.503  22.296  1.00  0.00    -0.000 C 
BRANCH  12  13
ATOM     13  C   UNL     1      35.509   8.807  21.504  1.00  0.00    -0.000 C 
BRANCH  13  14
ATOM     14  C   UNL     1      35.642   8.895  19.970  1.00  0.00    -0.000 C 
BRANCH  14  15
ATOM     15  C   UNL     1      35.220  10.242  19.360  1.00  0.00    -0.003 C 
ATOM     16  C   UNL     1      33.747  10.275  18.951  1.00  0.00     0.004 C 
ENDBRANCH  14  15
ENDBRANCH  13  14
ENDBRANCH  12  13
ENDBRANCH  11  12
ENDBRANCH  10  11
ENDBRANCH   1  10
TORSDOF 12
ENDMDL
MODEL 6
REMARK VINA RESULT:    -3.014      2.878      5.141
REMARK INTER + INTRA:          -6.832
REMARK INTER:                  -5.581
REMARK INTRA:                  -1.251
REMARK UNBOUND:                -1.703
REMARK SMILES CCCCCCCCCCCCCC(=O)[O-]
REMARK SMILES IDX 8 1 9 2 10 3 11 4 12 5 13 6 14 7 15 8 16 9 7 10 6 11 5 12
REMARK SMILES IDX 4 13 3 14 2 15 1 16
REMARK H PARENT
REMARK Flexibility Score: inf
ROOT
ATOM      1  C   UNL     1      32.164  10.181  23.277  1.00  0.00     0.000 C 
ENDROOT
BRANCH   1   2
ATOM      2  C   UNL     1      32.300  11.598  22.696  1.00  0.00     0.000 C 
BRANCH   2   3
ATOM      3  C   UNL     1      33.767  12.019  22.495  1.00  0.00     0.000 C 
BRANCH   3   4
ATOM      4  C   UNL     1      34.754  11.058  23.177  1.00  0.00     0.000 C 
BRANCH   4   5
ATOM      5  C   UNL     1      35.964  10.723  22.286  1.00  0.00     0.006 C 
BRANCH   5   6
ATOM      6  C   UNL     1      36.341   9.238  22.354  1.00  0.00     0.053 C 
BRANCH   6   7
ATOM      7  C   UNL     1      37.605   9.021  23.126  1.00  0.00     0.041 C 
ATOM      8  O   UNL     1      37.858   7.894  23.626  1.00  0.00    -0.550 OA
ATOM      9  O   UNL     1      38.523  10.056  23.264  1.00  0.00    -0.550 OA
ENDBRANCH   6   7
ENDBRANCH   5   6
ENDBRANCH   4   5
ENDBRANCH   3   4
ENDBRANCH   2   3
ENDBRANCH   1   2
BRANCH   1  10
ATOM     10  C   UNL     1      31.013   9.389  22.633  1.00  0.00     0.000 C 
BRANCH  10  11
ATOM     11  C   UNL     1      31.497   8.132  21.887  1.00  0.00    -0.000 C 
BRANCH  11  12
ATOM     12  C   UNL     1      32.782   8.317  21.058  1.00  0.00    -0.000 C 
BRANCH  12  13
ATOM     13  C   UNL     1      33.198   7.098  20.212  1.00  0.00    -0.000 C 
BRANCH  13  14
ATOM     14  C   UNL     1      34.442   6.344  20.723  1.00  0.00    -0.000 C 
BRANCH  14  15
ATOM     15  C   UNL     1      34.214   4.855  21.034  1.00  0.00    -0.003 C 
ATOM     16  C   UNL     1      32.935   4.603  21.833  1.00  0.00     0.004 C 
ENDBRANCH  14  15
ENDBRANCH  13  14
ENDBRANCH  12  13
ENDBRANCH  11  12
ENDBRANCH  10  11
ENDBRANCH   1  10
TORSDOF 12
ENDMDL
MODEL 7
REMARK VINA RESULT:    -2.999      2.135      3.744
REMARK INTER + INTRA:          -6.806
REMARK INTER:                  -5.618
REMARK INTRA:                  -1.188
REMARK UNBOUND:                -1.703
REMARK SMILES CCCCCCCCCCCCCC(=O)[O-]
REMARK SMILES IDX 8 1 9 2 10 3 11 4 12 5 13 6 14 7 15 8 16 9 7 10 6 11 5 12
REMARK SMILES IDX 4 13 3 14 2 15 1 16
REMARK H PARENT
REMARK Flexibility Score: inf
ROOT
ATOM      1  C   UNL     1      31.989   8.688  21.816  1.00  0.00     0.000 C 
ENDROOT
BRANCH   1   2
ATOM      2  C   UNL     1      31.200   7.444  21.376  1.00  0.00     0.000 C 
BRANCH   2   3
ATOM      3  C   UNL     1      32.075   6.418  20.633  1.00  0.00     0.000 C 
BRANCH   3   4
ATOM      4  C   UNL     1      32.433   5.206  21.509  1.00  0.00     0.000 C 
BRANCH   4   5
ATOM      5  C   UNL     1      33.894   4.758  21.328  1.00  0.00     0.006 C 
BRANCH   5   6
ATOM      6  C   UNL     1      34.769   5.863  20.722  1.00  0.00     0.053 C 
BRANCH   6   7
ATOM      7  C   UNL     1      36.213   5.685  21.078  1.00  0.00     0.041 C 
ATOM      8  O   UNL     1      37.009   5.166  20.254  1.00  0.00    -0.550 OA
ATOM      9  O   UNL     1      36.686   6.125  22.308  1.00  0.00    -0.550 OA
ENDBRANCH   6   7
ENDBRANCH   5   6
ENDBRANCH   4   5
ENDBRANCH   3   4
ENDBRANCH   2   3
ENDBRANCH   1   2
BRANCH   1  10
ATOM     10  C   UNL     1      31.244   9.509  22.883  1.00  0.00     0.000 C 
BRANCH  10  11
ATOM     11  C   UNL     1      32.122  10.609  23.510  1.00  0.00    -0.000 C 
BRANCH  11  12
ATOM     12  C   UNL     1      32.526  11.747  22.552  1.00  0.00    -0.000 C 
BRANCH  12  13
ATOM     13  C   UNL     1      34.040  11.877  22.293  1.00  0.00    -0.000 C 
BRANCH  13  14
ATOM     14  C   UNL     1      34.942  11.202  23.346  1.00  0.00    -0.000 C 
BRANCH  14  15
ATOM     15  C   UNL     1      36.086  10.352  22.769  1.00  0.00    -0.003 C 
ATOM     16  C   UNL     1      35.626   9.407  21.659  1.00  0.00     0.004 C 
ENDBRANCH  14  15
ENDBRANCH  13  14
ENDBRANCH  12  13
ENDBRANCH  11  12
ENDBRANCH  10  11
ENDBRANCH   1  10
TORSDOF 12
ENDMDL
MODEL 8
REMARK VINA RESULT:    -2.968      3.016      5.321
REMARK INTER + INTRA:          -6.754
REMARK INTER:                  -5.254
REMARK INTRA:                  -1.500
REMARK UNBOUND:                -1.703
REMARK SMILES CCCCCCCCCCCCCC(=O)[O-]
REMARK SMILES IDX 8 1 9 2 10 3 11 4 12 5 13 6 14 7 15 8 16 9 7 10 6 11 5 12
REMARK SMILES IDX 4 13 3 14 2 15 1 16
REMARK H PARENT
REMARK Flexibility Score: inf
ROOT
ATOM      1  C   UNL     1      32.007   8.697  21.852  1.00  0.00     0.000 C 
ENDROOT
BRANCH   1   2
ATOM      2  C   UNL     1      31.277   9.606  22.854  1.00  0.00     0.000 C 
BRANCH   2   3
ATOM      3  C   UNL     1      32.219  10.611  23.541  1.00  0.00     0.000 C 
BRANCH   3   4
ATOM      4  C   UNL     1      33.450  10.944  22.683  1.00  0.00     0.000 C 
BRANCH   4   5
ATOM      5  C   UNL     1      34.700  11.236  23.532  1.00  0.00     0.006 C 
BRANCH   5   6
ATOM      6  C   UNL     1      35.846  11.818  22.695  1.00  0.00     0.053 C 
BRANCH   6   7
ATOM      7  C   UNL     1      37.069  10.956  22.754  1.00  0.00     0.041 C 
ATOM      8  O   UNL     1      38.117  11.300  22.149  1.00  0.00    -0.550 OA
ATOM      9  O   UNL     1      37.063   9.788  23.508  1.00  0.00    -0.550 OA
ENDBRANCH   6   7
ENDBRANCH   5   6
ENDBRANCH   4   5
ENDBRANCH   3   4
ENDBRANCH   2   3
ENDBRANCH   1   2
BRANCH   1  10
ATOM     10  C   UNL     1      31.174   7.466  21.458  1.00  0.00     0.000 C 
BRANCH  10  11
ATOM     11  C   UNL     1      32.036   6.213  21.215  1.00  0.00    -0.000 C 
BRANCH  11  12
ATOM     12  C   UNL     1      32.519   6.022  19.764  1.00  0.00    -0.000 C 
BRANCH  12  13
ATOM     13  C   UNL     1      33.923   6.582  19.463  1.00  0.00    -0.000 C 
BRANCH  13  14
ATOM     14  C   UNL     1      34.892   6.592  20.663  1.00  0.00    -0.000 C 
BRANCH  14  15
ATOM     15  C   UNL     1      35.499   7.966  20.992  1.00  0.00    -0.003 C 
ATOM     16  C   UNL     1      35.189   9.024  19.934  1.00  0.00     0.004 C 
ENDBRANCH  14  15
ENDBRANCH  13  14
ENDBRANCH  12  13
ENDBRANCH  11  12
ENDBRANCH  10  11
ENDBRANCH   1  10
TORSDOF 12
ENDMDL
MODEL 9
REMARK VINA RESULT:    -2.927      2.195      4.510
REMARK INTER + INTRA:          -6.684
REMARK INTER:                  -5.386
REMARK INTRA:                  -1.298
REMARK UNBOUND:                -1.703
REMARK SMILES CCCCCCCCCCCCCC(=O)[O-]
REMARK SMILES IDX 8 1 9 2 10 3 11 4 12 5 13 6 14 7 15 8 16 9 7 10 6 11 5 12
REMARK SMILES IDX 4 13 3 14 2 15 1 16
REMARK H PARENT
REMARK Flexibility Score: inf
ROOT
ATOM      1  C   UNL     1      33.317  11.023  22.482  1.00  0.00     0.000 C 
ENDROOT
BRANCH   1   2
ATOM      2  C   UNL     1      34.627  11.319  23.230  1.00  0.00     0.000 C 
BRANCH   2   3
ATOM      3  C   UNL     1      35.743  10.314  22.893  1.00  0.00     0.000 C 
BRANCH   3   4
ATOM      4  C   UNL     1      35.634   9.772  21.459  1.00  0.00     0.000 C 
BRANCH   4   5
ATOM      5  C   UNL     1      36.586   8.591  21.199  1.00  0.00     0.006 C 
BRANCH   5   6
ATOM      6  C   UNL     1      37.378   8.198  22.453  1.00  0.00     0.053 C 
BRANCH   6   7
ATOM      7  C   UNL     1      37.259   6.735  22.749  1.00  0.00     0.041 C 
ATOM      8  O   UNL     1      36.858   5.940  21.860  1.00  0.00    -0.550 OA
ATOM      9  O   UNL     1      37.624   6.244  23.996  1.00  0.00    -0.550 OA
ENDBRANCH   6   7
ENDBRANCH   5   6
ENDBRANCH   4   5
ENDBRANCH   3   4
ENDBRANCH   2   3
ENDBRANCH   1   2
BRANCH   1  10
ATOM     10  C   UNL     1      32.153  10.703  23.436  1.00  0.00     0.000 C 
BRANCH  10  11
ATOM     11  C   UNL     1      31.286   9.528  22.947  1.00  0.00    -0.000 C 
BRANCH  11  12
ATOM     12  C   UNL     1      31.906   8.682  21.818  1.00  0.00    -0.000 C 
BRANCH  12  13
ATOM     13  C   UNL     1      31.230   7.318  21.575  1.00  0.00    -0.000 C 
BRANCH  13  14
ATOM     14  C   UNL     1      32.094   6.289  20.819  1.00  0.00    -0.000 C 
BRANCH  14  15
ATOM     15  C   UNL     1      33.575   6.674  20.667  1.00  0.00    -0.003 C 
ATOM     16  C   UNL     1      34.182   6.198  19.347  1.00  0.00     0.004 C 
ENDBRANCH  14  15
ENDBRANCH  13  14
ENDBRANCH  12  13
ENDBRANCH  11  12
ENDBRANCH  10  11
ENDBRANCH   1  10
TORSDOF 12
ENDMDL
