MODEL 1
REMARK VINA RESULT:    -3.888      0.000      0.000
REMARK INTER + INTRA:          -8.024
REMARK INTER:                  -7.298
REMARK INTRA:                  -0.726
REMARK UNBOUND:                -0.726
REMARK SMILES CCCCCCCCC=CCCCCCCCC(=O)[O-]
REMARK SMILES IDX 10 1 9 2 11 3 12 4 13 5 14 6 15 7 16 8 17 9 18 10 19 11
REMARK SMILES IDX 20 12 8 13 7 14 6 15 5 16 4 17 3 18 2 19 1 20
REMARK H PARENT
REMARK Flexibility Score: inf
ROOT
ATOM      1  C   UNL     1     414.664 -85.328 118.021  1.00  0.00    -0.031 C 
ATOM      2  C   UNL     1     413.656 -85.794 117.262  1.00  0.00    -0.031 C 
ENDROOT
BRANCH   1   3
ATOM      3  C   UNL     1     415.198 -83.915 117.997  1.00  0.00     0.027 C 
BRANCH   3   4
ATOM      4  C   UNL     1     416.684 -83.875 117.608  1.00  0.00     0.004 C 
BRANCH   4   5
ATOM      5  C   UNL     1     417.659 -83.925 118.801  1.00  0.00     0.000 C 
BRANCH   5   6
ATOM      6  C   UNL     1     418.969 -84.685 118.499  1.00  0.00     0.000 C 
BRANCH   6   7
ATOM      7  C   UNL     1     419.721 -85.077 119.783  1.00  0.00     0.000 C 
BRANCH   7   8
ATOM      8  C   UNL     1     420.376 -86.464 119.686  1.00  0.00     0.006 C 
BRANCH   8   9
ATOM      9  C   UNL     1     420.251 -87.269 120.985  1.00  0.00     0.053 C 
BRANCH   9  10
ATOM     10  C   UNL     1     421.024 -88.545 120.885  1.00  0.00     0.041 C 
ATOM     11  O   UNL     1     420.478 -89.641 121.175  1.00  0.00    -0.550 OA
ATOM     12  O   UNL     1     422.335 -88.530 120.425  1.00  0.00    -0.550 OA
ENDBRANCH   9  10
ENDBRANCH   8   9
ENDBRANCH   7   8
ENDBRANCH   6   7
ENDBRANCH   5   6
ENDBRANCH   4   5
ENDBRANCH   3   4
ENDBRANCH   1   3
BRANCH   2  13
ATOM     13  C   UNL     1     412.856 -84.980 116.271  1.00  0.00     0.027 C 
BRANCH  13  14
ATOM     14  C   UNL     1     412.572 -85.736 114.963  1.00  0.00     0.004 C 
BRANCH  14  15
ATOM     15  C   UNL     1     411.471 -85.062 114.129  1.00  0.00     0.000 C 
BRANCH  15  16
ATOM     16  C   UNL     1     410.535 -84.189 114.980  1.00  0.00     0.000 C 
BRANCH  16  17
ATOM     17  C   UNL     1     409.052 -84.394 114.633  1.00  0.00    -0.000 C 
BRANCH  17  18
ATOM     18  C   UNL     1     408.609 -85.832 114.947  1.00  0.00    -0.000 C 
BRANCH  18  19
ATOM     19  C   UNL     1     407.085 -86.009 114.882  1.00  0.00    -0.003 C 
ATOM     20  C   UNL     1     406.422 -85.071 113.873  1.00  0.00     0.004 C 
ENDBRANCH  18  19
ENDBRANCH  17  18
ENDBRANCH  16  17
ENDBRANCH  15  16
ENDBRANCH  14  15
ENDBRANCH  13  14
ENDBRANCH   2  13
TORSDOF 15
ENDMDL
MODEL 2
REMARK VINA RESULT:    -3.820      5.166     11.085
REMARK INTER + INTRA:          -7.896
REMARK INTER:                  -7.163
REMARK INTRA:                  -0.732
REMARK UNBOUND:                -0.726
REMARK SMILES CCCCCCCCC=CCCCCCCCC(=O)[O-]
REMARK SMILES IDX 10 1 9 2 11 3 12 4 13 5 14 6 15 7 16 8 17 9 18 10 19 11
REMARK SMILES IDX 20 12 8 13 7 14 6 15 5 16 4 17 3 18 2 19 1 20
REMARK H PARENT
REMARK Flexibility Score: inf
ROOT
ATOM      1  C   UNL     1     414.411 -84.736 118.196  1.00  0.00    -0.031 C 
ATOM      2  C   UNL     1     415.520 -83.984 118.327  1.00  0.00    -0.031 C 
ENDROOT
BRANCH   1   3
ATOM      3  C   UNL     1     414.336 -86.070 117.490  1.00  0.00     0.027 C 
BRANCH   3   4
ATOM      4  C   UNL     1     413.154 -86.128 116.508  1.00  0.00     0.004 C 
BRANCH   4   5
ATOM      5  C   UNL     1     412.653 -84.752 116.030  1.00  0.00     0.000 C 
BRANCH   5   6
ATOM      6  C   UNL     1     411.115 -84.608 116.062  1.00  0.00     0.000 C 
BRANCH   6   7
ATOM      7  C   UNL     1     410.416 -85.668 115.192  1.00  0.00     0.000 C 
BRANCH   7   8
ATOM      8  C   UNL     1     409.360 -85.062 114.254  1.00  0.00     0.006 C 
BRANCH   8   9
ATOM      9  C   UNL     1     408.192 -84.420 115.015  1.00  0.00     0.053 C 
BRANCH   9  10
ATOM     10  C   UNL     1     407.087 -85.410 115.204  1.00  0.00     0.041 C 
ATOM     11  O   UNL     1     406.823 -86.245 114.300  1.00  0.00    -0.550 OA
ATOM     12  O   UNL     1     406.378 -85.442 116.399  1.00  0.00    -0.550 OA
ENDBRANCH   9  10
ENDBRANCH   8   9
ENDBRANCH   7   8
ENDBRANCH   6   7
ENDBRANCH   5   6
ENDBRANCH   4   5
ENDBRANCH   3   4
ENDBRANCH   1   3
BRANCH   2  13
ATOM     13  C   UNL     1     416.894 -84.355 117.820  1.00  0.00     0.027 C 
BRANCH  13  14
ATOM     14  C   UNL     1     418.020 -83.945 118.783  1.00  0.00     0.004 C 
BRANCH  14  15
ATOM     15  C   UNL     1     419.271 -84.825 118.624  1.00  0.00     0.000 C 
BRANCH  15  16
ATOM     16  C   UNL     1     419.905 -85.200 119.973  1.00  0.00     0.000 C 
BRANCH  16  17
ATOM     17  C   UNL     1     420.574 -86.583 119.950  1.00  0.00    -0.000 C 
BRANCH  17  18
ATOM     18  C   UNL     1     420.242 -87.374 121.225  1.00  0.00    -0.000 C 
BRANCH  18  19
ATOM     19  C   UNL     1     421.052 -88.673 121.344  1.00  0.00    -0.003 C 
ATOM     20  C   UNL     1     420.338 -89.875 120.724  1.00  0.00     0.004 C 
ENDBRANCH  18  19
ENDBRANCH  17  18
ENDBRANCH  16  17
ENDBRANCH  15  16
ENDBRANCH  14  15
ENDBRANCH  13  14
ENDBRANCH   2  13
TORSDOF 15
ENDMDL
MODEL 3
REMARK VINA RESULT:    -3.813      5.268     11.080
REMARK INTER + INTRA:          -7.882
REMARK INTER:                  -7.050
REMARK INTRA:                  -0.833
REMARK UNBOUND:                -0.726
REMARK SMILES CCCCCCCCC=CCCCCCCCC(=O)[O-]
REMARK SMILES IDX 10 1 9 2 11 3 12 4 13 5 14 6 15 7 16 8 17 9 18 10 19 11
REMARK SMILES IDX 20 12 8 13 7 14 6 15 5 16 4 17 3 18 2 19 1 20
REMARK H PARENT
REMARK Flexibility Score: inf
ROOT
ATOM      1  C   UNL     1     413.610 -86.122 117.064  1.00  0.00    -0.031 C 
ATOM      2  C   UNL     1     414.524 -85.785 117.993  1.00  0.00    -0.031 C 
ENDROOT
BRANCH   1   3
ATOM      3  C   UNL     1     412.783 -85.150 116.256  1.00  0.00     0.027 C 
BRANCH   3   4
ATOM      4  C   UNL     1     412.491 -85.687 114.846  1.00  0.00     0.004 C 
BRANCH   4   5
ATOM      5  C   UNL     1     412.065 -84.613 113.827  1.00  0.00     0.000 C 
BRANCH   5   6
ATOM      6  C   UNL     1     410.639 -84.068 114.063  1.00  0.00     0.000 C 
BRANCH   6   7
ATOM      7  C   UNL     1     409.601 -85.197 114.192  1.00  0.00     0.000 C 
BRANCH   7   8
ATOM      8  C   UNL     1     408.159 -84.671 114.260  1.00  0.00     0.006 C 
BRANCH   8   9
ATOM      9  C   UNL     1     407.145 -85.768 114.610  1.00  0.00     0.053 C 
BRANCH   9  10
ATOM     10  C   UNL     1     406.101 -85.236 115.540  1.00  0.00     0.041 C 
ATOM     11  O   UNL     1     406.327 -85.175 116.777  1.00  0.00    -0.550 OA
ATOM     12  O   UNL     1     404.896 -84.763 115.036  1.00  0.00    -0.550 OA
ENDBRANCH   9  10
ENDBRANCH   8   9
ENDBRANCH   7   8
ENDBRANCH   6   7
ENDBRANCH   5   6
ENDBRANCH   4   5
ENDBRANCH   3   4
ENDBRANCH   1   3
BRANCH   2  13
ATOM     13  C   UNL     1     414.910 -84.374 118.370  1.00  0.00     0.027 C 
BRANCH  13  14
ATOM     14  C   UNL     1     416.162 -83.875 117.629  1.00  0.00     0.004 C 
BRANCH  14  15
ATOM     15  C   UNL     1     417.440 -84.045 118.467  1.00  0.00     0.000 C 
BRANCH  15  16
ATOM     16  C   UNL     1     418.586 -84.691 117.673  1.00  0.00     0.000 C 
BRANCH  16  17
ATOM     17  C   UNL     1     419.520 -85.533 118.556  1.00  0.00    -0.000 C 
BRANCH  17  18
ATOM     18  C   UNL     1     419.629 -84.934 119.967  1.00  0.00    -0.000 C 
BRANCH  18  19
ATOM     19  C   UNL     1     420.312 -85.883 120.962  1.00  0.00    -0.003 C 
ATOM     20  C   UNL     1     420.287 -87.341 120.503  1.00  0.00     0.004 C 
ENDBRANCH  18  19
ENDBRANCH  17  18
ENDBRANCH  16  17
ENDBRANCH  15  16
ENDBRANCH  14  15
ENDBRANCH  13  14
ENDBRANCH   2  13
TORSDOF 15
ENDMDL
MODEL 4
REMARK VINA RESULT:    -3.757      1.443      2.058
REMARK INTER + INTRA:          -7.778
REMARK INTER:                  -7.102
REMARK INTRA:                  -0.676
REMARK UNBOUND:                -0.726
REMARK SMILES CCCCCCCCC=CCCCCCCCC(=O)[O-]
REMARK SMILES IDX 10 1 9 2 11 3 12 4 13 5 14 6 15 7 16 8 17 9 18 10 19 11
REMARK SMILES IDX 20 12 8 13 7 14 6 15 5 16 4 17 3 18 2 19 1 20
REMARK H PARENT
REMARK Flexibility Score: inf
ROOT
ATOM      1  C   UNL     1     413.846 -85.989 117.243  1.00  0.00    -0.031 C 
ATOM      2  C   UNL     1     412.886 -85.669 116.355  1.00  0.00    -0.031 C 
ENDROOT
BRANCH   1   3
ATOM      3  C   UNL     1     414.376 -85.078 118.325  1.00  0.00     0.027 C 
BRANCH   3   4
ATOM      4  C   UNL     1     415.268 -83.968 117.747  1.00  0.00     0.004 C 
BRANCH   4   5
ATOM      5  C   UNL     1     416.668 -83.875 118.384  1.00  0.00     0.000 C 
BRANCH   5   6
ATOM      6  C   UNL     1     417.762 -84.616 117.584  1.00  0.00     0.000 C 
BRANCH   6   7
ATOM      7  C   UNL     1     419.173 -84.329 118.128  1.00  0.00     0.000 C 
BRANCH   7   8
ATOM      8  C   UNL     1     419.271 -84.523 119.649  1.00  0.00     0.006 C 
BRANCH   8   9
ATOM      9  C   UNL     1     420.417 -85.461 120.053  1.00  0.00     0.053 C 
BRANCH   9  10
ATOM     10  C   UNL     1     420.078 -86.183 121.318  1.00  0.00     0.041 C 
ATOM     11  O   UNL     1     420.182 -87.436 121.379  1.00  0.00    -0.550 OA
ATOM     12  O   UNL     1     419.691 -85.469 122.446  1.00  0.00    -0.550 OA
ENDBRANCH   9  10
ENDBRANCH   8   9
ENDBRANCH   7   8
ENDBRANCH   6   7
ENDBRANCH   5   6
ENDBRANCH   4   5
ENDBRANCH   3   4
ENDBRANCH   1   3
BRANCH   2  13
ATOM     13  C   UNL     1     412.145 -84.353 116.303  1.00  0.00     0.027 C 
BRANCH  13  14
ATOM     14  C   UNL     1     410.634 -84.523 116.073  1.00  0.00     0.004 C 
BRANCH  14  15
ATOM     15  C   UNL     1     410.327 -85.398 114.847  1.00  0.00     0.000 C 
BRANCH  15  16
ATOM     16  C   UNL     1     409.001 -86.162 114.983  1.00  0.00     0.000 C 
BRANCH  16  17
ATOM     17  C   UNL     1     407.812 -85.238 115.291  1.00  0.00    -0.000 C 
BRANCH  17  18
ATOM     18  C   UNL     1     406.936 -85.038 114.045  1.00  0.00    -0.000 C 
BRANCH  18  19
ATOM     19  C   UNL     1     405.878 -86.139 113.881  1.00  0.00    -0.003 C 
ATOM     20  C   UNL     1     404.765 -85.751 112.907  1.00  0.00     0.004 C 
ENDBRANCH  18  19
ENDBRANCH  17  18
ENDBRANCH  16  17
ENDBRANCH  15  16
ENDBRANCH  14  15
ENDBRANCH  13  14
ENDBRANCH   2  13
TORSDOF 15
ENDMDL
MODEL 5
REMARK VINA RESULT:    -3.519      4.803     10.999
REMARK INTER + INTRA:          -7.330
REMARK INTER:                  -6.511
REMARK INTRA:                  -0.819
REMARK UNBOUND:                -0.726
REMARK SMILES CCCCCCCCC=CCCCCCCCC(=O)[O-]
REMARK SMILES IDX 10 1 9 2 11 3 12 4 13 5 14 6 15 7 16 8 17 9 18 10 19 11
REMARK SMILES IDX 20 12 8 13 7 14 6 15 5 16 4 17 3 18 2 19 1 20
REMARK H PARENT
REMARK Flexibility Score: inf
ROOT
ATOM      1  C   UNL     1     416.945 -84.560 117.644  1.00  0.00    -0.031 C 
ATOM      2  C   UNL     1     418.245 -84.603 117.990  1.00  0.00    -0.031 C 
ENDROOT
BRANCH   1   3
ATOM      3  C   UNL     1     415.852 -83.875 118.429  1.00  0.00     0.027 C 
BRANCH   3   4
ATOM      4  C   UNL     1     414.468 -84.115 117.805  1.00  0.00     0.004 C 
BRANCH   4   5
ATOM      5  C   UNL     1     414.049 -85.596 117.727  1.00  0.00     0.000 C 
BRANCH   5   6
ATOM      6  C   UNL     1     413.217 -85.938 116.471  1.00  0.00     0.000 C 
BRANCH   6   7
ATOM      7  C   UNL     1     412.499 -84.704 115.898  1.00  0.00     0.000 C 
BRANCH   7   8
ATOM      8  C   UNL     1     410.975 -84.764 116.088  1.00  0.00     0.006 C 
BRANCH   8   9
ATOM      9  C   UNL     1     410.292 -85.714 115.096  1.00  0.00     0.053 C 
BRANCH   9  10
ATOM     10  C   UNL     1     409.436 -84.944 114.142  1.00  0.00     0.041 C 
ATOM     11  O   UNL     1     409.960 -84.315 113.186  1.00  0.00    -0.550 OA
ATOM     12  O   UNL     1     408.053 -84.957 114.280  1.00  0.00    -0.550 OA
ENDBRANCH   9  10
ENDBRANCH   8   9
ENDBRANCH   7   8
ENDBRANCH   6   7
ENDBRANCH   5   6
ENDBRANCH   4   5
ENDBRANCH   3   4
ENDBRANCH   1   3
BRANCH   2  13
ATOM     13  C   UNL     1     418.848 -83.946 119.210  1.00  0.00     0.027 C 
BRANCH  13  14
ATOM     14  C   UNL     1     420.223 -84.524 119.585  1.00  0.00     0.004 C 
BRANCH  14  15
ATOM     15  C   UNL     1     420.151 -85.447 120.813  1.00  0.00     0.000 C 
BRANCH  15  16
ATOM     16  C   UNL     1     421.463 -86.207 121.059  1.00  0.00     0.000 C 
BRANCH  16  17
ATOM     17  C   UNL     1     421.257 -87.504 121.857  1.00  0.00    -0.000 C 
BRANCH  17  18
ATOM     18  C   UNL     1     420.325 -88.467 121.107  1.00  0.00    -0.000 C 
BRANCH  18  19
ATOM     19  C   UNL     1     420.910 -89.882 120.984  1.00  0.00    -0.003 C 
ATOM     20  C   UNL     1     422.430 -89.882 120.812  1.00  0.00     0.004 C 
ENDBRANCH  18  19
ENDBRANCH  17  18
ENDBRANCH  16  17
ENDBRANCH  15  16
ENDBRANCH  14  15
ENDBRANCH  13  14
ENDBRANCH   2  13
TORSDOF 15
ENDMDL
MODEL 6
REMARK VINA RESULT:    -3.498      6.326      7.917
REMARK INTER + INTRA:          -7.292
REMARK INTER:                  -6.265
REMARK INTRA:                  -1.027
REMARK UNBOUND:                -0.726
REMARK SMILES CCCCCCCCC=CCCCCCCCC(=O)[O-]
REMARK SMILES IDX 10 1 9 2 11 3 12 4 13 5 14 6 15 7 16 8 17 9 18 10 19 11
REMARK SMILES IDX 20 12 8 13 7 14 6 15 5 16 4 17 3 18 2 19 1 20
REMARK H PARENT
REMARK Flexibility Score: inf
ROOT
ATOM      1  C   UNL     1     418.693 -85.253 117.737  1.00  0.00    -0.031 C 
ATOM      2  C   UNL     1     418.898 -85.171 116.409  1.00  0.00    -0.031 C 
ENDROOT
BRANCH   1   3
ATOM      3  C   UNL     1     418.736 -84.092 118.703  1.00  0.00     0.027 C 
BRANCH   3   4
ATOM      4  C   UNL     1     420.011 -84.114 119.561  1.00  0.00     0.004 C 
BRANCH   4   5
ATOM      5  C   UNL     1     420.331 -85.480 120.197  1.00  0.00     0.000 C 
BRANCH   5   6
ATOM      6  C   UNL     1     420.132 -85.512 121.729  1.00  0.00     0.000 C 
BRANCH   6   7
ATOM      7  C   UNL     1     420.223 -86.939 122.296  1.00  0.00     0.000 C 
BRANCH   7   8
ATOM      8  C   UNL     1     420.256 -88.012 121.196  1.00  0.00     0.006 C 
BRANCH   8   9
ATOM      9  C   UNL     1     421.580 -88.787 121.165  1.00  0.00     0.053 C 
BRANCH   9  10
ATOM     10  C   UNL     1     421.333 -90.229 120.858  1.00  0.00     0.041 C 
ATOM     11  O   UNL     1     422.168 -91.104 121.208  1.00  0.00    -0.550 OA
ATOM     12  O   UNL     1     420.157 -90.615 120.226  1.00  0.00    -0.550 OA
ENDBRANCH   9  10
ENDBRANCH   8   9
ENDBRANCH   7   8
ENDBRANCH   6   7
ENDBRANCH   5   6
ENDBRANCH   4   5
ENDBRANCH   3   4
ENDBRANCH   1   3
BRANCH   2  13
ATOM     13  C   UNL     1     419.176 -83.900 115.643  1.00  0.00     0.027 C 
BRANCH  13  14
ATOM     14  C   UNL     1     419.715 -84.158 114.226  1.00  0.00     0.004 C 
BRANCH  14  15
ATOM     15  C   UNL     1     419.582 -85.633 113.813  1.00  0.00     0.000 C 
BRANCH  15  16
ATOM     16  C   UNL     1     420.826 -86.155 113.077  1.00  0.00     0.000 C 
BRANCH  16  17
ATOM     17  C   UNL     1     421.659 -85.030 112.446  1.00  0.00    -0.000 C 
BRANCH  17  18
ATOM     18  C   UNL     1     422.558 -85.575 111.326  1.00  0.00    -0.000 C 
BRANCH  18  19
ATOM     19  C   UNL     1     422.185 -85.020 109.944  1.00  0.00    -0.003 C 
ATOM     20  C   UNL     1     420.675 -84.971 109.713  1.00  0.00     0.004 C 
ENDBRANCH  18  19
ENDBRANCH  17  18
ENDBRANCH  16  17
ENDBRANCH  15  16
ENDBRANCH  14  15
ENDBRANCH  13  14
ENDBRANCH   2  13
TORSDOF 15
ENDMDL
MODEL 7
REMARK VINA RESULT:    -3.489      7.002     10.646
REMARK INTER + INTRA:          -7.275
REMARK INTER:                  -6.332
REMARK INTRA:                  -0.943
REMARK UNBOUND:                -0.726
REMARK SMILES CCCCCCCCC=CCCCCCCCC(=O)[O-]
REMARK SMILES IDX 10 1 9 2 11 3 12 4 13 5 14 6 15 7 16 8 17 9 18 10 19 11
REMARK SMILES IDX 20 12 8 13 7 14 6 15 5 16 4 17 3 18 2 19 1 20
REMARK H PARENT
REMARK Flexibility Score: inf
ROOT
ATOM      1  C   UNL     1     418.088 -84.638 117.320  1.00  0.00    -0.031 C 
ATOM      2  C   UNL     1     418.525 -84.363 118.564  1.00  0.00    -0.031 C 
ENDROOT
BRANCH   1   3
ATOM      3  C   UNL     1     418.956 -85.082 116.166  1.00  0.00     0.027 C 
BRANCH   3   4
ATOM      4  C   UNL     1     419.506 -83.885 115.375  1.00  0.00     0.004 C 
BRANCH   4   5
ATOM      5  C   UNL     1     419.626 -84.121 113.857  1.00  0.00     0.000 C 
BRANCH   5   6
ATOM      6  C   UNL     1     419.836 -85.603 113.476  1.00  0.00     0.000 C 
BRANCH   6   7
ATOM      7  C   UNL     1     421.240 -85.859 112.901  1.00  0.00     0.000 C 
BRANCH   7   8
ATOM      8  C   UNL     1     421.671 -84.786 111.889  1.00  0.00     0.006 C 
BRANCH   8   9
ATOM      9  C   UNL     1     422.050 -85.376 110.525  1.00  0.00     0.053 C 
BRANCH   9  10
ATOM     10  C   UNL     1     421.061 -84.960 109.484  1.00  0.00     0.041 C 
ATOM     11  O   UNL     1     421.457 -84.498 108.382  1.00  0.00    -0.550 OA
ATOM     12  O   UNL     1     419.700 -85.126 109.710  1.00  0.00    -0.550 OA
ENDBRANCH   9  10
ENDBRANCH   8   9
ENDBRANCH   7   8
ENDBRANCH   6   7
ENDBRANCH   5   6
ENDBRANCH   4   5
ENDBRANCH   3   4
ENDBRANCH   1   3
BRANCH   2  13
ATOM     13  C   UNL     1     419.955 -84.479 119.035  1.00  0.00     0.027 C 
BRANCH  13  14
ATOM     14  C   UNL     1     420.285 -85.864 119.616  1.00  0.00     0.004 C 
BRANCH  14  15
ATOM     15  C   UNL     1     420.270 -85.869 121.153  1.00  0.00     0.000 C 
BRANCH  15  16
ATOM     16  C   UNL     1     420.292 -87.289 121.740  1.00  0.00     0.000 C 
BRANCH  16  17
ATOM     17  C   UNL     1     420.392 -88.377 120.660  1.00  0.00    -0.000 C 
BRANCH  17  18
ATOM     18  C   UNL     1     421.734 -89.118 120.750  1.00  0.00    -0.000 C 
BRANCH  18  19
ATOM     19  C   UNL     1     421.571 -90.645 120.732  1.00  0.00    -0.003 C 
ATOM     20  C   UNL     1     422.902 -91.385 120.866  1.00  0.00     0.004 C 
ENDBRANCH  18  19
ENDBRANCH  17  18
ENDBRANCH  16  17
ENDBRANCH  15  16
ENDBRANCH  14  15
ENDBRANCH  13  14
ENDBRANCH   2  13
TORSDOF 15
ENDMDL
MODEL 8
REMARK VINA RESULT:    -3.388      7.129     12.203
REMARK INTER + INTRA:          -7.084
REMARK INTER:                  -5.612
REMARK INTRA:                  -1.472
REMARK UNBOUND:                -0.726
REMARK SMILES CCCCCCCCC=CCCCCCCCC(=O)[O-]
REMARK SMILES IDX 10 1 9 2 11 3 12 4 13 5 14 6 15 7 16 8 17 9 18 10 19 11
REMARK SMILES IDX 20 12 8 13 7 14 6 15 5 16 4 17 3 18 2 19 1 20
REMARK H PARENT
REMARK Flexibility Score: inf
ROOT
ATOM      1  C   UNL     1     407.651 -85.747 115.778  1.00  0.00    -0.031 C 
ATOM      2  C   UNL     1     408.259 -85.647 114.582  1.00  0.00    -0.031 C 
ENDROOT
BRANCH   1   3
ATOM      3  C   UNL     1     407.190 -84.584 116.626  1.00  0.00     0.027 C 
BRANCH   3   4
ATOM      4  C   UNL     1     405.792 -84.831 117.217  1.00  0.00     0.004 C 
BRANCH   4   5
ATOM      5  C   UNL     1     404.669 -83.994 116.574  1.00  0.00     0.000 C 
BRANCH   5   6
ATOM      6  C   UNL     1     404.314 -84.434 115.137  1.00  0.00     0.000 C 
BRANCH   6   7
ATOM      7  C   UNL     1     404.400 -85.960 114.961  1.00  0.00     0.000 C 
BRANCH   7   8
ATOM      8  C   UNL     1     403.877 -86.429 113.595  1.00  0.00     0.006 C 
BRANCH   8   9
ATOM      9  C   UNL     1     404.904 -86.241 112.471  1.00  0.00     0.053 C 
BRANCH   9  10
ATOM     10  C   UNL     1     404.363 -85.329 111.417  1.00  0.00     0.041 C 
ATOM     11  O   UNL     1     403.999 -85.792 110.304  1.00  0.00    -0.550 OA
ATOM     12  O   UNL     1     404.216 -83.972 111.679  1.00  0.00    -0.550 OA
ENDBRANCH   9  10
ENDBRANCH   8   9
ENDBRANCH   7   8
ENDBRANCH   6   7
ENDBRANCH   5   6
ENDBRANCH   4   5
ENDBRANCH   3   4
ENDBRANCH   1   3
BRANCH   2  13
ATOM     13  C   UNL     1     408.562 -84.356 113.858  1.00  0.00     0.027 C 
BRANCH  13  14
ATOM     14  C   UNL     1     410.030 -83.920 113.996  1.00  0.00     0.004 C 
BRANCH  14  15
ATOM     15  C   UNL     1     411.006 -84.992 113.484  1.00  0.00     0.000 C 
BRANCH  15  16
ATOM     16  C   UNL     1     412.252 -85.130 114.373  1.00  0.00     0.000 C 
BRANCH  16  17
ATOM     17  C   UNL     1     411.916 -85.581 115.802  1.00  0.00    -0.000 C 
BRANCH  17  18
ATOM     18  C   UNL     1     412.780 -84.836 116.830  1.00  0.00    -0.000 C 
BRANCH  18  19
ATOM     19  C   UNL     1     413.893 -85.717 117.418  1.00  0.00    -0.003 C 
ATOM     20  C   UNL     1     414.808 -84.954 118.376  1.00  0.00     0.004 C 
ENDBRANCH  18  19
ENDBRANCH  17  18
ENDBRANCH  16  17
ENDBRANCH  15  16
ENDBRANCH  14  15
ENDBRANCH  13  14
ENDBRANCH   2  13
TORSDOF 15
ENDMDL
MODEL 9
REMARK VINA RESULT:    -3.244      4.564     10.642
REMARK INTER + INTRA:          -6.814
REMARK INTER:                  -5.764
REMARK INTRA:                  -1.051
REMARK UNBOUND:                -0.726
REMARK SMILES CCCCCCCCC=CCCCCCCCC(=O)[O-]
REMARK SMILES IDX 10 1 9 2 11 3 12 4 13 5 14 6 15 7 16 8 17 9 18 10 19 11
REMARK SMILES IDX 20 12 8 13 7 14 6 15 5 16 4 17 3 18 2 19 1 20
REMARK H PARENT
REMARK Flexibility Score: inf
ROOT
ATOM      1  C   UNL     1     418.742 -84.219 117.477  1.00  0.00    -0.031 C 
ATOM      2  C   UNL     1     419.814 -83.932 118.238  1.00  0.00    -0.031 C 
ENDROOT
BRANCH   1   3
ATOM      3  C   UNL     1     417.438 -84.792 117.982  1.00  0.00     0.027 C 
BRANCH   3   4
ATOM      4  C   UNL     1     416.249 -83.875 117.651  1.00  0.00     0.004 C 
BRANCH   4   5
ATOM      5  C   UNL     1     414.952 -84.211 118.412  1.00  0.00     0.000 C 
BRANCH   5   6
ATOM      6  C   UNL     1     413.952 -85.053 117.589  1.00  0.00     0.000 C 
BRANCH   6   7
ATOM      7  C   UNL     1     413.183 -84.201 116.564  1.00  0.00     0.000 C 
BRANCH   7   8
ATOM      8  C   UNL     1     412.486 -85.051 115.491  1.00  0.00     0.006 C 
BRANCH   8   9
ATOM      9  C   UNL     1     411.033 -85.386 115.853  1.00  0.00     0.053 C 
BRANCH   9  10
ATOM     10  C   UNL     1     410.184 -85.423 114.622  1.00  0.00     0.041 C 
ATOM     11  O   UNL     1     408.980 -85.784 114.694  1.00  0.00    -0.550 OA
ATOM     12  O   UNL     1     410.708 -85.014 113.402  1.00  0.00    -0.550 OA
ENDBRANCH   9  10
ENDBRANCH   8   9
ENDBRANCH   7   8
ENDBRANCH   6   7
ENDBRANCH   5   6
ENDBRANCH   4   5
ENDBRANCH   3   4
ENDBRANCH   1   3
BRANCH   2  13
ATOM     13  C   UNL     1     419.895 -84.101 119.737  1.00  0.00     0.027 C 
BRANCH  13  14
ATOM     14  C   UNL     1     421.265 -84.614 120.211  1.00  0.00     0.004 C 
BRANCH  14  15
ATOM     15  C   UNL     1     421.493 -86.089 119.841  1.00  0.00     0.000 C 
BRANCH  15  16
ATOM     16  C   UNL     1     420.335 -86.996 120.287  1.00  0.00     0.000 C 
BRANCH  16  17
ATOM     17  C   UNL     1     420.805 -88.179 121.148  1.00  0.00    -0.000 C 
BRANCH  17  18
ATOM     18  C   UNL     1     420.986 -87.753 122.613  1.00  0.00    -0.000 C 
BRANCH  18  19
ATOM     19  C   UNL     1     419.968 -86.689 123.050  1.00  0.00    -0.003 C 
ATOM     20  C   UNL     1     419.440 -86.921 124.466  1.00  0.00     0.004 C 
ENDBRANCH  18  19
ENDBRANCH  17  18
ENDBRANCH  16  17
ENDBRANCH  15  16
ENDBRANCH  14  15
ENDBRANCH  13  14
ENDBRANCH   2  13
TORSDOF 15
ENDMDL
