MODEL 1
REMARK VINA RESULT:    -3.006      0.000      0.000
REMARK INTER + INTRA:          -3.867
REMARK INTER:                  -3.621
REMARK INTRA:                  -0.246
REMARK UNBOUND:                -0.246
REMARK SMILES NC(=O)C[C@@H]([NH3+])C(=O)[O-]
REMARK SMILES IDX 4 1 5 2 6 3 7 7 8 8 9 9 2 10 3 11 1 12
REMARK H PARENT 6 4 6 5 6 6 1 13 1 14
REMARK Flexibility Score: inf
ROOT
ATOM      1  C   UNL     1       8.265  -9.282   5.341  1.00  0.00     0.171 C 
ENDROOT
BRANCH   1   2
ATOM      2  C   UNL     1       9.141  -8.347   6.202  1.00  0.00     0.237 C 
BRANCH   2   3
ATOM      3  N   UNL     1       9.533  -8.979   7.469  1.00  0.00    -0.350 N 
ATOM      4  H   UNL     1       8.693  -9.390   7.936  1.00  0.00     0.345 HD
ATOM      5  H   UNL     1      10.241  -9.731   7.314  1.00  0.00     0.345 HD
ATOM      6  H   UNL     1       9.941  -8.258   8.109  1.00  0.00     0.345 HD
ENDBRANCH   2   3
BRANCH   2   7
ATOM      7  C   UNL     1      10.348  -7.864   5.437  1.00  0.00     0.100 C 
ATOM      8  O   UNL     1      11.332  -7.382   6.057  1.00  0.00    -0.544 OA
ATOM      9  O   UNL     1      10.365  -7.899   4.048  1.00  0.00    -0.544 OA
ENDBRANCH   2   7
ENDBRANCH   1   2
BRANCH   1  10
ATOM     10  C   UNL     1       6.929  -9.583   5.962  1.00  0.00     0.223 C 
ATOM     11  O   UNL     1       6.874 -10.094   7.113  1.00  0.00    -0.275 OA
ATOM     12  N   UNL     1       5.720  -9.275   5.267  1.00  0.00    -0.369 N 
ATOM     13  H   UNL     1       5.746  -8.843   4.317  1.00  0.00     0.159 HD
ATOM     14  H   UNL     1       4.795  -9.475   5.706  1.00  0.00     0.159 HD
ENDBRANCH   1  10
TORSDOF 4
ENDMDL
MODEL 2
REMARK VINA RESULT:    -2.891      1.857      2.082
REMARK INTER + INTRA:          -3.728
REMARK INTER:                  -3.466
REMARK INTRA:                  -0.262
REMARK UNBOUND:                -0.246
REMARK SMILES NC(=O)C[C@@H]([NH3+])C(=O)[O-]
REMARK SMILES IDX 4 1 5 2 6 3 7 7 8 8 9 9 2 10 3 11 1 12
REMARK H PARENT 6 4 6 5 6 6 1 13 1 14
REMARK Flexibility Score: inf
ROOT
ATOM      1  C   UNL     1       8.109  -8.702   5.880  1.00  0.00     0.171 C 
ENDROOT
BRANCH   1   2
ATOM      2  C   UNL     1       9.518  -8.715   5.248  1.00  0.00     0.237 C 
BRANCH   2   3
ATOM      3  N   UNL     1       9.567  -7.929   4.008  1.00  0.00    -0.350 N 
ATOM      4  H   UNL     1       9.946  -6.975   4.207  1.00  0.00     0.345 HD
ATOM      5  H   UNL     1      10.168  -8.392   3.290  1.00  0.00     0.345 HD
ATOM      6  H   UNL     1       8.601  -7.823   3.622  1.00  0.00     0.345 HD
ENDBRANCH   2   3
BRANCH   2   7
ATOM      7  C   UNL     1      10.565  -8.251   6.230  1.00  0.00     0.100 C 
ATOM      8  O   UNL     1      11.364  -7.332   5.908  1.00  0.00    -0.544 OA
ATOM      9  O   UNL     1      10.692  -8.863   7.471  1.00  0.00    -0.544 OA
ENDBRANCH   2   7
ENDBRANCH   1   2
BRANCH   1  10
ATOM     10  C   UNL     1       7.085  -9.443   5.065  1.00  0.00     0.223 C 
ATOM     11  O   UNL     1       7.452 -10.124   4.069  1.00  0.00    -0.275 OA
ATOM     12  N   UNL     1       5.704  -9.399   5.420  1.00  0.00    -0.369 N 
ATOM     13  H   UNL     1       5.383  -8.848   6.247  1.00  0.00     0.159 HD
ATOM     14  H   UNL     1       4.998  -9.924   4.859  1.00  0.00     0.159 HD
ENDBRANCH   1  10
TORSDOF 4
ENDMDL
MODEL 3
REMARK VINA RESULT:    -2.791      2.279      3.033
REMARK INTER + INTRA:          -3.607
REMARK INTER:                  -3.326
REMARK INTRA:                  -0.282
REMARK UNBOUND:                -0.246
REMARK SMILES NC(=O)C[C@@H]([NH3+])C(=O)[O-]
REMARK SMILES IDX 4 1 5 2 6 3 7 7 8 8 9 9 2 10 3 11 1 12
REMARK H PARENT 6 4 6 5 6 6 1 13 1 14
REMARK Flexibility Score: inf
ROOT
ATOM      1  C   UNL     1      10.535  -9.250   6.925  1.00  0.00     0.171 C 
ENDROOT
BRANCH   1   2
ATOM      2  C   UNL     1      10.191  -7.919   6.222  1.00  0.00     0.237 C 
BRANCH   2   3
ATOM      3  N   UNL     1      11.399  -7.185   5.822  1.00  0.00    -0.350 N 
ATOM      4  H   UNL     1      11.601  -6.429   6.515  1.00  0.00     0.345 HD
ATOM      5  H   UNL     1      12.225  -7.821   5.758  1.00  0.00     0.345 HD
ATOM      6  H   UNL     1      11.243  -6.738   4.888  1.00  0.00     0.345 HD
ENDBRANCH   2   3
BRANCH   2   7
ATOM      7  C   UNL     1       9.272  -8.139   5.047  1.00  0.00     0.100 C 
ATOM      8  O   UNL     1       9.659  -7.849   3.884  1.00  0.00    -0.544 OA
ATOM      9  O   UNL     1       7.979  -8.612   5.238  1.00  0.00    -0.544 OA
ENDBRANCH   2   7
ENDBRANCH   1   2
BRANCH   1  10
ATOM     10  C   UNL     1       9.815  -9.435   8.232  1.00  0.00     0.223 C 
ATOM     11  O   UNL     1      10.460  -9.780   9.258  1.00  0.00    -0.275 OA
ATOM     12  N   UNL     1       8.410  -9.204   8.326  1.00  0.00    -0.369 N 
ATOM     13  H   UNL     1       7.861  -8.909   7.488  1.00  0.00     0.159 HD
ATOM     14  H   UNL     1       7.916  -9.323   9.237  1.00  0.00     0.159 HD
ENDBRANCH   1  10
TORSDOF 4
ENDMDL
MODEL 4
REMARK VINA RESULT:    -2.779      2.356      3.916
REMARK INTER + INTRA:          -3.593
REMARK INTER:                  -3.352
REMARK INTRA:                  -0.240
REMARK UNBOUND:                -0.246
REMARK SMILES NC(=O)C[C@@H]([NH3+])C(=O)[O-]
REMARK SMILES IDX 4 1 5 2 6 3 7 7 8 8 9 9 2 10 3 11 1 12
REMARK H PARENT 6 4 6 5 6 6 1 13 1 14
REMARK Flexibility Score: inf
ROOT
ATOM      1  C   UNL     1       8.919  -8.801   8.057  1.00  0.00     0.171 C 
ENDROOT
BRANCH   1   2
ATOM      2  C   UNL     1       7.966  -9.834   7.418  1.00  0.00     0.237 C 
BRANCH   2   3
ATOM      3  N   UNL     1       6.815 -10.125   8.284  1.00  0.00    -0.350 N 
ATOM      4  H   UNL     1       7.136 -10.624   9.146  1.00  0.00     0.345 HD
ATOM      5  H   UNL     1       6.319  -9.248   8.561  1.00  0.00     0.345 HD
ATOM      6  H   UNL     1       6.144 -10.748   7.778  1.00  0.00     0.345 HD
ENDBRANCH   2   3
BRANCH   2   7
ATOM      7  C   UNL     1       7.518  -9.395   6.046  1.00  0.00     0.100 C 
ATOM      8  O   UNL     1       6.317  -9.547   5.699  1.00  0.00    -0.544 OA
ATOM      9  O   UNL     1       8.430  -8.869   5.139  1.00  0.00    -0.544 OA
ENDBRANCH   2   7
ENDBRANCH   1   2
BRANCH   1  10
ATOM     10  C   UNL     1      10.350  -9.261   8.101  1.00  0.00     0.223 C 
ATOM     11  O   UNL     1      10.789  -9.844   9.129  1.00  0.00    -0.275 OA
ATOM     12  N   UNL     1      11.211  -9.062   6.981  1.00  0.00    -0.369 N 
ATOM     13  H   UNL     1      10.863  -8.588   6.117  1.00  0.00     0.159 HD
ATOM     14  H   UNL     1      12.201  -9.392   7.011  1.00  0.00     0.159 HD
ENDBRANCH   1  10
TORSDOF 4
ENDMDL
MODEL 5
REMARK VINA RESULT:    -2.761      2.570      3.215
REMARK INTER + INTRA:          -3.572
REMARK INTER:                  -3.045
REMARK INTRA:                  -0.527
REMARK UNBOUND:                -0.246
REMARK SMILES NC(=O)C[C@@H]([NH3+])C(=O)[O-]
REMARK SMILES IDX 4 1 5 2 6 3 7 7 8 8 9 9 2 10 3 11 1 12
REMARK H PARENT 6 4 6 5 6 6 1 13 1 14
REMARK Flexibility Score: inf
ROOT
ATOM      1  C   UNL     1      11.314  -7.611   5.983  1.00  0.00     0.171 C 
ENDROOT
BRANCH   1   2
ATOM      2  C   UNL     1      11.762  -8.171   4.616  1.00  0.00     0.237 C 
BRANCH   2   3
ATOM      3  N   UNL     1      11.688  -9.638   4.576  1.00  0.00    -0.350 N 
ATOM      4  H   UNL     1      12.646 -10.038   4.458  1.00  0.00     0.345 HD
ATOM      5  H   UNL     1      11.262 -10.019   5.451  1.00  0.00     0.345 HD
ATOM      6  H   UNL     1      11.106  -9.936   3.759  1.00  0.00     0.345 HD
ENDBRANCH   2   3
BRANCH   2   7
ATOM      7  C   UNL     1      10.978  -7.554   3.485  1.00  0.00     0.100 C 
ATOM      8  O   UNL     1      11.535  -6.735   2.708  1.00  0.00    -0.544 OA
ATOM      9  O   UNL     1       9.628  -7.841   3.321  1.00  0.00    -0.544 OA
ENDBRANCH   2   7
ENDBRANCH   1   2
BRANCH   1  10
ATOM     10  C   UNL     1      10.297  -8.477   6.675  1.00  0.00     0.223 C 
ATOM     11  O   UNL     1      10.675  -9.329   7.523  1.00  0.00    -0.275 OA
ATOM     12  N   UNL     1       8.906  -8.328   6.396  1.00  0.00    -0.369 N 
ATOM     13  H   UNL     1       8.573  -7.621   5.703  1.00  0.00     0.159 HD
ATOM     14  H   UNL     1       8.203  -8.924   6.886  1.00  0.00     0.159 HD
ENDBRANCH   1  10
TORSDOF 4
ENDMDL
MODEL 6
REMARK VINA RESULT:    -2.744      1.802      2.371
REMARK INTER + INTRA:          -3.552
REMARK INTER:                  -3.263
REMARK INTRA:                  -0.289
REMARK UNBOUND:                -0.246
REMARK SMILES NC(=O)C[C@@H]([NH3+])C(=O)[O-]
REMARK SMILES IDX 4 1 5 2 6 3 7 7 8 8 9 9 2 10 3 11 1 12
REMARK H PARENT 6 4 6 5 6 6 1 13 1 14
REMARK Flexibility Score: inf
ROOT
ATOM      1  C   UNL     1       8.571  -8.138   5.159  1.00  0.00     0.171 C 
ENDROOT
BRANCH   1   2
ATOM      2  C   UNL     1       9.807  -8.600   4.358  1.00  0.00     0.237 C 
BRANCH   2   3
ATOM      3  N   UNL     1       9.501  -8.769   2.931  1.00  0.00    -0.350 N 
ATOM      4  H   UNL     1       8.502  -9.055   2.814  1.00  0.00     0.345 HD
ATOM      5  H   UNL     1       9.670  -7.885   2.400  1.00  0.00     0.345 HD
ATOM      6  H   UNL     1      10.105  -9.524   2.530  1.00  0.00     0.345 HD
ENDBRANCH   2   3
BRANCH   2   7
ATOM      7  C   UNL     1      10.973  -7.664   4.558  1.00  0.00     0.100 C 
ATOM      8  O   UNL     1      11.367  -7.392   5.723  1.00  0.00    -0.544 OA
ATOM      9  O   UNL     1      11.587  -7.056   3.470  1.00  0.00    -0.544 OA
ENDBRANCH   2   7
ENDBRANCH   1   2
BRANCH   1  10
ATOM     10  C   UNL     1       8.323  -8.959   6.395  1.00  0.00     0.223 C 
ATOM     11  O   UNL     1       7.306  -9.700   6.460  1.00  0.00    -0.275 OA
ATOM     12  N   UNL     1       9.242  -8.923   7.487  1.00  0.00    -0.369 N 
ATOM     13  H   UNL     1      10.095  -8.322   7.446  1.00  0.00     0.159 HD
ATOM     14  H   UNL     1       9.072  -9.502   8.338  1.00  0.00     0.159 HD
ENDBRANCH   1  10
TORSDOF 4
ENDMDL
MODEL 7
REMARK VINA RESULT:    -2.728      2.611      3.782
REMARK INTER + INTRA:          -3.532
REMARK INTER:                  -3.274
REMARK INTRA:                  -0.259
REMARK UNBOUND:                -0.246
REMARK SMILES NC(=O)C[C@@H]([NH3+])C(=O)[O-]
REMARK SMILES IDX 4 1 5 2 6 3 7 7 8 8 9 9 2 10 3 11 1 12
REMARK H PARENT 6 4 6 5 6 6 1 13 1 14
REMARK Flexibility Score: inf
ROOT
ATOM      1  C   UNL     1       9.440  -8.130   4.849  1.00  0.00     0.171 C 
ENDROOT
BRANCH   1   2
ATOM      2  C   UNL     1      10.516  -8.401   5.923  1.00  0.00     0.237 C 
BRANCH   2   3
ATOM      3  N   UNL     1      11.413  -7.250   6.100  1.00  0.00    -0.350 N 
ATOM      4  H   UNL     1      11.868  -7.012   5.189  1.00  0.00     0.345 HD
ATOM      5  H   UNL     1      10.892  -6.415   6.451  1.00  0.00     0.345 HD
ATOM      6  H   UNL     1      12.163  -7.494   6.787  1.00  0.00     0.345 HD
ENDBRANCH   2   3
BRANCH   2   7
ATOM      7  C   UNL     1       9.894  -8.814   7.233  1.00  0.00     0.100 C 
ATOM      8  O   UNL     1       8.651  -8.698   7.402  1.00  0.00    -0.544 OA
ATOM      9  O   UNL     1      10.686  -9.274   8.278  1.00  0.00    -0.544 OA
ENDBRANCH   2   7
ENDBRANCH   1   2
BRANCH   1  10
ATOM     10  C   UNL     1       9.994  -8.080   3.452  1.00  0.00     0.223 C 
ATOM     11  O   UNL     1      10.869  -7.223   3.156  1.00  0.00    -0.275 OA
ATOM     12  N   UNL     1       9.553  -9.009   2.463  1.00  0.00    -0.369 N 
ATOM     13  H   UNL     1       8.835  -9.732   2.692  1.00  0.00     0.159 HD
ATOM     14  H   UNL     1       9.947  -8.978   1.497  1.00  0.00     0.159 HD
ENDBRANCH   1  10
TORSDOF 4
ENDMDL
MODEL 8
REMARK VINA RESULT:    -2.630      2.212      3.839
REMARK INTER + INTRA:          -3.413
REMARK INTER:                  -3.081
REMARK INTRA:                  -0.332
REMARK UNBOUND:                -0.246
REMARK SMILES NC(=O)C[C@@H]([NH3+])C(=O)[O-]
REMARK SMILES IDX 4 1 5 2 6 3 7 7 8 8 9 9 2 10 3 11 1 12
REMARK H PARENT 6 4 6 5 6 6 1 13 1 14
REMARK Flexibility Score: inf
ROOT
ATOM      1  C   UNL     1       9.103  -7.878   5.469  1.00  0.00     0.171 C 
ENDROOT
BRANCH   1   2
ATOM      2  C   UNL     1       8.052  -8.956   5.808  1.00  0.00     0.237 C 
BRANCH   2   3
ATOM      3  N   UNL     1       8.163 -10.124   4.925  1.00  0.00    -0.350 N 
ATOM      4  H   UNL     1       7.361 -10.775   5.094  1.00  0.00     0.345 HD
ATOM      5  H   UNL     1       8.167  -9.840   3.919  1.00  0.00     0.345 HD
ATOM      6  H   UNL     1       9.050 -10.639   5.134  1.00  0.00     0.345 HD
ENDBRANCH   2   3
BRANCH   2   7
ATOM      7  C   UNL     1       8.128  -9.360   7.259  1.00  0.00     0.100 C 
ATOM      8  O   UNL     1       7.191 -10.024   7.776  1.00  0.00    -0.544 OA
ATOM      9  O   UNL     1       9.200  -8.963   8.049  1.00  0.00    -0.544 OA
ENDBRANCH   2   7
ENDBRANCH   1   2
BRANCH   1  10
ATOM     10  C   UNL     1      10.031  -8.283   4.357  1.00  0.00     0.223 C 
ATOM     11  O   UNL     1      10.904  -9.169   4.561  1.00  0.00    -0.275 OA
ATOM     12  N   UNL     1       9.919  -7.687   3.065  1.00  0.00    -0.369 N 
ATOM     13  H   UNL     1       9.196  -6.958   2.874  1.00  0.00     0.159 HD
ATOM     14  H   UNL     1      10.558  -7.978   2.293  1.00  0.00     0.159 HD
ENDBRANCH   1  10
TORSDOF 4
ENDMDL
