MODEL 1
REMARK VINA RESULT:    -5.358      0.000      0.000
REMARK INTER + INTRA:          -7.294
REMARK INTER:                  -6.924
REMARK INTRA:                  -0.370
REMARK UNBOUND:                -0.370
REMARK SMILES CCO[C@@H]1O[C@H](CO)[C@H](O)[C@@H](O)[C@@H]1O
REMARK SMILES IDX 4 1 13 2 11 3 9 4 6 5 5 6 3 7 2 8 1 9 14 10 12 12 7 14 8 15
REMARK SMILES IDX 10 17
REMARK H PARENT 14 11 12 13 8 16 10 18
REMARK Flexibility Score: inf
ROOT
ATOM      1  C   UNL     1     -23.733   6.982 -39.841  1.00  0.00     0.281 C 
ATOM      2  C   UNL     1     -22.911   8.309 -39.803  1.00  0.00     0.202 C 
ATOM      3  C   UNL     1     -21.416   8.109 -40.024  1.00  0.00     0.179 C 
ATOM      4  C   UNL     1     -21.265   7.269 -41.286  1.00  0.00     0.177 C 
ATOM      5  C   UNL     1     -21.886   5.871 -41.066  1.00  0.00     0.178 C 
ATOM      6  O   UNL     1     -23.213   5.842 -40.540  1.00  0.00    -0.341 OA
ENDROOT
BRANCH   1   7
ATOM      7  O   UNL     1     -24.256   6.632 -38.567  1.00  0.00    -0.350 OA
BRANCH   7   8
ATOM      8  C   UNL     1     -24.694   5.292 -38.514  1.00  0.00     0.160 C 
ATOM      9  C   UNL     1     -26.086   5.252 -37.904  1.00  0.00     0.035 C 
ENDBRANCH   7   8
ENDBRANCH   1   7
BRANCH   2  10
ATOM     10  O   UNL     1     -23.169   9.050 -38.633  1.00  0.00    -0.385 OA
ATOM     11  H   UNL     1     -23.550   9.925 -38.897  1.00  0.00     0.211 HD
ENDBRANCH   2  10
BRANCH   3  12
ATOM     12  O   UNL     1     -20.808   9.364 -40.199  1.00  0.00    -0.387 OA
ATOM     13  H   UNL     1     -20.807   9.811 -39.313  1.00  0.00     0.211 HD
ENDBRANCH   3  12
BRANCH   5  14
ATOM     14  C   UNL     1     -20.981   4.909 -40.267  1.00  0.00     0.191 C 
BRANCH  14  15
ATOM     15  O   UNL     1     -19.875   4.524 -41.040  1.00  0.00    -0.394 OA
ATOM     16  H   UNL     1     -20.210   3.913 -41.744  1.00  0.00     0.210 HD
ENDBRANCH  14  15
ENDBRANCH   5  14
BRANCH   4  17
ATOM     17  O   UNL     1     -19.910   7.155 -41.643  1.00  0.00    -0.387 OA
ATOM     18  H   UNL     1     -19.812   6.315 -42.163  1.00  0.00     0.211 HD
ENDBRANCH   4  17
TORSDOF 7
ENDMDL
MODEL 2
REMARK VINA RESULT:    -5.066      1.962      3.531
REMARK INTER + INTRA:          -6.918
REMARK INTER:                  -6.482
REMARK INTRA:                  -0.436
REMARK UNBOUND:                -0.370
REMARK SMILES CCO[C@@H]1O[C@H](CO)[C@H](O)[C@@H](O)[C@@H]1O
REMARK SMILES IDX 4 1 13 2 11 3 9 4 6 5 5 6 3 7 2 8 1 9 14 10 12 12 7 14 8 15
REMARK SMILES IDX 10 17
REMARK H PARENT 14 11 12 13 8 16 10 18
REMARK Flexibility Score: inf
ROOT
ATOM      1  C   UNL     1     -22.204   5.399 -40.578  1.00  0.00     0.281 C 
ATOM      2  C   UNL     1     -23.095   6.350 -41.439  1.00  0.00     0.202 C 
ATOM      3  C   UNL     1     -23.777   7.446 -40.629  1.00  0.00     0.179 C 
ATOM      4  C   UNL     1     -22.693   8.121 -39.799  1.00  0.00     0.177 C 
ATOM      5  C   UNL     1     -22.096   7.113 -38.791  1.00  0.00     0.178 C 
ATOM      6  O   UNL     1     -21.681   5.855 -39.323  1.00  0.00    -0.341 OA
ENDROOT
BRANCH   1   7
ATOM      7  O   UNL     1     -22.744   4.088 -40.484  1.00  0.00    -0.350 OA
BRANCH   7   8
ATOM      8  C   UNL     1     -23.261   3.809 -39.202  1.00  0.00     0.160 C 
ATOM      9  C   UNL     1     -24.779   3.775 -39.278  1.00  0.00     0.035 C 
ENDBRANCH   7   8
ENDBRANCH   1   7
BRANCH   2  10
ATOM     10  O   UNL     1     -24.018   5.632 -42.224  1.00  0.00    -0.385 OA
ATOM     11  H   UNL     1     -24.404   4.909 -41.667  1.00  0.00     0.211 HD
ENDBRANCH   2  10
BRANCH   3  12
ATOM     12  O   UNL     1     -24.360   8.371 -41.514  1.00  0.00    -0.387 OA
ATOM     13  H   UNL     1     -23.767   8.427 -42.307  1.00  0.00     0.211 HD
ENDBRANCH   3  12
BRANCH   5  14
ATOM     14  C   UNL     1     -22.975   6.893 -37.541  1.00  0.00     0.191 C 
BRANCH  14  15
ATOM     15  O   UNL     1     -22.887   7.997 -36.680  1.00  0.00    -0.394 OA
ATOM     16  H   UNL     1     -22.070   7.874 -36.132  1.00  0.00     0.210 HD
ENDBRANCH  14  15
ENDBRANCH   5  14
BRANCH   4  17
ATOM     17  O   UNL     1     -23.213   9.241 -39.126  1.00  0.00    -0.387 OA
ATOM     18  H   UNL     1     -22.512   9.944 -39.138  1.00  0.00     0.211 HD
ENDBRANCH   4  17
TORSDOF 7
ENDMDL
MODEL 3
REMARK VINA RESULT:    -5.046      2.101      3.185
REMARK INTER + INTRA:          -6.891
REMARK INTER:                  -6.504
REMARK INTRA:                  -0.387
REMARK UNBOUND:                -0.370
REMARK SMILES CCO[C@@H]1O[C@H](CO)[C@H](O)[C@@H](O)[C@@H]1O
REMARK SMILES IDX 4 1 13 2 11 3 9 4 6 5 5 6 3 7 2 8 1 9 14 10 12 12 7 14 8 15
REMARK SMILES IDX 10 17
REMARK H PARENT 14 11 12 13 8 16 10 18
REMARK Flexibility Score: inf
ROOT
ATOM      1  C   UNL     1     -22.223   7.224 -38.289  1.00  0.00     0.281 C 
ATOM      2  C   UNL     1     -23.252   7.910 -39.243  1.00  0.00     0.202 C 
ATOM      3  C   UNL     1     -23.191   7.397 -40.677  1.00  0.00     0.179 C 
ATOM      4  C   UNL     1     -23.261   5.877 -40.606  1.00  0.00     0.177 C 
ATOM      5  C   UNL     1     -22.019   5.326 -39.871  1.00  0.00     0.178 C 
ATOM      6  O   UNL     1     -21.709   5.924 -38.611  1.00  0.00    -0.341 OA
ENDROOT
BRANCH   1   7
ATOM      7  O   UNL     1     -21.196   8.113 -37.871  1.00  0.00    -0.350 OA
BRANCH   7   8
ATOM      8  C   UNL     1     -20.264   7.494 -37.013  1.00  0.00     0.160 C 
ATOM      9  C   UNL     1     -20.319   8.171 -35.653  1.00  0.00     0.035 C 
ENDBRANCH   7   8
ENDBRANCH   1   7
BRANCH   2  10
ATOM     10  O   UNL     1     -23.160   9.314 -39.189  1.00  0.00    -0.385 OA
ATOM     11  H   UNL     1     -22.221   9.557 -38.985  1.00  0.00     0.211 HD
ENDBRANCH   2  10
BRANCH   3  12
ATOM     12  O   UNL     1     -24.293   7.902 -41.390  1.00  0.00    -0.387 OA
ATOM     13  H   UNL     1     -24.981   7.187 -41.406  1.00  0.00     0.211 HD
ENDBRANCH   3  12
BRANCH   5  14
ATOM     14  C   UNL     1     -20.752   5.269 -40.751  1.00  0.00     0.191 C 
BRANCH  14  15
ATOM     15  O   UNL     1     -20.735   4.087 -41.507  1.00  0.00    -0.394 OA
ATOM     16  H   UNL     1     -21.530   3.559 -41.240  1.00  0.00     0.210 HD
ENDBRANCH  14  15
ENDBRANCH   5  14
BRANCH   4  17
ATOM     17  O   UNL     1     -23.354   5.327 -41.897  1.00  0.00    -0.387 OA
ATOM     18  H   UNL     1     -23.355   6.083 -42.540  1.00  0.00     0.211 HD
ENDBRANCH   4  17
TORSDOF 7
ENDMDL
MODEL 4
REMARK VINA RESULT:    -4.999      2.762      4.146
REMARK INTER + INTRA:          -6.831
REMARK INTER:                  -6.449
REMARK INTRA:                  -0.382
REMARK UNBOUND:                -0.370
REMARK SMILES CCO[C@@H]1O[C@H](CO)[C@H](O)[C@@H](O)[C@@H]1O
REMARK SMILES IDX 4 1 13 2 11 3 9 4 6 5 5 6 3 7 2 8 1 9 14 10 12 12 7 14 8 15
REMARK SMILES IDX 10 17
REMARK H PARENT 14 11 12 13 8 16 10 18
REMARK Flexibility Score: inf
ROOT
ATOM      1  C   UNL     1     -22.492   6.676 -38.957  1.00  0.00     0.281 C 
ATOM      2  C   UNL     1     -22.468   8.051 -38.218  1.00  0.00     0.202 C 
ATOM      3  C   UNL     1     -22.791   7.952 -36.731  1.00  0.00     0.179 C 
ATOM      4  C   UNL     1     -21.884   6.872 -36.155  1.00  0.00     0.177 C 
ATOM      5  C   UNL     1     -22.225   5.504 -36.789  1.00  0.00     0.178 C 
ATOM      6  O   UNL     1     -22.292   5.465 -38.215  1.00  0.00    -0.341 OA
ENDROOT
BRANCH   1   7
ATOM      7  O   UNL     1     -23.577   6.569 -39.867  1.00  0.00    -0.350 OA
BRANCH   7   8
ATOM      8  C   UNL     1     -23.169   6.124 -41.142  1.00  0.00     0.160 C 
ATOM      9  C   UNL     1     -23.859   4.804 -41.449  1.00  0.00     0.035 C 
ENDBRANCH   7   8
ENDBRANCH   1   7
BRANCH   2  10
ATOM     10  O   UNL     1     -23.280   9.005 -38.862  1.00  0.00    -0.385 OA
ATOM     11  H   UNL     1     -24.072   8.540 -39.233  1.00  0.00     0.211 HD
ENDBRANCH   2  10
BRANCH   3  12
ATOM     12  O   UNL     1     -22.521   9.190 -36.122  1.00  0.00    -0.387 OA
ATOM     13  H   UNL     1     -21.544   9.224 -35.955  1.00  0.00     0.211 HD
ENDBRANCH   3  12
BRANCH   5  14
ATOM     14  C   UNL     1     -23.478   4.835 -36.184  1.00  0.00     0.191 C 
BRANCH  14  15
ATOM     15  O   UNL     1     -23.128   4.063 -35.066  1.00  0.00    -0.394 OA
ATOM     16  H   UNL     1     -22.580   4.640 -34.474  1.00  0.00     0.210 HD
ENDBRANCH  14  15
ENDBRANCH   5  14
BRANCH   4  17
ATOM     17  O   UNL     1     -22.016   6.812 -34.756  1.00  0.00    -0.387 OA
ATOM     18  H   UNL     1     -22.109   5.855 -34.510  1.00  0.00     0.211 HD
ENDBRANCH   4  17
TORSDOF 7
ENDMDL
MODEL 5
REMARK VINA RESULT:    -4.997      1.852      2.516
REMARK INTER + INTRA:          -6.828
REMARK INTER:                  -6.363
REMARK INTRA:                  -0.465
REMARK UNBOUND:                -0.370
REMARK SMILES CCO[C@@H]1O[C@H](CO)[C@H](O)[C@@H](O)[C@@H]1O
REMARK SMILES IDX 4 1 13 2 11 3 9 4 6 5 5 6 3 7 2 8 1 9 14 10 12 12 7 14 8 15
REMARK SMILES IDX 10 17
REMARK H PARENT 14 11 12 13 8 16 10 18
REMARK Flexibility Score: inf
ROOT
ATOM      1  C   UNL     1     -22.895   6.345 -41.549  1.00  0.00     0.281 C 
ATOM      2  C   UNL     1     -23.356   7.720 -40.969  1.00  0.00     0.202 C 
ATOM      3  C   UNL     1     -22.904   7.961 -39.533  1.00  0.00     0.179 C 
ATOM      4  C   UNL     1     -21.405   7.691 -39.493  1.00  0.00     0.177 C 
ATOM      5  C   UNL     1     -21.128   6.205 -39.816  1.00  0.00     0.178 C 
ATOM      6  O   UNL     1     -21.750   5.685 -40.992  1.00  0.00    -0.341 OA
ENDROOT
BRANCH   1   7
ATOM      7  O   UNL     1     -23.980   5.450 -41.748  1.00  0.00    -0.350 OA
BRANCH   7   8
ATOM      8  C   UNL     1     -23.762   4.196 -41.141  1.00  0.00     0.160 C 
ATOM      9  C   UNL     1     -24.753   4.021 -40.000  1.00  0.00     0.035 C 
ENDBRANCH   7   8
ENDBRANCH   1   7
BRANCH   2  10
ATOM     10  O   UNL     1     -24.745   7.909 -41.114  1.00  0.00    -0.385 OA
ATOM     11  H   UNL     1     -25.127   7.098 -41.536  1.00  0.00     0.211 HD
ENDBRANCH   2  10
BRANCH   3  12
ATOM     12  O   UNL     1     -23.167   9.298 -39.190  1.00  0.00    -0.387 OA
ATOM     13  H   UNL     1     -22.440   9.847 -39.583  1.00  0.00     0.211 HD
ENDBRANCH   3  12
BRANCH   5  14
ATOM     14  C   UNL     1     -21.375   5.255 -38.625  1.00  0.00     0.191 C 
BRANCH  14  15
ATOM     15  O   UNL     1     -20.242   5.202 -37.799  1.00  0.00    -0.394 OA
ATOM     16  H   UNL     1     -20.484   5.642 -36.944  1.00  0.00     0.210 HD
ENDBRANCH  14  15
ENDBRANCH   5  14
BRANCH   4  17
ATOM     17  O   UNL     1     -20.878   8.027 -38.233  1.00  0.00    -0.387 OA
ATOM     18  H   UNL     1     -19.907   8.194 -38.355  1.00  0.00     0.211 HD
ENDBRANCH   4  17
TORSDOF 7
ENDMDL
MODEL 6
REMARK VINA RESULT:    -4.978      2.807      4.894
REMARK INTER + INTRA:          -6.803
REMARK INTER:                  -6.366
REMARK INTRA:                  -0.437
REMARK UNBOUND:                -0.370
REMARK SMILES CCO[C@@H]1O[C@H](CO)[C@H](O)[C@@H](O)[C@@H]1O
REMARK SMILES IDX 4 1 13 2 11 3 9 4 6 5 5 6 3 7 2 8 1 9 14 10 12 12 7 14 8 15
REMARK SMILES IDX 10 17
REMARK H PARENT 14 11 12 13 8 16 10 18
REMARK Flexibility Score: inf
ROOT
ATOM      1  C   UNL     1     -23.113   7.124 -38.694  1.00  0.00     0.281 C 
ATOM      2  C   UNL     1     -23.696   6.086 -37.684  1.00  0.00     0.202 C 
ATOM      3  C   UNL     1     -22.987   6.082 -36.334  1.00  0.00     0.179 C 
ATOM      4  C   UNL     1     -22.947   7.527 -35.854  1.00  0.00     0.177 C 
ATOM      5  C   UNL     1     -22.090   8.380 -36.818  1.00  0.00     0.178 C 
ATOM      6  O   UNL     1     -22.399   8.269 -38.207  1.00  0.00    -0.341 OA
ENDROOT
BRANCH   1   7
ATOM      7  O   UNL     1     -22.443   6.503 -39.783  1.00  0.00    -0.350 OA
BRANCH   7   8
ATOM      8  C   UNL     1     -22.734   7.121 -41.017  1.00  0.00     0.160 C 
ATOM      9  C   UNL     1     -24.243   7.168 -41.202  1.00  0.00     0.035 C 
ENDBRANCH   7   8
ENDBRANCH   1   7
BRANCH   2  10
ATOM     10  O   UNL     1     -23.759   4.793 -38.240  1.00  0.00    -0.385 OA
ATOM     11  H   UNL     1     -24.461   4.283 -37.762  1.00  0.00     0.211 HD
ENDBRANCH   2  10
BRANCH   3  12
ATOM     12  O   UNL     1     -23.722   5.291 -35.435  1.00  0.00    -0.387 OA
ATOM     13  H   UNL     1     -23.366   5.475 -34.527  1.00  0.00     0.211 HD
ENDBRANCH   3  12
BRANCH   5  14
ATOM     14  C   UNL     1     -20.570   8.221 -36.602  1.00  0.00     0.191 C 
BRANCH  14  15
ATOM     15  O   UNL     1     -20.125   9.093 -35.597  1.00  0.00    -0.394 OA
ATOM     16  H   UNL     1     -19.145   8.971 -35.519  1.00  0.00     0.210 HD
ENDBRANCH  14  15
ENDBRANCH   5  14
BRANCH   4  17
ATOM     17  O   UNL     1     -22.434   7.598 -34.546  1.00  0.00    -0.387 OA
ATOM     18  H   UNL     1     -22.280   6.666 -34.240  1.00  0.00     0.211 HD
ENDBRANCH   4  17
TORSDOF 7
ENDMDL
MODEL 7
REMARK VINA RESULT:    -4.923      1.775      2.950
REMARK INTER + INTRA:          -6.732
REMARK INTER:                  -6.255
REMARK INTRA:                  -0.477
REMARK UNBOUND:                -0.370
REMARK SMILES CCO[C@@H]1O[C@H](CO)[C@H](O)[C@@H](O)[C@@H]1O
REMARK SMILES IDX 4 1 13 2 11 3 9 4 6 5 5 6 3 7 2 8 1 9 14 10 12 12 7 14 8 15
REMARK SMILES IDX 10 17
REMARK H PARENT 14 11 12 13 8 16 10 18
REMARK Flexibility Score: inf
ROOT
ATOM      1  C   UNL     1     -23.459   6.655 -38.158  1.00  0.00     0.281 C 
ATOM      2  C   UNL     1     -22.072   5.991 -38.430  1.00  0.00     0.202 C 
ATOM      3  C   UNL     1     -21.772   5.785 -39.910  1.00  0.00     0.179 C 
ATOM      4  C   UNL     1     -22.015   7.122 -40.599  1.00  0.00     0.177 C 
ATOM      5  C   UNL     1     -23.507   7.510 -40.484  1.00  0.00     0.178 C 
ATOM      6  O   UNL     1     -24.079   7.451 -39.177  1.00  0.00    -0.341 OA
ENDROOT
BRANCH   1   7
ATOM      7  O   UNL     1     -24.379   5.759 -37.550  1.00  0.00    -0.350 OA
BRANCH   7   8
ATOM      8  C   UNL     1     -25.475   5.462 -38.386  1.00  0.00     0.160 C 
ATOM      9  C   UNL     1     -25.280   4.077 -38.983  1.00  0.00     0.035 C 
ENDBRANCH   7   8
ENDBRANCH   1   7
BRANCH   2  10
ATOM     10  O   UNL     1     -21.911   4.798 -37.697  1.00  0.00    -0.385 OA
ATOM     11  H   UNL     1     -22.485   4.848 -36.891  1.00  0.00     0.211 HD
ENDBRANCH   2  10
BRANCH   3  12
ATOM     12  O   UNL     1     -20.428   5.401 -40.054  1.00  0.00    -0.387 OA
ATOM     13  H   UNL     1     -19.993   5.529 -39.172  1.00  0.00     0.211 HD
ENDBRANCH   3  12
BRANCH   5  14
ATOM     14  C   UNL     1     -24.418   6.777 -41.492  1.00  0.00     0.191 C 
BRANCH  14  15
ATOM     15  O   UNL     1     -24.374   7.412 -42.742  1.00  0.00    -0.394 OA
ATOM     16  H   UNL     1     -23.418   7.531 -42.976  1.00  0.00     0.210 HD
ENDBRANCH  14  15
ENDBRANCH   5  14
BRANCH   4  17
ATOM     17  O   UNL     1     -21.625   7.059 -41.948  1.00  0.00    -0.387 OA
ATOM     18  H   UNL     1     -22.449   7.139 -42.497  1.00  0.00     0.211 HD
ENDBRANCH   4  17
TORSDOF 7
ENDMDL
MODEL 8
REMARK VINA RESULT:    -4.906      1.709      3.376
REMARK INTER + INTRA:          -6.711
REMARK INTER:                  -6.489
REMARK INTRA:                  -0.222
REMARK UNBOUND:                -0.370
REMARK SMILES CCO[C@@H]1O[C@H](CO)[C@H](O)[C@@H](O)[C@@H]1O
REMARK SMILES IDX 4 1 13 2 11 3 9 4 6 5 5 6 3 7 2 8 1 9 14 10 12 12 7 14 8 15
REMARK SMILES IDX 10 17
REMARK H PARENT 14 11 12 13 8 16 10 18
REMARK Flexibility Score: inf
ROOT
ATOM      1  C   UNL     1     -23.478   5.418 -38.488  1.00  0.00     0.281 C 
ATOM      2  C   UNL     1     -23.817   4.835 -39.897  1.00  0.00     0.202 C 
ATOM      3  C   UNL     1     -23.466   5.773 -41.046  1.00  0.00     0.179 C 
ATOM      4  C   UNL     1     -22.021   6.207 -40.836  1.00  0.00     0.177 C 
ATOM      5  C   UNL     1     -21.900   7.021 -39.528  1.00  0.00     0.178 C 
ATOM      6  O   UNL     1     -22.476   6.435 -38.360  1.00  0.00    -0.341 OA
ENDROOT
BRANCH   1   7
ATOM      7  O   UNL     1     -24.643   5.721 -37.733  1.00  0.00    -0.350 OA
BRANCH   7   8
ATOM      8  C   UNL     1     -24.685   5.026 -36.506  1.00  0.00     0.160 C 
ATOM      9  C   UNL     1     -26.108   4.549 -36.258  1.00  0.00     0.035 C 
ENDBRANCH   7   8
ENDBRANCH   1   7
BRANCH   2  10
ATOM     10  O   UNL     1     -25.154   4.397 -39.974  1.00  0.00    -0.385 OA
ATOM     11  H   UNL     1     -25.505   4.626 -40.871  1.00  0.00     0.211 HD
ENDBRANCH   2  10
BRANCH   3  12
ATOM     12  O   UNL     1     -23.594   5.075 -42.260  1.00  0.00    -0.387 OA
ATOM     13  H   UNL     1     -22.846   4.423 -42.299  1.00  0.00     0.211 HD
ENDBRANCH   3  12
BRANCH   5  14
ATOM     14  C   UNL     1     -22.365   8.487 -39.666  1.00  0.00     0.191 C 
BRANCH  14  15
ATOM     15  O   UNL     1     -23.201   8.837 -38.595  1.00  0.00    -0.394 OA
ATOM     16  H   UNL     1     -22.867   8.357 -37.795  1.00  0.00     0.210 HD
ENDBRANCH  14  15
ENDBRANCH   5  14
BRANCH   4  17
ATOM     17  O   UNL     1     -21.570   6.964 -41.932  1.00  0.00    -0.387 OA
ATOM     18  H   UNL     1     -20.674   7.319 -41.694  1.00  0.00     0.211 HD
ENDBRANCH   4  17
TORSDOF 7
ENDMDL
MODEL 9
REMARK VINA RESULT:    -4.857     15.922     17.813
REMARK INTER + INTRA:          -6.647
REMARK INTER:                  -6.197
REMARK INTRA:                  -0.450
REMARK UNBOUND:                -0.370
REMARK SMILES CCO[C@@H]1O[C@H](CO)[C@H](O)[C@@H](O)[C@@H]1O
REMARK SMILES IDX 4 1 13 2 11 3 9 4 6 5 5 6 3 7 2 8 1 9 14 10 12 12 7 14 8 15
REMARK SMILES IDX 10 17
REMARK H PARENT 14 11 12 13 8 16 10 18
REMARK Flexibility Score: inf
ROOT
ATOM      1  C   UNL     1     -39.465   6.119 -44.950  1.00  0.00     0.281 C 
ATOM      2  C   UNL     1     -39.969   6.402 -46.401  1.00  0.00     0.202 C 
ATOM      3  C   UNL     1     -39.441   5.414 -47.435  1.00  0.00     0.179 C 
ATOM      4  C   UNL     1     -39.722   4.018 -46.893  1.00  0.00     0.177 C 
ATOM      5  C   UNL     1     -38.923   3.787 -45.591  1.00  0.00     0.178 C 
ATOM      6  O   UNL     1     -39.035   4.799 -44.590  1.00  0.00    -0.341 OA
ENDROOT
BRANCH   1   7
ATOM      7  O   UNL     1     -38.567   7.117 -44.485  1.00  0.00    -0.350 OA
BRANCH   7   8
ATOM      8  C   UNL     1     -37.265   6.615 -44.277  1.00  0.00     0.160 C 
ATOM      9  C   UNL     1     -36.388   7.015 -45.453  1.00  0.00     0.035 C 
ENDBRANCH   7   8
ENDBRANCH   1   7
BRANCH   2  10
ATOM     10  O   UNL     1     -39.729   7.735 -46.787  1.00  0.00    -0.385 OA
ATOM     11  H   UNL     1     -40.435   8.005 -47.428  1.00  0.00     0.211 HD
ENDBRANCH   2  10
BRANCH   3  12
ATOM     12  O   UNL     1     -40.125   5.612 -48.647  1.00  0.00    -0.387 OA
ATOM     13  H   UNL     1     -41.091   5.485 -48.459  1.00  0.00     0.211 HD
ENDBRANCH   3  12
BRANCH   5  14
ATOM     14  C   UNL     1     -37.437   3.443 -45.828  1.00  0.00     0.191 C 
BRANCH  14  15
ATOM     15  O   UNL     1     -37.311   2.141 -46.337  1.00  0.00    -0.394 OA
ATOM     16  H   UNL     1     -36.643   1.672 -45.776  1.00  0.00     0.210 HD
ENDBRANCH  14  15
ENDBRANCH   5  14
BRANCH   4  17
ATOM     17  O   UNL     1     -39.393   3.043 -47.852  1.00  0.00    -0.387 OA
ATOM     18  H   UNL     1     -38.975   2.283 -47.368  1.00  0.00     0.211 HD
ENDBRANCH   4  17
TORSDOF 7
ENDMDL
