MODEL 1
REMARK VINA RESULT:    -5.954      0.000      0.000
REMARK INTER + INTRA:          -6.400
REMARK INTER:                  -6.302
REMARK INTRA:                  -0.098
REMARK UNBOUND:                -0.098
REMARK SMILES C=C(C)[C@H]1CC=C(C)C(=O)C1
REMARK SMILES IDX 8 1 7 2 6 3 5 4 4 5 11 6 9 7 10 8 2 9 1 10 3 11
REMARK H PARENT
REMARK Flexibility Score: inf
ROOT
ATOM      1  C   UNL     1      26.352 -14.925  32.119  1.00  0.00     0.048 C 
ATOM      2  C   UNL     1      26.782 -14.043  30.979  1.00  0.00    -0.012 C 
ATOM      3  C   UNL     1      27.731 -13.110  31.168  1.00  0.00    -0.019 C 
ATOM      4  C   UNL     1      28.136 -12.151  30.080  1.00  0.00     0.036 C 
ATOM      5  C   UNL     1      27.972 -12.787  28.688  1.00  0.00     0.025 C 
ATOM      6  C   UNL     1      26.535 -13.306  28.501  1.00  0.00     0.089 C 
ATOM      7  C   UNL     1      26.137 -14.191  29.651  1.00  0.00     0.158 C 
ATOM      8  O   UNL     1      25.213 -15.032  29.487  1.00  0.00    -0.295 OA
ENDROOT
BRANCH   5   9
ATOM      9  C   UNL     1      28.361 -11.817  27.580  1.00  0.00    -0.077 C 
ATOM     10  C   UNL     1      28.733 -10.564  27.883  1.00  0.00     0.008 C 
ATOM     11  C   UNL     1      28.342 -12.231  26.129  1.00  0.00     0.039 C 
ENDBRANCH   5   9
TORSDOF 1
ENDMDL
MODEL 2
REMARK VINA RESULT:    -5.953      2.115      4.704
REMARK INTER + INTRA:          -6.399
REMARK INTER:                  -6.301
REMARK INTRA:                  -0.097
REMARK UNBOUND:                -0.098
REMARK SMILES C=C(C)[C@H]1CC=C(C)C(=O)C1
REMARK SMILES IDX 8 1 7 2 6 3 5 4 4 5 11 6 9 7 10 8 2 9 1 10 3 11
REMARK H PARENT
REMARK Flexibility Score: inf
ROOT
ATOM      1  C   UNL     1      28.624 -11.375  25.798  1.00  0.00     0.048 C 
ATOM      2  C   UNL     1      28.106 -11.898  27.110  1.00  0.00    -0.012 C 
ATOM      3  C   UNL     1      27.409 -13.047  27.152  1.00  0.00    -0.019 C 
ATOM      4  C   UNL     1      26.801 -13.567  28.428  1.00  0.00     0.036 C 
ATOM      5  C   UNL     1      27.635 -13.146  29.653  1.00  0.00     0.025 C 
ATOM      6  C   UNL     1      27.820 -11.618  29.676  1.00  0.00     0.089 C 
ATOM      7  C   UNL     1      28.347 -11.127  28.355  1.00  0.00     0.158 C 
ATOM      8  O   UNL     1      28.958 -10.026  28.309  1.00  0.00    -0.295 OA
ENDROOT
BRANCH   5   9
ATOM      9  C   UNL     1      27.016 -13.652  30.949  1.00  0.00    -0.077 C 
ATOM     10  C   UNL     1      27.424 -13.158  32.128  1.00  0.00     0.008 C 
ATOM     11  C   UNL     1      25.938 -14.708  30.946  1.00  0.00     0.039 C 
ENDBRANCH   5   9
TORSDOF 1
ENDMDL
MODEL 3
REMARK VINA RESULT:    -5.915      2.981      3.992
REMARK INTER + INTRA:          -6.359
REMARK INTER:                  -6.262
REMARK INTRA:                  -0.098
REMARK UNBOUND:                -0.098
REMARK SMILES C=C(C)[C@H]1CC=C(C)C(=O)C1
REMARK SMILES IDX 8 1 7 2 6 3 5 4 4 5 11 6 9 7 10 8 2 9 1 10 3 11
REMARK H PARENT
REMARK Flexibility Score: inf
ROOT
ATOM      1  C   UNL     1      31.860 -12.506  31.345  1.00  0.00     0.048 C 
ATOM      2  C   UNL     1      30.713 -12.852  30.435  1.00  0.00    -0.012 C 
ATOM      3  C   UNL     1      29.453 -12.844  30.904  1.00  0.00    -0.019 C 
ATOM      4  C   UNL     1      28.282 -13.261  30.053  1.00  0.00     0.036 C 
ATOM      5  C   UNL     1      28.535 -12.950  28.567  1.00  0.00     0.025 C 
ATOM      6  C   UNL     1      29.852 -13.596  28.100  1.00  0.00     0.089 C 
ATOM      7  C   UNL     1      30.981 -13.225  29.024  1.00  0.00     0.158 C 
ATOM      8  O   UNL     1      32.165 -13.279  28.598  1.00  0.00    -0.295 OA
ENDROOT
BRANCH   5   9
ATOM      9  C   UNL     1      27.363 -13.387  27.698  1.00  0.00    -0.077 C 
ATOM     10  C   UNL     1      27.538 -13.590  26.383  1.00  0.00     0.008 C 
ATOM     11  C   UNL     1      25.989 -13.604  28.283  1.00  0.00     0.039 C 
ENDBRANCH   5   9
TORSDOF 1
ENDMDL
MODEL 4
REMARK VINA RESULT:    -5.895      1.665      2.422
REMARK INTER + INTRA:          -6.338
REMARK INTER:                  -6.240
REMARK INTRA:                  -0.098
REMARK UNBOUND:                -0.098
REMARK SMILES C=C(C)[C@H]1CC=C(C)C(=O)C1
REMARK SMILES IDX 8 1 7 2 6 3 5 4 4 5 11 6 9 7 10 8 2 9 1 10 3 11
REMARK H PARENT
REMARK Flexibility Score: inf
ROOT
ATOM      1  C   UNL     1      26.374 -14.316  32.413  1.00  0.00     0.048 C 
ATOM      2  C   UNL     1      26.816 -13.999  31.011  1.00  0.00    -0.012 C 
ATOM      3  C   UNL     1      25.999 -14.247  29.972  1.00  0.00    -0.019 C 
ATOM      4  C   UNL     1      26.429 -14.022  28.547  1.00  0.00     0.036 C 
ATOM      5  C   UNL     1      27.446 -12.871  28.447  1.00  0.00     0.025 C 
ATOM      6  C   UNL     1      28.642 -13.130  29.381  1.00  0.00     0.089 C 
ATOM      7  C   UNL     1      28.168 -13.435  30.777  1.00  0.00     0.158 C 
ATOM      8  O   UNL     1      28.953 -13.248  31.745  1.00  0.00    -0.295 OA
ENDROOT
BRANCH   5   9
ATOM      9  C   UNL     1      27.901 -12.650  27.010  1.00  0.00    -0.077 C 
ATOM     10  C   UNL     1      27.750 -13.624  26.099  1.00  0.00     0.008 C 
ATOM     11  C   UNL     1      28.523 -11.347  26.574  1.00  0.00     0.039 C 
ENDBRANCH   5   9
TORSDOF 1
ENDMDL
MODEL 5
REMARK VINA RESULT:    -5.743      1.459      2.462
REMARK INTER + INTRA:          -6.177
REMARK INTER:                  -6.079
REMARK INTRA:                  -0.098
REMARK UNBOUND:                -0.098
REMARK SMILES C=C(C)[C@H]1CC=C(C)C(=O)C1
REMARK SMILES IDX 8 1 7 2 6 3 5 4 4 5 11 6 9 7 10 8 2 9 1 10 3 11
REMARK H PARENT
REMARK Flexibility Score: inf
ROOT
ATOM      1  C   UNL     1      24.127 -15.557  28.842  1.00  0.00     0.048 C 
ATOM      2  C   UNL     1      25.342 -14.702  28.608  1.00  0.00    -0.012 C 
ATOM      3  C   UNL     1      25.735 -14.414  27.355  1.00  0.00    -0.019 C 
ATOM      4  C   UNL     1      26.990 -13.631  27.071  1.00  0.00     0.036 C 
ATOM      5  C   UNL     1      27.291 -12.633  28.204  1.00  0.00     0.025 C 
ATOM      6  C   UNL     1      27.354 -13.362  29.559  1.00  0.00     0.089 C 
ATOM      7  C   UNL     1      26.122 -14.201  29.767  1.00  0.00     0.158 C 
ATOM      8  O   UNL     1      25.782 -14.512  30.940  1.00  0.00    -0.295 OA
ENDROOT
BRANCH   5   9
ATOM      9  C   UNL     1      28.570 -11.851  27.934  1.00  0.00    -0.077 C 
ATOM     10  C   UNL     1      29.472 -11.677  28.911  1.00  0.00     0.008 C 
ATOM     11  C   UNL     1      28.858 -11.260  26.576  1.00  0.00     0.039 C 
ENDBRANCH   5   9
TORSDOF 1
ENDMDL
MODEL 6
REMARK VINA RESULT:    -5.740      3.439      4.048
REMARK INTER + INTRA:          -6.174
REMARK INTER:                  -6.085
REMARK INTRA:                  -0.089
REMARK UNBOUND:                -0.098
REMARK SMILES C=C(C)[C@H]1CC=C(C)C(=O)C1
REMARK SMILES IDX 8 1 7 2 6 3 5 4 4 5 11 6 9 7 10 8 2 9 1 10 3 11
REMARK H PARENT
REMARK Flexibility Score: inf
ROOT
ATOM      1  C   UNL     1      31.689 -12.428  31.537  1.00  0.00     0.048 C 
ATOM      2  C   UNL     1      30.936 -12.421  30.236  1.00  0.00    -0.012 C 
ATOM      3  C   UNL     1      31.087 -13.432  29.362  1.00  0.00    -0.019 C 
ATOM      4  C   UNL     1      30.417 -13.429  28.013  1.00  0.00     0.036 C 
ATOM      5  C   UNL     1      29.081 -12.665  28.057  1.00  0.00     0.025 C 
ATOM      6  C   UNL     1      29.295 -11.242  28.604  1.00  0.00     0.089 C 
ATOM      7  C   UNL     1      30.043 -11.282  29.909  1.00  0.00     0.158 C 
ATOM      8  O   UNL     1      29.938 -10.311  30.706  1.00  0.00    -0.295 OA
ENDROOT
BRANCH   5   9
ATOM      9  C   UNL     1      28.407 -12.641  26.692  1.00  0.00    -0.077 C 
ATOM     10  C   UNL     1      27.641 -13.670  26.300  1.00  0.00     0.008 C 
ATOM     11  C   UNL     1      28.576 -11.472  25.752  1.00  0.00     0.039 C 
ENDBRANCH   5   9
TORSDOF 1
ENDMDL
MODEL 7
REMARK VINA RESULT:    -5.713      1.391      2.834
REMARK INTER + INTRA:          -6.145
REMARK INTER:                  -6.054
REMARK INTRA:                  -0.090
REMARK UNBOUND:                -0.098
REMARK SMILES C=C(C)[C@H]1CC=C(C)C(=O)C1
REMARK SMILES IDX 8 1 7 2 6 3 5 4 4 5 11 6 9 7 10 8 2 9 1 10 3 11
REMARK H PARENT
REMARK Flexibility Score: inf
ROOT
ATOM      1  C   UNL     1      24.903 -14.748  28.418  1.00  0.00     0.048 C 
ATOM      2  C   UNL     1      26.082 -13.925  28.861  1.00  0.00    -0.012 C 
ATOM      3  C   UNL     1      26.709 -13.119  27.988  1.00  0.00    -0.019 C 
ATOM      4  C   UNL     1      27.941 -12.339  28.364  1.00  0.00     0.036 C 
ATOM      5  C   UNL     1      27.931 -11.968  29.859  1.00  0.00     0.025 C 
ATOM      6  C   UNL     1      27.754 -13.230  30.723  1.00  0.00     0.089 C 
ATOM      7  C   UNL     1      26.564 -14.027  30.261  1.00  0.00     0.158 C 
ATOM      8  O   UNL     1      26.006 -14.820  31.066  1.00  0.00    -0.295 OA
ENDROOT
BRANCH   5   9
ATOM      9  C   UNL     1      29.183 -11.196  30.252  1.00  0.00    -0.077 C 
ATOM     10  C   UNL     1      29.323  -9.911  29.893  1.00  0.00     0.008 C 
ATOM     11  C   UNL     1      30.289 -11.845  31.048  1.00  0.00     0.039 C 
ENDBRANCH   5   9
TORSDOF 1
ENDMDL
MODEL 8
REMARK VINA RESULT:    -5.691      2.142      3.191
REMARK INTER + INTRA:          -6.121
REMARK INTER:                  -6.025
REMARK INTRA:                  -0.096
REMARK UNBOUND:                -0.098
REMARK SMILES C=C(C)[C@H]1CC=C(C)C(=O)C1
REMARK SMILES IDX 8 1 7 2 6 3 5 4 4 5 11 6 9 7 10 8 2 9 1 10 3 11
REMARK H PARENT
REMARK Flexibility Score: inf
ROOT
ATOM      1  C   UNL     1      25.394 -14.381  28.006  1.00  0.00     0.048 C 
ATOM      2  C   UNL     1      26.613 -13.693  28.557  1.00  0.00    -0.012 C 
ATOM      3  C   UNL     1      26.732 -13.489  29.881  1.00  0.00    -0.019 C 
ATOM      4  C   UNL     1      27.894 -12.734  30.470  1.00  0.00     0.036 C 
ATOM      5  C   UNL     1      29.164 -12.911  29.618  1.00  0.00     0.025 C 
ATOM      6  C   UNL     1      28.889 -12.509  28.157  1.00  0.00     0.089 C 
ATOM      7  C   UNL     1      27.671 -13.219  27.631  1.00  0.00     0.158 C 
ATOM      8  O   UNL     1      27.536 -13.367  26.387  1.00  0.00    -0.295 OA
ENDROOT
BRANCH   5   9
ATOM      9  C   UNL     1      30.339 -12.134  30.197  1.00  0.00    -0.077 C 
ATOM     10  C   UNL     1      30.290 -10.796  30.272  1.00  0.00     0.008 C 
ATOM     11  C   UNL     1      31.575 -12.838  30.699  1.00  0.00     0.039 C 
ENDBRANCH   5   9
TORSDOF 1
ENDMDL
MODEL 9
REMARK VINA RESULT:    -5.538      2.380      3.755
REMARK INTER + INTRA:          -5.959
REMARK INTER:                  -5.861
REMARK INTRA:                  -0.098
REMARK UNBOUND:                -0.098
REMARK SMILES C=C(C)[C@H]1CC=C(C)C(=O)C1
REMARK SMILES IDX 8 1 7 2 6 3 5 4 4 5 11 6 9 7 10 8 2 9 1 10 3 11
REMARK H PARENT
REMARK Flexibility Score: inf
ROOT
ATOM      1  C   UNL     1      28.717 -10.076  31.284  1.00  0.00     0.048 C 
ATOM      2  C   UNL     1      28.174 -11.131  30.359  1.00  0.00    -0.012 C 
ATOM      3  C   UNL     1      27.616 -12.247  30.861  1.00  0.00    -0.019 C 
ATOM      4  C   UNL     1      27.133 -13.366  29.977  1.00  0.00     0.036 C 
ATOM      5  C   UNL     1      26.654 -12.831  28.615  1.00  0.00     0.025 C 
ATOM      6  C   UNL     1      27.762 -11.997  27.946  1.00  0.00     0.089 C 
ATOM      7  C   UNL     1      28.278 -10.946  28.891  1.00  0.00     0.158 C 
ATOM      8  O   UNL     1      28.844  -9.923  28.420  1.00  0.00    -0.295 OA
ENDROOT
BRANCH   5   9
ATOM      9  C   UNL     1      26.182 -13.959  27.707  1.00  0.00    -0.077 C 
ATOM     10  C   UNL     1      26.840 -14.228  26.569  1.00  0.00     0.008 C 
ATOM     11  C   UNL     1      24.977 -14.798  28.057  1.00  0.00     0.039 C 
ENDBRANCH   5   9
TORSDOF 1
ENDMDL
