MODEL 1
REMARK VINA RESULT:    -4.398      0.000      0.000
REMARK INTER + INTRA:          -6.097
REMARK INTER:                  -5.941
REMARK INTRA:                  -0.157
REMARK UNBOUND:                -0.157
REMARK SMILES CCCCCCCC(=O)[O-]
REMARK SMILES IDX 5 1 6 2 7 3 8 4 9 5 10 6 4 7 3 8 2 9 1 10
REMARK H PARENT
REMARK Flexibility Score: inf
ROOT
ATOM      1  C   UNL     1      -0.815  12.218  -7.915  1.00  0.00     0.000 C 
ENDROOT
BRANCH   1   2
ATOM      2  C   UNL     1       0.661  11.857  -7.666  1.00  0.00     0.006 C 
BRANCH   2   3
ATOM      3  C   UNL     1       1.030  10.422  -8.080  1.00  0.00     0.053 C 
BRANCH   3   4
ATOM      4  C   UNL     1       2.509  10.227  -8.219  1.00  0.00     0.041 C 
ATOM      5  O   UNL     1       2.979   9.643  -9.232  1.00  0.00    -0.550 OA
ATOM      6  O   UNL     1       3.369  10.658  -7.216  1.00  0.00    -0.550 OA
ENDBRANCH   3   4
ENDBRANCH   2   3
ENDBRANCH   1   2
BRANCH   1   7
ATOM      7  C   UNL     1      -1.640  11.040  -8.459  1.00  0.00     0.000 C 
BRANCH   7   8
ATOM      8  C   UNL     1      -2.851  11.498  -9.287  1.00  0.00    -0.000 C 
BRANCH   8   9
ATOM      9  C   UNL     1      -3.724  10.323  -9.752  1.00  0.00    -0.003 C 
ATOM     10  C   UNL     1      -4.844  10.801 -10.672  1.00  0.00     0.004 C 
ENDBRANCH   8   9
ENDBRANCH   7   8
ENDBRANCH   1   7
TORSDOF 6
ENDMDL
MODEL 2
REMARK VINA RESULT:    -4.318     13.082     14.422
REMARK INTER + INTRA:          -5.990
REMARK INTER:                  -5.664
REMARK INTRA:                  -0.326
REMARK UNBOUND:                -0.157
REMARK SMILES CCCCCCCC(=O)[O-]
REMARK SMILES IDX 5 1 6 2 7 3 8 4 9 5 10 6 4 7 3 8 2 9 1 10
REMARK H PARENT
REMARK Flexibility Score: inf
ROOT
ATOM      1  C   UNL     1       9.153  11.855 -20.607  1.00  0.00     0.000 C 
ENDROOT
BRANCH   1   2
ATOM      2  C   UNL     1       9.759  10.817 -19.644  1.00  0.00     0.006 C 
BRANCH   2   3
ATOM      3  C   UNL     1      10.179  11.400 -18.284  1.00  0.00     0.053 C 
BRANCH   3   4
ATOM      4  C   UNL     1      11.667  11.448 -18.115  1.00  0.00     0.041 C 
ATOM      5  O   UNL     1      12.411  10.739 -18.843  1.00  0.00    -0.550 OA
ATOM      6  O   UNL     1      12.234  12.250 -17.131  1.00  0.00    -0.550 OA
ENDBRANCH   3   4
ENDBRANCH   2   3
ENDBRANCH   1   2
BRANCH   1   7
ATOM      7  C   UNL     1       7.704  11.532 -21.007  1.00  0.00     0.000 C 
BRANCH   7   8
ATOM      8  C   UNL     1       6.712  12.618 -20.563  1.00  0.00    -0.000 C 
BRANCH   8   9
ATOM      9  C   UNL     1       6.713  12.830 -19.042  1.00  0.00    -0.003 C 
ATOM     10  C   UNL     1       5.961  14.103 -18.664  1.00  0.00     0.004 C 
ENDBRANCH   8   9
ENDBRANCH   7   8
ENDBRANCH   1   7
TORSDOF 6
ENDMDL
MODEL 3
REMARK VINA RESULT:    -4.271      3.587      5.761
REMARK INTER + INTRA:          -5.925
REMARK INTER:                  -5.712
REMARK INTRA:                  -0.214
REMARK UNBOUND:                -0.157
REMARK SMILES CCCCCCCC(=O)[O-]
REMARK SMILES IDX 5 1 6 2 7 3 8 4 9 5 10 6 4 7 3 8 2 9 1 10
REMARK H PARENT
REMARK Flexibility Score: inf
ROOT
ATOM      1  C   UNL     1      -1.319  11.139  -7.843  1.00  0.00     0.000 C 
ENDROOT
BRANCH   1   2
ATOM      2  C   UNL     1      -2.282  11.220  -9.041  1.00  0.00     0.006 C 
BRANCH   2   3
ATOM      3  C   UNL     1      -3.490  10.274  -8.934  1.00  0.00     0.053 C 
BRANCH   3   4
ATOM      4  C   UNL     1      -4.140  10.020 -10.261  1.00  0.00     0.041 C 
ATOM      5  O   UNL     1      -4.803  10.930 -10.826  1.00  0.00    -0.550 OA
ATOM      6  O   UNL     1      -4.045   8.769 -10.858  1.00  0.00    -0.550 OA
ENDBRANCH   3   4
ENDBRANCH   2   3
ENDBRANCH   1   2
BRANCH   1   7
ATOM      7  C   UNL     1      -0.178  12.167  -7.917  1.00  0.00     0.000 C 
BRANCH   7   8
ATOM      8  C   UNL     1       1.197  11.546  -7.625  1.00  0.00    -0.000 C 
BRANCH   8   9
ATOM      9  C   UNL     1       1.328  10.119  -8.177  1.00  0.00    -0.003 C 
ATOM     10  C   UNL     1       2.744   9.852  -8.680  1.00  0.00     0.004 C 
ENDBRANCH   8   9
ENDBRANCH   7   8
ENDBRANCH   1   7
TORSDOF 6
ENDMDL
MODEL 4
REMARK VINA RESULT:    -4.209      3.963      5.960
REMARK INTER + INTRA:          -5.842
REMARK INTER:                  -5.633
REMARK INTRA:                  -0.210
REMARK UNBOUND:                -0.157
REMARK SMILES CCCCCCCC(=O)[O-]
REMARK SMILES IDX 5 1 6 2 7 3 8 4 9 5 10 6 4 7 3 8 2 9 1 10
REMARK H PARENT
REMARK Flexibility Score: inf
ROOT
ATOM      1  C   UNL     1      -1.299  11.120  -8.094  1.00  0.00     0.000 C 
ENDROOT
BRANCH   1   2
ATOM      2  C   UNL     1      -2.437  11.802  -8.873  1.00  0.00     0.006 C 
BRANCH   2   3
ATOM      3  C   UNL     1      -3.276  10.835  -9.726  1.00  0.00     0.053 C 
BRANCH   3   4
ATOM      4  C   UNL     1      -4.694  11.293  -9.887  1.00  0.00     0.041 C 
ATOM      5  O   UNL     1      -5.408  10.831 -10.817  1.00  0.00    -0.550 OA
ATOM      6  O   UNL     1      -5.220  12.255  -9.032  1.00  0.00    -0.550 OA
ENDBRANCH   3   4
ENDBRANCH   2   3
ENDBRANCH   1   2
BRANCH   1   7
ATOM      7  C   UNL     1      -0.255  12.113  -7.557  1.00  0.00     0.000 C 
BRANCH   7   8
ATOM      8  C   UNL     1       1.187  11.678  -7.859  1.00  0.00    -0.000 C 
BRANCH   8   9
ATOM      9  C   UNL     1       1.296  10.177  -8.168  1.00  0.00    -0.003 C 
ATOM     10  C   UNL     1       2.687   9.823  -8.685  1.00  0.00     0.004 C 
ENDBRANCH   8   9
ENDBRANCH   7   8
ENDBRANCH   1   7
TORSDOF 6
ENDMDL
MODEL 5
REMARK VINA RESULT:    -4.120     12.663     13.780
REMARK INTER + INTRA:          -5.722
REMARK INTER:                  -5.307
REMARK INTRA:                  -0.415
REMARK UNBOUND:                -0.157
REMARK SMILES CCCCCCCC(=O)[O-]
REMARK SMILES IDX 5 1 6 2 7 3 8 4 9 5 10 6 4 7 3 8 2 9 1 10
REMARK H PARENT
REMARK Flexibility Score: inf
ROOT
ATOM      1  C   UNL     1       1.459   5.016 -19.927  1.00  0.00     0.000 C 
ENDROOT
BRANCH   1   2
ATOM      2  C   UNL     1       0.134   5.141 -19.153  1.00  0.00     0.006 C 
BRANCH   2   3
ATOM      3  C   UNL     1      -1.093   5.369 -20.052  1.00  0.00     0.053 C 
BRANCH   3   4
ATOM      4  C   UNL     1      -2.088   6.307 -19.439  1.00  0.00     0.041 C 
ATOM      5  O   UNL     1      -2.281   6.301 -18.194  1.00  0.00    -0.550 OA
ATOM      6  O   UNL     1      -2.828   7.166 -20.243  1.00  0.00    -0.550 OA
ENDBRANCH   3   4
ENDBRANCH   2   3
ENDBRANCH   1   2
BRANCH   1   7
ATOM      7  C   UNL     1       1.533   3.748 -20.794  1.00  0.00     0.000 C 
BRANCH   7   8
ATOM      8  C   UNL     1       2.225   2.579 -20.075  1.00  0.00    -0.000 C 
BRANCH   8   9
ATOM      9  C   UNL     1       1.253   1.443 -19.726  1.00  0.00    -0.003 C 
ATOM     10  C   UNL     1      -0.051   1.577 -20.507  1.00  0.00     0.004 C 
ENDBRANCH   8   9
ENDBRANCH   7   8
ENDBRANCH   1   7
TORSDOF 6
ENDMDL
MODEL 6
REMARK VINA RESULT:    -4.108      4.317      6.330
REMARK INTER + INTRA:          -5.706
REMARK INTER:                  -5.548
REMARK INTRA:                  -0.157
REMARK UNBOUND:                -0.157
REMARK SMILES CCCCCCCC(=O)[O-]
REMARK SMILES IDX 5 1 6 2 7 3 8 4 9 5 10 6 4 7 3 8 2 9 1 10
REMARK H PARENT
REMARK Flexibility Score: inf
ROOT
ATOM      1  C   UNL     1      -2.238  11.582  -8.918  1.00  0.00     0.000 C 
ENDROOT
BRANCH   1   2
ATOM      2  C   UNL     1      -3.433  10.615  -8.993  1.00  0.00     0.006 C 
BRANCH   2   3
ATOM      3  C   UNL     1      -4.003  10.438 -10.411  1.00  0.00     0.053 C 
BRANCH   3   4
ATOM      4  C   UNL     1      -5.470  10.133 -10.407  1.00  0.00     0.041 C 
ATOM      5  O   UNL     1      -6.312  11.069 -10.346  1.00  0.00    -0.550 OA
ATOM      6  O   UNL     1      -5.912   8.816 -10.435  1.00  0.00    -0.550 OA
ENDBRANCH   3   4
ENDBRANCH   2   3
ENDBRANCH   1   2
BRANCH   1   7
ATOM      7  C   UNL     1      -1.081  11.044  -8.059  1.00  0.00     0.000 C 
BRANCH   7   8
ATOM      8  C   UNL     1       0.029  12.085  -7.843  1.00  0.00    -0.000 C 
BRANCH   8   9
ATOM      9  C   UNL     1       1.429  11.454  -7.808  1.00  0.00    -0.003 C 
ATOM     10  C   UNL     1       1.370   9.968  -8.152  1.00  0.00     0.004 C 
ENDBRANCH   8   9
ENDBRANCH   7   8
ENDBRANCH   1   7
TORSDOF 6
ENDMDL
MODEL 7
REMARK VINA RESULT:    -3.975      2.887      3.940
REMARK INTER + INTRA:          -5.526
REMARK INTER:                  -5.068
REMARK INTRA:                  -0.458
REMARK UNBOUND:                -0.157
REMARK SMILES CCCCCCCC(=O)[O-]
REMARK SMILES IDX 5 1 6 2 7 3 8 4 9 5 10 6 4 7 3 8 2 9 1 10
REMARK H PARENT
REMARK Flexibility Score: inf
ROOT
ATOM      1  C   UNL     1      -3.333  10.136  -9.059  1.00  0.00     0.000 C 
ENDROOT
BRANCH   1   2
ATOM      2  C   UNL     1      -2.568  11.463  -9.217  1.00  0.00     0.006 C 
BRANCH   2   3
ATOM      3  C   UNL     1      -2.731  12.422  -8.025  1.00  0.00     0.053 C 
BRANCH   3   4
ATOM      4  C   UNL     1      -1.421  12.966  -7.541  1.00  0.00     0.041 C 
ATOM      5  O   UNL     1      -0.339  12.448  -7.927  1.00  0.00    -0.550 OA
ATOM      6  O   UNL     1      -1.393  14.021  -6.638  1.00  0.00    -0.550 OA
ENDBRANCH   3   4
ENDBRANCH   2   3
ENDBRANCH   1   2
BRANCH   1   7
ATOM      7  C   UNL     1      -4.177   9.777 -10.293  1.00  0.00     0.000 C 
BRANCH   7   8
ATOM      8  C   UNL     1      -5.104  10.922 -10.729  1.00  0.00    -0.000 C 
BRANCH   8   9
ATOM      9  C   UNL     1      -6.408  10.966  -9.918  1.00  0.00    -0.003 C 
ATOM     10  C   UNL     1      -6.428  12.166  -8.975  1.00  0.00     0.004 C 
ENDBRANCH   8   9
ENDBRANCH   7   8
ENDBRANCH   1   7
TORSDOF 6
ENDMDL
MODEL 8
REMARK VINA RESULT:    -3.839     12.133     13.247
REMARK INTER + INTRA:          -5.343
REMARK INTER:                  -4.971
REMARK INTRA:                  -0.371
REMARK UNBOUND:                -0.157
REMARK SMILES CCCCCCCC(=O)[O-]
REMARK SMILES IDX 5 1 6 2 7 3 8 4 9 5 10 6 4 7 3 8 2 9 1 10
REMARK H PARENT
REMARK Flexibility Score: inf
ROOT
ATOM      1  C   UNL     1      -0.747   5.502 -19.036  1.00  0.00     0.000 C 
ENDROOT
BRANCH   1   2
ATOM      2  C   UNL     1      -0.578   4.696 -20.337  1.00  0.00     0.006 C 
BRANCH   2   3
ATOM      3  C   UNL     1       0.042   3.303 -20.131  1.00  0.00     0.053 C 
BRANCH   3   4
ATOM      4  C   UNL     1       1.513   3.281 -20.418  1.00  0.00     0.041 C 
ATOM      5  O   UNL     1       2.081   4.301 -20.892  1.00  0.00    -0.550 OA
ATOM      6  O   UNL     1       2.252   2.125 -20.196  1.00  0.00    -0.550 OA
ENDBRANCH   3   4
ENDBRANCH   2   3
ENDBRANCH   1   2
BRANCH   1   7
ATOM      7  C   UNL     1      -2.085   6.256 -18.964  1.00  0.00     0.000 C 
BRANCH   7   8
ATOM      8  C   UNL     1      -2.697   6.509 -20.351  1.00  0.00    -0.000 C 
BRANCH   8   9
ATOM      9  C   UNL     1      -4.106   5.914 -20.491  1.00  0.00    -0.003 C 
ATOM     10  C   UNL     1      -4.124   4.782 -21.514  1.00  0.00     0.004 C 
ENDBRANCH   8   9
ENDBRANCH   7   8
ENDBRANCH   1   7
TORSDOF 6
ENDMDL
MODEL 9
REMARK VINA RESULT:    -3.825      3.273      5.545
REMARK INTER + INTRA:          -5.324
REMARK INTER:                  -5.065
REMARK INTRA:                  -0.259
REMARK UNBOUND:                -0.157
REMARK SMILES CCCCCCCC(=O)[O-]
REMARK SMILES IDX 5 1 6 2 7 3 8 4 9 5 10 6 4 7 3 8 2 9 1 10
REMARK H PARENT
REMARK Flexibility Score: inf
ROOT
ATOM      1  C   UNL     1       0.449  10.747  -7.805  1.00  0.00     0.000 C 
ENDROOT
BRANCH   1   2
ATOM      2  C   UNL     1      -0.781  10.833  -6.883  1.00  0.00     0.006 C 
BRANCH   2   3
ATOM      3  C   UNL     1      -2.005  11.497  -7.537  1.00  0.00     0.053 C 
BRANCH   3   4
ATOM      4  C   UNL     1      -2.235  12.892  -7.042  1.00  0.00     0.041 C 
ATOM      5  O   UNL     1      -3.402  13.364  -6.995  1.00  0.00    -0.550 OA
ATOM      6  O   UNL     1      -1.158  13.687  -6.665  1.00  0.00    -0.550 OA
ENDBRANCH   3   4
ENDBRANCH   2   3
ENDBRANCH   1   2
BRANCH   1   7
ATOM      7  C   UNL     1       1.742  11.238  -7.132  1.00  0.00     0.000 C 
BRANCH   7   8
ATOM      8  C   UNL     1       3.005  10.636  -7.768  1.00  0.00    -0.000 C 
BRANCH   8   9
ATOM      9  C   UNL     1       2.681   9.635  -8.887  1.00  0.00    -0.003 C 
ATOM     10  C   UNL     1       3.765   9.643  -9.961  1.00  0.00     0.004 C 
ENDBRANCH   8   9
ENDBRANCH   7   8
ENDBRANCH   1   7
TORSDOF 6
ENDMDL
