MODEL 1
REMARK VINA RESULT:    -3.364      0.000      0.000
REMARK INTER + INTRA:          -3.658
REMARK INTER:                  -3.561
REMARK INTRA:                  -0.098
REMARK UNBOUND:                -0.098
REMARK SMILES C=C(C)[C@H]1CC=C(C)C(=O)C1
REMARK SMILES IDX 8 1 7 2 6 3 5 4 4 5 11 6 9 7 10 8 2 9 1 10 3 11
REMARK H PARENT
REMARK Flexibility Score: inf
ROOT
ATOM      1  C   UNL     1     -29.608  35.702 -26.746  1.00  0.00     0.048 C 
ATOM      2  C   UNL     1     -29.886  37.079 -26.210  1.00  0.00    -0.012 C 
ATOM      3  C   UNL     1     -28.902  37.779 -25.619  1.00  0.00    -0.019 C 
ATOM      4  C   UNL     1     -29.131  39.153 -25.049  1.00  0.00     0.036 C 
ATOM      5  C   UNL     1     -30.194  39.920 -25.860  1.00  0.00     0.025 C 
ATOM      6  C   UNL     1     -31.494  39.100 -25.945  1.00  0.00     0.089 C 
ATOM      7  C   UNL     1     -31.210  37.709 -26.441  1.00  0.00     0.158 C 
ATOM      8  O   UNL     1     -32.124  37.067 -27.026  1.00  0.00    -0.295 OA
ENDROOT
BRANCH   5   9
ATOM      9  C   UNL     1     -30.443  41.310 -25.287  1.00  0.00    -0.077 C 
ATOM     10  C   UNL     1     -31.620  41.935 -25.455  1.00  0.00     0.008 C 
ATOM     11  C   UNL     1     -29.358  42.013 -24.511  1.00  0.00     0.039 C 
ENDBRANCH   5   9
TORSDOF 1
ENDMDL
MODEL 2
REMARK VINA RESULT:    -3.035      1.728      4.266
REMARK INTER + INTRA:          -3.310
REMARK INTER:                  -3.212
REMARK INTRA:                  -0.098
REMARK UNBOUND:                -0.098
REMARK SMILES C=C(C)[C@H]1CC=C(C)C(=O)C1
REMARK SMILES IDX 8 1 7 2 6 3 5 4 4 5 11 6 9 7 10 8 2 9 1 10 3 11
REMARK H PARENT
REMARK Flexibility Score: inf
ROOT
ATOM      1  C   UNL     1     -29.111  42.311 -24.129  1.00  0.00     0.048 C 
ATOM      2  C   UNL     1     -29.406  41.040 -24.876  1.00  0.00    -0.012 C 
ATOM      3  C   UNL     1     -28.519  40.031 -24.857  1.00  0.00    -0.019 C 
ATOM      4  C   UNL     1     -28.757  38.744 -25.602  1.00  0.00     0.036 C 
ATOM      5  C   UNL     1     -30.258  38.401 -25.651  1.00  0.00     0.025 C 
ATOM      6  C   UNL     1     -31.055  39.576 -26.247  1.00  0.00     0.089 C 
ATOM      7  C   UNL     1     -30.727  40.857 -25.529  1.00  0.00     0.158 C 
ATOM      8  O   UNL     1     -31.575  41.789 -25.517  1.00  0.00    -0.295 OA
ENDROOT
BRANCH   5   9
ATOM      9  C   UNL     1     -30.514  37.106 -26.411  1.00  0.00    -0.077 C 
ATOM     10  C   UNL     1     -31.638  36.925 -27.125  1.00  0.00     0.008 C 
ATOM     11  C   UNL     1     -29.496  35.995 -26.375  1.00  0.00     0.039 C 
ENDBRANCH   5   9
TORSDOF 1
ENDMDL
MODEL 3
REMARK VINA RESULT:    -2.903      1.933      4.600
REMARK INTER + INTRA:          -3.171
REMARK INTER:                  -3.075
REMARK INTRA:                  -0.095
REMARK UNBOUND:                -0.098
REMARK SMILES C=C(C)[C@H]1CC=C(C)C(=O)C1
REMARK SMILES IDX 8 1 7 2 6 3 5 4 4 5 11 6 9 7 10 8 2 9 1 10 3 11
REMARK H PARENT
REMARK Flexibility Score: inf
ROOT
ATOM      1  C   UNL     1     -29.503  41.950 -24.453  1.00  0.00     0.048 C 
ATOM      2  C   UNL     1     -29.886  40.559 -24.876  1.00  0.00    -0.012 C 
ATOM      3  C   UNL     1     -31.123  40.319 -25.344  1.00  0.00    -0.019 C 
ATOM      4  C   UNL     1     -31.564  38.942 -25.764  1.00  0.00     0.036 C 
ATOM      5  C   UNL     1     -30.387  38.136 -26.348  1.00  0.00     0.025 C 
ATOM      6  C   UNL     1     -29.219  38.094 -25.346  1.00  0.00     0.089 C 
ATOM      7  C   UNL     1     -28.864  39.483 -24.889  1.00  0.00     0.158 C 
ATOM      8  O   UNL     1     -27.693  39.715 -24.483  1.00  0.00    -0.295 OA
ENDROOT
BRANCH   5   9
ATOM      9  C   UNL     1     -30.818  36.737 -26.768  1.00  0.00    -0.077 C 
ATOM     10  C   UNL     1     -32.086  36.473 -27.125  1.00  0.00     0.008 C 
ATOM     11  C   UNL     1     -29.814  35.612 -26.791  1.00  0.00     0.039 C 
ENDBRANCH   5   9
TORSDOF 1
ENDMDL
MODEL 4
REMARK VINA RESULT:    -2.118     16.105     17.728
REMARK INTER + INTRA:          -2.339
REMARK INTER:                  -2.246
REMARK INTRA:                  -0.093
REMARK UNBOUND:                -0.098
REMARK SMILES C=C(C)[C@H]1CC=C(C)C(=O)C1
REMARK SMILES IDX 8 1 7 2 6 3 5 4 4 5 11 6 9 7 10 8 2 9 1 10 3 11
REMARK H PARENT
REMARK Flexibility Score: inf
ROOT
ATOM      1  C   UNL     1     -14.472  39.607 -26.471  1.00  0.00     0.048 C 
ATOM      2  C   UNL     1     -13.871  38.230 -26.438  1.00  0.00    -0.012 C 
ATOM      3  C   UNL     1     -12.547  38.082 -26.257  1.00  0.00    -0.019 C 
ATOM      4  C   UNL     1     -11.891  36.726 -26.233  1.00  0.00     0.036 C 
ATOM      5  C   UNL     1     -12.837  35.663 -25.643  1.00  0.00     0.025 C 
ATOM      6  C   UNL     1     -14.171  35.651 -26.410  1.00  0.00     0.089 C 
ATOM      7  C   UNL     1     -14.753  37.037 -26.482  1.00  0.00     0.158 C 
ATOM      8  O   UNL     1     -15.999  37.174 -26.616  1.00  0.00    -0.295 OA
ENDROOT
BRANCH   5   9
ATOM      9  C   UNL     1     -12.188  34.284 -25.623  1.00  0.00    -0.077 C 
ATOM     10  C   UNL     1     -11.883  33.638 -26.761  1.00  0.00     0.008 C 
ATOM     11  C   UNL     1     -11.875  33.616 -24.309  1.00  0.00     0.039 C 
ENDBRANCH   5   9
TORSDOF 1
ENDMDL
MODEL 5
REMARK VINA RESULT:    -1.590     16.256     17.371
REMARK INTER + INTRA:          -1.780
REMARK INTER:                  -1.683
REMARK INTRA:                  -0.097
REMARK UNBOUND:                -0.098
REMARK SMILES C=C(C)[C@H]1CC=C(C)C(=O)C1
REMARK SMILES IDX 8 1 7 2 6 3 5 4 4 5 11 6 9 7 10 8 2 9 1 10 3 11
REMARK H PARENT
REMARK Flexibility Score: inf
ROOT
ATOM      1  C   UNL     1     -12.609  33.548 -26.465  1.00  0.00     0.048 C 
ATOM      2  C   UNL     1     -12.815  34.939 -25.934  1.00  0.00    -0.012 C 
ATOM      3  C   UNL     1     -11.875  35.504 -25.157  1.00  0.00    -0.019 C 
ATOM      4  C   UNL     1     -12.039  36.887 -24.584  1.00  0.00     0.036 C 
ATOM      5  C   UNL     1     -12.844  37.791 -25.537  1.00  0.00     0.025 C 
ATOM      6  C   UNL     1     -14.196  37.137 -25.876  1.00  0.00     0.089 C 
ATOM      7  C   UNL     1     -13.995  35.729 -26.367  1.00  0.00     0.158 C 
ATOM      8  O   UNL     1     -14.860  35.213 -27.125  1.00  0.00    -0.295 OA
ENDROOT
BRANCH   5   9
ATOM      9  C   UNL     1     -13.026  39.191 -24.964  1.00  0.00    -0.077 C 
ATOM     10  C   UNL     1     -14.170  39.874 -25.137  1.00  0.00     0.008 C 
ATOM     11  C   UNL     1     -11.911  39.839 -24.184  1.00  0.00     0.039 C 
ENDBRANCH   5   9
TORSDOF 1
ENDMDL
MODEL 6
REMARK VINA RESULT:    -1.397     17.331     18.586
REMARK INTER + INTRA:          -1.576
REMARK INTER:                  -1.480
REMARK INTRA:                  -0.096
REMARK UNBOUND:                -0.098
REMARK SMILES C=C(C)[C@H]1CC=C(C)C(=O)C1
REMARK SMILES IDX 8 1 7 2 6 3 5 4 4 5 11 6 9 7 10 8 2 9 1 10 3 11
REMARK H PARENT
REMARK Flexibility Score: inf
ROOT
ATOM      1  C   UNL     1     -11.884  32.186 -25.485  1.00  0.00     0.048 C 
ATOM      2  C   UNL     1     -11.897  33.689 -25.498  1.00  0.00    -0.012 C 
ATOM      3  C   UNL     1     -11.992  34.348 -26.666  1.00  0.00    -0.019 C 
ATOM      4  C   UNL     1     -11.992  35.852 -26.737  1.00  0.00     0.036 C 
ATOM      5  C   UNL     1     -12.658  36.466 -25.491  1.00  0.00     0.025 C 
ATOM      6  C   UNL     1     -11.981  35.943 -24.211  1.00  0.00     0.089 C 
ATOM      7  C   UNL     1     -11.929  34.439 -24.218  1.00  0.00     0.158 C 
ATOM      8  O   UNL     1     -11.875  33.822 -23.120  1.00  0.00    -0.295 OA
ENDROOT
BRANCH   5   9
ATOM      9  C   UNL     1     -12.656  37.989 -25.546  1.00  0.00    -0.077 C 
ATOM     10  C   UNL     1     -11.876  38.716 -24.727  1.00  0.00     0.008 C 
ATOM     11  C   UNL     1     -13.537  38.711 -26.532  1.00  0.00     0.039 C 
ENDBRANCH   5   9
TORSDOF 1
ENDMDL
MODEL 7
REMARK VINA RESULT:    -0.998     16.910     18.063
REMARK INTER + INTRA:          -1.154
REMARK INTER:                  -1.063
REMARK INTRA:                  -0.091
REMARK UNBOUND:                -0.098
REMARK SMILES C=C(C)[C@H]1CC=C(C)C(=O)C1
REMARK SMILES IDX 8 1 7 2 6 3 5 4 4 5 11 6 9 7 10 8 2 9 1 10 3 11
REMARK H PARENT
REMARK Flexibility Score: inf
ROOT
ATOM      1  C   UNL     1     -11.876  33.380 -26.276  1.00  0.00     0.048 C 
ATOM      2  C   UNL     1     -12.052  34.855 -26.048  1.00  0.00    -0.012 C 
ATOM      3  C   UNL     1     -12.301  35.668 -27.089  1.00  0.00    -0.019 C 
ATOM      4  C   UNL     1     -12.468  37.155 -26.919  1.00  0.00     0.036 C 
ATOM      5  C   UNL     1     -13.106  37.489 -25.557  1.00  0.00     0.025 C 
ATOM      6  C   UNL     1     -12.287  36.860 -24.415  1.00  0.00     0.089 C 
ATOM      7  C   UNL     1     -12.073  35.392 -24.664  1.00  0.00     0.158 C 
ATOM      8  O   UNL     1     -11.875  34.625 -23.684  1.00  0.00    -0.295 OA
ENDROOT
BRANCH   5   9
ATOM      9  C   UNL     1     -13.271  38.992 -25.367  1.00  0.00    -0.077 C 
ATOM     10  C   UNL     1     -14.183  39.689 -26.067  1.00  0.00     0.008 C 
ATOM     11  C   UNL     1     -12.404  39.729 -24.379  1.00  0.00     0.039 C 
ENDBRANCH   5   9
TORSDOF 1
ENDMDL
MODEL 8
REMARK VINA RESULT:    -0.806      1.509      2.222
REMARK INTER + INTRA:          -0.951
REMARK INTER:                  -0.861
REMARK INTRA:                  -0.090
REMARK UNBOUND:                -0.098
REMARK SMILES C=C(C)[C@H]1CC=C(C)C(=O)C1
REMARK SMILES IDX 8 1 7 2 6 3 5 4 4 5 11 6 9 7 10 8 2 9 1 10 3 11
REMARK H PARENT
REMARK Flexibility Score: inf
ROOT
ATOM      1  C   UNL     1     -27.968  37.974 -25.237  1.00  0.00     0.048 C 
ATOM      2  C   UNL     1     -28.958  39.105 -25.249  1.00  0.00    -0.012 C 
ATOM      3  C   UNL     1     -28.537  40.366 -25.047  1.00  0.00    -0.019 C 
ATOM      4  C   UNL     1     -29.489  41.533 -25.031  1.00  0.00     0.036 C 
ATOM      5  C   UNL     1     -30.671  41.298 -25.991  1.00  0.00     0.025 C 
ATOM      6  C   UNL     1     -31.373  39.968 -25.658  1.00  0.00     0.089 C 
ATOM      7  C   UNL     1     -30.376  38.843 -25.604  1.00  0.00     0.158 C 
ATOM      8  O   UNL     1     -30.766  37.665 -25.828  1.00  0.00    -0.295 OA
ENDROOT
BRANCH   5   9
ATOM      9  C   UNL     1     -31.647  42.467 -25.977  1.00  0.00    -0.077 C 
ATOM     10  C   UNL     1     -32.125  42.993 -27.118  1.00  0.00     0.008 C 
ATOM     11  C   UNL     1     -32.099  43.059 -24.667  1.00  0.00     0.039 C 
ENDBRANCH   5   9
TORSDOF 1
ENDMDL
