MODEL 1
REMARK VINA RESULT:    -4.189      0.000      0.000
REMARK INTER + INTRA:          -6.356
REMARK INTER:                  -6.392
REMARK INTRA:                   0.037
REMARK UNBOUND:                 0.037
REMARK SMILES CC1=CCC[C@@H](C)C(=O)C[C@@H](C(C)C)C(=O)C1
REMARK SMILES IDX 8 1 9 2 6 3 7 4 5 5 4 6 3 7 2 8 1 9 10 11 11 12 15 13 16 14
REMARK SMILES IDX 17 15 12 17 13 18 14 19
REMARK H PARENT
REMARK Flexibility Score: 70.00
ROOT
ATOM      1  C   UNL     1     -14.949  14.681 -30.610  1.00  0.00     0.136 C 
ATOM      2  O   UNL     1     -15.501  15.413 -29.802  1.00  0.00    -0.299 OA
ENDROOT
BRANCH   1   3
ATOM      3  C   UNL     1     -15.693  13.460 -31.118  1.00  0.00     0.053 C 
ATOM      4  C   UNL     1     -16.885  13.872 -31.989  1.00  0.00     0.016 C 
BRANCH   3   5
ATOM      5  C   UNL     1     -16.141  12.545 -29.963  1.00  0.00     0.015 C 
BRANCH   5   6
ATOM      6  C   UNL     1     -15.190  11.351 -29.770  1.00  0.00     0.028 C 
BRANCH   6   7
ATOM      7  C   UNL     1     -14.659  11.315 -28.361  1.00  0.00    -0.028 C 
ATOM      8  C   UNL     1     -13.391  11.633 -28.010  1.00  0.00    -0.070 CG0
ATOM      9  C   UNL     1     -13.037  11.614 -26.544  1.00  0.00     0.039 C 
ATOM     10  G   UNL     1     -12.316  11.988 -29.026  1.00  0.00     0.000 G0
ENDBRANCH   6   7
ENDBRANCH   5   6
ENDBRANCH   3   5
ENDBRANCH   1   3
BRANCH   1  11
ATOM     11  C   UNL     1     -13.537  15.012 -31.043  1.00  0.00     0.087 C 
BRANCH  11  12
ATOM     12  C   UNL     1     -12.581  13.795 -30.913  1.00  0.00     0.066 C 
BRANCH  12  13
ATOM     13  C   UNL     1     -12.348  13.424 -29.455  1.00  0.00     0.140 C 
ATOM     14  O   UNL     1     -12.137  14.301 -28.629  1.00  0.00    -0.299 OA
BRANCH  13  15
ATOM     15  C   UNL     1     -12.304  11.980 -29.017  1.00  0.00     0.106 CG0
ATOM     16  G   UNL     1     -13.399  11.649 -28.014  1.00  0.00     0.000 G0
ENDBRANCH  13  15
ENDBRANCH  12  13
BRANCH  12  17
ATOM     17  C   UNL     1     -11.246  14.021 -31.687  1.00  0.00    -0.006 C 
ATOM     18  C   UNL     1     -11.486  14.171 -33.196  1.00  0.00     0.008 C 
ATOM     19  C   UNL     1     -10.177  12.944 -31.425  1.00  0.00     0.008 C 
ENDBRANCH  12  17
ENDBRANCH  11  12
ENDBRANCH   1  11
TORSDOF 1
ENDMDL
MODEL 2
REMARK VINA RESULT:    -4.160      1.747      3.990
REMARK INTER + INTRA:          -6.312
REMARK INTER:                  -6.056
REMARK INTRA:                  -0.256
REMARK UNBOUND:                 0.037
REMARK SMILES CC1=CCC[C@@H](C)C(=O)C[C@@H](C(C)C)C(=O)C1
REMARK SMILES IDX 8 1 9 2 6 3 7 4 5 5 4 6 3 7 2 8 1 9 10 11 11 12 15 13 16 14
REMARK SMILES IDX 17 15 12 17 13 18 14 19
REMARK H PARENT
REMARK Flexibility Score: 70.00
ROOT
ATOM      1  C   UNL     1     -13.142  14.150 -29.789  1.00  0.00     0.136 C 
ATOM      2  O   UNL     1     -13.797  15.174 -29.670  1.00  0.00    -0.299 OA
ENDROOT
BRANCH   1   3
ATOM      3  C   UNL     1     -11.703  14.142 -29.309  1.00  0.00     0.053 C 
ATOM      4  C   UNL     1     -10.869  13.131 -30.104  1.00  0.00     0.016 C 
BRANCH   3   5
ATOM      5  C   UNL     1     -11.609  13.869 -27.796  1.00  0.00     0.015 C 
BRANCH   5   6
ATOM      6  C   UNL     1     -11.487  12.366 -27.487  1.00  0.00     0.028 C 
BRANCH   6   7
ATOM      7  C   UNL     1     -12.646  11.899 -26.647  1.00  0.00    -0.028 C 
ATOM      8  C   UNL     1     -13.618  11.061 -27.079  1.00  0.00    -0.070 CG0
ATOM      9  C   UNL     1     -14.673  10.633 -26.089  1.00  0.00     0.039 C 
ATOM     10  G   UNL     1     -13.698  10.552 -28.510  1.00  0.00     0.000 G0
ENDBRANCH   6   7
ENDBRANCH   5   6
ENDBRANCH   3   5
ENDBRANCH   1   3
BRANCH   1  11
ATOM     11  C   UNL     1     -13.790  12.945 -30.437  1.00  0.00     0.087 C 
BRANCH  11  12
ATOM     12  C   UNL     1     -15.068  12.488 -29.682  1.00  0.00     0.066 C 
BRANCH  12  13
ATOM     13  C   UNL     1     -14.952  11.043 -29.215  1.00  0.00     0.140 C 
ATOM     14  O   UNL     1     -15.896  10.279 -29.356  1.00  0.00    -0.299 OA
BRANCH  13  15
ATOM     15  C   UNL     1     -13.709  10.549 -28.515  1.00  0.00     0.106 CG0
ATOM     16  G   UNL     1     -13.618  11.050 -27.082  1.00  0.00     0.000 G0
ENDBRANCH  13  15
ENDBRANCH  12  13
BRANCH  12  17
ATOM     17  C   UNL     1     -16.358  12.736 -30.523  1.00  0.00    -0.006 C 
ATOM     18  C   UNL     1     -16.047  13.485 -31.827  1.00  0.00     0.008 C 
ATOM     19  C   UNL     1     -17.481  13.456 -29.754  1.00  0.00     0.008 C 
ENDBRANCH  12  17
ENDBRANCH  11  12
ENDBRANCH   1  11
TORSDOF 1
ENDMDL
MODEL 3
REMARK VINA RESULT:    -3.952      1.931      2.660
REMARK INTER + INTRA:          -5.995
REMARK INTER:                  -6.742
REMARK INTRA:                   0.747
REMARK UNBOUND:                 0.037
REMARK SMILES CC1=CCC[C@@H](C)C(=O)C[C@@H](C(C)C)C(=O)C1
REMARK SMILES IDX 8 1 9 2 6 3 7 4 5 5 4 6 3 7 2 8 1 9 10 11 11 12 15 13 16 14
REMARK SMILES IDX 17 15 12 17 13 18 14 19
REMARK H PARENT
REMARK Flexibility Score: 70.00
ROOT
ATOM      1  C   UNL     1     -17.148  13.539 -31.244  1.00  0.00     0.136 C 
ATOM      2  O   UNL     1     -17.328  13.988 -32.366  1.00  0.00    -0.299 OA
ENDROOT
BRANCH   1   3
ATOM      3  C   UNL     1     -18.166  12.570 -30.673  1.00  0.00     0.053 C 
ATOM      4  C   UNL     1     -19.100  13.280 -29.687  1.00  0.00     0.016 C 
BRANCH   3   5
ATOM      5  C   UNL     1     -17.488  11.354 -30.015  1.00  0.00     0.015 C 
BRANCH   5   6
ATOM      6  C   UNL     1     -17.148  11.612 -28.536  1.00  0.00     0.028 C 
BRANCH   6   7
ATOM      7  C   UNL     1     -16.059  10.682 -28.070  1.00  0.00    -0.028 C 
ATOM      8  C   UNL     1     -14.736  10.966 -28.112  1.00  0.00    -0.070 CG0
ATOM      9  C   UNL     1     -13.776   9.953 -27.539  1.00  0.00     0.039 C 
ATOM     10  G   UNL     1     -14.183  12.246 -28.722  1.00  0.00     0.000 G0
ENDBRANCH   6   7
ENDBRANCH   5   6
ENDBRANCH   3   5
ENDBRANCH   1   3
BRANCH   1  11
ATOM     11  C   UNL     1     -15.931  13.993 -30.467  1.00  0.00     0.087 C 
BRANCH  11  12
ATOM     12  C   UNL     1     -14.612  13.414 -31.046  1.00  0.00     0.066 C 
BRANCH  12  13
ATOM     13  C   UNL     1     -14.116  12.232 -30.225  1.00  0.00     0.140 C 
ATOM     14  O   UNL     1     -13.727  11.219 -30.790  1.00  0.00    -0.299 OA
BRANCH  13  15
ATOM     15  C   UNL     1     -14.157  12.259 -28.717  1.00  0.00     0.106 CG0
ATOM     16  G   UNL     1     -14.748  10.985 -28.134  1.00  0.00     0.000 G0
ENDBRANCH  13  15
ENDBRANCH  12  13
BRANCH  12  17
ATOM     17  C   UNL     1     -13.521  14.516 -31.218  1.00  0.00    -0.006 C 
ATOM     18  C   UNL     1     -12.255  14.186 -30.414  1.00  0.00     0.008 C 
ATOM     19  C   UNL     1     -14.006  15.938 -30.883  1.00  0.00     0.008 C 
ENDBRANCH  12  17
ENDBRANCH  11  12
ENDBRANCH   1  11
TORSDOF 1
ENDMDL
MODEL 4
REMARK VINA RESULT:    -3.927      1.508      2.012
REMARK INTER + INTRA:          -5.956
REMARK INTER:                  -5.887
REMARK INTRA:                  -0.069
REMARK UNBOUND:                 0.037
REMARK SMILES CC1=CCC[C@@H](C)C(=O)C[C@@H](C(C)C)C(=O)C1
REMARK SMILES IDX 8 1 9 2 6 3 7 4 5 5 4 6 3 7 2 8 1 9 10 11 11 12 15 13 16 14
REMARK SMILES IDX 17 15 12 17 13 18 14 19
REMARK H PARENT
REMARK Flexibility Score: 70.00
ROOT
ATOM      1  C   UNL     1     -15.782  13.835 -29.722  1.00  0.00     0.136 C 
ATOM      2  O   UNL     1     -16.456  14.565 -29.012  1.00  0.00    -0.299 OA
ENDROOT
BRANCH   1   3
ATOM      3  C   UNL     1     -16.471  12.721 -30.488  1.00  0.00     0.053 C 
ATOM      4  C   UNL     1     -17.368  13.293 -31.592  1.00  0.00     0.016 C 
BRANCH   3   5
ATOM      5  C   UNL     1     -17.269  11.795 -29.552  1.00  0.00     0.015 C 
BRANCH   5   6
ATOM      6  C   UNL     1     -16.563  10.445 -29.334  1.00  0.00     0.028 C 
BRANCH   6   7
ATOM      7  C   UNL     1     -16.273  10.224 -27.873  1.00  0.00    -0.028 C 
ATOM      8  C   UNL     1     -15.049  10.343 -27.306  1.00  0.00    -0.070 CG0
ATOM      9  C   UNL     1     -14.940  10.158 -25.814  1.00  0.00     0.039 C 
ATOM     10  G   UNL     1     -13.791  10.637 -28.109  1.00  0.00     0.000 G0
ENDBRANCH   6   7
ENDBRANCH   5   6
ENDBRANCH   3   5
ENDBRANCH   1   3
BRANCH   1  11
ATOM     11  C   UNL     1     -14.286  14.058 -29.780  1.00  0.00     0.087 C 
BRANCH  11  12
ATOM     12  C   UNL     1     -13.490  12.727 -29.712  1.00  0.00     0.066 C 
BRANCH  12  13
ATOM     13  C   UNL     1     -13.543  12.117 -28.318  1.00  0.00     0.140 C 
ATOM     14  O   UNL     1     -13.344  12.820 -27.337  1.00  0.00    -0.299 OA
BRANCH  13  15
ATOM     15  C   UNL     1     -13.772  10.638 -28.124  1.00  0.00     0.106 CG0
ATOM     16  G   UNL     1     -15.030  10.350 -27.318  1.00  0.00     0.000 G0
ENDBRANCH  13  15
ENDBRANCH  12  13
BRANCH  12  17
ATOM     17  C   UNL     1     -12.027  12.898 -30.227  1.00  0.00    -0.006 C 
ATOM     18  C   UNL     1     -11.382  14.179 -29.678  1.00  0.00     0.008 C 
ATOM     19  C   UNL     1     -11.891  12.853 -31.760  1.00  0.00     0.008 C 
ENDBRANCH  12  17
ENDBRANCH  11  12
ENDBRANCH   1  11
TORSDOF 1
ENDMDL
MODEL 5
REMARK VINA RESULT:    -3.885      1.666      4.040
REMARK INTER + INTRA:          -5.892
REMARK INTER:                  -5.979
REMARK INTRA:                   0.087
REMARK UNBOUND:                 0.037
REMARK SMILES CC1=CCC[C@@H](C)C(=O)C[C@@H](C(C)C)C(=O)C1
REMARK SMILES IDX 8 1 9 2 6 3 7 4 5 5 4 6 3 7 2 8 1 9 10 11 11 12 15 13 16 14
REMARK SMILES IDX 17 15 12 17 13 18 14 19
REMARK H PARENT
REMARK Flexibility Score: 70.00
ROOT
ATOM      1  C   UNL     1     -14.819  13.595 -31.373  1.00  0.00     0.136 C 
ATOM      2  O   UNL     1     -15.575  14.012 -32.238  1.00  0.00    -0.299 OA
ENDROOT
BRANCH   1   3
ATOM      3  C   UNL     1     -13.668  14.475 -30.923  1.00  0.00     0.053 C 
ATOM      4  C   UNL     1     -14.085  15.950 -30.904  1.00  0.00     0.016 C 
BRANCH   3   5
ATOM      5  C   UNL     1     -12.416  14.265 -31.795  1.00  0.00     0.015 C 
BRANCH   5   6
ATOM      6  C   UNL     1     -11.332  13.454 -31.064  1.00  0.00     0.028 C 
BRANCH   6   7
ATOM      7  C   UNL     1     -11.416  13.673 -29.576  1.00  0.00    -0.028 C 
ATOM      8  C   UNL     1     -11.937  12.783 -28.698  1.00  0.00    -0.070 CG0
ATOM      9  C   UNL     1     -11.883  13.125 -27.230  1.00  0.00     0.039 C 
ATOM     10  G   UNL     1     -12.582  11.475 -29.129  1.00  0.00     0.000 G0
ENDBRANCH   6   7
ENDBRANCH   5   6
ENDBRANCH   3   5
ENDBRANCH   1   3
BRANCH   1  11
ATOM     11  C   UNL     1     -15.051  12.208 -30.813  1.00  0.00     0.087 C 
BRANCH  11  12
ATOM     12  C   UNL     1     -15.123  12.205 -29.262  1.00  0.00     0.066 C 
BRANCH  12  13
ATOM     13  C   UNL     1     -14.020  11.347 -28.656  1.00  0.00     0.140 C 
ATOM     14  O   UNL     1     -14.278  10.586 -27.734  1.00  0.00    -0.299 OA
BRANCH  13  15
ATOM     15  C   UNL     1     -12.591  11.469 -29.128  1.00  0.00     0.106 CG0
ATOM     16  G   UNL     1     -11.949  12.776 -28.689  1.00  0.00     0.000 G0
ENDBRANCH  13  15
ENDBRANCH  12  13
BRANCH  12  17
ATOM     17  C   UNL     1     -16.538  11.799 -28.747  1.00  0.00    -0.006 C 
ATOM     18  C   UNL     1     -17.016  10.486 -29.384  1.00  0.00     0.008 C 
ATOM     19  C   UNL     1     -17.608  12.892 -28.924  1.00  0.00     0.008 C 
ENDBRANCH  12  17
ENDBRANCH  11  12
ENDBRANCH   1  11
TORSDOF 1
ENDMDL
MODEL 6
REMARK VINA RESULT:    -3.854      2.154      4.182
REMARK INTER + INTRA:          -5.844
REMARK INTER:                  -5.751
REMARK INTRA:                  -0.093
REMARK UNBOUND:                 0.037
REMARK SMILES CC1=CCC[C@@H](C)C(=O)C[C@@H](C(C)C)C(=O)C1
REMARK SMILES IDX 8 1 9 2 6 3 7 4 5 5 4 6 3 7 2 8 1 9 10 11 11 12 15 13 16 14
REMARK SMILES IDX 17 15 12 17 13 18 14 19
REMARK H PARENT
REMARK Flexibility Score: 70.00
ROOT
ATOM      1  C   UNL     1     -12.583  13.078 -28.806  1.00  0.00     0.136 C 
ATOM      2  O   UNL     1     -11.649  13.829 -29.045  1.00  0.00    -0.299 OA
ENDROOT
BRANCH   1   3
ATOM      3  C   UNL     1     -12.705  12.482 -27.417  1.00  0.00     0.053 C 
ATOM      4  C   UNL     1     -11.320  12.238 -26.806  1.00  0.00     0.016 C 
BRANCH   3   5
ATOM      5  C   UNL     1     -13.542  11.189 -27.423  1.00  0.00     0.015 C 
BRANCH   5   6
ATOM      6  C   UNL     1     -14.847  11.343 -26.621  1.00  0.00     0.028 C 
BRANCH   6   7
ATOM      7  C   UNL     1     -16.000  10.709 -27.354  1.00  0.00    -0.028 C 
ATOM      8  C   UNL     1     -16.796  11.355 -28.238  1.00  0.00    -0.070 CG0
ATOM      9  C   UNL     1     -17.866  10.557 -28.940  1.00  0.00     0.039 C 
ATOM     10  G   UNL     1     -16.667  12.841 -28.535  1.00  0.00     0.000 G0
ENDBRANCH   6   7
ENDBRANCH   5   6
ENDBRANCH   3   5
ENDBRANCH   1   3
BRANCH   1  11
ATOM     11  C   UNL     1     -13.559  12.757 -29.918  1.00  0.00     0.087 C 
BRANCH  11  12
ATOM     12  C   UNL     1     -14.708  13.797 -30.011  1.00  0.00     0.066 C 
BRANCH  12  13
ATOM     13  C   UNL     1     -16.072  13.132 -29.888  1.00  0.00     0.140 C 
ATOM     14  O   UNL     1     -16.717  12.875 -30.895  1.00  0.00    -0.299 OA
BRANCH  13  15
ATOM     15  C   UNL     1     -16.678  12.844 -28.536  1.00  0.00     0.106 CG0
ATOM     16  G   UNL     1     -16.767  11.352 -28.252  1.00  0.00     0.000 G0
ENDBRANCH  13  15
ENDBRANCH  12  13
BRANCH  12  17
ATOM     17  C   UNL     1     -14.591  14.677 -31.294  1.00  0.00    -0.006 C 
ATOM     18  C   UNL     1     -13.680  14.025 -32.345  1.00  0.00     0.008 C 
ATOM     19  C   UNL     1     -14.138  16.124 -31.026  1.00  0.00     0.008 C 
ENDBRANCH  12  17
ENDBRANCH  11  12
ENDBRANCH   1  11
TORSDOF 1
ENDMDL
MODEL 7
REMARK VINA RESULT:    -3.795      2.027      5.098
REMARK INTER + INTRA:          -5.755
REMARK INTER:                  -5.818
REMARK INTRA:                   0.062
REMARK UNBOUND:                 0.037
REMARK SMILES CC1=CCC[C@@H](C)C(=O)C[C@@H](C(C)C)C(=O)C1
REMARK SMILES IDX 8 1 9 2 6 3 7 4 5 5 4 6 3 7 2 8 1 9 10 11 11 12 15 13 16 14
REMARK SMILES IDX 17 15 12 17 13 18 14 19
REMARK H PARENT
REMARK Flexibility Score: 70.00
ROOT
ATOM      1  C   UNL     1     -13.864  12.011 -28.427  1.00  0.00     0.136 C 
ATOM      2  O   UNL     1     -14.332  11.274 -27.572  1.00  0.00    -0.299 OA
ENDROOT
BRANCH   1   3
ATOM      3  C   UNL     1     -12.415  11.828 -28.838  1.00  0.00     0.053 C 
ATOM      4  C   UNL     1     -11.859  10.507 -28.295  1.00  0.00     0.016 C 
BRANCH   3   5
ATOM      5  C   UNL     1     -11.543  13.018 -28.396  1.00  0.00     0.015 C 
BRANCH   5   6
ATOM      6  C   UNL     1     -11.710  14.233 -29.327  1.00  0.00     0.028 C 
BRANCH   6   7
ATOM      7  C   UNL     1     -11.629  13.812 -30.771  1.00  0.00    -0.028 C 
ATOM      8  C   UNL     1     -12.603  14.024 -31.688  1.00  0.00    -0.070 CG0
ATOM      9  C   UNL     1     -12.337  13.604 -33.111  1.00  0.00     0.039 C 
ATOM     10  G   UNL     1     -13.946  14.648 -31.340  1.00  0.00     0.000 G0
ENDBRANCH   6   7
ENDBRANCH   5   6
ENDBRANCH   3   5
ENDBRANCH   1   3
BRANCH   1  11
ATOM     11  C   UNL     1     -14.746  13.092 -29.015  1.00  0.00     0.087 C 
BRANCH  11  12
ATOM     12  C   UNL     1     -15.384  12.662 -30.363  1.00  0.00     0.066 C 
BRANCH  12  13
ATOM     13  C   UNL     1     -15.109  13.682 -31.460  1.00  0.00     0.140 C 
ATOM     14  O   UNL     1     -15.796  13.689 -32.472  1.00  0.00    -0.299 OA
BRANCH  13  15
ATOM     15  C   UNL     1     -13.955  14.649 -31.351  1.00  0.00     0.106 CG0
ATOM     16  G   UNL     1     -12.623  13.996 -31.689  1.00  0.00     0.000 G0
ENDBRANCH  13  15
ENDBRANCH  12  13
BRANCH  12  17
ATOM     17  C   UNL     1     -16.905  12.350 -30.212  1.00  0.00    -0.006 C 
ATOM     18  C   UNL     1     -17.619  13.418 -29.370  1.00  0.00     0.008 C 
ATOM     19  C   UNL     1     -17.207  10.947 -29.655  1.00  0.00     0.008 C 
ENDBRANCH  12  17
ENDBRANCH  11  12
ENDBRANCH   1  11
TORSDOF 1
ENDMDL
MODEL 8
REMARK VINA RESULT:    -3.791      1.852      5.240
REMARK INTER + INTRA:          -5.748
REMARK INTER:                  -5.596
REMARK INTRA:                  -0.152
REMARK UNBOUND:                 0.037
REMARK SMILES CC1=CCC[C@@H](C)C(=O)C[C@@H](C(C)C)C(=O)C1
REMARK SMILES IDX 8 1 9 2 6 3 7 4 5 5 4 6 3 7 2 8 1 9 10 11 11 12 15 13 16 14
REMARK SMILES IDX 17 15 12 17 13 18 14 19
REMARK H PARENT
REMARK Flexibility Score: 70.00
ROOT
ATOM      1  C   UNL     1     -13.080  12.405 -28.059  1.00  0.00     0.136 C 
ATOM      2  O   UNL     1     -12.626  13.519 -27.847  1.00  0.00    -0.299 OA
ENDROOT
BRANCH   1   3
ATOM      3  C   UNL     1     -12.226  11.397 -28.806  1.00  0.00     0.053 C 
ATOM      4  C   UNL     1     -11.141  10.819 -27.890  1.00  0.00     0.016 C 
BRANCH   3   5
ATOM      5  C   UNL     1     -11.610  12.006 -30.079  1.00  0.00     0.015 C 
BRANCH   5   6
ATOM      6  C   UNL     1     -12.679  12.348 -31.131  1.00  0.00     0.028 C 
BRANCH   6   7
ATOM      7  C   UNL     1     -12.931  13.833 -31.171  1.00  0.00    -0.028 C 
ATOM      8  C   UNL     1     -14.146  14.410 -31.015  1.00  0.00    -0.070 CG0
ATOM      9  C   UNL     1     -14.218  15.916 -31.011  1.00  0.00     0.039 C 
ATOM     10  G   UNL     1     -15.429  13.608 -30.861  1.00  0.00     0.000 G0
ENDBRANCH   6   7
ENDBRANCH   5   6
ENDBRANCH   3   5
ENDBRANCH   1   3
BRANCH   1  11
ATOM     11  C   UNL     1     -14.485  12.092 -27.591  1.00  0.00     0.087 C 
BRANCH  11  12
ATOM     12  C   UNL     1     -15.487  11.976 -28.772  1.00  0.00     0.066 C 
BRANCH  12  13
ATOM     13  C   UNL     1     -15.764  13.334 -29.402  1.00  0.00     0.140 C 
ATOM     14  O   UNL     1     -16.316  14.208 -28.748  1.00  0.00    -0.299 OA
BRANCH  13  15
ATOM     15  C   UNL     1     -15.430  13.604 -30.849  1.00  0.00     0.106 CG0
ATOM     16  G   UNL     1     -14.157  14.423 -31.003  1.00  0.00     0.000 G0
ENDBRANCH  13  15
ENDBRANCH  12  13
BRANCH  12  17
ATOM     17  C   UNL     1     -16.796  11.239 -28.352  1.00  0.00    -0.006 C 
ATOM     18  C   UNL     1     -16.599  10.425 -27.065  1.00  0.00     0.008 C 
ATOM     19  C   UNL     1     -17.397  10.349 -29.455  1.00  0.00     0.008 C 
ENDBRANCH  12  17
ENDBRANCH  11  12
ENDBRANCH   1  11
TORSDOF 1
ENDMDL
MODEL 9
REMARK VINA RESULT:    -3.783      2.154      5.066
REMARK INTER + INTRA:          -5.737
REMARK INTER:                  -5.395
REMARK INTRA:                  -0.343
REMARK UNBOUND:                 0.037
REMARK SMILES CC1=CCC[C@@H](C)C(=O)C[C@@H](C(C)C)C(=O)C1
REMARK SMILES IDX 8 1 9 2 6 3 7 4 5 5 4 6 3 7 2 8 1 9 10 11 11 12 15 13 16 14
REMARK SMILES IDX 17 15 12 17 13 18 14 19
REMARK H PARENT
REMARK Flexibility Score: 70.00
ROOT
ATOM      1  C   UNL     1     -11.981  13.679 -28.503  1.00  0.00     0.136 C 
ATOM      2  O   UNL     1     -11.495  14.253 -27.540  1.00  0.00    -0.299 OA
ENDROOT
BRANCH   1   3
ATOM      3  C   UNL     1     -11.558  12.251 -28.793  1.00  0.00     0.053 C 
ATOM      4  C   UNL     1     -11.562  11.411 -27.511  1.00  0.00     0.016 C 
BRANCH   3   5
ATOM      5  C   UNL     1     -10.185  12.193 -29.489  1.00  0.00     0.015 C 
BRANCH   5   6
ATOM      6  C   UNL     1     -10.315  11.962 -31.005  1.00  0.00     0.028 C 
BRANCH   6   7
ATOM      7  C   UNL     1      -9.876  13.183 -31.769  1.00  0.00    -0.028 C 
ATOM      8  C   UNL     1     -10.685  13.926 -32.561  1.00  0.00    -0.070 CG0
ATOM      9  C   UNL     1     -10.106  15.161 -33.202  1.00  0.00     0.039 C 
ATOM     10  G   UNL     1     -12.135  13.558 -32.839  1.00  0.00     0.000 G0
ENDBRANCH   6   7
ENDBRANCH   5   6
ENDBRANCH   3   5
ENDBRANCH   1   3
BRANCH   1  11
ATOM     11  C   UNL     1     -12.960  14.431 -29.379  1.00  0.00     0.087 C 
BRANCH  11  12
ATOM     12  C   UNL     1     -13.465  13.572 -30.569  1.00  0.00     0.066 C 
BRANCH  12  13
ATOM     13  C   UNL     1     -13.117  14.213 -31.905  1.00  0.00     0.140 C 
ATOM     14  O   UNL     1     -13.675  15.246 -32.250  1.00  0.00    -0.299 OA
BRANCH  13  15
ATOM     15  C   UNL     1     -12.140  13.559 -32.851  1.00  0.00     0.106 CG0
ATOM     16  G   UNL     1     -10.699  13.934 -32.540  1.00  0.00     0.000 G0
ENDBRANCH  13  15
ENDBRANCH  12  13
BRANCH  12  17
ATOM     17  C   UNL     1     -14.986  13.248 -30.446  1.00  0.00    -0.006 C 
ATOM     18  C   UNL     1     -15.436  13.198 -28.979  1.00  0.00     0.008 C 
ATOM     19  C   UNL     1     -15.416  11.963 -31.176  1.00  0.00     0.008 C 
ENDBRANCH  12  17
ENDBRANCH  11  12
ENDBRANCH   1  11
TORSDOF 1
ENDMDL
