MODEL 1
REMARK VINA RESULT:    -2.767      0.000      0.000
REMARK INTER + INTRA:          -3.884
REMARK INTER:                  -3.576
REMARK INTRA:                  -0.308
REMARK UNBOUND:                -0.308
REMARK SMILES CCCCCCC(=O)[O-]
REMARK SMILES IDX 5 1 6 2 7 3 8 4 9 5 4 6 3 7 2 8 1 9
REMARK H PARENT
REMARK Flexibility Score: inf
ROOT
ATOM      1  C   UNL     1      18.483  24.599  47.213  1.00  0.00     0.006 C 
ENDROOT
BRANCH   1   2
ATOM      2  C   UNL     1      17.614  24.326  45.975  1.00  0.00     0.053 C 
BRANCH   2   3
ATOM      3  C   UNL     1      18.334  24.646  44.702  1.00  0.00     0.041 C 
ATOM      4  O   UNL     1      19.563  24.915  44.719  1.00  0.00    -0.550 OA
ATOM      5  O   UNL     1      17.653  24.616  43.491  1.00  0.00    -0.550 OA
ENDBRANCH   2   3
ENDBRANCH   1   2
BRANCH   1   6
ATOM      6  C   UNL     1      18.795  23.348  48.055  1.00  0.00     0.000 C 
BRANCH   6   7
ATOM      7  C   UNL     1      20.301  23.038  48.123  1.00  0.00    -0.000 C 
BRANCH   7   8
ATOM      8  C   UNL     1      20.714  21.916  47.158  1.00  0.00    -0.003 C 
ATOM      9  C   UNL     1      21.776  22.361  46.154  1.00  0.00     0.004 C 
ENDBRANCH   7   8
ENDBRANCH   6   7
ENDBRANCH   1   6
TORSDOF 5
ENDMDL
MODEL 2
REMARK VINA RESULT:    -2.605     22.500     23.493
REMARK INTER + INTRA:          -3.674
REMARK INTER:                  -3.481
REMARK INTRA:                  -0.194
REMARK UNBOUND:                -0.308
REMARK SMILES CCCCCCC(=O)[O-]
REMARK SMILES IDX 5 1 6 2 7 3 8 4 9 5 4 6 3 7 2 8 1 9
REMARK H PARENT
REMARK Flexibility Score: inf
ROOT
ATOM      1  C   UNL     1      19.510   9.116  28.056  1.00  0.00     0.006 C 
ENDROOT
BRANCH   1   2
ATOM      2  C   UNL     1      18.130   8.465  27.879  1.00  0.00     0.053 C 
BRANCH   2   3
ATOM      3  C   UNL     1      18.205   6.970  27.916  1.00  0.00     0.041 C 
ATOM      4  O   UNL     1      17.152   6.282  27.921  1.00  0.00    -0.550 OA
ATOM      5  O   UNL     1      19.441   6.335  27.911  1.00  0.00    -0.550 OA
ENDBRANCH   2   3
ENDBRANCH   1   2
BRANCH   1   6
ATOM      6  C   UNL     1      19.770   9.672  29.467  1.00  0.00     0.000 C 
BRANCH   6   7
ATOM      7  C   UNL     1      21.096  10.447  29.567  1.00  0.00    -0.000 C 
BRANCH   7   8
ATOM      8  C   UNL     1      21.846  10.502  28.227  1.00  0.00    -0.003 C 
ATOM      9  C   UNL     1      22.323  11.911  27.875  1.00  0.00     0.004 C 
ENDBRANCH   7   8
ENDBRANCH   6   7
ENDBRANCH   1   6
TORSDOF 5
ENDMDL
MODEL 3
REMARK VINA RESULT:    -2.468      1.754      3.839
REMARK INTER + INTRA:          -3.497
REMARK INTER:                  -3.339
REMARK INTRA:                  -0.158
REMARK UNBOUND:                -0.308
REMARK SMILES CCCCCCC(=O)[O-]
REMARK SMILES IDX 5 1 6 2 7 3 8 4 9 5 4 6 3 7 2 8 1 9
REMARK H PARENT
REMARK Flexibility Score: inf
ROOT
ATOM      1  C   UNL     1      19.182  22.917  48.095  1.00  0.00     0.006 C 
ENDROOT
BRANCH   1   2
ATOM      2  C   UNL     1      20.527  22.222  47.824  1.00  0.00     0.053 C 
BRANCH   2   3
ATOM      3  C   UNL     1      21.017  22.472  46.431  1.00  0.00     0.041 C 
ATOM      4  O   UNL     1      20.215  22.840  45.534  1.00  0.00    -0.550 OA
ATOM      5  O   UNL     1      22.366  22.332  46.133  1.00  0.00    -0.550 OA
ENDBRANCH   2   3
ENDBRANCH   1   2
BRANCH   1   6
ATOM      6  C   UNL     1      19.260  24.454  48.124  1.00  0.00     0.000 C 
BRANCH   6   7
ATOM      7  C   UNL     1      17.897  25.123  47.874  1.00  0.00    -0.000 C 
BRANCH   7   8
ATOM      8  C   UNL     1      17.067  24.386  46.812  1.00  0.00    -0.003 C 
ATOM      9  C   UNL     1      17.362  24.868  45.392  1.00  0.00     0.004 C 
ENDBRANCH   7   8
ENDBRANCH   6   7
ENDBRANCH   1   6
TORSDOF 5
ENDMDL
MODEL 4
REMARK VINA RESULT:    -2.414     18.226     19.563
REMARK INTER + INTRA:          -3.428
REMARK INTER:                  -3.253
REMARK INTRA:                  -0.175
REMARK UNBOUND:                -0.308
REMARK SMILES CCCCCCC(=O)[O-]
REMARK SMILES IDX 5 1 6 2 7 3 8 4 9 5 4 6 3 7 2 8 1 9
REMARK H PARENT
REMARK Flexibility Score: inf
ROOT
ATOM      1  C   UNL     1      31.192  24.914  30.465  1.00  0.00     0.006 C 
ENDROOT
BRANCH   1   2
ATOM      2  C   UNL     1      30.858  24.780  28.970  1.00  0.00     0.053 C 
BRANCH   2   3
ATOM      3  C   UNL     1      30.768  23.348  28.542  1.00  0.00     0.041 C 
ATOM      4  O   UNL     1      31.747  22.574  28.706  1.00  0.00    -0.550 OA
ATOM      5  O   UNL     1      29.589  22.859  27.993  1.00  0.00    -0.550 OA
ENDBRANCH   2   3
ENDBRANCH   1   2
BRANCH   1   6
ATOM      6  C   UNL     1      29.959  25.032  31.379  1.00  0.00     0.000 C 
BRANCH   6   7
ATOM      7  C   UNL     1      30.324  25.014  32.874  1.00  0.00    -0.000 C 
BRANCH   7   8
ATOM      8  C   UNL     1      31.838  25.116  33.111  1.00  0.00    -0.003 C 
ATOM      9  C   UNL     1      32.205  25.121  34.594  1.00  0.00     0.004 C 
ENDBRANCH   7   8
ENDBRANCH   6   7
ENDBRANCH   1   6
TORSDOF 5
ENDMDL
MODEL 5
REMARK VINA RESULT:    -2.227     17.672     19.215
REMARK INTER + INTRA:          -3.186
REMARK INTER:                  -3.022
REMARK INTRA:                  -0.163
REMARK UNBOUND:                -0.308
REMARK SMILES CCCCCCC(=O)[O-]
REMARK SMILES IDX 5 1 6 2 7 3 8 4 9 5 4 6 3 7 2 8 1 9
REMARK H PARENT
REMARK Flexibility Score: inf
ROOT
ATOM      1  C   UNL     1      30.773  24.537  31.872  1.00  0.00     0.006 C 
ENDROOT
BRANCH   1   2
ATOM      2  C   UNL     1      30.757  25.093  33.305  1.00  0.00     0.053 C 
BRANCH   2   3
ATOM      3  C   UNL     1      32.123  25.104  33.918  1.00  0.00     0.041 C 
ATOM      4  O   UNL     1      32.256  25.120  35.169  1.00  0.00    -0.550 OA
ATOM      5  O   UNL     1      33.250  25.063  33.106  1.00  0.00    -0.550 OA
ENDBRANCH   2   3
ENDBRANCH   1   2
BRANCH   1   6
ATOM      6  C   UNL     1      29.684  25.123  30.955  1.00  0.00     0.000 C 
BRANCH   6   7
ATOM      7  C   UNL     1      30.006  24.946  29.461  1.00  0.00    -0.000 C 
BRANCH   7   8
ATOM      8  C   UNL     1      31.048  23.845  29.210  1.00  0.00    -0.003 C 
ATOM      9  C   UNL     1      30.568  22.794  28.210  1.00  0.00     0.004 C 
ENDBRANCH   7   8
ENDBRANCH   6   7
ENDBRANCH   1   6
TORSDOF 5
ENDMDL
MODEL 6
REMARK VINA RESULT:    -2.093      2.471      4.592
REMARK INTER + INTRA:          -3.012
REMARK INTER:                  -2.899
REMARK INTRA:                  -0.113
REMARK UNBOUND:                -0.308
REMARK SMILES CCCCCCC(=O)[O-]
REMARK SMILES IDX 5 1 6 2 7 3 8 4 9 5 4 6 3 7 2 8 1 9
REMARK H PARENT
REMARK Flexibility Score: inf
ROOT
ATOM      1  C   UNL     1      19.122  23.485  45.586  1.00  0.00     0.006 C 
ENDROOT
BRANCH   1   2
ATOM      2  C   UNL     1      19.683  23.392  47.014  1.00  0.00     0.053 C 
BRANCH   2   3
ATOM      3  C   UNL     1      20.715  22.314  47.142  1.00  0.00     0.041 C 
ATOM      4  O   UNL     1      20.650  21.485  48.086  1.00  0.00    -0.550 OA
ATOM      5  O   UNL     1      21.729  22.206  46.199  1.00  0.00    -0.550 OA
ENDBRANCH   2   3
ENDBRANCH   1   2
BRANCH   1   6
ATOM      6  C   UNL     1      18.665  24.897  45.178  1.00  0.00     0.000 C 
BRANCH   6   7
ATOM      7  C   UNL     1      17.160  24.968  44.865  1.00  0.00    -0.000 C 
BRANCH   7   8
ATOM      8  C   UNL     1      16.877  25.094  43.361  1.00  0.00    -0.003 C 
ATOM      9  C   UNL     1      18.153  25.125  42.520  1.00  0.00     0.004 C 
ENDBRANCH   7   8
ENDBRANCH   6   7
ENDBRANCH   1   6
TORSDOF 5
ENDMDL
MODEL 7
REMARK VINA RESULT:    -2.048     18.808     20.301
REMARK INTER + INTRA:          -2.955
REMARK INTER:                  -2.630
REMARK INTRA:                  -0.325
REMARK UNBOUND:                -0.308
REMARK SMILES CCCCCCC(=O)[O-]
REMARK SMILES IDX 5 1 6 2 7 3 8 4 9 5 4 6 3 7 2 8 1 9
REMARK H PARENT
REMARK Flexibility Score: inf
ROOT
ATOM      1  C   UNL     1      30.830  23.670  29.781  1.00  0.00     0.006 C 
ENDROOT
BRANCH   1   2
ATOM      2  C   UNL     1      30.399  24.973  30.474  1.00  0.00     0.053 C 
BRANCH   2   3
ATOM      3  C   UNL     1      30.412  24.846  31.965  1.00  0.00     0.041 C 
ATOM      4  O   UNL     1      31.504  24.848  32.592  1.00  0.00    -0.550 OA
ATOM      5  O   UNL     1      29.217  24.759  32.667  1.00  0.00    -0.550 OA
ENDBRANCH   2   3
ENDBRANCH   1   2
BRANCH   1   6
ATOM      6  C   UNL     1      31.430  23.870  28.377  1.00  0.00     0.000 C 
BRANCH   6   7
ATOM      7  C   UNL     1      32.754  24.654  28.403  1.00  0.00    -0.000 C 
BRANCH   7   8
ATOM      8  C   UNL     1      33.799  24.013  29.329  1.00  0.00    -0.003 C 
ATOM      9  C   UNL     1      34.307  24.975  30.402  1.00  0.00     0.004 C 
ENDBRANCH   7   8
ENDBRANCH   6   7
ENDBRANCH   1   6
TORSDOF 5
ENDMDL
MODEL 8
REMARK VINA RESULT:    -2.032     19.574     21.108
REMARK INTER + INTRA:          -2.934
REMARK INTER:                  -2.664
REMARK INTRA:                  -0.270
REMARK UNBOUND:                -0.308
REMARK SMILES CCCCCCC(=O)[O-]
REMARK SMILES IDX 5 1 6 2 7 3 8 4 9 5 4 6 3 7 2 8 1 9
REMARK H PARENT
REMARK Flexibility Score: inf
ROOT
ATOM      1  C   UNL     1      31.782  23.394  29.157  1.00  0.00     0.006 C 
ENDROOT
BRANCH   1   2
ATOM      2  C   UNL     1      33.087  23.727  28.416  1.00  0.00     0.053 C 
BRANCH   2   3
ATOM      3  C   UNL     1      34.198  24.066  29.361  1.00  0.00     0.041 C 
ATOM      4  O   UNL     1      35.385  23.754  29.082  1.00  0.00    -0.550 OA
ATOM      5  O   UNL     1      33.926  24.758  30.534  1.00  0.00    -0.550 OA
ENDBRANCH   2   3
ENDBRANCH   1   2
BRANCH   1   6
ATOM      6  C   UNL     1      30.645  24.403  28.916  1.00  0.00     0.000 C 
BRANCH   6   7
ATOM      7  C   UNL     1      30.191  25.106  30.208  1.00  0.00    -0.000 C 
BRANCH   7   8
ATOM      8  C   UNL     1      30.632  24.354  31.473  1.00  0.00    -0.003 C 
ATOM      9  C   UNL     1      30.325  25.125  32.756  1.00  0.00     0.004 C 
ENDBRANCH   7   8
ENDBRANCH   6   7
ENDBRANCH   1   6
TORSDOF 5
ENDMDL
