MODEL 1
REMARK VINA RESULT:    -2.561      0.000      0.000
REMARK INTER + INTRA:          -3.567
REMARK INTER:                  -3.759
REMARK INTRA:                   0.192
REMARK UNBOUND:                 0.192
REMARK SMILES C=C1CC=CC(C)(C)CC=C(C)CCC1
REMARK SMILES IDX 2 1 1 2 15 3 14 4 13 5 11 6 12 7 10 8 3 10 4 11 5 12 6 13
REMARK SMILES IDX 7 14 8 15 9 16
REMARK H PARENT
REMARK Flexibility Score: 60.00
ROOT
ATOM      1  C   UNL     1      49.492  33.161  30.255  1.00  0.00    -0.074 C 
ATOM      2  C   UNL     1      48.437  33.992  30.240  1.00  0.00     0.008 C 
ENDROOT
BRANCH   1   3
ATOM      3  C   UNL     1      50.839  33.647  29.746  1.00  0.00     0.031 C 
BRANCH   3   4
ATOM      4  C   UNL     1      50.783  34.200  28.312  1.00  0.00     0.009 C 
BRANCH   4   5
ATOM      5  C   UNL     1      51.349  33.224  27.255  1.00  0.00     0.030 C 
BRANCH   5   6
ATOM      6  C   UNL     1      50.238  32.650  26.387  1.00  0.00    -0.077 C 
ATOM      7  C   UNL     1      49.320  33.607  25.665  1.00  0.00     0.039 C 
ATOM      8  C   UNL     1      50.035  31.324  26.189  1.00  0.00    -0.027 CG0
ATOM      9  G   UNL     1      50.930  30.191  26.651  1.00  0.00     0.000 G0
ENDBRANCH   5   6
ENDBRANCH   4   5
ENDBRANCH   3   4
ENDBRANCH   1   3
BRANCH   1  10
ATOM     10  C   UNL     1      49.321  31.740  30.753  1.00  0.00     0.057 C 
BRANCH  10  11
ATOM     11  C   UNL     1      49.281  30.775  29.599  1.00  0.00    -0.026 C 
ATOM     12  C   UNL     1      50.403  30.208  29.124  1.00  0.00    -0.024 C 
BRANCH  12  13
ATOM     13  C   UNL     1      50.455  29.352  27.864  1.00  0.00    -0.014 C 
ATOM     14  C   UNL     1      51.489  28.229  28.105  1.00  0.00     0.016 C 
ATOM     15  C   UNL     1      49.092  28.679  27.582  1.00  0.00     0.016 C 
BRANCH  13  16
ATOM     16  C   UNL     1      50.944  30.194  26.645  1.00  0.00     0.038 CG0
ATOM     17  G   UNL     1      50.021  31.318  26.217  1.00  0.00     0.000 G0
ENDBRANCH  13  16
ENDBRANCH  12  13
ENDBRANCH  10  11
ENDBRANCH   1  10
TORSDOF 0
ENDMDL
MODEL 2
REMARK VINA RESULT:    -2.477      1.163      3.174
REMARK INTER + INTRA:          -3.443
REMARK INTER:                  -3.674
REMARK INTRA:                   0.231
REMARK UNBOUND:                 0.192
REMARK SMILES C=C1CC=CC(C)(C)CC=C(C)CCC1
REMARK SMILES IDX 2 1 1 2 15 3 14 4 13 5 11 6 12 7 10 8 3 10 4 11 5 12 6 13
REMARK SMILES IDX 7 14 8 15 9 16
REMARK H PARENT
REMARK Flexibility Score: 60.00
ROOT
ATOM      1  C   UNL     1      49.848  33.643  29.678  1.00  0.00    -0.074 C 
ATOM      2  C   UNL     1      48.600  33.961  30.058  1.00  0.00     0.008 C 
ENDROOT
BRANCH   1   3
ATOM      3  C   UNL     1      50.704  32.758  30.569  1.00  0.00     0.031 C 
BRANCH   3   4
ATOM      4  C   UNL     1      50.068  31.387  30.854  1.00  0.00     0.009 C 
BRANCH   4   5
ATOM      5  C   UNL     1      50.542  30.278  29.889  1.00  0.00     0.030 C 
BRANCH   5   6
ATOM      6  C   UNL     1      49.514  30.026  28.795  1.00  0.00    -0.077 C 
ATOM      7  C   UNL     1      48.049  30.091  29.154  1.00  0.00     0.039 C 
ATOM      8  C   UNL     1      49.827  29.778  27.499  1.00  0.00    -0.027 CG0
ATOM      9  G   UNL     1      51.204  29.847  26.869  1.00  0.00     0.000 G0
ENDBRANCH   5   6
ENDBRANCH   4   5
ENDBRANCH   3   4
ENDBRANCH   1   3
BRANCH   1  10
ATOM     10  C   UNL     1      50.399  34.192  28.377  1.00  0.00     0.057 C 
BRANCH  10  11
ATOM     11  C   UNL     1      51.256  33.164  27.688  1.00  0.00    -0.026 C 
ATOM     12  C   UNL     1      50.753  32.364  26.732  1.00  0.00    -0.024 C 
BRANCH  12  13
ATOM     13  C   UNL     1      51.515  31.199  26.110  1.00  0.00    -0.014 C 
ATOM     14  C   UNL     1      51.032  31.053  24.650  1.00  0.00     0.016 C 
ATOM     15  C   UNL     1      53.036  31.477  26.073  1.00  0.00     0.016 C 
BRANCH  13  16
ATOM     16  C   UNL     1      51.191  29.867  26.853  1.00  0.00     0.038 CG0
ATOM     17  G   UNL     1      49.817  29.794  27.489  1.00  0.00     0.000 G0
ENDBRANCH  13  16
ENDBRANCH  12  13
ENDBRANCH  10  11
ENDBRANCH   1  10
TORSDOF 0
ENDMDL
MODEL 3
REMARK VINA RESULT:    -2.439      4.033      5.940
REMARK INTER + INTRA:          -3.389
REMARK INTER:                  -3.716
REMARK INTRA:                   0.328
REMARK UNBOUND:                 0.192
REMARK SMILES C=C1CC=CC(C)(C)CC=C(C)CCC1
REMARK SMILES IDX 2 1 1 2 15 3 14 4 13 5 11 6 12 7 10 8 3 10 4 11 5 12 6 13
REMARK SMILES IDX 7 14 8 15 9 16
REMARK H PARENT
REMARK Flexibility Score: 60.00
ROOT
ATOM      1  C   UNL     1      56.530  27.915  26.153  1.00  0.00    -0.074 C 
ATOM      2  C   UNL     1      57.150  27.554  25.018  1.00  0.00     0.008 C 
ENDROOT
BRANCH   1   3
ATOM      3  C   UNL     1      56.609  29.356  26.629  1.00  0.00     0.031 C 
BRANCH   3   4
ATOM      4  C   UNL     1      55.916  30.348  25.680  1.00  0.00     0.009 C 
BRANCH   4   5
ATOM      5  C   UNL     1      54.642  30.984  26.280  1.00  0.00     0.030 C 
BRANCH   5   6
ATOM      6  C   UNL     1      53.486  30.937  25.290  1.00  0.00    -0.077 C 
ATOM      7  C   UNL     1      53.621  31.689  23.988  1.00  0.00     0.039 C 
ATOM      8  C   UNL     1      52.346  30.230  25.485  1.00  0.00    -0.027 CG0
ATOM      9  G   UNL     1      52.062  29.260  26.616  1.00  0.00     0.000 G0
ENDBRANCH   5   6
ENDBRANCH   4   5
ENDBRANCH   3   4
ENDBRANCH   1   3
BRANCH   1  10
ATOM     10  C   UNL     1      55.780  26.875  26.962  1.00  0.00     0.057 C 
BRANCH  10  11
ATOM     11  C   UNL     1      54.347  27.291  27.162  1.00  0.00    -0.026 C 
ATOM     12  C   UNL     1      53.448  27.197  26.167  1.00  0.00    -0.024 C 
BRANCH  12  13
ATOM     13  C   UNL     1      52.029  27.747  26.249  1.00  0.00    -0.014 C 
ATOM     14  C   UNL     1      51.397  27.617  24.845  1.00  0.00     0.016 C 
ATOM     15  C   UNL     1      51.161  26.924  27.229  1.00  0.00     0.016 C 
BRANCH  13  16
ATOM     16  C   UNL     1      52.043  29.261  26.625  1.00  0.00     0.038 CG0
ATOM     17  G   UNL     1      52.353  30.212  25.485  1.00  0.00     0.000 G0
ENDBRANCH  13  16
ENDBRANCH  12  13
ENDBRANCH  10  11
ENDBRANCH   1  10
TORSDOF 0
ENDMDL
MODEL 4
REMARK VINA RESULT:    -2.345      3.401      5.576
REMARK INTER + INTRA:          -3.250
REMARK INTER:                  -3.432
REMARK INTRA:                   0.182
REMARK UNBOUND:                 0.192
REMARK SMILES C=C1CC=CC(C)(C)CC=C(C)CCC1
REMARK SMILES IDX 2 1 1 2 15 3 14 4 13 5 11 6 12 7 10 8 3 10 4 11 5 12 6 13
REMARK SMILES IDX 7 14 8 15 9 16
REMARK H PARENT
REMARK Flexibility Score: 60.00
ROOT
ATOM      1  C   UNL     1      52.046  31.624  25.759  1.00  0.00    -0.074 C 
ATOM      2  C   UNL     1      51.249  31.578  24.679  1.00  0.00     0.008 C 
ENDROOT
BRANCH   1   3
ATOM      3  C   UNL     1      51.480  31.281  27.127  1.00  0.00     0.031 C 
BRANCH   3   4
ATOM      4  C   UNL     1      50.871  29.871  27.197  1.00  0.00     0.009 C 
BRANCH   4   5
ATOM      5  C   UNL     1      51.819  28.824  27.824  1.00  0.00     0.030 C 
BRANCH   5   6
ATOM      6  C   UNL     1      52.384  27.890  26.764  1.00  0.00    -0.077 C 
ATOM      7  C   UNL     1      51.447  27.336  25.718  1.00  0.00     0.039 C 
ATOM      8  C   UNL     1      53.692  27.543  26.674  1.00  0.00    -0.027 CG0
ATOM      9  G   UNL     1      54.839  28.113  27.486  1.00  0.00     0.000 G0
ENDBRANCH   5   6
ENDBRANCH   4   5
ENDBRANCH   3   4
ENDBRANCH   1   3
BRANCH   1  10
ATOM     10  C   UNL     1      53.494  32.042  25.605  1.00  0.00     0.057 C 
BRANCH  10  11
ATOM     11  C   UNL     1      54.391  31.169  26.442  1.00  0.00    -0.026 C 
ATOM     12  C   UNL     1      55.021  30.106  25.913  1.00  0.00    -0.024 C 
BRANCH  12  13
ATOM     13  C   UNL     1      55.809  29.092  26.733  1.00  0.00    -0.014 C 
ATOM     14  C   UNL     1      56.657  28.255  25.748  1.00  0.00     0.016 C 
ATOM     15  C   UNL     1      56.784  29.791  27.709  1.00  0.00     0.016 C 
BRANCH  13  16
ATOM     16  C   UNL     1      54.848  28.117  27.478  1.00  0.00     0.038 CG0
ATOM     17  G   UNL     1      53.705  27.566  26.647  1.00  0.00     0.000 G0
ENDBRANCH  13  16
ENDBRANCH  12  13
ENDBRANCH  10  11
ENDBRANCH   1  10
TORSDOF 0
ENDMDL
MODEL 5
REMARK VINA RESULT:    -2.271      1.362      2.242
REMARK INTER + INTRA:          -3.141
REMARK INTER:                  -3.377
REMARK INTRA:                   0.236
REMARK UNBOUND:                 0.192
REMARK SMILES C=C1CC=CC(C)(C)CC=C(C)CCC1
REMARK SMILES IDX 2 1 1 2 15 3 14 4 13 5 11 6 12 7 10 8 3 10 4 11 5 12 6 13
REMARK SMILES IDX 7 14 8 15 9 16
REMARK H PARENT
REMARK Flexibility Score: 60.00
ROOT
ATOM      1  C   UNL     1      49.174  31.058  30.066  1.00  0.00    -0.074 C 
ATOM      2  C   UNL     1      47.890  31.215  30.426  1.00  0.00     0.008 C 
ENDROOT
BRANCH   1   3
ATOM      3  C   UNL     1      50.182  32.154  30.371  1.00  0.00     0.031 C 
BRANCH   3   4
ATOM      4  C   UNL     1      49.846  33.493  29.695  1.00  0.00     0.009 C 
BRANCH   4   5
ATOM      5  C   UNL     1      50.852  33.894  28.593  1.00  0.00     0.030 C 
BRANCH   5   6
ATOM      6  C   UNL     1      50.207  33.840  27.215  1.00  0.00    -0.077 C 
ATOM      7  C   UNL     1      49.023  34.735  26.938  1.00  0.00     0.039 C 
ATOM      8  C   UNL     1      50.649  33.060  26.198  1.00  0.00    -0.027 CG0
ATOM      9  G   UNL     1      51.916  32.228  26.178  1.00  0.00     0.000 G0
ENDBRANCH   5   6
ENDBRANCH   4   5
ENDBRANCH   3   4
ENDBRANCH   1   3
BRANCH   1  10
ATOM     10  C   UNL     1      49.599  29.800  29.335  1.00  0.00     0.057 C 
BRANCH  10  11
ATOM     11  C   UNL     1      49.991  30.117  27.916  1.00  0.00    -0.026 C 
ATOM     12  C   UNL     1      51.281  30.210  27.553  1.00  0.00    -0.024 C 
BRANCH  12  13
ATOM     13  C   UNL     1      51.746  30.684  26.181  1.00  0.00    -0.014 C 
ATOM     14  C   UNL     1      53.125  30.042  25.909  1.00  0.00     0.016 C 
ATOM     15  C   UNL     1      50.784  30.212  25.066  1.00  0.00     0.016 C 
BRANCH  13  16
ATOM     16  C   UNL     1      51.931  32.232  26.165  1.00  0.00     0.038 CG0
ATOM     17  G   UNL     1      50.648  33.041  26.188  1.00  0.00     0.000 G0
ENDBRANCH  13  16
ENDBRANCH  12  13
ENDBRANCH  10  11
ENDBRANCH   1  10
TORSDOF 0
ENDMDL
MODEL 6
REMARK VINA RESULT:    -2.206      1.695      4.860
REMARK INTER + INTRA:          -3.047
REMARK INTER:                  -3.347
REMARK INTRA:                   0.300
REMARK UNBOUND:                 0.192
REMARK SMILES C=C1CC=CC(C)(C)CC=C(C)CCC1
REMARK SMILES IDX 2 1 1 2 15 3 14 4 13 5 11 6 12 7 10 8 3 10 4 11 5 12 6 13
REMARK SMILES IDX 7 14 8 15 9 16
REMARK H PARENT
REMARK Flexibility Score: 60.00
ROOT
ATOM      1  C   UNL     1      51.365  31.030  25.583  1.00  0.00    -0.074 C 
ATOM      2  C   UNL     1      50.898  30.650  24.382  1.00  0.00     0.008 C 
ENDROOT
BRANCH   1   3
ATOM      3  C   UNL     1      51.976  29.997  26.514  1.00  0.00     0.031 C 
BRANCH   3   4
ATOM      4  C   UNL     1      50.938  29.041  27.126  1.00  0.00     0.009 C 
BRANCH   4   5
ATOM      5  C   UNL     1      50.848  29.137  28.665  1.00  0.00     0.030 C 
BRANCH   5   6
ATOM      6  C   UNL     1      49.442  29.513  29.111  1.00  0.00    -0.077 C 
ATOM      7  C   UNL     1      48.316  28.546  28.835  1.00  0.00     0.039 C 
ATOM      8  C   UNL     1      49.134  30.654  29.776  1.00  0.00    -0.027 CG0
ATOM      9  G   UNL     1      50.110  31.676  30.323  1.00  0.00     0.000 G0
ENDBRANCH   5   6
ENDBRANCH   4   5
ENDBRANCH   3   4
ENDBRANCH   1   3
BRANCH   1  10
ATOM     10  C   UNL     1      51.252  32.481  26.006  1.00  0.00     0.057 C 
BRANCH  10  11
ATOM     11  C   UNL     1      50.389  32.610  27.232  1.00  0.00    -0.026 C 
ATOM     12  C   UNL     1      50.885  33.084  28.388  1.00  0.00    -0.024 C 
BRANCH  12  13
ATOM     13  C   UNL     1      50.116  33.090  29.704  1.00  0.00    -0.014 C 
ATOM     14  C   UNL     1      50.850  34.048  30.669  1.00  0.00     0.016 C 
ATOM     15  C   UNL     1      48.679  33.630  29.515  1.00  0.00     0.016 C 
BRANCH  13  16
ATOM     16  C   UNL     1      50.117  31.671  30.351  1.00  0.00     0.038 CG0
ATOM     17  G   UNL     1      49.134  30.682  29.756  1.00  0.00     0.000 G0
ENDBRANCH  13  16
ENDBRANCH  12  13
ENDBRANCH  10  11
ENDBRANCH   1  10
TORSDOF 0
ENDMDL
MODEL 7
REMARK VINA RESULT:    -2.096      2.987      5.901
REMARK INTER + INTRA:          -2.885
REMARK INTER:                  -3.239
REMARK INTRA:                   0.355
REMARK UNBOUND:                 0.192
REMARK SMILES C=C1CC=CC(C)(C)CC=C(C)CCC1
REMARK SMILES IDX 2 1 1 2 15 3 14 4 13 5 11 6 12 7 10 8 3 10 4 11 5 12 6 13
REMARK SMILES IDX 7 14 8 15 9 16
REMARK H PARENT
REMARK Flexibility Score: 60.00
ROOT
ATOM      1  C   UNL     1      55.581  28.795  27.073  1.00  0.00    -0.074 C 
ATOM      2  C   UNL     1      56.694  28.128  26.727  1.00  0.00     0.008 C 
ENDROOT
BRANCH   1   3
ATOM      3  C   UNL     1      54.411  28.043  27.684  1.00  0.00     0.031 C 
BRANCH   3   4
ATOM      4  C   UNL     1      53.617  27.219  26.657  1.00  0.00     0.009 C 
BRANCH   4   5
ATOM      5  C   UNL     1      52.098  27.504  26.682  1.00  0.00     0.030 C 
BRANCH   5   6
ATOM      6  C   UNL     1      51.595  27.922  25.308  1.00  0.00    -0.077 C 
ATOM      7  C   UNL     1      51.519  26.877  24.220  1.00  0.00     0.039 C 
ATOM      8  C   UNL     1      51.174  29.173  24.999  1.00  0.00    -0.027 CG0
ATOM      9  G   UNL     1      50.983  30.329  25.962  1.00  0.00     0.000 G0
ENDBRANCH   5   6
ENDBRANCH   4   5
ENDBRANCH   3   4
ENDBRANCH   1   3
BRANCH   1  10
ATOM     10  C   UNL     1      55.495  30.288  26.826  1.00  0.00     0.057 C 
BRANCH  10  11
ATOM     11  C   UNL     1      54.289  30.619  25.988  1.00  0.00    -0.026 C 
ATOM     12  C   UNL     1      53.258  31.317  26.494  1.00  0.00    -0.024 C 
BRANCH  12  13
ATOM     13  C   UNL     1      51.944  31.547  25.758  1.00  0.00    -0.014 C 
ATOM     14  C   UNL     1      51.276  32.796  26.375  1.00  0.00     0.016 C 
ATOM     15  C   UNL     1      52.181  31.838  24.258  1.00  0.00     0.016 C 
BRANCH  13  16
ATOM     16  C   UNL     1      50.977  30.341  25.964  1.00  0.00     0.038 CG0
ATOM     17  G   UNL     1      51.193  29.166  25.030  1.00  0.00     0.000 G0
ENDBRANCH  13  16
ENDBRANCH  12  13
ENDBRANCH  10  11
ENDBRANCH   1  10
TORSDOF 0
ENDMDL
MODEL 8
REMARK VINA RESULT:    -2.075      1.148      3.624
REMARK INTER + INTRA:          -2.854
REMARK INTER:                  -3.208
REMARK INTRA:                   0.354
REMARK UNBOUND:                 0.192
REMARK SMILES C=C1CC=CC(C)(C)CC=C(C)CCC1
REMARK SMILES IDX 2 1 1 2 15 3 14 4 13 5 11 6 12 7 10 8 3 10 4 11 5 12 6 13
REMARK SMILES IDX 7 14 8 15 9 16
REMARK H PARENT
REMARK Flexibility Score: 60.00
ROOT
ATOM      1  C   UNL     1      50.463  33.809  29.575  1.00  0.00    -0.074 C 
ATOM      2  C   UNL     1      51.196  33.836  30.700  1.00  0.00     0.008 C 
ENDROOT
BRANCH   1   3
ATOM      3  C   UNL     1      49.044  33.267  29.613  1.00  0.00     0.031 C 
BRANCH   3   4
ATOM      4  C   UNL     1      48.975  31.767  29.941  1.00  0.00     0.009 C 
BRANCH   4   5
ATOM      5  C   UNL     1      48.361  30.917  28.807  1.00  0.00     0.030 C 
BRANCH   5   6
ATOM      6  C   UNL     1      49.402  30.000  28.181  1.00  0.00    -0.077 C 
ATOM      7  C   UNL     1      50.020  28.921  29.038  1.00  0.00     0.039 C 
ATOM      8  C   UNL     1      49.792  30.064  26.884  1.00  0.00    -0.027 CG0
ATOM      9  G   UNL     1      49.186  30.930  25.797  1.00  0.00     0.000 G0
ENDBRANCH   5   6
ENDBRANCH   4   5
ENDBRANCH   3   4
ENDBRANCH   1   3
BRANCH   1  10
ATOM     10  C   UNL     1      51.069  34.295  28.273  1.00  0.00     0.057 C 
BRANCH  10  11
ATOM     11  C   UNL     1      51.089  33.189  27.252  1.00  0.00    -0.026 C 
ATOM     12  C   UNL     1      50.261  33.202  26.194  1.00  0.00    -0.024 C 
BRANCH  12  13
ATOM     13  C   UNL     1      50.115  32.043  25.215  1.00  0.00    -0.014 C 
ATOM     14  C   UNL     1      49.442  32.593  23.937  1.00  0.00     0.016 C 
ATOM     15  C   UNL     1      51.494  31.473  24.807  1.00  0.00     0.016 C 
BRANCH  13  16
ATOM     16  C   UNL     1      49.187  30.936  25.802  1.00  0.00     0.038 CG0
ATOM     17  G   UNL     1      49.800  30.084  26.895  1.00  0.00     0.000 G0
ENDBRANCH  13  16
ENDBRANCH  12  13
ENDBRANCH  10  11
ENDBRANCH   1  10
TORSDOF 0
ENDMDL
MODEL 9
REMARK VINA RESULT:    -1.971      1.630      4.449
REMARK INTER + INTRA:          -2.702
REMARK INTER:                  -2.880
REMARK INTRA:                   0.178
REMARK UNBOUND:                 0.192
REMARK SMILES C=C1CC=CC(C)(C)CC=C(C)CCC1
REMARK SMILES IDX 2 1 1 2 15 3 14 4 13 5 11 6 12 7 10 8 3 10 4 11 5 12 6 13
REMARK SMILES IDX 7 14 8 15 9 16
REMARK H PARENT
REMARK Flexibility Score: 60.00
ROOT
ATOM      1  C   UNL     1      52.354  31.973  26.075  1.00  0.00    -0.074 C 
ATOM      2  C   UNL     1      53.601  31.508  26.251  1.00  0.00     0.008 C 
ENDROOT
BRANCH   1   3
ATOM      3  C   UNL     1      51.448  31.327  25.040  1.00  0.00     0.031 C 
BRANCH   3   4
ATOM      4  C   UNL     1      51.251  29.819  25.263  1.00  0.00     0.009 C 
BRANCH   4   5
ATOM      5  C   UNL     1      50.080  29.486  26.215  1.00  0.00     0.030 C 
BRANCH   5   6
ATOM      6  C   UNL     1      50.587  29.103  27.597  1.00  0.00    -0.077 C 
ATOM      7  C   UNL     1      51.860  28.297  27.700  1.00  0.00     0.039 C 
ATOM      8  C   UNL     1      49.987  29.468  28.757  1.00  0.00    -0.027 CG0
ATOM      9  G   UNL     1      48.818  30.421  28.912  1.00  0.00     0.000 G0
ENDBRANCH   5   6
ENDBRANCH   4   5
ENDBRANCH   3   4
ENDBRANCH   1   3
BRANCH   1  10
ATOM     10  C   UNL     1      51.872  33.156  26.892  1.00  0.00     0.057 C 
BRANCH  10  11
ATOM     11  C   UNL     1      50.545  32.852  27.534  1.00  0.00    -0.026 C 
ATOM     12  C   UNL     1      50.470  32.349  28.778  1.00  0.00    -0.024 C 
BRANCH  12  13
ATOM     13  C   UNL     1      49.176  31.869  29.424  1.00  0.00    -0.014 C 
ATOM     14  C   UNL     1      49.417  31.795  30.949  1.00  0.00     0.016 C 
ATOM     15  C   UNL     1      48.021  32.868  29.183  1.00  0.00     0.016 C 
BRANCH  13  16
ATOM     16  C   UNL     1      48.810  30.436  28.931  1.00  0.00     0.038 CG0
ATOM     17  G   UNL     1      49.980  29.483  28.771  1.00  0.00     0.000 G0
ENDBRANCH  13  16
ENDBRANCH  12  13
ENDBRANCH  10  11
ENDBRANCH   1  10
TORSDOF 0
ENDMDL
