MODEL 1
REMARK VINA RESULT:     4.304      0.000      0.000
REMARK INTER + INTRA:           6.986
REMARK INTER:                   7.574
REMARK INTRA:                  -0.588
REMARK UNBOUND:                -0.588
REMARK SMILES CCCCCCCCCCCCCCC(=O)[O-]
REMARK SMILES IDX 9 1 10 2 11 3 12 4 13 5 14 6 15 7 16 8 17 9 8 10 7 11 6 12
REMARK SMILES IDX 5 13 4 14 3 15 2 16 1 17
REMARK H PARENT
REMARK Flexibility Score: inf
ROOT
ATOM      1  C   UNL     1      89.766  82.178  19.450  1.00  0.00     0.000 C 
ENDROOT
BRANCH   1   2
ATOM      2  C   UNL     1      88.811  80.982  19.312  1.00  0.00     0.000 C 
BRANCH   2   3
ATOM      3  C   UNL     1      88.188  80.877  17.910  1.00  0.00     0.000 C 
BRANCH   3   4
ATOM      4  C   UNL     1      86.644  80.948  17.951  1.00  0.00     0.000 C 
BRANCH   4   5
ATOM      5  C   UNL     1      86.105  81.956  18.984  1.00  0.00     0.006 C 
BRANCH   5   6
ATOM      6  C   UNL     1      84.836  81.485  19.709  1.00  0.00     0.053 C 
BRANCH   6   7
ATOM      7  C   UNL     1      83.592  81.980  19.038  1.00  0.00     0.041 C 
ATOM      8  O   UNL     1      83.007  81.262  18.184  1.00  0.00    -0.550 OA
ATOM      9  O   UNL     1      83.089  83.239  19.336  1.00  0.00    -0.550 OA
ENDBRANCH   6   7
ENDBRANCH   5   6
ENDBRANCH   4   5
ENDBRANCH   3   4
ENDBRANCH   2   3
ENDBRANCH   1   2
BRANCH   1  10
ATOM     10  C   UNL     1      89.042  83.529  19.361  1.00  0.00     0.000 C 
BRANCH  10  11
ATOM     11  C   UNL     1      89.981  84.682  19.745  1.00  0.00    -0.000 C 
BRANCH  11  12
ATOM     12  C   UNL     1      90.688  85.303  18.530  1.00  0.00    -0.000 C 
BRANCH  12  13
ATOM     13  C   UNL     1      91.928  86.122  18.921  1.00  0.00    -0.000 C 
BRANCH  13  14
ATOM     14  C   UNL     1      92.658  86.643  17.677  1.00  0.00    -0.000 C 
BRANCH  14  15
ATOM     15  C   UNL     1      92.223  88.077  17.343  1.00  0.00    -0.000 C 
BRANCH  15  16
ATOM     16  C   UNL     1      91.579  88.191  15.953  1.00  0.00    -0.003 C 
ATOM     17  C   UNL     1      91.058  86.852  15.431  1.00  0.00     0.004 C 
ENDBRANCH  15  16
ENDBRANCH  14  15
ENDBRANCH  13  14
ENDBRANCH  12  13
ENDBRANCH  11  12
ENDBRANCH  10  11
ENDBRANCH   1  10
TORSDOF 13
ENDMDL
MODEL 2
REMARK VINA RESULT:     4.746      3.426      7.894
REMARK INTER + INTRA:           7.764
REMARK INTER:                   8.258
REMARK INTRA:                  -0.494
REMARK UNBOUND:                -0.588
REMARK SMILES CCCCCCCCCCCCCCC(=O)[O-]
REMARK SMILES IDX 9 1 10 2 11 3 12 4 13 5 14 6 15 7 16 8 17 9 8 10 7 11 6 12
REMARK SMILES IDX 5 13 4 14 3 15 2 16 1 17
REMARK H PARENT
REMARK Flexibility Score: inf
ROOT
ATOM      1  C   UNL     1      89.378  83.000  19.965  1.00  0.00     0.000 C 
ENDROOT
BRANCH   1   2
ATOM      2  C   UNL     1      89.411  84.466  19.504  1.00  0.00     0.000 C 
BRANCH   2   3
ATOM      3  C   UNL     1      90.582  84.764  18.553  1.00  0.00     0.000 C 
BRANCH   3   4
ATOM      4  C   UNL     1      91.306  86.081  18.915  1.00  0.00     0.000 C 
BRANCH   4   5
ATOM      5  C   UNL     1      92.527  86.375  18.023  1.00  0.00     0.006 C 
BRANCH   5   6
ATOM      6  C   UNL     1      92.388  87.651  17.180  1.00  0.00     0.053 C 
BRANCH   6   7
ATOM      7  C   UNL     1      91.343  87.508  16.117  1.00  0.00     0.041 C 
ATOM      8  O   UNL     1      90.547  88.455  15.881  1.00  0.00    -0.550 OA
ATOM      9  O   UNL     1      91.231  86.323  15.400  1.00  0.00    -0.550 OA
ENDBRANCH   6   7
ENDBRANCH   5   6
ENDBRANCH   4   5
ENDBRANCH   3   4
ENDBRANCH   2   3
ENDBRANCH   1   2
BRANCH   1  10
ATOM     10  C   UNL     1      89.786  82.020  18.854  1.00  0.00     0.000 C 
BRANCH  10  11
ATOM     11  C   UNL     1      88.765  80.879  18.726  1.00  0.00    -0.000 C 
BRANCH  11  12
ATOM     12  C   UNL     1      87.458  81.325  18.050  1.00  0.00    -0.000 C 
BRANCH  12  13
ATOM     13  C   UNL     1      86.540  82.114  18.996  1.00  0.00    -0.000 C 
BRANCH  13  14
ATOM     14  C   UNL     1      85.411  81.227  19.533  1.00  0.00    -0.000 C 
BRANCH  14  15
ATOM     15  C   UNL     1      84.231  81.181  18.551  1.00  0.00    -0.000 C 
BRANCH  15  16
ATOM     16  C   UNL     1      82.946  81.779  19.142  1.00  0.00    -0.003 C 
ATOM     17  C   UNL     1      82.879  83.299  18.996  1.00  0.00     0.004 C 
ENDBRANCH  15  16
ENDBRANCH  14  15
ENDBRANCH  13  14
ENDBRANCH  12  13
ENDBRANCH  11  12
ENDBRANCH  10  11
ENDBRANCH   1  10
TORSDOF 13
ENDMDL
