MODEL 1
REMARK VINA RESULT:    -2.537      0.000      0.000
REMARK INTER + INTRA:          -2.537
REMARK INTER:                  -2.537
REMARK INTRA:                   0.000
REMARK UNBOUND:                 0.000
REMARK SMILES CC(=O)[O-]
REMARK SMILES IDX 1 1 2 2 3 3 4 4
REMARK H PARENT
REMARK Flexibility Score: inf
ROOT
ATOM      1  C   UNL     1     -51.450  22.696 -39.950  1.00  0.00     0.063 C 
ATOM      2  C   UNL     1     -52.276  23.214 -38.822  1.00  0.00     0.038 C 
ATOM      3  O   UNL     1     -52.783  22.415 -37.991  1.00  0.00    -0.550 OA
ATOM      4  O   UNL     1     -52.443  24.583 -38.653  1.00  0.00    -0.550 OA
ENDROOT
TORSDOF 0
ENDMDL
MODEL 2
REMARK VINA RESULT:    -2.463     17.232     17.429
REMARK INTER + INTRA:          -2.463
REMARK INTER:                  -2.463
REMARK INTRA:                   0.000
REMARK UNBOUND:                 0.000
REMARK SMILES CC(=O)[O-]
REMARK SMILES IDX 1 1 2 2 3 3 4 4
REMARK H PARENT
REMARK Flexibility Score: inf
ROOT
ATOM      1  C   UNL     1     -40.071  19.142 -28.473  1.00  0.00     0.063 C 
ATOM      2  C   UNL     1     -38.742  18.655 -28.941  1.00  0.00     0.038 C 
ATOM      3  O   UNL     1     -37.802  18.494 -28.118  1.00  0.00    -0.550 OA
ATOM      4  O   UNL     1     -38.553  18.323 -30.276  1.00  0.00    -0.550 OA
ENDROOT
TORSDOF 0
ENDMDL
MODEL 3
REMARK VINA RESULT:    -2.448     16.651     16.765
REMARK INTER + INTRA:          -2.448
REMARK INTER:                  -2.448
REMARK INTRA:                   0.000
REMARK UNBOUND:                 0.000
REMARK SMILES CC(=O)[O-]
REMARK SMILES IDX 1 1 2 2 3 3 4 4
REMARK H PARENT
REMARK Flexibility Score: inf
ROOT
ATOM      1  C   UNL     1     -38.315  18.597 -28.455  1.00  0.00     0.063 C 
ATOM      2  C   UNL     1     -39.537  19.411 -28.711  1.00  0.00     0.038 C 
ATOM      3  O   UNL     1     -40.665  18.988 -28.347  1.00  0.00    -0.550 OA
ATOM      4  O   UNL     1     -39.427  20.663 -29.303  1.00  0.00    -0.550 OA
ENDROOT
TORSDOF 0
ENDMDL
MODEL 4
REMARK VINA RESULT:    -2.407      1.672      1.946
REMARK INTER + INTRA:          -2.407
REMARK INTER:                  -2.407
REMARK INTRA:                   0.000
REMARK UNBOUND:                 0.000
REMARK SMILES CC(=O)[O-]
REMARK SMILES IDX 1 1 2 2 3 3 4 4
REMARK H PARENT
REMARK Flexibility Score: inf
ROOT
ATOM      1  C   UNL     1     -52.251  23.588 -38.019  1.00  0.00     0.063 C 
ATOM      2  C   UNL     1     -52.218  22.649 -39.176  1.00  0.00     0.038 C 
ATOM      3  O   UNL     1     -53.162  21.835 -39.356  1.00  0.00    -0.550 OA
ATOM      4  O   UNL     1     -51.174  22.706 -40.090  1.00  0.00    -0.550 OA
ENDROOT
TORSDOF 0
ENDMDL
MODEL 5
REMARK VINA RESULT:    -2.396     16.881     17.076
REMARK INTER + INTRA:          -2.396
REMARK INTER:                  -2.396
REMARK INTRA:                   0.000
REMARK UNBOUND:                 0.000
REMARK SMILES CC(=O)[O-]
REMARK SMILES IDX 1 1 2 2 3 3 4 4
REMARK H PARENT
REMARK Flexibility Score: inf
ROOT
ATOM      1  C   UNL     1     -38.920  20.329 -29.532  1.00  0.00     0.063 C 
ATOM      2  C   UNL     1     -39.267  19.185 -28.642  1.00  0.00     0.038 C 
ATOM      3  O   UNL     1     -40.471  18.950 -28.355  1.00  0.00    -0.550 OA
ATOM      4  O   UNL     1     -38.269  18.341 -28.172  1.00  0.00    -0.550 OA
ENDROOT
TORSDOF 0
ENDMDL
MODEL 6
REMARK VINA RESULT:    -2.148     16.824     17.093
REMARK INTER + INTRA:          -2.148
REMARK INTER:                  -2.148
REMARK INTRA:                   0.000
REMARK UNBOUND:                 0.000
REMARK SMILES CC(=O)[O-]
REMARK SMILES IDX 1 1 2 2 3 3 4 4
REMARK H PARENT
REMARK Flexibility Score: inf
ROOT
ATOM      1  C   UNL     1     -37.927  19.355 -31.506  1.00  0.00     0.063 C 
ATOM      2  C   UNL     1     -38.006  17.917 -31.121  1.00  0.00     0.038 C 
ATOM      3  O   UNL     1     -37.503  17.525 -30.036  1.00  0.00    -0.550 OA
ATOM      4  O   UNL     1     -38.683  17.016 -31.933  1.00  0.00    -0.550 OA
ENDROOT
TORSDOF 0
ENDMDL
MODEL 7
REMARK VINA RESULT:    -2.089     17.260     17.780
REMARK INTER + INTRA:          -2.089
REMARK INTER:                  -2.089
REMARK INTRA:                   0.000
REMARK UNBOUND:                 0.000
REMARK SMILES CC(=O)[O-]
REMARK SMILES IDX 1 1 2 2 3 3 4 4
REMARK H PARENT
REMARK Flexibility Score: inf
ROOT
ATOM      1  C   UNL     1     -47.446   9.805 -29.615  1.00  0.00     0.063 C 
ATOM      2  C   UNL     1     -46.665   8.738 -30.304  1.00  0.00     0.038 C 
ATOM      3  O   UNL     1     -46.065   7.860 -29.630  1.00  0.00    -0.550 OA
ATOM      4  O   UNL     1     -46.644   8.677 -31.692  1.00  0.00    -0.550 OA
ENDROOT
TORSDOF 0
ENDMDL
MODEL 8
REMARK VINA RESULT:    -2.037     16.101     16.179
REMARK INTER + INTRA:          -2.037
REMARK INTER:                  -2.037
REMARK INTRA:                   0.000
REMARK UNBOUND:                 0.000
REMARK SMILES CC(=O)[O-]
REMARK SMILES IDX 1 1 2 2 3 3 4 4
REMARK H PARENT
REMARK Flexibility Score: inf
ROOT
ATOM      1  C   UNL     1     -39.193  19.819 -29.236  1.00  0.00     0.063 C 
ATOM      2  C   UNL     1     -39.277  21.289 -29.471  1.00  0.00     0.038 C 
ATOM      3  O   UNL     1     -38.293  22.028 -29.203  1.00  0.00    -0.550 OA
ATOM      4  O   UNL     1     -40.419  21.839 -30.038  1.00  0.00    -0.550 OA
ENDROOT
TORSDOF 0
ENDMDL
MODEL 9
REMARK VINA RESULT:    -2.023     17.234     17.730
REMARK INTER + INTRA:          -2.023
REMARK INTER:                  -2.023
REMARK INTRA:                   0.000
REMARK UNBOUND:                 0.000
REMARK SMILES CC(=O)[O-]
REMARK SMILES IDX 1 1 2 2 3 3 4 4
REMARK H PARENT
REMARK Flexibility Score: inf
ROOT
ATOM      1  C   UNL     1     -46.993   8.498 -31.680  1.00  0.00     0.063 C 
ATOM      2  C   UNL     1     -46.622   8.747 -30.258  1.00  0.00     0.038 C 
ATOM      3  O   UNL     1     -45.906   7.918 -29.638  1.00  0.00    -0.550 OA
ATOM      4  O   UNL     1     -47.017   9.922 -29.631  1.00  0.00    -0.550 OA
ENDROOT
TORSDOF 0
ENDMDL
