MODEL 1
REMARK VINA RESULT:    -6.478      0.000      0.000
REMARK INTER + INTRA:          -7.876
REMARK INTER:                  -7.614
REMARK INTRA:                  -0.262
REMARK UNBOUND:                -0.262
REMARK SMILES O=c1cc(-c2ccc(O)c(O)c2)oc2cc(O)cc(O)c12
REMARK SMILES IDX 4 1 3 2 2 3 1 4 21 5 19 6 18 7 16 8 15 9 14 10 13 11 5 12
REMARK SMILES IDX 6 13 7 14 8 15 12 16 10 17 9 18 11 20 20 22 17 24
REMARK H PARENT 9 19 11 21 20 23 17 25
REMARK Flexibility Score: inf
ROOT
ATOM      1  C   UNL     1      18.996  12.030 -14.632  1.00  0.00     0.138 A 
ATOM      2  C   UNL     1      19.262  10.716 -15.052  1.00  0.00     0.100 A 
ATOM      3  C   UNL     1      18.210   9.807 -15.169  1.00  0.00     0.197 A 
ATOM      4  O   UNL     1      18.459   8.630 -15.546  1.00  0.00    -0.289 OA
ATOM      5  C   UNL     1      16.897  10.218 -14.860  1.00  0.00     0.107 A 
ATOM      6  C   UNL     1      15.776   9.360 -14.952  1.00  0.00     0.134 A 
ATOM      7  C   UNL     1      14.501   9.845 -14.621  1.00  0.00     0.093 A 
ATOM      8  C   UNL     1      14.328  11.166 -14.200  1.00  0.00     0.123 A 
ATOM      9  C   UNL     1      15.434  12.018 -14.106  1.00  0.00     0.094 A 
ATOM     10  C   UNL     1      16.712  11.554 -14.433  1.00  0.00     0.146 A 
ATOM     11  O   UNL     1      17.747  12.384 -14.338  1.00  0.00    -0.456 OA
ENDROOT
BRANCH   1  12
ATOM     12  C   UNL     1      20.075  13.040 -14.488  1.00  0.00     0.021 A 
ATOM     13  C   UNL     1      20.128  14.126 -15.379  1.00  0.00     0.016 A 
ATOM     14  C   UNL     1      21.138  15.086 -15.271  1.00  0.00     0.051 A 
ATOM     15  C   UNL     1      22.117  14.971 -14.277  1.00  0.00     0.157 A 
ATOM     16  C   UNL     1      21.071  12.924 -13.500  1.00  0.00     0.062 A 
ATOM     17  C   UNL     1      22.085  13.887 -13.392  1.00  0.00     0.158 A 
BRANCH  15  18
ATOM     18  O   UNL     1      23.125  15.927 -14.165  1.00  0.00    -0.504 OA
ATOM     19  H   UNL     1      24.044  15.777 -14.564  1.00  0.00     0.293 HD
ENDBRANCH  15  18
BRANCH  17  20
ATOM     20  O   UNL     1      23.069  13.770 -12.411  1.00  0.00    -0.504 OA
ATOM     21  H   UNL     1      23.155  12.935 -11.843  1.00  0.00     0.293 HD
ENDBRANCH  17  20
ENDBRANCH   1  12
BRANCH   6  22
ATOM     22  O   UNL     1      15.917   8.036 -15.369  1.00  0.00    -0.507 OA
ATOM     23  H   UNL     1      16.557   7.398 -14.911  1.00  0.00     0.293 HD
ENDBRANCH   6  22
BRANCH   8  24
ATOM     24  O   UNL     1      13.052  11.622 -13.876  1.00  0.00    -0.508 OA
ATOM     25  H   UNL     1      12.910  12.356 -13.193  1.00  0.00     0.293 HD
ENDBRANCH   8  24
TORSDOF 5
ENDMDL
MODEL 2
REMARK VINA RESULT:    -4.719      1.665      6.983
REMARK INTER + INTRA:          -5.809
REMARK INTER:                  -5.509
REMARK INTRA:                  -0.299
REMARK UNBOUND:                -0.262
REMARK SMILES O=c1cc(-c2ccc(O)c(O)c2)oc2cc(O)cc(O)c12
REMARK SMILES IDX 4 1 3 2 2 3 1 4 21 5 19 6 18 7 16 8 15 9 14 10 13 11 5 12
REMARK SMILES IDX 6 13 7 14 8 15 12 16 10 17 9 18 11 20 20 22 17 24
REMARK H PARENT 9 19 11 21 20 23 17 25
REMARK Flexibility Score: inf
ROOT
ATOM      1  C   UNL     1      18.417  11.233 -15.248  1.00  0.00     0.138 A 
ATOM      2  C   UNL     1      19.594  10.622 -14.783  1.00  0.00     0.100 A 
ATOM      3  C   UNL     1      20.760  11.380 -14.664  1.00  0.00     0.197 A 
ATOM      4  O   UNL     1      21.810  10.822 -14.247  1.00  0.00    -0.289 OA
ATOM      5  C   UNL     1      20.741  12.745 -15.014  1.00  0.00     0.107 A 
ATOM      6  C   UNL     1      21.877  13.583 -14.922  1.00  0.00     0.134 A 
ATOM      7  C   UNL     1      21.778  14.932 -15.296  1.00  0.00     0.093 A 
ATOM      8  C   UNL     1      20.567  15.456 -15.759  1.00  0.00     0.123 A 
ATOM      9  C   UNL     1      19.441  14.631 -15.853  1.00  0.00     0.094 A 
ATOM     10  C   UNL     1      19.520  13.285 -15.484  1.00  0.00     0.146 A 
ATOM     11  O   UNL     1      18.435  12.522 -15.579  1.00  0.00    -0.456 OA
ENDROOT
BRANCH   1  12
ATOM     12  C   UNL     1      17.148  10.476 -15.396  1.00  0.00     0.021 A 
ATOM     13  C   UNL     1      17.184   9.152 -15.865  1.00  0.00     0.016 A 
ATOM     14  C   UNL     1      16.004   8.420 -16.021  1.00  0.00     0.051 A 
ATOM     15  C   UNL     1      14.768   9.004 -15.721  1.00  0.00     0.157 A 
ATOM     16  C   UNL     1      15.900  11.061 -15.108  1.00  0.00     0.062 A 
ATOM     17  C   UNL     1      14.715  10.326 -15.267  1.00  0.00     0.158 A 
BRANCH  15  18
ATOM     18  O   UNL     1      13.588   8.277 -15.874  1.00  0.00    -0.504 OA
ATOM     19  H   UNL     1      13.597   7.311 -16.181  1.00  0.00     0.293 HD
ENDBRANCH  15  18
BRANCH  17  20
ATOM     20  O   UNL     1      13.480  10.908 -14.979  1.00  0.00    -0.504 OA
ATOM     21  H   UNL     1      13.404  11.723 -14.381  1.00  0.00     0.293 HD
ENDBRANCH  17  20
ENDBRANCH   1  12
BRANCH   6  22
ATOM     22  O   UNL     1      23.098  13.089 -14.464  1.00  0.00    -0.507 OA
ATOM     23  H   UNL     1      23.330  13.071 -13.477  1.00  0.00     0.293 HD
ENDBRANCH   6  22
BRANCH   8  24
ATOM     24  O   UNL     1      20.496  16.798 -16.125  1.00  0.00    -0.508 OA
ATOM     25  H   UNL     1      19.908  17.454 -15.623  1.00  0.00     0.293 HD
ENDBRANCH   8  24
TORSDOF 5
ENDMDL
MODEL 3
REMARK VINA RESULT:    -4.302      1.729      6.759
REMARK INTER + INTRA:          -5.319
REMARK INTER:                  -5.024
REMARK INTRA:                  -0.295
REMARK UNBOUND:                -0.262
REMARK SMILES O=c1cc(-c2ccc(O)c(O)c2)oc2cc(O)cc(O)c12
REMARK SMILES IDX 4 1 3 2 2 3 1 4 21 5 19 6 18 7 16 8 15 9 14 10 13 11 5 12
REMARK SMILES IDX 6 13 7 14 8 15 12 16 10 17 9 18 11 20 20 22 17 24
REMARK H PARENT 9 19 11 21 20 23 17 25
REMARK Flexibility Score: inf
ROOT
ATOM      1  C   UNL     1      18.216  11.092 -14.513  1.00  0.00     0.138 A 
ATOM      2  C   UNL     1      18.829   9.983 -15.119  1.00  0.00     0.100 A 
ATOM      3  C   UNL     1      20.222   9.915 -15.178  1.00  0.00     0.197 A 
ATOM      4  O   UNL     1      20.762   8.916 -15.725  1.00  0.00    -0.289 OA
ATOM      5  C   UNL     1      20.992  10.961 -14.633  1.00  0.00     0.107 A 
ATOM      6  C   UNL     1      22.407  10.971 -14.651  1.00  0.00     0.134 A 
ATOM      7  C   UNL     1      23.102  12.054 -14.091  1.00  0.00     0.093 A 
ATOM      8  C   UNL     1      22.411  13.124 -13.517  1.00  0.00     0.123 A 
ATOM      9  C   UNL     1      21.012  13.120 -13.498  1.00  0.00     0.094 A 
ATOM     10  C   UNL     1      20.302  12.050 -14.049  1.00  0.00     0.146 A 
ATOM     11  O   UNL     1      18.973  12.068 -14.017  1.00  0.00    -0.456 OA
ENDROOT
BRANCH   1  12
ATOM     12  C   UNL     1      16.739  11.219 -14.423  1.00  0.00     0.021 A 
ATOM     13  C   UNL     1      16.179  12.175 -13.558  1.00  0.00     0.016 A 
ATOM     14  C   UNL     1      14.792  12.309 -13.448  1.00  0.00     0.051 A 
ATOM     15  C   UNL     1      13.943  11.483 -14.194  1.00  0.00     0.157 A 
ATOM     16  C   UNL     1      15.878  10.383 -15.160  1.00  0.00     0.062 A 
ATOM     17  C   UNL     1      14.486  10.517 -15.048  1.00  0.00     0.158 A 
BRANCH  15  18
ATOM     18  O   UNL     1      12.559  11.615 -14.089  1.00  0.00    -0.504 OA
ATOM     19  H   UNL     1      12.130  12.084 -13.300  1.00  0.00     0.293 HD
ENDBRANCH  15  18
BRANCH  17  20
ATOM     20  O   UNL     1      13.636   9.689 -15.781  1.00  0.00    -0.504 OA
ATOM     21  H   UNL     1      12.947   9.101 -15.326  1.00  0.00     0.293 HD
ENDBRANCH  17  20
ENDBRANCH   1  12
BRANCH   6  22
ATOM     22  O   UNL     1      23.125   9.917 -15.216  1.00  0.00    -0.507 OA
ATOM     23  H   UNL     1      23.757  10.060 -15.995  1.00  0.00     0.293 HD
ENDBRANCH   6  22
BRANCH   8  24
ATOM     24  O   UNL     1      23.125  14.188 -12.969  1.00  0.00    -0.508 OA
ATOM     25  H   UNL     1      22.912  14.549 -12.047  1.00  0.00     0.293 HD
ENDBRANCH   8  24
TORSDOF 5
ENDMDL
MODEL 4
REMARK VINA RESULT:    -4.287      1.660      7.164
REMARK INTER + INTRA:          -5.301
REMARK INTER:                  -4.984
REMARK INTRA:                  -0.317
REMARK UNBOUND:                -0.262
REMARK SMILES O=c1cc(-c2ccc(O)c(O)c2)oc2cc(O)cc(O)c12
REMARK SMILES IDX 4 1 3 2 2 3 1 4 21 5 19 6 18 7 16 8 15 9 14 10 13 11 5 12
REMARK SMILES IDX 6 13 7 14 8 15 12 16 10 17 9 18 11 20 20 22 17 24
REMARK H PARENT 9 19 11 21 20 23 17 25
REMARK Flexibility Score: inf
ROOT
ATOM      1  C   UNL     1      17.749  12.079 -14.989  1.00  0.00     0.138 A 
ATOM      2  C   UNL     1      17.716  13.319 -15.649  1.00  0.00     0.100 A 
ATOM      3  C   UNL     1      18.800  14.189 -15.530  1.00  0.00     0.197 A 
ATOM      4  O   UNL     1      18.761  15.300 -16.125  1.00  0.00    -0.289 OA
ATOM      5  C   UNL     1      19.910  13.814 -14.747  1.00  0.00     0.107 A 
ATOM      6  C   UNL     1      21.049  14.635 -14.574  1.00  0.00     0.134 A 
ATOM      7  C   UNL     1      22.112  14.191 -13.773  1.00  0.00     0.093 A 
ATOM      8  C   UNL     1      22.057  12.945 -13.142  1.00  0.00     0.123 A 
ATOM      9  C   UNL     1      20.932  12.129 -13.309  1.00  0.00     0.094 A 
ATOM     10  C   UNL     1      19.864  12.554 -14.104  1.00  0.00     0.146 A 
ATOM     11  O   UNL     1      18.808  11.759 -14.250  1.00  0.00    -0.456 OA
ENDROOT
BRANCH   1  12
ATOM     12  C   UNL     1      16.623  11.114 -15.079  1.00  0.00     0.021 A 
ATOM     13  C   UNL     1      15.576  11.357 -15.984  1.00  0.00     0.016 A 
ATOM     14  C   UNL     1      14.501  10.469 -16.083  1.00  0.00     0.051 A 
ATOM     15  C   UNL     1      14.452   9.329 -15.272  1.00  0.00     0.157 A 
ATOM     16  C   UNL     1      16.560   9.972 -14.258  1.00  0.00     0.062 A 
ATOM     17  C   UNL     1      15.481   9.082 -14.356  1.00  0.00     0.158 A 
BRANCH  15  18
ATOM     18  O   UNL     1      13.383   8.439 -15.369  1.00  0.00    -0.504 OA
ATOM     19  H   UNL     1      12.894   8.108 -14.546  1.00  0.00     0.293 HD
ENDBRANCH  15  18
BRANCH  17  20
ATOM     20  O   UNL     1      15.422   7.951 -13.542  1.00  0.00    -0.504 OA
ATOM     21  H   UNL     1      14.575   7.698 -13.047  1.00  0.00     0.293 HD
ENDBRANCH  17  20
ENDBRANCH   1  12
BRANCH   6  22
ATOM     22  O   UNL     1      21.133  15.884 -15.190  1.00  0.00    -0.507 OA
ATOM     23  H   UNL     1      21.902  16.519 -15.006  1.00  0.00     0.293 HD
ENDBRANCH   6  22
BRANCH   8  24
ATOM     24  O   UNL     1      23.125  12.528 -12.351  1.00  0.00    -0.508 OA
ATOM     25  H   UNL     1      23.458  13.086 -11.574  1.00  0.00     0.293 HD
ENDBRANCH   8  24
TORSDOF 5
ENDMDL
MODEL 5
REMARK VINA RESULT:    -4.092      1.954      2.889
REMARK INTER + INTRA:          -5.072
REMARK INTER:                  -4.761
REMARK INTRA:                  -0.311
REMARK UNBOUND:                -0.262
REMARK SMILES O=c1cc(-c2ccc(O)c(O)c2)oc2cc(O)cc(O)c12
REMARK SMILES IDX 4 1 3 2 2 3 1 4 21 5 19 6 18 7 16 8 15 9 14 10 13 11 5 12
REMARK SMILES IDX 6 13 7 14 8 15 12 16 10 17 9 18 11 20 20 22 17 24
REMARK H PARENT 9 19 11 21 20 23 17 25
REMARK Flexibility Score: inf
ROOT
ATOM      1  C   UNL     1      20.083  13.543 -15.119  1.00  0.00     0.138 A 
ATOM      2  C   UNL     1      20.641  12.458 -14.423  1.00  0.00     0.100 A 
ATOM      3  C   UNL     1      19.867  11.320 -14.193  1.00  0.00     0.197 A 
ATOM      4  O   UNL     1      20.377  10.352 -13.566  1.00  0.00    -0.289 OA
ATOM      5  C   UNL     1      18.538  11.276 -14.659  1.00  0.00     0.107 A 
ATOM      6  C   UNL     1      17.687  10.162 -14.468  1.00  0.00     0.134 A 
ATOM      7  C   UNL     1      16.373  10.199 -14.958  1.00  0.00     0.093 A 
ATOM      8  C   UNL     1      15.895  11.326 -15.632  1.00  0.00     0.123 A 
ATOM      9  C   UNL     1      16.732  12.432 -15.822  1.00  0.00     0.094 A 
ATOM     10  C   UNL     1      18.045  12.413 -15.342  1.00  0.00     0.146 A 
ATOM     11  O   UNL     1      18.821  13.474 -15.537  1.00  0.00    -0.456 OA
ENDROOT
BRANCH   1  12
ATOM     12  C   UNL     1      20.858  14.781 -15.392  1.00  0.00     0.021 A 
ATOM     13  C   UNL     1      22.263  14.729 -15.396  1.00  0.00     0.016 A 
ATOM     14  C   UNL     1      23.016  15.880 -15.643  1.00  0.00     0.051 A 
ATOM     15  C   UNL     1      22.377  17.104 -15.878  1.00  0.00     0.157 A 
ATOM     16  C   UNL     1      20.223  16.017 -15.616  1.00  0.00     0.062 A 
ATOM     17  C   UNL     1      20.980  17.173 -15.861  1.00  0.00     0.158 A 
BRANCH  15  18
ATOM     18  O   UNL     1      23.125  18.254 -16.125  1.00  0.00    -0.504 OA
ATOM     19  H   UNL     1      23.937  18.238 -16.731  1.00  0.00     0.293 HD
ENDBRANCH  15  18
BRANCH  17  20
ATOM     20  O   UNL     1      20.348  18.396 -16.085  1.00  0.00    -0.504 OA
ATOM     21  H   UNL     1      20.876  19.235 -16.298  1.00  0.00     0.293 HD
ENDBRANCH  17  20
ENDBRANCH   1  12
BRANCH   6  22
ATOM     22  O   UNL     1      18.135   9.022 -13.800  1.00  0.00    -0.507 OA
ATOM     23  H   UNL     1      18.737   9.083 -12.987  1.00  0.00     0.293 HD
ENDBRANCH   6  22
BRANCH   8  24
ATOM     24  O   UNL     1      14.585  11.338 -16.108  1.00  0.00    -0.508 OA
ATOM     25  H   UNL     1      13.831  11.749 -15.571  1.00  0.00     0.293 HD
ENDBRANCH   8  24
TORSDOF 5
ENDMDL
MODEL 6
REMARK VINA RESULT:    -3.622      2.273      7.026
REMARK INTER + INTRA:          -4.520
REMARK INTER:                  -4.236
REMARK INTRA:                  -0.283
REMARK UNBOUND:                -0.262
REMARK SMILES O=c1cc(-c2ccc(O)c(O)c2)oc2cc(O)cc(O)c12
REMARK SMILES IDX 4 1 3 2 2 3 1 4 21 5 19 6 18 7 16 8 15 9 14 10 13 11 5 12
REMARK SMILES IDX 6 13 7 14 8 15 12 16 10 17 9 18 11 20 20 22 17 24
REMARK H PARENT 9 19 11 21 20 23 17 25
REMARK Flexibility Score: inf
ROOT
ATOM      1  C   UNL     1      18.299  11.931 -15.100  1.00  0.00     0.138 A 
ATOM      2  C   UNL     1      18.919  13.187 -15.204  1.00  0.00     0.100 A 
ATOM      3  C   UNL     1      20.284  13.258 -15.487  1.00  0.00     0.197 A 
ATOM      4  O   UNL     1      20.831  14.390 -15.578  1.00  0.00    -0.289 OA
ATOM      5  C   UNL     1      21.021  12.069 -15.660  1.00  0.00     0.107 A 
ATOM      6  C   UNL     1      22.406  12.052 -15.949  1.00  0.00     0.134 A 
ATOM      7  C   UNL     1      23.069  10.825 -16.101  1.00  0.00     0.093 A 
ATOM      8  C   UNL     1      22.375   9.619 -15.970  1.00  0.00     0.123 A 
ATOM      9  C   UNL     1      21.006   9.630 -15.683  1.00  0.00     0.094 A 
ATOM     10  C   UNL     1      20.327  10.843 -15.529  1.00  0.00     0.146 A 
ATOM     11  O   UNL     1      19.025  10.827 -15.259  1.00  0.00    -0.456 OA
ENDROOT
BRANCH   1  12
ATOM     12  C   UNL     1      16.851  11.795 -14.800  1.00  0.00     0.021 A 
ATOM     13  C   UNL     1      16.322  12.410 -13.652  1.00  0.00     0.016 A 
ATOM     14  C   UNL     1      14.965  12.291 -13.342  1.00  0.00     0.051 A 
ATOM     15  C   UNL     1      14.116  11.547 -14.170  1.00  0.00     0.157 A 
ATOM     16  C   UNL     1      15.993  11.037 -15.620  1.00  0.00     0.062 A 
ATOM     17  C   UNL     1      14.631  10.917 -15.308  1.00  0.00     0.158 A 
BRANCH  15  18
ATOM     18  O   UNL     1      12.760  11.427 -13.866  1.00  0.00    -0.504 OA
ATOM     19  H   UNL     1      12.384  11.760 -12.986  1.00  0.00     0.293 HD
ENDBRANCH  15  18
BRANCH  17  20
ATOM     20  O   UNL     1      13.783  10.167 -16.124  1.00  0.00    -0.504 OA
ATOM     21  H   UNL     1      14.137   9.423 -16.714  1.00  0.00     0.293 HD
ENDBRANCH  17  20
ENDBRANCH   1  12
BRANCH   6  22
ATOM     22  O   UNL     1      23.125  13.240 -16.086  1.00  0.00    -0.507 OA
ATOM     23  H   UNL     1      23.784  13.380 -16.843  1.00  0.00     0.293 HD
ENDBRANCH   6  22
BRANCH   8  24
ATOM     24  O   UNL     1      23.058   8.414 -16.125  1.00  0.00    -0.508 OA
ATOM     25  H   UNL     1      24.060   8.388 -16.268  1.00  0.00     0.293 HD
ENDBRANCH   8  24
TORSDOF 5
ENDMDL
MODEL 7
REMARK VINA RESULT:    -3.596      2.391      4.090
REMARK INTER + INTRA:          -4.489
REMARK INTER:                  -4.196
REMARK INTRA:                  -0.293
REMARK UNBOUND:                -0.262
REMARK SMILES O=c1cc(-c2ccc(O)c(O)c2)oc2cc(O)cc(O)c12
REMARK SMILES IDX 4 1 3 2 2 3 1 4 21 5 19 6 18 7 16 8 15 9 14 10 13 11 5 12
REMARK SMILES IDX 6 13 7 14 8 15 12 16 10 17 9 18 11 20 20 22 17 24
REMARK H PARENT 9 19 11 21 20 23 17 25
REMARK Flexibility Score: inf
ROOT
ATOM      1  C   UNL     1      19.783  14.056 -15.535  1.00  0.00     0.138 A 
ATOM      2  C   UNL     1      18.402  14.152 -15.775  1.00  0.00     0.100 A 
ATOM      3  C   UNL     1      17.644  12.986 -15.897  1.00  0.00     0.197 A 
ATOM      4  O   UNL     1      16.406  13.082 -16.113  1.00  0.00    -0.289 OA
ATOM      5  C   UNL     1      18.275  11.731 -15.781  1.00  0.00     0.107 A 
ATOM      6  C   UNL     1      17.581  10.503 -15.891  1.00  0.00     0.134 A 
ATOM      7  C   UNL     1      18.283   9.295 -15.769  1.00  0.00     0.093 A 
ATOM      8  C   UNL     1      19.662   9.291 -15.541  1.00  0.00     0.123 A 
ATOM      9  C   UNL     1      20.353  10.503 -15.433  1.00  0.00     0.094 A 
ATOM     10  C   UNL     1      19.671  11.717 -15.550  1.00  0.00     0.146 A 
ATOM     11  O   UNL     1      20.350  12.856 -15.440  1.00  0.00    -0.456 OA
ENDROOT
BRANCH   1  12
ATOM     12  C   UNL     1      20.639  15.262 -15.398  1.00  0.00     0.021 A 
ATOM     13  C   UNL     1      21.902  15.147 -14.792  1.00  0.00     0.016 A 
ATOM     14  C   UNL     1      22.725  16.267 -14.643  1.00  0.00     0.051 A 
ATOM     15  C   UNL     1      22.294  17.522 -15.089  1.00  0.00     0.157 A 
ATOM     16  C   UNL     1      20.208  16.530 -15.832  1.00  0.00     0.062 A 
ATOM     17  C   UNL     1      21.033  17.654 -15.681  1.00  0.00     0.158 A 
BRANCH  15  18
ATOM     18  O   UNL     1      23.112  18.642 -14.944  1.00  0.00    -0.504 OA
ATOM     19  H   UNL     1      24.107  18.552 -14.776  1.00  0.00     0.293 HD
ENDBRANCH  15  18
BRANCH  17  20
ATOM     20  O   UNL     1      20.602  18.909 -16.113  1.00  0.00    -0.504 OA
ATOM     21  H   UNL     1      21.062  19.760 -15.811  1.00  0.00     0.293 HD
ENDBRANCH  17  20
ENDBRANCH   1  12
BRANCH   6  22
ATOM     22  O   UNL     1      16.205  10.474 -16.118  1.00  0.00    -0.507 OA
ATOM     23  H   UNL     1      15.732  11.214 -16.624  1.00  0.00     0.293 HD
ENDBRANCH   6  22
BRANCH   8  24
ATOM     24  O   UNL     1      20.336   8.077 -15.425  1.00  0.00    -0.508 OA
ATOM     25  H   UNL     1      21.187   7.892 -15.943  1.00  0.00     0.293 HD
ENDBRANCH   8  24
TORSDOF 5
ENDMDL
