MODEL 1
REMARK VINA RESULT:    -4.566      0.000      0.000
REMARK INTER + INTRA:          -7.510
REMARK INTER:                  -6.969
REMARK INTRA:                  -0.542
REMARK UNBOUND:                -0.542
REMARK SMILES CCCCCCCCCCC(=O)[O-]
REMARK SMILES IDX 7 1 8 2 9 3 10 4 11 5 12 6 13 7 6 8 5 9 4 10 3 11 2 12 1 13
REMARK H PARENT
REMARK Flexibility Score: inf
ROOT
ATOM      1  C   UNL     1       4.674 -13.422   1.321  1.00  0.00     0.000 C 
ENDROOT
BRANCH   1   2
ATOM      2  C   UNL     1       5.208 -12.188   0.578  1.00  0.00     0.000 C 
BRANCH   2   3
ATOM      3  C   UNL     1       6.618 -12.405   0.007  1.00  0.00     0.006 C 
BRANCH   3   4
ATOM      4  C   UNL     1       7.587 -13.001   1.037  1.00  0.00     0.053 C 
BRANCH   4   5
ATOM      5  C   UNL     1       8.269 -14.207   0.473  1.00  0.00     0.041 C 
ATOM      6  O   UNL     1       9.518 -14.213   0.313  1.00  0.00    -0.550 OA
ATOM      7  O   UNL     1       7.520 -15.308   0.079  1.00  0.00    -0.550 OA
ENDBRANCH   4   5
ENDBRANCH   3   4
ENDBRANCH   2   3
ENDBRANCH   1   2
BRANCH   1   8
ATOM      8  C   UNL     1       4.119 -13.037   2.698  1.00  0.00     0.000 C 
BRANCH   8   9
ATOM      9  C   UNL     1       5.072 -13.479   3.819  1.00  0.00    -0.000 C 
BRANCH   9  10
ATOM     10  C   UNL     1       4.337 -13.796   5.130  1.00  0.00    -0.000 C 
BRANCH  10  11
ATOM     11  C   UNL     1       5.204 -13.531   6.373  1.00  0.00    -0.000 C 
BRANCH  11  12
ATOM     12  C   UNL     1       5.354 -12.033   6.677  1.00  0.00    -0.003 C 
ATOM     13  C   UNL     1       6.594 -11.723   7.515  1.00  0.00     0.004 C 
ENDBRANCH  11  12
ENDBRANCH  10  11
ENDBRANCH   9  10
ENDBRANCH   8   9
ENDBRANCH   1   8
TORSDOF 9
ENDMDL
MODEL 2
REMARK VINA RESULT:    -4.439      3.572      6.205
REMARK INTER + INTRA:          -7.317
REMARK INTER:                  -6.738
REMARK INTRA:                  -0.579
REMARK UNBOUND:                -0.542
REMARK SMILES CCCCCCCCCCC(=O)[O-]
REMARK SMILES IDX 7 1 8 2 9 3 10 4 11 5 12 6 13 7 6 8 5 9 4 10 3 11 2 12 1 13
REMARK H PARENT
REMARK Flexibility Score: inf
ROOT
ATOM      1  C   UNL     1       3.545 -13.671   4.318  1.00  0.00     0.000 C 
ENDROOT
BRANCH   1   2
ATOM      2  C   UNL     1       4.974 -13.686   4.883  1.00  0.00     0.000 C 
BRANCH   2   3
ATOM      3  C   UNL     1       5.011 -13.477   6.405  1.00  0.00     0.006 C 
BRANCH   3   4
ATOM      4  C   UNL     1       5.811 -12.232   6.812  1.00  0.00     0.053 C 
BRANCH   4   5
ATOM      5  C   UNL     1       4.904 -11.051   6.947  1.00  0.00     0.041 C 
ATOM      6  O   UNL     1       3.663 -11.216   7.079  1.00  0.00    -0.550 OA
ATOM      7  O   UNL     1       5.424  -9.764   6.878  1.00  0.00    -0.550 OA
ENDBRANCH   4   5
ENDBRANCH   3   4
ENDBRANCH   2   3
ENDBRANCH   1   2
BRANCH   1   8
ATOM      8  C   UNL     1       3.550 -13.334   2.822  1.00  0.00     0.000 C 
BRANCH   8   9
ATOM      9  C   UNL     1       4.977 -13.072   2.320  1.00  0.00    -0.000 C 
BRANCH   9  10
ATOM     10  C   UNL     1       5.018 -12.646   0.844  1.00  0.00    -0.000 C 
BRANCH  10  11
ATOM     11  C   UNL     1       6.450 -12.596   0.283  1.00  0.00    -0.000 C 
BRANCH  11  12
ATOM     12  C   UNL     1       7.492 -13.122   1.281  1.00  0.00    -0.003 C 
ATOM     13  C   UNL     1       8.654 -13.841   0.595  1.00  0.00     0.004 C 
ENDBRANCH  11  12
ENDBRANCH  10  11
ENDBRANCH   9  10
ENDBRANCH   8   9
ENDBRANCH   1   8
TORSDOF 9
ENDMDL
MODEL 3
REMARK VINA RESULT:    -4.382      3.338      6.004
REMARK INTER + INTRA:          -7.230
REMARK INTER:                  -6.636
REMARK INTRA:                  -0.594
REMARK UNBOUND:                -0.542
REMARK SMILES CCCCCCCCCCC(=O)[O-]
REMARK SMILES IDX 7 1 8 2 9 3 10 4 11 5 12 6 13 7 6 8 5 9 4 10 3 11 2 12 1 13
REMARK H PARENT
REMARK Flexibility Score: inf
ROOT
ATOM      1  C   UNL     1       4.511 -13.069   2.943  1.00  0.00     0.000 C 
ENDROOT
BRANCH   1   2
ATOM      2  C   UNL     1       4.608 -14.002   4.160  1.00  0.00     0.000 C 
BRANCH   2   3
ATOM      3  C   UNL     1       4.274 -13.290   5.480  1.00  0.00     0.006 C 
BRANCH   3   4
ATOM      4  C   UNL     1       5.428 -13.343   6.490  1.00  0.00     0.053 C 
BRANCH   4   5
ATOM      5  C   UNL     1       5.690 -11.983   7.054  1.00  0.00     0.041 C 
ATOM      6  O   UNL     1       6.845 -11.670   7.444  1.00  0.00    -0.550 OA
ATOM      7  O   UNL     1       4.646 -11.077   7.196  1.00  0.00    -0.550 OA
ENDBRANCH   4   5
ENDBRANCH   3   4
ENDBRANCH   2   3
ENDBRANCH   1   2
BRANCH   1   8
ATOM      8  C   UNL     1       3.780 -13.755   1.782  1.00  0.00     0.000 C 
BRANCH   8   9
ATOM      9  C   UNL     1       4.458 -13.440   0.441  1.00  0.00    -0.000 C 
BRANCH   9  10
ATOM     10  C   UNL     1       5.295 -12.152   0.489  1.00  0.00    -0.000 C 
BRANCH  10  11
ATOM     11  C   UNL     1       6.693 -12.331  -0.129  1.00  0.00    -0.000 C 
BRANCH  11  12
ATOM     12  C   UNL     1       7.722 -12.850   0.887  1.00  0.00    -0.003 C 
ATOM     13  C   UNL     1       8.291 -14.216   0.505  1.00  0.00     0.004 C 
ENDBRANCH  11  12
ENDBRANCH  10  11
ENDBRANCH   9  10
ENDBRANCH   8   9
ENDBRANCH   1   8
TORSDOF 9
ENDMDL
MODEL 4
REMARK VINA RESULT:    -4.341      6.129      7.929
REMARK INTER + INTRA:          -7.167
REMARK INTER:                  -6.581
REMARK INTRA:                  -0.585
REMARK UNBOUND:                -0.542
REMARK SMILES CCCCCCCCCCC(=O)[O-]
REMARK SMILES IDX 7 1 8 2 9 3 10 4 11 5 12 6 13 7 6 8 5 9 4 10 3 11 2 12 1 13
REMARK H PARENT
REMARK Flexibility Score: inf
ROOT
ATOM      1  C   UNL     1       3.288  -9.651   6.546  1.00  0.00     0.000 C 
ENDROOT
BRANCH   1   2
ATOM      2  C   UNL     1       4.398  -8.790   5.924  1.00  0.00     0.000 C 
BRANCH   2   3
ATOM      3  C   UNL     1       3.934  -7.357   5.618  1.00  0.00     0.006 C 
BRANCH   3   4
ATOM      4  C   UNL     1       2.804  -6.891   6.546  1.00  0.00     0.053 C 
BRANCH   4   5
ATOM      5  C   UNL     1       3.106  -5.533   7.094  1.00  0.00     0.041 C 
ATOM      6  O   UNL     1       3.951  -5.396   8.018  1.00  0.00    -0.550 OA
ATOM      7  O   UNL     1       2.418  -4.423   6.620  1.00  0.00    -0.550 OA
ENDBRANCH   4   5
ENDBRANCH   3   4
ENDBRANCH   2   3
ENDBRANCH   1   2
BRANCH   1   8
ATOM      8  C   UNL     1       3.821 -11.037   6.932  1.00  0.00     0.000 C 
BRANCH   8   9
ATOM      9  C   UNL     1       5.354 -11.032   7.025  1.00  0.00    -0.000 C 
BRANCH   9  10
ATOM     10  C   UNL     1       5.970 -12.408   6.724  1.00  0.00    -0.000 C 
BRANCH  10  11
ATOM     11  C   UNL     1       4.906 -13.485   6.448  1.00  0.00    -0.000 C 
BRANCH  11  12
ATOM     12  C   UNL     1       4.867 -13.909   4.972  1.00  0.00    -0.003 C 
ATOM     13  C   UNL     1       3.443 -14.072   4.443  1.00  0.00     0.004 C 
ENDBRANCH  11  12
ENDBRANCH  10  11
ENDBRANCH   9  10
ENDBRANCH   8   9
ENDBRANCH   1   8
TORSDOF 9
ENDMDL
MODEL 5
REMARK VINA RESULT:    -4.333      3.785      6.386
REMARK INTER + INTRA:          -7.154
REMARK INTER:                  -6.621
REMARK INTRA:                  -0.534
REMARK UNBOUND:                -0.542
REMARK SMILES CCCCCCCCCCC(=O)[O-]
REMARK SMILES IDX 7 1 8 2 9 3 10 4 11 5 12 6 13 7 6 8 5 9 4 10 3 11 2 12 1 13
REMARK H PARENT
REMARK Flexibility Score: inf
ROOT
ATOM      1  C   UNL     1       4.863 -13.781   5.717  1.00  0.00     0.000 C 
ENDROOT
BRANCH   1   2
ATOM      2  C   UNL     1       5.389 -12.337   5.742  1.00  0.00     0.000 C 
BRANCH   2   3
ATOM      3  C   UNL     1       5.040 -11.603   7.046  1.00  0.00     0.006 C 
BRANCH   3   4
ATOM      4  C   UNL     1       3.906 -10.584   6.865  1.00  0.00     0.053 C 
BRANCH   4   5
ATOM      5  C   UNL     1       4.421  -9.342   6.210  1.00  0.00     0.041 C 
ATOM      6  O   UNL     1       5.359  -8.688   6.738  1.00  0.00    -0.550 OA
ATOM      7  O   UNL     1       3.832  -8.878   5.041  1.00  0.00    -0.550 OA
ENDBRANCH   4   5
ENDBRANCH   3   4
ENDBRANCH   2   3
ENDBRANCH   1   2
BRANCH   1   8
ATOM      8  C   UNL     1       4.267 -14.124   4.346  1.00  0.00     0.000 C 
BRANCH   8   9
ATOM      9  C   UNL     1       4.485 -12.977   3.348  1.00  0.00    -0.000 C 
BRANCH   9  10
ATOM     10  C   UNL     1       5.443 -13.359   2.208  1.00  0.00    -0.000 C 
BRANCH  10  11
ATOM     11  C   UNL     1       5.277 -12.459   0.970  1.00  0.00    -0.000 C 
BRANCH  11  12
ATOM     12  C   UNL     1       6.528 -12.449   0.079  1.00  0.00    -0.003 C 
ATOM     13  C   UNL     1       7.780 -12.925   0.815  1.00  0.00     0.004 C 
ENDBRANCH  11  12
ENDBRANCH  10  11
ENDBRANCH   9  10
ENDBRANCH   8   9
ENDBRANCH   1   8
TORSDOF 9
ENDMDL
MODEL 6
REMARK VINA RESULT:    -4.324      5.039      7.091
REMARK INTER + INTRA:          -7.141
REMARK INTER:                  -6.069
REMARK INTRA:                  -1.072
REMARK UNBOUND:                -0.542
REMARK SMILES CCCCCCCCCCC(=O)[O-]
REMARK SMILES IDX 7 1 8 2 9 3 10 4 11 5 12 6 13 7 6 8 5 9 4 10 3 11 2 12 1 13
REMARK H PARENT
REMARK Flexibility Score: inf
ROOT
ATOM      1  C   UNL     1       5.357 -11.283   7.284  1.00  0.00     0.000 C 
ENDROOT
BRANCH   1   2
ATOM      2  C   UNL     1       3.980 -10.713   6.906  1.00  0.00     0.000 C 
BRANCH   2   3
ATOM      3  C   UNL     1       4.063  -9.655   5.795  1.00  0.00     0.006 C 
BRANCH   3   4
ATOM      4  C   UNL     1       4.597  -8.308   6.299  1.00  0.00     0.053 C 
BRANCH   4   5
ATOM      5  C   UNL     1       3.464  -7.389   6.630  1.00  0.00     0.041 C 
ATOM      6  O   UNL     1       2.302  -7.637   6.212  1.00  0.00    -0.550 OA
ATOM      7  O   UNL     1       3.699  -6.231   7.360  1.00  0.00    -0.550 OA
ENDBRANCH   4   5
ENDBRANCH   3   4
ENDBRANCH   2   3
ENDBRANCH   1   2
BRANCH   1   8
ATOM      8  C   UNL     1       5.844 -12.285   6.230  1.00  0.00     0.000 C 
BRANCH   8   9
ATOM      9  C   UNL     1       5.065 -13.606   6.324  1.00  0.00    -0.000 C 
BRANCH   9  10
ATOM     10  C   UNL     1       4.399 -13.997   4.996  1.00  0.00    -0.000 C 
BRANCH  10  11
ATOM     11  C   UNL     1       4.819 -13.082   3.832  1.00  0.00    -0.000 C 
BRANCH  11  12
ATOM     12  C   UNL     1       3.615 -12.456   3.112  1.00  0.00    -0.003 C 
ATOM     13  C   UNL     1       2.380 -12.357   4.006  1.00  0.00     0.004 C 
ENDBRANCH  11  12
ENDBRANCH  10  11
ENDBRANCH   9  10
ENDBRANCH   8   9
ENDBRANCH   1   8
TORSDOF 9
ENDMDL
MODEL 7
REMARK VINA RESULT:    -4.247      1.602      2.361
REMARK INTER + INTRA:          -7.023
REMARK INTER:                  -6.211
REMARK INTRA:                  -0.812
REMARK UNBOUND:                -0.542
REMARK SMILES CCCCCCCCCCC(=O)[O-]
REMARK SMILES IDX 7 1 8 2 9 3 10 4 11 5 12 6 13 7 6 8 5 9 4 10 3 11 2 12 1 13
REMARK H PARENT
REMARK Flexibility Score: inf
ROOT
ATOM      1  C   UNL     1       2.969 -13.271   2.994  1.00  0.00     0.000 C 
ENDROOT
BRANCH   1   2
ATOM      2  C   UNL     1       3.729 -11.942   2.861  1.00  0.00     0.000 C 
BRANCH   2   3
ATOM      3  C   UNL     1       3.966 -11.541   1.397  1.00  0.00     0.006 C 
BRANCH   3   4
ATOM      4  C   UNL     1       4.498 -12.700   0.544  1.00  0.00     0.053 C 
BRANCH   4   5
ATOM      5  C   UNL     1       5.989 -12.772   0.633  1.00  0.00     0.041 C 
ATOM      6  O   UNL     1       6.539 -13.549   1.458  1.00  0.00    -0.550 OA
ATOM      7  O   UNL     1       6.773 -11.943  -0.160  1.00  0.00    -0.550 OA
ENDBRANCH   4   5
ENDBRANCH   3   4
ENDBRANCH   2   3
ENDBRANCH   1   2
BRANCH   1   8
ATOM      8  C   UNL     1       3.592 -14.153   4.083  1.00  0.00     0.000 C 
BRANCH   8   9
ATOM      9  C   UNL     1       4.924 -13.566   4.573  1.00  0.00    -0.000 C 
BRANCH   9  10
ATOM     10  C   UNL     1       4.953 -13.353   6.095  1.00  0.00    -0.000 C 
BRANCH  10  11
ATOM     11  C   UNL     1       4.381 -11.987   6.512  1.00  0.00    -0.000 C 
BRANCH  11  12
ATOM     12  C   UNL     1       5.409 -11.120   7.253  1.00  0.00    -0.003 C 
ATOM     13  C   UNL     1       6.729 -11.850   7.497  1.00  0.00     0.004 C 
ENDBRANCH  11  12
ENDBRANCH  10  11
ENDBRANCH   9  10
ENDBRANCH   8   9
ENDBRANCH   1   8
TORSDOF 9
ENDMDL
MODEL 8
REMARK VINA RESULT:    -4.228      2.870      4.438
REMARK INTER + INTRA:          -6.995
REMARK INTER:                  -5.914
REMARK INTRA:                  -1.080
REMARK UNBOUND:                -0.542
REMARK SMILES CCCCCCCCCCC(=O)[O-]
REMARK SMILES IDX 7 1 8 2 9 3 10 4 11 5 12 6 13 7 6 8 5 9 4 10 3 11 2 12 1 13
REMARK H PARENT
REMARK Flexibility Score: inf
ROOT
ATOM      1  C   UNL     1       5.020 -13.898   5.037  1.00  0.00     0.000 C 
ENDROOT
BRANCH   1   2
ATOM      2  C   UNL     1       3.665 -14.146   4.356  1.00  0.00     0.000 C 
BRANCH   2   3
ATOM      3  C   UNL     1       2.835 -12.862   4.205  1.00  0.00     0.006 C 
BRANCH   3   4
ATOM      4  C   UNL     1       3.545 -11.794   3.362  1.00  0.00     0.053 C 
BRANCH   4   5
ATOM      5  C   UNL     1       3.744 -12.282   1.963  1.00  0.00     0.041 C 
ATOM      6  O   UNL     1       2.751 -12.523   1.227  1.00  0.00    -0.550 OA
ATOM      7  O   UNL     1       5.028 -12.518   1.486  1.00  0.00    -0.550 OA
ENDBRANCH   4   5
ENDBRANCH   3   4
ENDBRANCH   2   3
ENDBRANCH   1   2
BRANCH   1   8
ATOM      8  C   UNL     1       4.829 -13.392   6.472  1.00  0.00     0.000 C 
BRANCH   8   9
ATOM      9  C   UNL     1       5.956 -12.430   6.873  1.00  0.00    -0.000 C 
BRANCH   9  10
ATOM     10  C   UNL     1       5.464 -10.986   7.059  1.00  0.00    -0.000 C 
BRANCH  10  11
ATOM     11  C   UNL     1       3.931 -10.869   6.988  1.00  0.00    -0.000 C 
BRANCH  11  12
ATOM     12  C   UNL     1       3.466  -9.456   6.608  1.00  0.00    -0.003 C 
ATOM     13  C   UNL     1       4.589  -8.605   6.016  1.00  0.00     0.004 C 
ENDBRANCH  11  12
ENDBRANCH  10  11
ENDBRANCH   9  10
ENDBRANCH   8   9
ENDBRANCH   1   8
TORSDOF 9
ENDMDL
MODEL 9
REMARK VINA RESULT:    -4.204      4.662      5.899
REMARK INTER + INTRA:          -6.957
REMARK INTER:                  -5.976
REMARK INTRA:                  -0.981
REMARK UNBOUND:                -0.542
REMARK SMILES CCCCCCCCCCC(=O)[O-]
REMARK SMILES IDX 7 1 8 2 9 3 10 4 11 5 12 6 13 7 6 8 5 9 4 10 3 11 2 12 1 13
REMARK H PARENT
REMARK Flexibility Score: inf
ROOT
ATOM      1  C   UNL     1       2.580 -11.966   4.102  1.00  0.00     0.000 C 
ENDROOT
BRANCH   1   2
ATOM      2  C   UNL     1       2.207 -10.477   4.161  1.00  0.00     0.000 C 
BRANCH   2   3
ATOM      3  C   UNL     1       3.354  -9.599   4.685  1.00  0.00     0.006 C 
BRANCH   3   4
ATOM      4  C   UNL     1       3.213  -9.270   6.177  1.00  0.00     0.053 C 
BRANCH   4   5
ATOM      5  C   UNL     1       4.170  -8.189   6.566  1.00  0.00     0.041 C 
ATOM      6  O   UNL     1       5.374  -8.465   6.811  1.00  0.00    -0.550 OA
ATOM      7  O   UNL     1       3.722  -6.881   6.705  1.00  0.00    -0.550 OA
ENDBRANCH   4   5
ENDBRANCH   3   4
ENDBRANCH   2   3
ENDBRANCH   1   2
BRANCH   1   8
ATOM      8  C   UNL     1       3.905 -12.171   3.356  1.00  0.00     0.000 C 
BRANCH   8   9
ATOM      9  C   UNL     1       4.699 -13.340   3.957  1.00  0.00    -0.000 C 
BRANCH   9  10
ATOM     10  C   UNL     1       4.206 -13.735   5.357  1.00  0.00    -0.000 C 
BRANCH  10  11
ATOM     11  C   UNL     1       5.269 -13.504   6.446  1.00  0.00    -0.000 C 
BRANCH  11  12
ATOM     12  C   UNL     1       5.387 -12.026   6.849  1.00  0.00    -0.003 C 
ATOM     13  C   UNL     1       6.723 -11.703   7.515  1.00  0.00     0.004 C 
ENDBRANCH  11  12
ENDBRANCH  10  11
ENDBRANCH   9  10
ENDBRANCH   8   9
ENDBRANCH   1   8
TORSDOF 9
ENDMDL
