MODEL 1
REMARK VINA RESULT:    -4.045      0.000      0.000
REMARK INTER + INTRA:          -5.931
REMARK INTER:                  -5.700
REMARK INTRA:                  -0.231
REMARK UNBOUND:                -0.231
REMARK SMILES CCCCCCCCC(=O)[O-]
REMARK SMILES IDX 6 1 7 2 8 3 9 4 10 5 11 6 5 7 4 8 3 9 2 10 1 11
REMARK H PARENT
REMARK Flexibility Score: inf
ROOT
ATOM      1  C   UNL     1      -0.481 -17.023  26.883  1.00  0.00     0.000 C 
ENDROOT
BRANCH   1   2
ATOM      2  C   UNL     1      -1.972 -16.892  26.530  1.00  0.00     0.006 C 
BRANCH   2   3
ATOM      3  C   UNL     1      -2.414 -15.432  26.369  1.00  0.00     0.053 C 
BRANCH   3   4
ATOM      4  C   UNL     1      -3.692 -15.357  25.595  1.00  0.00     0.041 C 
ATOM      5  O   UNL     1      -3.703 -14.857  24.439  1.00  0.00    -0.550 OA
ATOM      6  O   UNL     1      -4.879 -15.791  26.168  1.00  0.00    -0.550 OA
ENDBRANCH   3   4
ENDBRANCH   2   3
ENDBRANCH   1   2
BRANCH   1   7
ATOM      7  C   UNL     1      -0.255 -17.583  28.296  1.00  0.00     0.000 C 
BRANCH   7   8
ATOM      8  C   UNL     1       0.856 -16.811  29.020  1.00  0.00    -0.000 C 
BRANCH   8   9
ATOM      9  C   UNL     1       2.242 -17.234  28.511  1.00  0.00    -0.000 C 
BRANCH   9  10
ATOM     10  C   UNL     1       2.573 -18.695  28.848  1.00  0.00    -0.003 C 
ATOM     11  C   UNL     1       4.074 -18.984  28.818  1.00  0.00     0.004 C 
ENDBRANCH   9  10
ENDBRANCH   8   9
ENDBRANCH   7   8
ENDBRANCH   1   7
TORSDOF 7
ENDMDL
MODEL 2
REMARK VINA RESULT:    -3.875     13.594     14.532
REMARK INTER + INTRA:          -5.692
REMARK INTER:                  -5.326
REMARK INTRA:                  -0.367
REMARK UNBOUND:                -0.231
REMARK SMILES CCCCCCCCC(=O)[O-]
REMARK SMILES IDX 6 1 7 2 8 3 9 4 10 5 11 6 5 7 4 8 3 9 2 10 1 11
REMARK H PARENT
REMARK Flexibility Score: inf
ROOT
ATOM      1  C   UNL     1     -11.630 -10.127  27.486  1.00  0.00     0.000 C 
ENDROOT
BRANCH   1   2
ATOM      2  C   UNL     1     -11.657  -9.656  26.023  1.00  0.00     0.006 C 
BRANCH   2   3
ATOM      3  C   UNL     1     -11.856  -8.140  25.895  1.00  0.00     0.053 C 
BRANCH   3   4
ATOM      4  C   UNL     1     -12.708  -7.824  24.707  1.00  0.00     0.041 C 
ATOM      5  O   UNL     1     -12.372  -6.908  23.912  1.00  0.00    -0.550 OA
ATOM      6  O   UNL     1     -13.900  -8.507  24.504  1.00  0.00    -0.550 OA
ENDBRANCH   3   4
ENDBRANCH   2   3
ENDBRANCH   1   2
BRANCH   1   7
ATOM      7  C   UNL     1     -11.812  -8.973  28.483  1.00  0.00     0.000 C 
BRANCH   7   8
ATOM      8  C   UNL     1     -11.599  -9.454  29.924  1.00  0.00    -0.000 C 
BRANCH   8   9
ATOM      9  C   UNL     1     -11.341  -8.270  30.867  1.00  0.00    -0.000 C 
BRANCH   9  10
ATOM     10  C   UNL     1     -11.283  -6.927  30.125  1.00  0.00    -0.003 C 
ATOM     11  C   UNL     1     -11.621  -5.738  31.026  1.00  0.00     0.004 C 
ENDBRANCH   9  10
ENDBRANCH   8   9
ENDBRANCH   7   8
ENDBRANCH   1   7
TORSDOF 7
ENDMDL
MODEL 3
REMARK VINA RESULT:    -3.854     13.813     15.825
REMARK INTER + INTRA:          -5.662
REMARK INTER:                  -5.411
REMARK INTRA:                  -0.251
REMARK UNBOUND:                -0.231
REMARK SMILES CCCCCCCCC(=O)[O-]
REMARK SMILES IDX 6 1 7 2 8 3 9 4 10 5 11 6 5 7 4 8 3 9 2 10 1 11
REMARK H PARENT
REMARK Flexibility Score: inf
ROOT
ATOM      1  C   UNL     1     -11.494  -9.446  27.459  1.00  0.00     0.000 C 
ENDROOT
BRANCH   1   2
ATOM      2  C   UNL     1     -11.440  -9.038  28.939  1.00  0.00     0.006 C 
BRANCH   2   3
ATOM      3  C   UNL     1     -11.407  -7.516  29.131  1.00  0.00     0.053 C 
BRANCH   3   4
ATOM      4  C   UNL     1     -11.394  -7.174  30.587  1.00  0.00     0.041 C 
ATOM      5  O   UNL     1     -11.269  -8.082  31.450  1.00  0.00    -0.550 OA
ATOM      6  O   UNL     1     -11.570  -5.858  30.995  1.00  0.00    -0.550 OA
ENDBRANCH   3   4
ENDBRANCH   2   3
ENDBRANCH   1   2
BRANCH   1   7
ATOM      7  C   UNL     1     -11.653  -8.242  26.518  1.00  0.00     0.000 C 
BRANCH   7   8
ATOM      8  C   UNL     1     -12.418  -8.635  25.247  1.00  0.00    -0.000 C 
BRANCH   8   9
ATOM      9  C   UNL     1     -12.710  -7.404  24.378  1.00  0.00    -0.000 C 
BRANCH   9  10
ATOM     10  C   UNL     1     -14.012  -6.695  24.776  1.00  0.00    -0.003 C 
ATOM     11  C   UNL     1     -14.425  -5.611  23.780  1.00  0.00     0.004 C 
ENDBRANCH   9  10
ENDBRANCH   8   9
ENDBRANCH   7   8
ENDBRANCH   1   7
TORSDOF 7
ENDMDL
MODEL 4
REMARK VINA RESULT:    -3.816      3.009      4.587
REMARK INTER + INTRA:          -5.610
REMARK INTER:                  -5.339
REMARK INTRA:                  -0.270
REMARK UNBOUND:                -0.231
REMARK SMILES CCCCCCCCC(=O)[O-]
REMARK SMILES IDX 6 1 7 2 8 3 9 4 10 5 11 6 5 7 4 8 3 9 2 10 1 11
REMARK H PARENT
REMARK Flexibility Score: inf
ROOT
ATOM      1  C   UNL     1       2.377 -19.038  29.157  1.00  0.00     0.000 C 
ENDROOT
BRANCH   1   2
ATOM      2  C   UNL     1       1.990 -17.686  28.537  1.00  0.00     0.006 C 
BRANCH   2   3
ATOM      3  C   UNL     1       0.619 -17.189  29.012  1.00  0.00     0.053 C 
BRANCH   3   4
ATOM      4  C   UNL     1      -0.327 -17.082  27.858  1.00  0.00     0.041 C 
ATOM      5  O   UNL     1       0.110 -17.116  26.677  1.00  0.00    -0.550 OA
ATOM      6  O   UNL     1      -1.683 -16.892  28.084  1.00  0.00    -0.550 OA
ENDBRANCH   3   4
ENDBRANCH   2   3
ENDBRANCH   1   2
BRANCH   1   7
ATOM      7  C   UNL     1       3.827 -19.438  28.848  1.00  0.00     0.000 C 
BRANCH   7   8
ATOM      8  C   UNL     1       4.125 -20.857  29.350  1.00  0.00    -0.000 C 
BRANCH   8   9
ATOM      9  C   UNL     1       2.835 -21.568  29.785  1.00  0.00    -0.000 C 
BRANCH   9  10
ATOM     10  C   UNL     1       2.989 -23.095  29.830  1.00  0.00    -0.003 C 
ATOM     11  C   UNL     1       3.715 -23.580  31.085  1.00  0.00     0.004 C 
ENDBRANCH   9  10
ENDBRANCH   8   9
ENDBRANCH   7   8
ENDBRANCH   1   7
TORSDOF 7
ENDMDL
MODEL 5
REMARK VINA RESULT:    -3.731     12.835     15.085
REMARK INTER + INTRA:          -5.489
REMARK INTER:                  -4.934
REMARK INTRA:                  -0.555
REMARK UNBOUND:                -0.231
REMARK SMILES CCCCCCCCC(=O)[O-]
REMARK SMILES IDX 6 1 7 2 8 3 9 4 10 5 11 6 5 7 4 8 3 9 2 10 1 11
REMARK H PARENT
REMARK Flexibility Score: inf
ROOT
ATOM      1  C   UNL     1     -10.224 -12.013  14.388  1.00  0.00     0.000 C 
ENDROOT
BRANCH   1   2
ATOM      2  C   UNL     1     -11.220 -11.483  15.432  1.00  0.00     0.006 C 
BRANCH   2   3
ATOM      3  C   UNL     1     -10.710 -11.645  16.870  1.00  0.00     0.053 C 
BRANCH   3   4
ATOM      4  C   UNL     1     -11.859 -11.712  17.826  1.00  0.00     0.041 C 
ATOM      5  O   UNL     1     -12.749 -10.821  17.810  1.00  0.00    -0.550 OA
ATOM      6  O   UNL     1     -11.922 -12.729  18.769  1.00  0.00    -0.550 OA
ENDBRANCH   3   4
ENDBRANCH   2   3
ENDBRANCH   1   2
BRANCH   1   7
ATOM      7  C   UNL     1      -8.956 -12.603  15.026  1.00  0.00     0.000 C 
BRANCH   7   8
ATOM      8  C   UNL     1      -8.723 -14.043  14.552  1.00  0.00    -0.000 C 
BRANCH   8   9
ATOM      9  C   UNL     1      -8.002 -14.866  15.630  1.00  0.00    -0.000 C 
BRANCH   9  10
ATOM     10  C   UNL     1      -7.695 -14.047  16.892  1.00  0.00    -0.003 C 
ATOM     11  C   UNL     1      -8.367 -14.612  18.143  1.00  0.00     0.004 C 
ENDBRANCH   9  10
ENDBRANCH   8   9
ENDBRANCH   7   8
ENDBRANCH   1   7
TORSDOF 7
ENDMDL
MODEL 6
REMARK VINA RESULT:    -3.672     15.047     15.929
REMARK INTER + INTRA:          -5.406
REMARK INTER:                  -5.035
REMARK INTRA:                  -0.372
REMARK UNBOUND:                -0.231
REMARK SMILES CCCCCCCCC(=O)[O-]
REMARK SMILES IDX 6 1 7 2 8 3 9 4 10 5 11 6 5 7 4 8 3 9 2 10 1 11
REMARK H PARENT
REMARK Flexibility Score: inf
ROOT
ATOM      1  C   UNL     1     -10.259 -11.937  14.430  1.00  0.00     0.000 C 
ENDROOT
BRANCH   1   2
ATOM      2  C   UNL     1     -11.424 -11.394  15.273  1.00  0.00     0.006 C 
BRANCH   2   3
ATOM      3  C   UNL     1     -11.072 -11.279  16.761  1.00  0.00     0.053 C 
BRANCH   3   4
ATOM      4  C   UNL     1     -12.046 -12.055  17.590  1.00  0.00     0.041 C 
ATOM      5  O   UNL     1     -11.635 -12.935  18.391  1.00  0.00    -0.550 OA
ATOM      6  O   UNL     1     -13.410 -11.843  17.441  1.00  0.00    -0.550 OA
ENDBRANCH   3   4
ENDBRANCH   2   3
ENDBRANCH   1   2
BRANCH   1   7
ATOM      7  C   UNL     1      -9.518 -13.093  15.118  1.00  0.00     0.000 C 
BRANCH   7   8
ATOM      8  C   UNL     1      -8.017 -13.046  14.808  1.00  0.00    -0.000 C 
BRANCH   8   9
ATOM      9  C   UNL     1      -7.522 -14.398  14.273  1.00  0.00    -0.000 C 
BRANCH   9  10
ATOM     10  C   UNL     1      -8.673 -15.359  13.945  1.00  0.00    -0.003 C 
ATOM     11  C   UNL     1      -8.516 -16.028  12.580  1.00  0.00     0.004 C 
ENDBRANCH   9  10
ENDBRANCH   8   9
ENDBRANCH   7   8
ENDBRANCH   1   7
TORSDOF 7
ENDMDL
MODEL 7
REMARK VINA RESULT:    -3.639      5.235      6.325
REMARK INTER + INTRA:          -5.360
REMARK INTER:                  -5.024
REMARK INTRA:                  -0.337
REMARK UNBOUND:                -0.231
REMARK SMILES CCCCCCCCC(=O)[O-]
REMARK SMILES IDX 6 1 7 2 8 3 9 4 10 5 11 6 5 7 4 8 3 9 2 10 1 11
REMARK H PARENT
REMARK Flexibility Score: inf
ROOT
ATOM      1  C   UNL     1       1.082 -14.336  31.088  1.00  0.00     0.000 C 
ENDROOT
BRANCH   1   2
ATOM      2  C   UNL     1       0.866 -12.843  31.386  1.00  0.00     0.006 C 
BRANCH   2   3
ATOM      3  C   UNL     1       2.176 -12.108  31.698  1.00  0.00     0.053 C 
BRANCH   3   4
ATOM      4  C   UNL     1       2.362 -10.954  30.764  1.00  0.00     0.041 C 
ATOM      5  O   UNL     1       3.350 -10.924  29.985  1.00  0.00    -0.550 OA
ATOM      6  O   UNL     1       1.473  -9.888  30.790  1.00  0.00    -0.550 OA
ENDBRANCH   3   4
ENDBRANCH   2   3
ENDBRANCH   1   2
BRANCH   1   7
ATOM      7  C   UNL     1      -0.201 -15.038  30.619  1.00  0.00     0.000 C 
BRANCH   7   8
ATOM      8  C   UNL     1       0.039 -16.538  30.410  1.00  0.00    -0.000 C 
BRANCH   8   9
ATOM      9  C   UNL     1       0.208 -16.866  28.919  1.00  0.00    -0.000 C 
BRANCH   9  10
ATOM     10  C   UNL     1       1.532 -17.583  28.619  1.00  0.00    -0.003 C 
ATOM     11  C   UNL     1       2.723 -16.626  28.559  1.00  0.00     0.004 C 
ENDBRANCH   9  10
ENDBRANCH   8   9
ENDBRANCH   7   8
ENDBRANCH   1   7
TORSDOF 7
ENDMDL
MODEL 8
REMARK VINA RESULT:    -3.575     13.348     16.535
REMARK INTER + INTRA:          -5.270
REMARK INTER:                  -4.892
REMARK INTRA:                  -0.377
REMARK UNBOUND:                -0.231
REMARK SMILES CCCCCCCCC(=O)[O-]
REMARK SMILES IDX 6 1 7 2 8 3 9 4 10 5 11 6 5 7 4 8 3 9 2 10 1 11
REMARK H PARENT
REMARK Flexibility Score: inf
ROOT
ATOM      1  C   UNL     1      -9.786 -12.547  15.186  1.00  0.00     0.000 C 
ENDROOT
BRANCH   1   2
ATOM      2  C   UNL     1      -9.034 -13.716  14.528  1.00  0.00     0.006 C 
BRANCH   2   3
ATOM      3  C   UNL     1      -7.666 -13.974  15.173  1.00  0.00     0.053 C 
BRANCH   3   4
ATOM      4  C   UNL     1      -7.816 -14.202  16.644  1.00  0.00     0.041 C 
ATOM      5  O   UNL     1      -7.238 -13.441  17.464  1.00  0.00    -0.550 OA
ATOM      6  O   UNL     1      -8.553 -15.282  17.109  1.00  0.00    -0.550 OA
ENDBRANCH   3   4
ENDBRANCH   2   3
ENDBRANCH   1   2
BRANCH   1   7
ATOM      7  C   UNL     1     -10.439 -11.611  14.158  1.00  0.00     0.000 C 
BRANCH   7   8
ATOM      8  C   UNL     1     -11.641 -10.879  14.769  1.00  0.00    -0.000 C 
BRANCH   8   9
ATOM      9  C   UNL     1     -11.810 -11.241  16.252  1.00  0.00    -0.000 C 
BRANCH   9  10
ATOM     10  C   UNL     1     -13.280 -11.242  16.695  1.00  0.00    -0.003 C 
ATOM     11  C   UNL     1     -14.249 -11.021  15.533  1.00  0.00     0.004 C 
ENDBRANCH   9  10
ENDBRANCH   8   9
ENDBRANCH   7   8
ENDBRANCH   1   7
TORSDOF 7
ENDMDL
MODEL 9
REMARK VINA RESULT:    -3.567      1.484      2.674
REMARK INTER + INTRA:          -5.258
REMARK INTER:                  -4.591
REMARK INTRA:                  -0.667
REMARK UNBOUND:                -0.231
REMARK SMILES CCCCCCCCC(=O)[O-]
REMARK SMILES IDX 6 1 7 2 8 3 9 4 10 5 11 6 5 7 4 8 3 9 2 10 1 11
REMARK H PARENT
REMARK Flexibility Score: inf
ROOT
ATOM      1  C   UNL     1      -1.465 -17.895  27.425  1.00  0.00     0.000 C 
ENDROOT
BRANCH   1   2
ATOM      2  C   UNL     1      -2.631 -16.911  27.243  1.00  0.00     0.006 C 
BRANCH   2   3
ATOM      3  C   UNL     1      -2.276 -15.739  26.319  1.00  0.00     0.053 C 
BRANCH   3   4
ATOM      4  C   UNL     1      -3.476 -15.311  25.534  1.00  0.00     0.041 C 
ATOM      5  O   UNL     1      -3.349 -14.513  24.568  1.00  0.00    -0.550 OA
ATOM      6  O   UNL     1      -4.740 -15.752  25.900  1.00  0.00    -0.550 OA
ENDBRANCH   3   4
ENDBRANCH   2   3
ENDBRANCH   1   2
BRANCH   1   7
ATOM      7  C   UNL     1      -0.098 -17.194  27.456  1.00  0.00     0.000 C 
BRANCH   7   8
ATOM      8  C   UNL     1       0.697 -17.597  28.704  1.00  0.00    -0.000 C 
BRANCH   8   9
ATOM      9  C   UNL     1      -0.074 -17.244  29.985  1.00  0.00    -0.000 C 
BRANCH   9  10
ATOM     10  C   UNL     1      -0.092 -15.735  30.267  1.00  0.00    -0.003 C 
ATOM     11  C   UNL     1      -1.508 -15.172  30.385  1.00  0.00     0.004 C 
ENDBRANCH   9  10
ENDBRANCH   8   9
ENDBRANCH   7   8
ENDBRANCH   1   7
TORSDOF 7
ENDMDL
