MODEL 1
REMARK VINA RESULT:    -4.212      0.000      0.000
REMARK INTER + INTRA:          -4.983
REMARK INTER:                  -4.951
REMARK INTRA:                  -0.033
REMARK UNBOUND:                -0.033
REMARK SMILES CCCCC(=O)[O-]
REMARK SMILES IDX 4 1 5 2 6 3 7 4 3 5 2 6 1 7
REMARK H PARENT
REMARK Flexibility Score: inf
ROOT
ATOM      1  C   UNL     1      -5.420  -8.716  18.476  1.00  0.00     0.053 C 
ENDROOT
BRANCH   1   2
ATOM      2  C   UNL     1      -4.026  -8.257  18.182  1.00  0.00     0.041 C 
ATOM      3  O   UNL     1      -3.698  -7.942  17.007  1.00  0.00    -0.550 OA
ATOM      4  O   UNL     1      -3.076  -8.225  19.195  1.00  0.00    -0.550 OA
ENDBRANCH   1   2
BRANCH   1   5
ATOM      5  C   UNL     1      -5.414  -9.752  19.607  1.00  0.00     0.006 C 
BRANCH   5   6
ATOM      6  C   UNL     1      -6.799 -10.370  19.847  1.00  0.00    -0.003 C 
ATOM      7  C   UNL     1      -7.875  -9.785  18.933  1.00  0.00     0.004 C 
ENDBRANCH   5   6
ENDBRANCH   1   5
TORSDOF 3
ENDMDL
MODEL 2
REMARK VINA RESULT:    -4.028      3.104      4.105
REMARK INTER + INTRA:          -4.767
REMARK INTER:                  -4.737
REMARK INTRA:                  -0.030
REMARK UNBOUND:                -0.033
REMARK SMILES CCCCC(=O)[O-]
REMARK SMILES IDX 4 1 5 2 6 3 7 4 3 5 2 6 1 7
REMARK H PARENT
REMARK Flexibility Score: inf
ROOT
ATOM      1  C   UNL     1      -6.580  -9.252  18.661  1.00  0.00     0.053 C 
ENDROOT
BRANCH   1   2
ATOM      2  C   UNL     1      -7.873  -9.965  18.904  1.00  0.00     0.041 C 
ATOM      3  O   UNL     1      -8.488  -9.808  19.991  1.00  0.00    -0.550 OA
ATOM      4  O   UNL     1      -8.374 -10.842  17.949  1.00  0.00    -0.550 OA
ENDBRANCH   1   2
BRANCH   1   5
ATOM      5  C   UNL     1      -5.490  -9.787  19.599  1.00  0.00     0.006 C 
BRANCH   5   6
ATOM      6  C   UNL     1      -4.139  -9.087  19.392  1.00  0.00    -0.003 C 
ATOM      7  C   UNL     1      -4.088  -8.268  18.103  1.00  0.00     0.004 C 
ENDBRANCH   5   6
ENDBRANCH   1   5
TORSDOF 3
ENDMDL
MODEL 3
REMARK VINA RESULT:    -3.930     18.348     18.977
REMARK INTER + INTRA:          -4.652
REMARK INTER:                  -4.633
REMARK INTRA:                  -0.019
REMARK UNBOUND:                -0.033
REMARK SMILES CCCCC(=O)[O-]
REMARK SMILES IDX 4 1 5 2 6 3 7 4 3 5 2 6 1 7
REMARK H PARENT
REMARK Flexibility Score: inf
ROOT
ATOM      1  C   UNL     1       3.154 -20.991   8.774  1.00  0.00     0.053 C 
ENDROOT
BRANCH   1   2
ATOM      2  C   UNL     1       2.430 -22.171   9.343  1.00  0.00     0.041 C 
ATOM      3  O   UNL     1       2.383 -22.345  10.589  1.00  0.00    -0.550 OA
ATOM      4  O   UNL     1       1.848 -23.105   8.494  1.00  0.00    -0.550 OA
ENDBRANCH   1   2
BRANCH   1   5
ATOM      5  C   UNL     1       3.975 -21.408   7.548  1.00  0.00     0.006 C 
BRANCH   5   6
ATOM      6  C   UNL     1       3.311 -20.994   6.225  1.00  0.00    -0.003 C 
ATOM      7  C   UNL     1       4.125 -21.410   5.001  1.00  0.00     0.004 C 
ENDBRANCH   5   6
ENDBRANCH   1   5
TORSDOF 3
ENDMDL
MODEL 4
REMARK VINA RESULT:    -3.889     18.045     18.553
REMARK INTER + INTRA:          -4.604
REMARK INTER:                  -4.497
REMARK INTRA:                  -0.107
REMARK UNBOUND:                -0.033
REMARK SMILES CCCCC(=O)[O-]
REMARK SMILES IDX 4 1 5 2 6 3 7 4 3 5 2 6 1 7
REMARK H PARENT
REMARK Flexibility Score: inf
ROOT
ATOM      1  C   UNL     1       4.009 -21.291   7.483  1.00  0.00     0.053 C 
ENDROOT
BRANCH   1   2
ATOM      2  C   UNL     1       3.180 -20.981   6.276  1.00  0.00     0.041 C 
ATOM      3  O   UNL     1       3.692 -21.029   5.127  1.00  0.00    -0.550 OA
ATOM      4  O   UNL     1       1.855 -20.591   6.425  1.00  0.00    -0.550 OA
ENDBRANCH   1   2
BRANCH   1   5
ATOM      5  C   UNL     1       3.386 -20.663   8.736  1.00  0.00     0.006 C 
BRANCH   5   6
ATOM      6  C   UNL     1       3.081 -21.701   9.826  1.00  0.00    -0.003 C 
ATOM      7  C   UNL     1       1.730 -22.387   9.628  1.00  0.00     0.004 C 
ENDBRANCH   5   6
ENDBRANCH   1   5
TORSDOF 3
ENDMDL
MODEL 5
REMARK VINA RESULT:    -3.161     18.219     18.650
REMARK INTER + INTRA:          -3.747
REMARK INTER:                  -3.697
REMARK INTRA:                  -0.051
REMARK UNBOUND:                -0.033
REMARK SMILES CCCCC(=O)[O-]
REMARK SMILES IDX 4 1 5 2 6 3 7 4 3 5 2 6 1 7
REMARK H PARENT
REMARK Flexibility Score: inf
ROOT
ATOM      1  C   UNL     1       2.192 -22.417   9.741  1.00  0.00     0.053 C 
ENDROOT
BRANCH   1   2
ATOM      2  C   UNL     1       3.466 -23.121  10.090  1.00  0.00     0.041 C 
ATOM      3  O   UNL     1       3.921 -24.019   9.333  1.00  0.00    -0.550 OA
ATOM      4  O   UNL     1       4.125 -22.818  11.275  1.00  0.00    -0.550 OA
ENDBRANCH   1   2
BRANCH   1   5
ATOM      5  C   UNL     1       2.033 -22.323   8.219  1.00  0.00     0.006 C 
BRANCH   5   6
ATOM      6  C   UNL     1       2.795 -21.131   7.619  1.00  0.00    -0.003 C 
ATOM      7  C   UNL     1       2.030 -20.450   6.486  1.00  0.00     0.004 C 
ENDBRANCH   5   6
ENDBRANCH   1   5
TORSDOF 3
ENDMDL
MODEL 6
REMARK VINA RESULT:    -2.684     17.611     18.626
REMARK INTER + INTRA:          -3.188
REMARK INTER:                  -3.170
REMARK INTRA:                  -0.017
REMARK UNBOUND:                -0.033
REMARK SMILES CCCCC(=O)[O-]
REMARK SMILES IDX 4 1 5 2 6 3 7 4 3 5 2 6 1 7
REMARK H PARENT
REMARK Flexibility Score: inf
ROOT
ATOM      1  C   UNL     1     -13.547 -18.935   6.123  1.00  0.00     0.053 C 
ENDROOT
BRANCH   1   2
ATOM      2  C   UNL     1     -14.957 -18.499   6.367  1.00  0.00     0.041 C 
ATOM      3  O   UNL     1     -15.232 -17.765   7.353  1.00  0.00    -0.550 OA
ATOM      4  O   UNL     1     -15.977 -18.943   5.534  1.00  0.00    -0.550 OA
ENDBRANCH   1   2
BRANCH   1   5
ATOM      5  C   UNL     1     -13.005 -18.299   4.837  1.00  0.00     0.006 C 
BRANCH   5   6
ATOM      6  C   UNL     1     -11.655 -18.892   4.409  1.00  0.00    -0.003 C 
ATOM      7  C   UNL     1     -10.506 -18.466   5.322  1.00  0.00     0.004 C 
ENDBRANCH   5   6
ENDBRANCH   1   5
TORSDOF 3
ENDMDL
MODEL 7
REMARK VINA RESULT:    -2.533     18.500     19.475
REMARK INTER + INTRA:          -3.010
REMARK INTER:                  -2.916
REMARK INTRA:                  -0.094
REMARK UNBOUND:                -0.033
REMARK SMILES CCCCC(=O)[O-]
REMARK SMILES IDX 4 1 5 2 6 3 7 4 3 5 2 6 1 7
REMARK H PARENT
REMARK Flexibility Score: inf
ROOT
ATOM      1  C   UNL     1     -13.644 -19.526   5.876  1.00  0.00     0.053 C 
ENDROOT
BRANCH   1   2
ATOM      2  C   UNL     1     -13.992 -20.731   5.059  1.00  0.00     0.041 C 
ATOM      3  O   UNL     1     -14.777 -20.627   4.080  1.00  0.00    -0.550 OA
ATOM      4  O   UNL     1     -13.488 -21.977   5.409  1.00  0.00    -0.550 OA
ENDBRANCH   1   2
BRANCH   1   5
ATOM      5  C   UNL     1     -12.956 -18.469   5.003  1.00  0.00     0.006 C 
BRANCH   5   6
ATOM      6  C   UNL     1     -11.596 -18.941   4.467  1.00  0.00    -0.003 C 
ATOM      7  C   UNL     1     -10.425 -18.465   5.326  1.00  0.00     0.004 C 
ENDBRANCH   5   6
ENDBRANCH   1   5
TORSDOF 3
ENDMDL
MODEL 8
REMARK VINA RESULT:    -2.520     18.302     19.207
REMARK INTER + INTRA:          -2.994
REMARK INTER:                  -2.881
REMARK INTRA:                  -0.113
REMARK UNBOUND:                -0.033
REMARK SMILES CCCCC(=O)[O-]
REMARK SMILES IDX 4 1 5 2 6 3 7 4 3 5 2 6 1 7
REMARK H PARENT
REMARK Flexibility Score: inf
ROOT
ATOM      1  C   UNL     1     -13.041 -19.097   5.719  1.00  0.00     0.053 C 
ENDROOT
BRANCH   1   2
ATOM      2  C   UNL     1     -11.913 -18.769   4.793  1.00  0.00     0.041 C 
ATOM      3  O   UNL     1     -12.074 -18.846   3.546  1.00  0.00    -0.550 OA
ATOM      4  O   UNL     1     -10.668 -18.427   5.307  1.00  0.00    -0.550 OA
ENDBRANCH   1   2
BRANCH   1   5
ATOM      5  C   UNL     1     -14.059 -20.007   5.021  1.00  0.00     0.006 C 
BRANCH   5   6
ATOM      6  C   UNL     1     -13.853 -21.491   5.360  1.00  0.00    -0.003 C 
ATOM      7  C   UNL     1     -13.206 -22.274   4.218  1.00  0.00     0.004 C 
ENDBRANCH   5   6
ENDBRANCH   1   5
TORSDOF 3
ENDMDL
