MODEL 1
REMARK VINA RESULT:    -4.421      0.000      0.000
REMARK INTER + INTRA:          -7.697
REMARK INTER:                  -7.006
REMARK INTRA:                  -0.691
REMARK UNBOUND:                -0.691
REMARK SMILES CCCCCCCCCCCC(=O)[O-]
REMARK SMILES IDX 7 1 8 2 9 3 10 4 11 5 12 6 13 7 14 8 6 9 5 10 4 11 3 12 2 13
REMARK SMILES IDX 1 14
REMARK H PARENT
REMARK Flexibility Score: inf
ROOT
ATOM      1  C   UNL     1     192.692   3.400  99.429  1.00  0.00     0.000 C 
ENDROOT
BRANCH   1   2
ATOM      2  C   UNL     1     191.981   4.233  98.345  1.00  0.00     0.000 C 
BRANCH   2   3
ATOM      3  C   UNL     1     190.575   3.710  97.982  1.00  0.00     0.000 C 
BRANCH   3   4
ATOM      4  C   UNL     1     190.398   3.499  96.470  1.00  0.00     0.006 C 
BRANCH   4   5
ATOM      5  C   UNL     1     191.751   3.492  95.754  1.00  0.00     0.053 C 
BRANCH   5   6
ATOM      6  C   UNL     1     191.992   2.166  95.103  1.00  0.00     0.041 C 
ATOM      7  O   UNL     1     192.587   1.252  95.730  1.00  0.00    -0.550 OA
ATOM      8  O   UNL     1     191.602   1.957  93.786  1.00  0.00    -0.550 OA
ENDBRANCH   5   6
ENDBRANCH   4   5
ENDBRANCH   3   4
ENDBRANCH   2   3
ENDBRANCH   1   2
BRANCH   1   9
ATOM      9  C   UNL     1     192.326   1.903  99.448  1.00  0.00     0.000 C 
BRANCH   9  10
ATOM     10  C   UNL     1     192.844   1.123 100.669  1.00  0.00    -0.000 C 
BRANCH  10  11
ATOM     11  C   UNL     1     193.105   2.022 101.887  1.00  0.00    -0.000 C 
BRANCH  11  12
ATOM     12  C   UNL     1     192.213   1.620 103.068  1.00  0.00    -0.000 C 
BRANCH  12  13
ATOM     13  C   UNL     1     192.642   2.341 104.351  1.00  0.00    -0.003 C 
ATOM     14  C   UNL     1     194.162   2.400 104.469  1.00  0.00     0.004 C 
ENDBRANCH  12  13
ENDBRANCH  11  12
ENDBRANCH  10  11
ENDBRANCH   9  10
ENDBRANCH   1   9
TORSDOF 10
ENDMDL
MODEL 2
REMARK VINA RESULT:    -4.237      1.553      2.700
REMARK INTER + INTRA:          -7.405
REMARK INTER:                  -6.596
REMARK INTRA:                  -0.809
REMARK UNBOUND:                -0.691
REMARK SMILES CCCCCCCCCCCC(=O)[O-]
REMARK SMILES IDX 7 1 8 2 9 3 10 4 11 5 12 6 13 7 14 8 6 9 5 10 4 11 3 12 2 13
REMARK SMILES IDX 1 14
REMARK H PARENT
REMARK Flexibility Score: inf
ROOT
ATOM      1  C   UNL     1     192.965   0.823 101.144  1.00  0.00     0.000 C 
ENDROOT
BRANCH   1   2
ATOM      2  C   UNL     1     192.914   2.219 100.496  1.00  0.00     0.000 C 
BRANCH   2   3
ATOM      3  C   UNL     1     192.222   2.239  99.116  1.00  0.00     0.000 C 
BRANCH   3   4
ATOM      4  C   UNL     1     191.849   3.660  98.666  1.00  0.00     0.006 C 
BRANCH   4   5
ATOM      5  C   UNL     1     190.400   3.718  98.174  1.00  0.00     0.053 C 
BRANCH   5   6
ATOM      6  C   UNL     1     190.349   3.613  96.682  1.00  0.00     0.041 C 
ATOM      7  O   UNL     1     189.267   3.332  96.104  1.00  0.00    -0.550 OA
ATOM      8  O   UNL     1     191.507   3.777  95.933  1.00  0.00    -0.550 OA
ENDBRANCH   5   6
ENDBRANCH   4   5
ENDBRANCH   3   4
ENDBRANCH   2   3
ENDBRANCH   1   2
BRANCH   1   9
ATOM      9  C   UNL     1     191.616   0.298 101.673  1.00  0.00     0.000 C 
BRANCH   9  10
ATOM     10  C   UNL     1     191.494   0.248 103.207  1.00  0.00    -0.000 C 
BRANCH  10  11
ATOM     11  C   UNL     1     190.818   1.496 103.794  1.00  0.00    -0.000 C 
BRANCH  11  12
ATOM     12  C   UNL     1     191.705   2.152 104.859  1.00  0.00    -0.000 C 
BRANCH  12  13
ATOM     13  C   UNL     1     193.069   1.457 104.943  1.00  0.00    -0.003 C 
ATOM     14  C   UNL     1     194.199   2.410 104.564  1.00  0.00     0.004 C 
ENDBRANCH  12  13
ENDBRANCH  11  12
ENDBRANCH  10  11
ENDBRANCH   9  10
ENDBRANCH   1   9
TORSDOF 10
ENDMDL
MODEL 3
REMARK VINA RESULT:    -4.231      0.895      1.664
REMARK INTER + INTRA:          -7.395
REMARK INTER:                  -6.742
REMARK INTRA:                  -0.653
REMARK UNBOUND:                -0.691
REMARK SMILES CCCCCCCCCCCC(=O)[O-]
REMARK SMILES IDX 7 1 8 2 9 3 10 4 11 5 12 6 13 7 14 8 6 9 5 10 4 11 3 12 2 13
REMARK SMILES IDX 1 14
REMARK H PARENT
REMARK Flexibility Score: inf
ROOT
ATOM      1  C   UNL     1     192.003   4.022  98.636  1.00  0.00     0.000 C 
ENDROOT
BRANCH   1   2
ATOM      2  C   UNL     1     190.609   3.539  98.195  1.00  0.00     0.000 C 
BRANCH   2   3
ATOM      3  C   UNL     1     190.161   4.098  96.828  1.00  0.00     0.000 C 
BRANCH   3   4
ATOM      4  C   UNL     1     191.299   4.111  95.795  1.00  0.00     0.006 C 
BRANCH   4   5
ATOM      5  C   UNL     1     190.840   3.507  94.465  1.00  0.00     0.053 C 
BRANCH   5   6
ATOM      6  C   UNL     1     191.562   2.224  94.195  1.00  0.00     0.041 C 
ATOM      7  O   UNL     1     191.468   1.669  93.070  1.00  0.00    -0.550 OA
ATOM      8  O   UNL     1     192.301   1.617  95.204  1.00  0.00    -0.550 OA
ENDBRANCH   5   6
ENDBRANCH   4   5
ENDBRANCH   3   4
ENDBRANCH   2   3
ENDBRANCH   1   2
BRANCH   1   9
ATOM      9  C   UNL     1     192.754   3.071  99.587  1.00  0.00     0.000 C 
BRANCH   9  10
ATOM     10  C   UNL     1     192.152   1.658  99.702  1.00  0.00    -0.000 C 
BRANCH  10  11
ATOM     11  C   UNL     1     192.772   0.834 100.840  1.00  0.00    -0.000 C 
BRANCH  11  12
ATOM     12  C   UNL     1     191.690   0.304 101.788  1.00  0.00    -0.000 C 
BRANCH  12  13
ATOM     13  C   UNL     1     191.522   1.224 103.002  1.00  0.00    -0.003 C 
ATOM     14  C   UNL     1     192.861   1.815 103.435  1.00  0.00     0.004 C 
ENDBRANCH  12  13
ENDBRANCH  11  12
ENDBRANCH  10  11
ENDBRANCH   9  10
ENDBRANCH   1   9
TORSDOF 10
ENDMDL
MODEL 4
REMARK VINA RESULT:    -4.222      2.106      3.005
REMARK INTER + INTRA:          -7.382
REMARK INTER:                  -6.775
REMARK INTRA:                  -0.607
REMARK UNBOUND:                -0.691
REMARK SMILES CCCCCCCCCCCC(=O)[O-]
REMARK SMILES IDX 7 1 8 2 9 3 10 4 11 5 12 6 13 7 14 8 6 9 5 10 4 11 3 12 2 13
REMARK SMILES IDX 1 14
REMARK H PARENT
REMARK Flexibility Score: inf
ROOT
ATOM      1  C   UNL     1     192.905   1.295 100.700  1.00  0.00     0.000 C 
ENDROOT
BRANCH   1   2
ATOM      2  C   UNL     1     192.693   2.595  99.902  1.00  0.00     0.000 C 
BRANCH   2   3
ATOM      3  C   UNL     1     191.962   2.387  98.558  1.00  0.00     0.000 C 
BRANCH   3   4
ATOM      4  C   UNL     1     191.420   3.701  97.973  1.00  0.00     0.006 C 
BRANCH   4   5
ATOM      5  C   UNL     1     189.919   3.842  98.239  1.00  0.00     0.053 C 
BRANCH   5   6
ATOM      6  C   UNL     1     189.136   3.502  97.009  1.00  0.00     0.041 C 
ATOM      7  O   UNL     1     189.646   3.662  95.869  1.00  0.00    -0.550 OA
ATOM      8  O   UNL     1     187.826   3.054  97.121  1.00  0.00    -0.550 OA
ENDBRANCH   5   6
ENDBRANCH   4   5
ENDBRANCH   3   4
ENDBRANCH   2   3
ENDBRANCH   1   2
BRANCH   1   9
ATOM      9  C   UNL     1     191.619   0.653 101.257  1.00  0.00     0.000 C 
BRANCH   9  10
ATOM     10  C   UNL     1     191.515   0.634 102.793  1.00  0.00    -0.000 C 
BRANCH  10  11
ATOM     11  C   UNL     1     192.610   1.466 103.477  1.00  0.00    -0.000 C 
BRANCH  11  12
ATOM     12  C   UNL     1     192.040   2.254 104.663  1.00  0.00    -0.000 C 
BRANCH  12  13
ATOM     13  C   UNL     1     190.508   2.262 104.633  1.00  0.00    -0.003 C 
ATOM     14  C   UNL     1     189.928   1.952 106.011  1.00  0.00     0.004 C 
ENDBRANCH  12  13
ENDBRANCH  11  12
ENDBRANCH  10  11
ENDBRANCH   9  10
ENDBRANCH   1   9
TORSDOF 10
ENDMDL
MODEL 5
REMARK VINA RESULT:    -4.219      3.384      6.909
REMARK INTER + INTRA:          -7.377
REMARK INTER:                  -6.607
REMARK INTRA:                  -0.770
REMARK UNBOUND:                -0.691
REMARK SMILES CCCCCCCCCCCC(=O)[O-]
REMARK SMILES IDX 7 1 8 2 9 3 10 4 11 5 12 6 13 7 14 8 6 9 5 10 4 11 3 12 2 13
REMARK SMILES IDX 1 14
REMARK H PARENT
REMARK Flexibility Score: inf
ROOT
ATOM      1  C   UNL     1     192.214   4.247  98.620  1.00  0.00     0.000 C 
ENDROOT
BRANCH   1   2
ATOM      2  C   UNL     1     192.741   3.272  99.690  1.00  0.00     0.000 C 
BRANCH   2   3
ATOM      3  C   UNL     1     192.350   1.800  99.437  1.00  0.00     0.000 C 
BRANCH   3   4
ATOM      4  C   UNL     1     192.722   0.883 100.613  1.00  0.00     0.006 C 
BRANCH   4   5
ATOM      5  C   UNL     1     191.607   0.856 101.662  1.00  0.00     0.053 C 
BRANCH   5   6
ATOM      6  C   UNL     1     192.140   1.262 103.001  1.00  0.00     0.041 C 
ATOM      7  O   UNL     1     191.624   0.803 104.053  1.00  0.00    -0.550 OA
ATOM      8  O   UNL     1     193.174   2.186 103.087  1.00  0.00    -0.550 OA
ENDBRANCH   5   6
ENDBRANCH   4   5
ENDBRANCH   3   4
ENDBRANCH   2   3
ENDBRANCH   1   2
BRANCH   1   9
ATOM      9  C   UNL     1     190.696   4.175  98.361  1.00  0.00     0.000 C 
BRANCH   9  10
ATOM     10  C   UNL     1     190.298   3.610  96.985  1.00  0.00    -0.000 C 
BRANCH  10  11
ATOM     11  C   UNL     1     190.477   4.625  95.847  1.00  0.00    -0.000 C 
BRANCH  11  12
ATOM     12  C   UNL     1     191.547   4.156  94.855  1.00  0.00    -0.000 C 
BRANCH  12  13
ATOM     13  C   UNL     1     191.994   2.723  95.165  1.00  0.00    -0.003 C 
ATOM     14  C   UNL     1     191.648   1.776  94.018  1.00  0.00     0.004 C 
ENDBRANCH  12  13
ENDBRANCH  11  12
ENDBRANCH  10  11
ENDBRANCH   9  10
ENDBRANCH   1   9
TORSDOF 10
ENDMDL
MODEL 6
REMARK VINA RESULT:    -4.217      2.624      3.254
REMARK INTER + INTRA:          -7.373
REMARK INTER:                  -6.735
REMARK INTRA:                  -0.638
REMARK UNBOUND:                -0.691
REMARK SMILES CCCCCCCCCCCC(=O)[O-]
REMARK SMILES IDX 7 1 8 2 9 3 10 4 11 5 12 6 13 7 14 8 6 9 5 10 4 11 3 12 2 13
REMARK SMILES IDX 1 14
REMARK H PARENT
REMARK Flexibility Score: inf
ROOT
ATOM      1  C   UNL     1     192.301   1.971 100.118  1.00  0.00     0.000 C 
ENDROOT
BRANCH   1   2
ATOM      2  C   UNL     1     191.868   2.502  98.738  1.00  0.00     0.000 C 
BRANCH   2   3
ATOM      3  C   UNL     1     191.921   4.041  98.620  1.00  0.00     0.000 C 
BRANCH   3   4
ATOM      4  C   UNL     1     190.593   4.640  98.132  1.00  0.00     0.006 C 
BRANCH   4   5
ATOM      5  C   UNL     1     189.738   3.581  97.429  1.00  0.00     0.053 C 
BRANCH   5   6
ATOM      6  C   UNL     1     188.285   3.823  97.692  1.00  0.00     0.041 C 
ATOM      7  O   UNL     1     187.914   4.872  98.279  1.00  0.00    -0.550 OA
ATOM      8  O   UNL     1     187.345   2.866  97.331  1.00  0.00    -0.550 OA
ENDBRANCH   5   6
ENDBRANCH   4   5
ENDBRANCH   3   4
ENDBRANCH   2   3
ENDBRANCH   1   2
BRANCH   1   9
ATOM      9  C   UNL     1     193.448   2.752 100.788  1.00  0.00     0.000 C 
BRANCH   9  10
ATOM     10  C   UNL     1     193.502   2.638 102.322  1.00  0.00    -0.000 C 
BRANCH  10  11
ATOM     11  C   UNL     1     192.998   1.282 102.840  1.00  0.00    -0.000 C 
BRANCH  11  12
ATOM     12  C   UNL     1     192.261   1.444 104.175  1.00  0.00    -0.000 C 
BRANCH  12  13
ATOM     13  C   UNL     1     190.748   1.561 103.957  1.00  0.00    -0.003 C 
ATOM     14  C   UNL     1     190.113   2.493 104.986  1.00  0.00     0.004 C 
ENDBRANCH  12  13
ENDBRANCH  11  12
ENDBRANCH  10  11
ENDBRANCH   9  10
ENDBRANCH   1   9
TORSDOF 10
ENDMDL
MODEL 7
REMARK VINA RESULT:    -4.210      4.036      7.444
REMARK INTER + INTRA:          -7.362
REMARK INTER:                  -6.699
REMARK INTRA:                  -0.663
REMARK UNBOUND:                -0.691
REMARK SMILES CCCCCCCCCCCC(=O)[O-]
REMARK SMILES IDX 7 1 8 2 9 3 10 4 11 5 12 6 13 7 14 8 6 9 5 10 4 11 3 12 2 13
REMARK SMILES IDX 1 14
REMARK H PARENT
REMARK Flexibility Score: inf
ROOT
ATOM      1  C   UNL     1     192.742   1.113 100.597  1.00  0.00     0.000 C 
ENDROOT
BRANCH   1   2
ATOM      2  C   UNL     1     192.291   1.313 102.056  1.00  0.00     0.000 C 
BRANCH   2   3
ATOM      3  C   UNL     1     193.227   2.226 102.877  1.00  0.00     0.000 C 
BRANCH   3   4
ATOM      4  C   UNL     1     192.734   2.432 104.318  1.00  0.00     0.006 C 
BRANCH   4   5
ATOM      5  C   UNL     1     191.756   1.328 104.726  1.00  0.00     0.053 C 
BRANCH   5   6
ATOM      6  C   UNL     1     190.513   1.920 105.314  1.00  0.00     0.041 C 
ATOM      7  O   UNL     1     189.796   2.696 104.629  1.00  0.00    -0.550 OA
ATOM      8  O   UNL     1     190.172   1.653 106.634  1.00  0.00    -0.550 OA
ENDBRANCH   5   6
ENDBRANCH   4   5
ENDBRANCH   3   4
ENDBRANCH   2   3
ENDBRANCH   1   2
BRANCH   1   9
ATOM      9  C   UNL     1     192.000   1.979  99.560  1.00  0.00     0.000 C 
BRANCH   9  10
ATOM     10  C   UNL     1     192.530   3.418  99.417  1.00  0.00    -0.000 C 
BRANCH  10  11
ATOM     11  C   UNL     1     191.841   4.200  98.289  1.00  0.00    -0.000 C 
BRANCH  11  12
ATOM     12  C   UNL     1     191.335   3.254  97.194  1.00  0.00    -0.000 C 
BRANCH  12  13
ATOM     13  C   UNL     1     189.856   3.513  96.883  1.00  0.00    -0.003 C 
ATOM     14  C   UNL     1     189.108   3.996  98.122  1.00  0.00     0.004 C 
ENDBRANCH  12  13
ENDBRANCH  11  12
ENDBRANCH  10  11
ENDBRANCH   9  10
ENDBRANCH   1   9
TORSDOF 10
ENDMDL
MODEL 8
REMARK VINA RESULT:    -4.198      4.271      7.593
REMARK INTER + INTRA:          -7.342
REMARK INTER:                  -6.760
REMARK INTRA:                  -0.582
REMARK UNBOUND:                -0.691
REMARK SMILES CCCCCCCCCCCC(=O)[O-]
REMARK SMILES IDX 7 1 8 2 9 3 10 4 11 5 12 6 13 7 14 8 6 9 5 10 4 11 3 12 2 13
REMARK SMILES IDX 1 14
REMARK H PARENT
REMARK Flexibility Score: inf
ROOT
ATOM      1  C   UNL     1     192.183   1.949  99.693  1.00  0.00     0.000 C 
ENDROOT
BRANCH   1   2
ATOM      2  C   UNL     1     192.438   1.448 101.127  1.00  0.00     0.000 C 
BRANCH   2   3
ATOM      3  C   UNL     1     193.503   2.264 101.890  1.00  0.00     0.000 C 
BRANCH   3   4
ATOM      4  C   UNL     1     193.310   2.204 103.414  1.00  0.00     0.006 C 
BRANCH   4   5
ATOM      5  C   UNL     1     191.959   1.578 103.772  1.00  0.00     0.053 C 
BRANCH   5   6
ATOM      6  C   UNL     1     191.663   1.768 105.226  1.00  0.00     0.041 C 
ATOM      7  O   UNL     1     190.472   1.821 105.629  1.00  0.00    -0.550 OA
ATOM      8  O   UNL     1     192.704   1.934 106.131  1.00  0.00    -0.550 OA
ENDBRANCH   5   6
ENDBRANCH   4   5
ENDBRANCH   3   4
ENDBRANCH   2   3
ENDBRANCH   1   2
BRANCH   1   9
ATOM      9  C   UNL     1     192.792   3.326  99.364  1.00  0.00     0.000 C 
BRANCH   9  10
ATOM     10  C   UNL     1     191.853   4.291  98.617  1.00  0.00    -0.000 C 
BRANCH  10  11
ATOM     11  C   UNL     1     190.656   3.579  97.971  1.00  0.00    -0.000 C 
BRANCH  11  12
ATOM     12  C   UNL     1     190.157   4.349  96.742  1.00  0.00    -0.000 C 
BRANCH  12  13
ATOM     13  C   UNL     1     190.598   3.661  95.445  1.00  0.00    -0.003 C 
ATOM     14  C   UNL     1     191.913   4.242  94.932  1.00  0.00     0.004 C 
ENDBRANCH  12  13
ENDBRANCH  11  12
ENDBRANCH  10  11
ENDBRANCH   9  10
ENDBRANCH   1   9
TORSDOF 10
ENDMDL
MODEL 9
REMARK VINA RESULT:    -4.147      3.513      7.002
REMARK INTER + INTRA:          -7.263
REMARK INTER:                  -6.460
REMARK INTRA:                  -0.803
REMARK UNBOUND:                -0.691
REMARK SMILES CCCCCCCCCCCC(=O)[O-]
REMARK SMILES IDX 7 1 8 2 9 3 10 4 11 5 12 6 13 7 14 8 6 9 5 10 4 11 3 12 2 13
REMARK SMILES IDX 1 14
REMARK H PARENT
REMARK Flexibility Score: inf
ROOT
ATOM      1  C   UNL     1     191.704   1.475 100.709  1.00  0.00     0.000 C 
ENDROOT
BRANCH   1   2
ATOM      2  C   UNL     1     192.083   0.027 101.074  1.00  0.00     0.000 C 
BRANCH   2   3
ATOM      3  C   UNL     1     191.629  -0.396 102.488  1.00  0.00     0.000 C 
BRANCH   3   4
ATOM      4  C   UNL     1     191.681   0.763 103.495  1.00  0.00     0.006 C 
BRANCH   4   5
ATOM      5  C   UNL     1     192.965   0.708 104.329  1.00  0.00     0.053 C 
BRANCH   5   6
ATOM      6  C   UNL     1     193.646   2.041 104.328  1.00  0.00     0.041 C 
ATOM      7  O   UNL     1     193.826   2.660 105.409  1.00  0.00    -0.550 OA
ATOM      8  O   UNL     1     194.038   2.621 103.128  1.00  0.00    -0.550 OA
ENDBRANCH   5   6
ENDBRANCH   4   5
ENDBRANCH   3   4
ENDBRANCH   2   3
ENDBRANCH   1   2
BRANCH   1   9
ATOM      9  C   UNL     1     192.346   2.011  99.415  1.00  0.00     0.000 C 
BRANCH   9  10
ATOM     10  C   UNL     1     192.582   3.533  99.389  1.00  0.00    -0.000 C 
BRANCH  10  11
ATOM     11  C   UNL     1     191.940   4.217  98.172  1.00  0.00    -0.000 C 
BRANCH  11  12
ATOM     12  C   UNL     1     191.268   3.188  97.255  1.00  0.00    -0.000 C 
BRANCH  12  13
ATOM     13  C   UNL     1     189.824   3.594  96.938  1.00  0.00    -0.003 C 
ATOM     14  C   UNL     1     189.013   3.789  98.215  1.00  0.00     0.004 C 
ENDBRANCH  12  13
ENDBRANCH  11  12
ENDBRANCH  10  11
ENDBRANCH   9  10
ENDBRANCH   1   9
TORSDOF 10
ENDMDL
