MODEL 1
REMARK VINA RESULT:    -2.405      0.000      0.000
REMARK INTER + INTRA:          -4.086
REMARK INTER:                  -3.248
REMARK INTRA:                  -0.838
REMARK UNBOUND:                -0.838
REMARK SMILES CCCCCCCC(C)=O
REMARK SMILES IDX 5 1 4 2 3 3 2 4 1 5 6 6 7 7 8 8 10 9 9 10
REMARK H PARENT
REMARK Flexibility Score: inf
ROOT
ATOM      1  C   UNL     1     151.905 142.414 139.370  1.00  0.00     0.000 C 
ENDROOT
BRANCH   1   2
ATOM      2  C   UNL     1     153.320 142.520 138.788  1.00  0.00     0.000 C 
BRANCH   2   3
ATOM      3  C   UNL     1     154.254 143.267 139.750  1.00  0.00    -0.000 C 
BRANCH   3   4
ATOM      4  C   UNL     1     154.858 144.534 139.123  1.00  0.00    -0.003 C 
ATOM      5  C   UNL     1     154.782 144.531 137.597  1.00  0.00     0.004 C 
ENDBRANCH   3   4
ENDBRANCH   2   3
ENDBRANCH   1   2
BRANCH   1   6
ATOM      6  C   UNL     1     150.936 143.354 138.637  1.00  0.00     0.008 C 
BRANCH   6   7
ATOM      7  C   UNL     1     150.369 144.440 139.563  1.00  0.00     0.075 C 
BRANCH   7   8
ATOM      8  C   UNL     1     151.330 145.586 139.743  1.00  0.00     0.129 C 
ATOM      9  O   UNL     1     151.846 145.778 140.833  1.00  0.00    -0.300 OA
ATOM     10  C   UNL     1     151.687 146.481 138.593  1.00  0.00     0.087 C 
ENDBRANCH   7   8
ENDBRANCH   6   7
ENDBRANCH   1   6
TORSDOF 6
ENDMDL
MODEL 2
REMARK VINA RESULT:    -2.325      8.497     10.150
REMARK INTER + INTRA:          -3.979
REMARK INTER:                  -3.321
REMARK INTRA:                  -0.658
REMARK UNBOUND:                -0.838
REMARK SMILES CCCCCCCC(C)=O
REMARK SMILES IDX 5 1 4 2 3 3 2 4 1 5 6 6 7 7 8 8 10 9 9 10
REMARK H PARENT
REMARK Flexibility Score: inf
ROOT
ATOM      1  C   UNL     1     155.180 154.309 138.019  1.00  0.00     0.000 C 
ENDROOT
BRANCH   1   2
ATOM      2  C   UNL     1     156.173 155.099 138.880  1.00  0.00     0.000 C 
BRANCH   2   3
ATOM      3  C   UNL     1     157.586 154.507 138.773  1.00  0.00    -0.000 C 
BRANCH   3   4
ATOM      4  C   UNL     1     158.259 154.332 140.145  1.00  0.00    -0.003 C 
ATOM      5  C   UNL     1     159.746 154.000 140.035  1.00  0.00     0.004 C 
ENDBRANCH   3   4
ENDBRANCH   2   3
ENDBRANCH   1   2
BRANCH   1   6
ATOM      6  C   UNL     1     155.680 152.877 137.776  1.00  0.00     0.008 C 
BRANCH   6   7
ATOM      7  C   UNL     1     154.970 151.854 138.673  1.00  0.00     0.075 C 
BRANCH   7   8
ATOM      8  C   UNL     1     155.806 151.474 139.868  1.00  0.00     0.129 C 
ATOM      9  O   UNL     1     155.460 151.827 140.985  1.00  0.00    -0.300 OA
ATOM     10  C   UNL     1     157.044 150.643 139.709  1.00  0.00     0.087 C 
ENDBRANCH   7   8
ENDBRANCH   6   7
ENDBRANCH   1   6
TORSDOF 6
ENDMDL
MODEL 3
REMARK VINA RESULT:    -2.312      7.488      9.579
REMARK INTER + INTRA:          -3.961
REMARK INTER:                  -3.168
REMARK INTRA:                  -0.793
REMARK UNBOUND:                -0.838
REMARK SMILES CCCCCCCC(C)=O
REMARK SMILES IDX 5 1 4 2 3 3 2 4 1 5 6 6 7 7 8 8 10 9 9 10
REMARK H PARENT
REMARK Flexibility Score: inf
ROOT
ATOM      1  C   UNL     1     142.796 148.966 138.576  1.00  0.00     0.000 C 
ENDROOT
BRANCH   1   2
ATOM      2  C   UNL     1     142.398 147.751 139.422  1.00  0.00     0.000 C 
BRANCH   2   3
ATOM      3  C   UNL     1     143.596 146.816 139.640  1.00  0.00    -0.000 C 
BRANCH   3   4
ATOM      4  C   UNL     1     144.384 146.554 138.346  1.00  0.00    -0.003 C 
ATOM      5  C   UNL     1     145.801 146.049 138.610  1.00  0.00     0.004 C 
ENDBRANCH   3   4
ENDBRANCH   2   3
ENDBRANCH   1   2
BRANCH   1   6
ATOM      6  C   UNL     1     143.160 150.163 139.467  1.00  0.00     0.008 C 
BRANCH   6   7
ATOM      7  C   UNL     1     144.494 150.805 139.061  1.00  0.00     0.075 C 
BRANCH   7   8
ATOM      8  C   UNL     1     145.673 149.950 139.448  1.00  0.00     0.129 C 
ATOM      9  O   UNL     1     145.727 149.465 140.567  1.00  0.00    -0.300 OA
ATOM     10  C   UNL     1     146.769 149.660 138.468  1.00  0.00     0.087 C 
ENDBRANCH   7   8
ENDBRANCH   6   7
ENDBRANCH   1   6
TORSDOF 6
ENDMDL
MODEL 4
REMARK VINA RESULT:    -2.287      8.403     10.106
REMARK INTER + INTRA:          -3.927
REMARK INTER:                  -3.118
REMARK INTRA:                  -0.809
REMARK UNBOUND:                -0.838
REMARK SMILES CCCCCCCC(C)=O
REMARK SMILES IDX 5 1 4 2 3 3 2 4 1 5 6 6 7 7 8 8 10 9 9 10
REMARK H PARENT
REMARK Flexibility Score: inf
ROOT
ATOM      1  C   UNL     1     158.796 152.645 138.585  1.00  0.00     0.000 C 
ENDROOT
BRANCH   1   2
ATOM      2  C   UNL     1     158.952 153.763 139.623  1.00  0.00     0.000 C 
BRANCH   2   3
ATOM      3  C   UNL     1     157.662 154.588 139.739  1.00  0.00    -0.000 C 
BRANCH   3   4
ATOM      4  C   UNL     1     156.963 154.786 138.384  1.00  0.00    -0.003 C 
ATOM      5  C   UNL     1     155.474 155.098 138.528  1.00  0.00     0.004 C 
ENDBRANCH   3   4
ENDBRANCH   2   3
ENDBRANCH   1   2
BRANCH   1   6
ATOM      6  C   UNL     1     158.173 151.390 139.215  1.00  0.00     0.008 C 
BRANCH   6   7
ATOM      7  C   UNL     1     156.943 150.900 138.438  1.00  0.00     0.075 C 
BRANCH   7   8
ATOM      8  C   UNL     1     155.655 151.334 139.088  1.00  0.00     0.129 C 
ATOM      9  O   UNL     1     154.622 151.345 138.435  1.00  0.00    -0.300 OA
ATOM     10  C   UNL     1     155.614 151.726 140.534  1.00  0.00     0.087 C 
ENDBRANCH   7   8
ENDBRANCH   6   7
ENDBRANCH   1   6
TORSDOF 6
ENDMDL
MODEL 5
REMARK VINA RESULT:    -2.283     12.245     14.532
REMARK INTER + INTRA:          -3.922
REMARK INTER:                  -3.280
REMARK INTRA:                  -0.642
REMARK UNBOUND:                -0.838
REMARK SMILES CCCCCCCC(C)=O
REMARK SMILES IDX 5 1 4 2 3 3 2 4 1 5 6 6 7 7 8 8 10 9 9 10
REMARK H PARENT
REMARK Flexibility Score: inf
ROOT
ATOM      1  C   UNL     1     148.268 159.593 138.961  1.00  0.00     0.000 C 
ENDROOT
BRANCH   1   2
ATOM      2  C   UNL     1     147.195 159.331 140.024  1.00  0.00     0.000 C 
BRANCH   2   3
ATOM      3  C   UNL     1     146.794 157.849 140.048  1.00  0.00    -0.000 C 
BRANCH   3   4
ATOM      4  C   UNL     1     146.548 157.281 138.640  1.00  0.00    -0.003 C 
ATOM      5  C   UNL     1     146.220 155.789 138.654  1.00  0.00     0.004 C 
ENDBRANCH   3   4
ENDBRANCH   2   3
ENDBRANCH   1   2
BRANCH   1   6
ATOM      6  C   UNL     1     149.647 159.115 139.441  1.00  0.00     0.008 C 
BRANCH   6   7
ATOM      7  C   UNL     1     150.218 158.003 138.549  1.00  0.00     0.075 C 
BRANCH   7   8
ATOM      8  C   UNL     1     150.794 156.871 139.359  1.00  0.00     0.129 C 
ATOM      9  O   UNL     1     152.005 156.714 139.402  1.00  0.00    -0.300 OA
ATOM     10  C   UNL     1     149.905 155.949 140.138  1.00  0.00     0.087 C 
ENDBRANCH   7   8
ENDBRANCH   6   7
ENDBRANCH   1   6
TORSDOF 6
ENDMDL
MODEL 6
REMARK VINA RESULT:    -2.257     12.501     14.646
REMARK INTER + INTRA:          -3.887
REMARK INTER:                  -3.179
REMARK INTRA:                  -0.708
REMARK UNBOUND:                -0.838
REMARK SMILES CCCCCCCC(C)=O
REMARK SMILES IDX 5 1 4 2 3 3 2 4 1 5 6 6 7 7 8 8 10 9 9 10
REMARK H PARENT
REMARK Flexibility Score: inf
ROOT
ATOM      1  C   UNL     1     146.670 157.999 140.106  1.00  0.00     0.000 C 
ENDROOT
BRANCH   1   2
ATOM      2  C   UNL     1     146.815 157.295 138.752  1.00  0.00     0.000 C 
BRANCH   2   3
ATOM      3  C   UNL     1     147.330 155.860 138.930  1.00  0.00    -0.000 C 
BRANCH   3   4
ATOM      4  C   UNL     1     148.864 155.774 138.894  1.00  0.00    -0.003 C 
ATOM      5  C   UNL     1     149.484 155.682 140.288  1.00  0.00     0.004 C 
ENDBRANCH   3   4
ENDBRANCH   2   3
ENDBRANCH   1   2
BRANCH   1   6
ATOM      6  C   UNL     1     147.231 159.428 140.048  1.00  0.00     0.008 C 
BRANCH   6   7
ATOM      7  C   UNL     1     148.199 159.623 138.872  1.00  0.00     0.075 C 
BRANCH   7   8
ATOM      8  C   UNL     1     149.634 159.695 139.328  1.00  0.00     0.129 C 
ATOM      9  O   UNL     1     149.919 160.337 140.327  1.00  0.00    -0.300 OA
ATOM     10  C   UNL     1     150.715 158.964 138.590  1.00  0.00     0.087 C 
ENDBRANCH   7   8
ENDBRANCH   6   7
ENDBRANCH   1   6
TORSDOF 6
ENDMDL
MODEL 7
REMARK VINA RESULT:    -2.236      8.636     10.619
REMARK INTER + INTRA:          -3.859
REMARK INTER:                  -3.035
REMARK INTRA:                  -0.824
REMARK UNBOUND:                -0.838
REMARK SMILES CCCCCCCC(C)=O
REMARK SMILES IDX 5 1 4 2 3 3 2 4 1 5 6 6 7 7 8 8 10 9 9 10
REMARK H PARENT
REMARK Flexibility Score: inf
ROOT
ATOM      1  C   UNL     1     157.270 154.676 138.127  1.00  0.00     0.000 C 
ENDROOT
BRANCH   1   2
ATOM      2  C   UNL     1     156.250 154.013 139.062  1.00  0.00     0.000 C 
BRANCH   2   3
ATOM      3  C   UNL     1     155.363 153.024 138.293  1.00  0.00    -0.000 C 
BRANCH   3   4
ATOM      4  C   UNL     1     155.155 151.704 139.053  1.00  0.00    -0.003 C 
ATOM      5  C   UNL     1     155.693 151.754 140.482  1.00  0.00     0.004 C 
ENDBRANCH   3   4
ENDBRANCH   2   3
ENDBRANCH   1   2
BRANCH   1   6
ATOM      6  C   UNL     1     158.578 153.873 138.081  1.00  0.00     0.008 C 
BRANCH   6   7
ATOM      7  C   UNL     1     158.953 153.296 139.453  1.00  0.00     0.075 C 
BRANCH   7   8
ATOM      8  C   UNL     1     159.334 151.840 139.368  1.00  0.00     0.129 C 
ATOM      9  O   UNL     1     160.122 151.373 140.176  1.00  0.00    -0.300 OA
ATOM     10  C   UNL     1     158.736 150.946 138.324  1.00  0.00     0.087 C 
ENDBRANCH   7   8
ENDBRANCH   6   7
ENDBRANCH   1   6
TORSDOF 6
ENDMDL
MODEL 8
REMARK VINA RESULT:    -2.226      8.547     10.476
REMARK INTER + INTRA:          -3.845
REMARK INTER:                  -3.089
REMARK INTRA:                  -0.756
REMARK UNBOUND:                -0.838
REMARK SMILES CCCCCCCC(C)=O
REMARK SMILES IDX 5 1 4 2 3 3 2 4 1 5 6 6 7 7 8 8 10 9 9 10
REMARK H PARENT
REMARK Flexibility Score: inf
ROOT
ATOM      1  C   UNL     1     143.826 146.889 138.793  1.00  0.00     0.000 C 
ENDROOT
BRANCH   1   2
ATOM      2  C   UNL     1     143.124 146.857 140.156  1.00  0.00     0.000 C 
BRANCH   2   3
ATOM      3  C   UNL     1     141.655 147.282 140.028  1.00  0.00    -0.000 C 
BRANCH   3   4
ATOM      4  C   UNL     1     141.470 148.499 139.106  1.00  0.00    -0.003 C 
ATOM      5  C   UNL     1     141.190 149.787 139.877  1.00  0.00     0.004 C 
ENDBRANCH   3   4
ENDBRANCH   2   3
ENDBRANCH   1   2
BRANCH   1   6
ATOM      6  C   UNL     1     145.173 147.622 138.885  1.00  0.00     0.008 C 
BRANCH   6   7
ATOM      7  C   UNL     1     145.166 148.716 139.962  1.00  0.00     0.075 C 
BRANCH   7   8
ATOM      8  C   UNL     1     144.878 150.076 139.383  1.00  0.00     0.129 C 
ATOM      9  O   UNL     1     144.577 150.998 140.125  1.00  0.00    -0.300 OA
ATOM     10  C   UNL     1     144.984 150.325 137.908  1.00  0.00     0.087 C 
ENDBRANCH   7   8
ENDBRANCH   6   7
ENDBRANCH   1   6
TORSDOF 6
ENDMDL
MODEL 9
REMARK VINA RESULT:    -2.217      8.254      9.655
REMARK INTER + INTRA:          -3.833
REMARK INTER:                  -3.044
REMARK INTRA:                  -0.789
REMARK UNBOUND:                -0.838
REMARK SMILES CCCCCCCC(C)=O
REMARK SMILES IDX 5 1 4 2 3 3 2 4 1 5 6 6 7 7 8 8 10 9 9 10
REMARK H PARENT
REMARK Flexibility Score: inf
ROOT
ATOM      1  C   UNL     1     145.644 147.227 138.657  1.00  0.00     0.000 C 
ENDROOT
BRANCH   1   2
ATOM      2  C   UNL     1     145.630 148.221 137.489  1.00  0.00     0.000 C 
BRANCH   2   3
ATOM      3  C   UNL     1     145.785 149.663 137.993  1.00  0.00    -0.000 C 
BRANCH   3   4
ATOM      4  C   UNL     1     145.821 149.753 139.527  1.00  0.00    -0.003 C 
ATOM      5  C   UNL     1     144.643 150.540 140.100  1.00  0.00     0.004 C 
ENDBRANCH   3   4
ENDBRANCH   2   3
ENDBRANCH   1   2
BRANCH   1   6
ATOM      6  C   UNL     1     144.309 146.475 138.756  1.00  0.00     0.008 C 
BRANCH   6   7
ATOM      7  C   UNL     1     143.531 146.838 140.029  1.00  0.00     0.075 C 
BRANCH   7   8
ATOM      8  C   UNL     1     142.176 147.418 139.717  1.00  0.00     0.129 C 
ATOM      9  O   UNL     1     141.224 147.150 140.433  1.00  0.00    -0.300 OA
ATOM     10  C   UNL     1     141.983 148.345 138.554  1.00  0.00     0.087 C 
ENDBRANCH   7   8
ENDBRANCH   6   7
ENDBRANCH   1   6
TORSDOF 6
ENDMDL
