MODEL 1
REMARK VINA RESULT:    -3.153      0.000      0.000
REMARK INTER + INTRA:          -4.008
REMARK INTER:                  -3.890
REMARK INTRA:                  -0.118
REMARK UNBOUND:                -0.118
REMARK SMILES CCCCCC(=O)[O-]
REMARK SMILES IDX 4 1 5 2 6 3 7 4 8 5 3 6 2 7 1 8
REMARK H PARENT
REMARK Flexibility Score: inf
ROOT
ATOM      1  C   UNL     1      22.832   3.891  12.947  1.00  0.00     0.006 C 
ENDROOT
BRANCH   1   2
ATOM      2  C   UNL     1      23.534   3.126  14.076  1.00  0.00     0.053 C 
BRANCH   2   3
ATOM      3  C   UNL     1      22.995   1.734  14.177  1.00  0.00     0.041 C 
ATOM      4  O   UNL     1      21.929   1.423  13.583  1.00  0.00    -0.550 OA
ATOM      5  O   UNL     1      23.641   0.793  14.968  1.00  0.00    -0.550 OA
ENDBRANCH   2   3
ENDBRANCH   1   2
BRANCH   1   6
ATOM      6  C   UNL     1      23.607   5.144  12.501  1.00  0.00     0.000 C 
BRANCH   6   7
ATOM      7  C   UNL     1      25.071   5.200  12.972  1.00  0.00    -0.003 C 
ATOM      8  C   UNL     1      25.436   6.525  13.638  1.00  0.00     0.004 C 
ENDBRANCH   6   7
ENDBRANCH   1   6
TORSDOF 4
ENDMDL
MODEL 2
REMARK VINA RESULT:    -3.139      1.263      1.703
REMARK INTER + INTRA:          -3.991
REMARK INTER:                  -3.818
REMARK INTRA:                  -0.173
REMARK UNBOUND:                -0.118
REMARK SMILES CCCCCC(=O)[O-]
REMARK SMILES IDX 4 1 5 2 6 3 7 4 8 5 3 6 2 7 1 8
REMARK H PARENT
REMARK Flexibility Score: inf
ROOT
ATOM      1  C   UNL     1      22.800   3.437  14.036  1.00  0.00     0.006 C 
ENDROOT
BRANCH   1   2
ATOM      2  C   UNL     1      22.749   1.904  14.046  1.00  0.00     0.053 C 
BRANCH   2   3
ATOM      3  C   UNL     1      23.789   1.353  14.969  1.00  0.00     0.041 C 
ATOM      4  O   UNL     1      24.723   2.089  15.383  1.00  0.00    -0.550 OA
ATOM      5  O   UNL     1      23.758   0.012  15.331  1.00  0.00    -0.550 OA
ENDBRANCH   2   3
ENDBRANCH   1   2
BRANCH   1   6
ATOM      6  C   UNL     1      22.825   4.026  12.614  1.00  0.00     0.000 C 
BRANCH   6   7
ATOM      7  C   UNL     1      23.901   5.102  12.379  1.00  0.00    -0.003 C 
ATOM      8  C   UNL     1      25.046   5.032  13.387  1.00  0.00     0.004 C 
ENDBRANCH   6   7
ENDBRANCH   1   6
TORSDOF 4
ENDMDL
MODEL 3
REMARK VINA RESULT:    -2.992     10.051     11.188
REMARK INTER + INTRA:          -3.810
REMARK INTER:                  -3.712
REMARK INTRA:                  -0.098
REMARK UNBOUND:                -0.118
REMARK SMILES CCCCCC(=O)[O-]
REMARK SMILES IDX 4 1 5 2 6 3 7 4 8 5 3 6 2 7 1 8
REMARK H PARENT
REMARK Flexibility Score: inf
ROOT
ATOM      1  C   UNL     1      13.054   2.626   9.385  1.00  0.00     0.006 C 
ENDROOT
BRANCH   1   2
ATOM      2  C   UNL     1      13.700   1.239   9.263  1.00  0.00     0.053 C 
BRANCH   2   3
ATOM      3  C   UNL     1      12.837   0.332   8.444  1.00  0.00     0.041 C 
ATOM      4  O   UNL     1      13.165  -0.872   8.275  1.00  0.00    -0.550 OA
ATOM      5  O   UNL     1      11.697   0.828   7.825  1.00  0.00    -0.550 OA
ENDBRANCH   2   3
ENDBRANCH   1   2
BRANCH   1   6
ATOM      6  C   UNL     1      13.484   3.377  10.657  1.00  0.00     0.000 C 
BRANCH   6   7
ATOM      7  C   UNL     1      14.834   2.930  11.247  1.00  0.00    -0.003 C 
ATOM      8  C   UNL     1      15.730   4.101  11.644  1.00  0.00     0.004 C 
ENDBRANCH   6   7
ENDBRANCH   1   6
TORSDOF 4
ENDMDL
MODEL 4
REMARK VINA RESULT:    -2.963      3.468      4.820
REMARK INTER + INTRA:          -3.774
REMARK INTER:                  -3.680
REMARK INTRA:                  -0.094
REMARK UNBOUND:                -0.118
REMARK SMILES CCCCCC(=O)[O-]
REMARK SMILES IDX 4 1 5 2 6 3 7 4 8 5 3 6 2 7 1 8
REMARK H PARENT
REMARK Flexibility Score: inf
ROOT
ATOM      1  C   UNL     1      24.555   4.358  14.198  1.00  0.00     0.006 C 
ENDROOT
BRANCH   1   2
ATOM      2  C   UNL     1      25.105   5.204  13.042  1.00  0.00     0.053 C 
BRANCH   2   3
ATOM      3  C   UNL     1      25.187   6.643  13.442  1.00  0.00     0.041 C 
ATOM      4  O   UNL     1      26.238   7.096  13.970  1.00  0.00    -0.550 OA
ATOM      5  O   UNL     1      24.087   7.475  13.280  1.00  0.00    -0.550 OA
ENDBRANCH   2   3
ENDBRANCH   1   2
BRANCH   1   6
ATOM      6  C   UNL     1      23.432   3.402  13.759  1.00  0.00     0.000 C 
BRANCH   6   7
ATOM      7  C   UNL     1      23.432   2.036  14.470  1.00  0.00    -0.003 C 
ATOM      8  C   UNL     1      24.569   1.887  15.479  1.00  0.00     0.004 C 
ENDBRANCH   6   7
ENDBRANCH   1   6
TORSDOF 4
ENDMDL
MODEL 5
REMARK VINA RESULT:    -2.958      1.599      2.538
REMARK INTER + INTRA:          -3.768
REMARK INTER:                  -3.633
REMARK INTRA:                  -0.136
REMARK UNBOUND:                -0.118
REMARK SMILES CCCCCC(=O)[O-]
REMARK SMILES IDX 4 1 5 2 6 3 7 4 8 5 3 6 2 7 1 8
REMARK H PARENT
REMARK Flexibility Score: inf
ROOT
ATOM      1  C   UNL     1      24.995   5.283  13.046  1.00  0.00     0.006 C 
ENDROOT
BRANCH   1   2
ATOM      2  C   UNL     1      24.619   4.272  14.136  1.00  0.00     0.053 C 
BRANCH   2   3
ATOM      3  C   UNL     1      23.514   3.381  13.663  1.00  0.00     0.041 C 
ATOM      4  O   UNL     1      23.341   2.250  14.190  1.00  0.00    -0.550 OA
ATOM      5  O   UNL     1      22.705   3.778  12.606  1.00  0.00    -0.550 OA
ENDBRANCH   2   3
ENDBRANCH   1   2
BRANCH   1   6
ATOM      6  C   UNL     1      25.512   6.616  13.617  1.00  0.00     0.000 C 
BRANCH   6   7
ATOM      7  C   UNL     1      24.471   7.750  13.653  1.00  0.00    -0.003 C 
ATOM      8  C   UNL     1      23.151   7.371  12.985  1.00  0.00     0.004 C 
ENDBRANCH   6   7
ENDBRANCH   1   6
TORSDOF 4
ENDMDL
MODEL 6
REMARK VINA RESULT:    -2.949     10.120     11.174
REMARK INTER + INTRA:          -3.757
REMARK INTER:                  -3.654
REMARK INTRA:                  -0.102
REMARK UNBOUND:                -0.118
REMARK SMILES CCCCCC(=O)[O-]
REMARK SMILES IDX 4 1 5 2 6 3 7 4 8 5 3 6 2 7 1 8
REMARK H PARENT
REMARK Flexibility Score: inf
ROOT
ATOM      1  C   UNL     1      15.203   0.704   9.379  1.00  0.00     0.006 C 
ENDROOT
BRANCH   1   2
ATOM      2  C   UNL     1      13.756   1.205   9.293  1.00  0.00     0.053 C 
BRANCH   2   3
ATOM      3  C   UNL     1      12.930   0.274   8.462  1.00  0.00     0.041 C 
ATOM      4  O   UNL     1      11.887   0.690   7.891  1.00  0.00    -0.550 OA
ATOM      5  O   UNL     1      13.284  -1.065   8.357  1.00  0.00    -0.550 OA
ENDBRANCH   2   3
ENDBRANCH   1   2
BRANCH   1   6
ATOM      6  C   UNL     1      15.626   0.339  10.813  1.00  0.00     0.000 C 
BRANCH   6   7
ATOM      7  C   UNL     1      16.417  -0.976  10.939  1.00  0.00    -0.003 C 
ATOM      8  C   UNL     1      15.885  -1.891  12.041  1.00  0.00     0.004 C 
ENDBRANCH   6   7
ENDBRANCH   1   6
TORSDOF 4
ENDMDL
MODEL 7
REMARK VINA RESULT:    -2.943      5.556      8.184
REMARK INTER + INTRA:          -3.749
REMARK INTER:                  -3.688
REMARK INTRA:                  -0.061
REMARK UNBOUND:                -0.118
REMARK SMILES CCCCCC(=O)[O-]
REMARK SMILES IDX 4 1 5 2 6 3 7 4 8 5 3 6 2 7 1 8
REMARK H PARENT
REMARK Flexibility Score: inf
ROOT
ATOM      1  C   UNL     1      23.918  -3.027  15.901  1.00  0.00     0.006 C 
ENDROOT
BRANCH   1   2
ATOM      2  C   UNL     1      23.174  -2.970  14.561  1.00  0.00     0.053 C 
BRANCH   2   3
ATOM      3  C   UNL     1      22.869  -1.552  14.194  1.00  0.00     0.041 C 
ATOM      4  O   UNL     1      23.368  -0.604  14.857  1.00  0.00    -0.550 OA
ATOM      5  O   UNL     1      21.994  -1.276  13.151  1.00  0.00    -0.550 OA
ENDBRANCH   2   3
ENDBRANCH   1   2
BRANCH   1   6
ATOM      6  C   UNL     1      23.326  -4.066  16.871  1.00  0.00     0.000 C 
BRANCH   6   7
ATOM      7  C   UNL     1      24.366  -4.841  17.700  1.00  0.00    -0.003 C 
ATOM      8  C   UNL     1      23.778  -6.062  18.405  1.00  0.00     0.004 C 
ENDBRANCH   6   7
ENDBRANCH   1   6
TORSDOF 4
ENDMDL
MODEL 8
REMARK VINA RESULT:    -2.885      6.496      7.797
REMARK INTER + INTRA:          -3.677
REMARK INTER:                  -3.597
REMARK INTRA:                  -0.080
REMARK UNBOUND:                -0.118
REMARK SMILES CCCCCC(=O)[O-]
REMARK SMILES IDX 4 1 5 2 6 3 7 4 8 5 3 6 2 7 1 8
REMARK H PARENT
REMARK Flexibility Score: inf
ROOT
ATOM      1  C   UNL     1      18.644  -1.534  11.755  1.00  0.00     0.006 C 
ENDROOT
BRANCH   1   2
ATOM      2  C   UNL     1      17.715  -1.196  10.581  1.00  0.00     0.053 C 
BRANCH   2   3
ATOM      3  C   UNL     1      16.373  -0.768  11.084  1.00  0.00     0.041 C 
ATOM      4  O   UNL     1      15.881   0.334  10.722  1.00  0.00    -0.550 OA
ATOM      5  O   UNL     1      15.685  -1.562  11.993  1.00  0.00    -0.550 OA
ENDBRANCH   2   3
ENDBRANCH   1   2
BRANCH   1   6
ATOM      6  C   UNL     1      20.056  -1.945  11.302  1.00  0.00     0.000 C 
BRANCH   6   7
ATOM      7  C   UNL     1      21.190  -1.048  11.830  1.00  0.00    -0.003 C 
ATOM      8  C   UNL     1      20.927  -0.518  13.239  1.00  0.00     0.004 C 
ENDBRANCH   6   7
ENDBRANCH   1   6
TORSDOF 4
ENDMDL
MODEL 9
REMARK VINA RESULT:    -2.858      9.447     10.405
REMARK INTER + INTRA:          -3.645
REMARK INTER:                  -3.561
REMARK INTRA:                  -0.083
REMARK UNBOUND:                -0.118
REMARK SMILES CCCCCC(=O)[O-]
REMARK SMILES IDX 4 1 5 2 6 3 7 4 8 5 3 6 2 7 1 8
REMARK H PARENT
REMARK Flexibility Score: inf
ROOT
ATOM      1  C   UNL     1      15.958   0.000  10.562  1.00  0.00     0.006 C 
ENDROOT
BRANCH   1   2
ATOM      2  C   UNL     1      15.494   0.410   9.158  1.00  0.00     0.053 C 
BRANCH   2   3
ATOM      3  C   UNL     1      14.001   0.489   9.105  1.00  0.00     0.041 C 
ATOM      4  O   UNL     1      13.405   1.519   9.517  1.00  0.00    -0.550 OA
ATOM      5  O   UNL     1      13.262  -0.595   8.646  1.00  0.00    -0.550 OA
ENDBRANCH   2   3
ENDBRANCH   1   2
BRANCH   1   6
ATOM      6  C   UNL     1      17.261  -0.818  10.547  1.00  0.00     0.000 C 
BRANCH   6   7
ATOM      7  C   UNL     1      17.395  -1.839  11.691  1.00  0.00    -0.003 C 
ATOM      8  C   UNL     1      16.061  -2.170  12.357  1.00  0.00     0.004 C 
ENDBRANCH   6   7
ENDBRANCH   1   6
TORSDOF 4
ENDMDL
