MODEL 1
REMARK VINA RESULT:    -3.856      0.000      0.000
REMARK INTER + INTRA:          -4.962
REMARK INTER:                  -4.645
REMARK INTRA:                  -0.317
REMARK UNBOUND:                -0.317
REMARK SMILES NC(=O)C[C@H]([NH3+])C(=O)[O-]
REMARK SMILES IDX 4 1 5 2 6 3 7 7 8 8 9 9 2 10 3 11 1 12
REMARK H PARENT 6 4 6 5 6 6 1 13 1 14
REMARK Flexibility Score: inf
ROOT
ATOM      1  C   UNL     1      27.912  26.761  22.871  1.00  0.00     0.171 C 
ENDROOT
BRANCH   1   2
ATOM      2  C   UNL     1      28.553  26.422  21.508  1.00  0.00     0.237 C 
BRANCH   2   3
ATOM      3  N   UNL     1      27.539  26.166  20.476  1.00  0.00    -0.350 N 
ATOM      4  H   UNL     1      26.592  26.029  20.900  1.00  0.00     0.345 HD
ATOM      5  H   UNL     1      27.501  26.971  19.810  1.00  0.00     0.345 HD
ATOM      6  H   UNL     1      27.796  25.308  19.936  1.00  0.00     0.345 HD
ENDBRANCH   2   3
BRANCH   2   7
ATOM      7  C   UNL     1      29.521  25.272  21.624  1.00  0.00     0.100 C 
ATOM      8  O   UNL     1      29.395  24.246  20.904  1.00  0.00    -0.544 OA
ATOM      9  O   UNL     1      30.535  25.319  22.572  1.00  0.00    -0.544 OA
ENDBRANCH   2   7
ENDBRANCH   1   2
BRANCH   1  10
ATOM     10  C   UNL     1      26.431  26.504  22.914  1.00  0.00     0.223 C 
ATOM     11  O   UNL     1      25.995  25.329  22.784  1.00  0.00    -0.275 OA
ATOM     12  N   UNL     1      25.515  27.580  23.121  1.00  0.00    -0.369 N 
ATOM     13  H   UNL     1      25.859  28.559  23.235  1.00  0.00     0.159 HD
ATOM     14  H   UNL     1      24.488  27.396  23.164  1.00  0.00     0.159 HD
ENDBRANCH   1  10
TORSDOF 4
ENDMDL
MODEL 2
REMARK VINA RESULT:    -3.723      0.494      1.179
REMARK INTER + INTRA:          -4.802
REMARK INTER:                  -4.534
REMARK INTRA:                  -0.268
REMARK UNBOUND:                -0.317
REMARK SMILES NC(=O)C[C@H]([NH3+])C(=O)[O-]
REMARK SMILES IDX 4 1 5 2 6 3 7 7 8 8 9 9 2 10 3 11 1 12
REMARK H PARENT 6 4 6 5 6 6 1 13 1 14
REMARK Flexibility Score: inf
ROOT
ATOM      1  C   UNL     1      27.522  26.718  23.200  1.00  0.00     0.171 C 
ENDROOT
BRANCH   1   2
ATOM      2  C   UNL     1      28.256  26.532  21.854  1.00  0.00     0.237 C 
BRANCH   2   3
ATOM      3  N   UNL     1      27.338  26.124  20.783  1.00  0.00    -0.350 N 
ATOM      4  H   UNL     1      26.374  25.952  21.153  1.00  0.00     0.345 HD
ATOM      5  H   UNL     1      27.294  26.870  20.051  1.00  0.00     0.345 HD
ATOM      6  H   UNL     1      27.689  25.247  20.334  1.00  0.00     0.345 HD
ENDBRANCH   2   3
BRANCH   2   7
ATOM      7  C   UNL     1      29.411  25.572  21.984  1.00  0.00     0.100 C 
ATOM      8  O   UNL     1      30.319  25.765  22.837  1.00  0.00    -0.544 OA
ATOM      9  O   UNL     1      29.507  24.489  21.120  1.00  0.00    -0.544 OA
ENDBRANCH   2   7
ENDBRANCH   1   2
BRANCH   1  10
ATOM     10  C   UNL     1      26.024  26.738  23.063  1.00  0.00     0.223 C 
ATOM     11  O   UNL     1      25.403  25.671  22.813  1.00  0.00    -0.275 OA
ATOM     12  N   UNL     1      25.298  27.955  23.236  1.00  0.00    -0.369 N 
ATOM     13  H   UNL     1      25.796  28.849  23.448  1.00  0.00     0.159 HD
ATOM     14  H   UNL     1      24.257  27.963  23.154  1.00  0.00     0.159 HD
ENDBRANCH   1  10
TORSDOF 4
ENDMDL
MODEL 3
REMARK VINA RESULT:    -3.718      1.181      3.849
REMARK INTER + INTRA:          -4.796
REMARK INTER:                  -4.683
REMARK INTRA:                  -0.112
REMARK UNBOUND:                -0.317
REMARK SMILES NC(=O)C[C@H]([NH3+])C(=O)[O-]
REMARK SMILES IDX 4 1 5 2 6 3 7 7 8 8 9 9 2 10 3 11 1 12
REMARK H PARENT 6 4 6 5 6 6 1 13 1 14
REMARK Flexibility Score: inf
ROOT
ATOM      1  C   UNL     1      27.513  26.302  22.707  1.00  0.00     0.171 C 
ENDROOT
BRANCH   1   2
ATOM      2  C   UNL     1      25.974  26.408  22.673  1.00  0.00     0.237 C 
BRANCH   2   3
ATOM      3  N   UNL     1      25.506  27.715  23.154  1.00  0.00    -0.350 N 
ATOM      4  H   UNL     1      24.586  27.632  23.646  1.00  0.00     0.345 HD
ATOM      5  H   UNL     1      26.209  28.124  23.811  1.00  0.00     0.345 HD
ATOM      6  H   UNL     1      25.398  28.369  22.344  1.00  0.00     0.345 HD
ENDBRANCH   2   3
BRANCH   2   7
ATOM      7  C   UNL     1      25.325  25.279  23.432  1.00  0.00     0.100 C 
ATOM      8  O   UNL     1      25.088  24.176  22.871  1.00  0.00    -0.544 OA
ATOM      9  O   UNL     1      24.935  25.470  24.751  1.00  0.00    -0.544 OA
ENDBRANCH   2   7
ENDBRANCH   1   2
BRANCH   1  10
ATOM     10  C   UNL     1      28.102  25.760  21.434  1.00  0.00     0.223 C 
ATOM     11  O   UNL     1      29.073  24.959  21.485  1.00  0.00    -0.275 OA
ATOM     12  N   UNL     1      27.556  26.130  20.168  1.00  0.00    -0.369 N 
ATOM     13  H   UNL     1      26.749  26.790  20.108  1.00  0.00     0.159 HD
ATOM     14  H   UNL     1      27.959  25.741  19.287  1.00  0.00     0.159 HD
ENDBRANCH   1  10
TORSDOF 4
ENDMDL
MODEL 4
REMARK VINA RESULT:    -3.558      7.074      8.300
REMARK INTER + INTRA:          -4.603
REMARK INTER:                  -4.381
REMARK INTRA:                  -0.222
REMARK UNBOUND:                -0.317
REMARK SMILES NC(=O)C[C@H]([NH3+])C(=O)[O-]
REMARK SMILES IDX 4 1 5 2 6 3 7 7 8 8 9 9 2 10 3 11 1 12
REMARK H PARENT 6 4 6 5 6 6 1 13 1 14
REMARK Flexibility Score: inf
ROOT
ATOM      1  C   UNL     1      21.338  21.677  23.301  1.00  0.00     0.171 C 
ENDROOT
BRANCH   1   2
ATOM      2  C   UNL     1      21.368  23.204  23.079  1.00  0.00     0.237 C 
BRANCH   2   3
ATOM      3  N   UNL     1      22.617  23.638  22.439  1.00  0.00    -0.350 N 
ATOM      4  H   UNL     1      22.802  23.099  21.562  1.00  0.00     0.345 HD
ATOM      5  H   UNL     1      22.562  24.657  22.209  1.00  0.00     0.345 HD
ATOM      6  H   UNL     1      23.416  23.497  23.099  1.00  0.00     0.345 HD
ENDBRANCH   2   3
BRANCH   2   7
ATOM      7  C   UNL     1      21.117  23.954  24.363  1.00  0.00     0.100 C 
ATOM      8  O   UNL     1      22.070  24.266  25.124  1.00  0.00    -0.544 OA
ATOM      9  O   UNL     1      19.815  24.259  24.739  1.00  0.00    -0.544 OA
ENDBRANCH   2   7
ENDBRANCH   1   2
BRANCH   1  10
ATOM     10  C   UNL     1      21.372  20.887  22.022  1.00  0.00     0.223 C 
ATOM     11  O   UNL     1      22.245  21.144  21.151  1.00  0.00    -0.275 OA
ATOM     12  N   UNL     1      20.435  19.835  21.795  1.00  0.00    -0.369 N 
ATOM     13  H   UNL     1      19.706  19.605  22.508  1.00  0.00     0.159 HD
ATOM     14  H   UNL     1      20.470  19.279  20.911  1.00  0.00     0.159 HD
ENDBRANCH   1  10
TORSDOF 4
ENDMDL
MODEL 5
REMARK VINA RESULT:    -3.472      2.672      3.586
REMARK INTER + INTRA:          -4.500
REMARK INTER:                  -4.397
REMARK INTRA:                  -0.102
REMARK UNBOUND:                -0.317
REMARK SMILES NC(=O)C[C@H]([NH3+])C(=O)[O-]
REMARK SMILES IDX 4 1 5 2 6 3 7 7 8 8 9 9 2 10 3 11 1 12
REMARK H PARENT 6 4 6 5 6 6 1 13 1 14
REMARK Flexibility Score: inf
ROOT
ATOM      1  C   UNL     1      25.615  25.817  22.646  1.00  0.00     0.171 C 
ENDROOT
BRANCH   1   2
ATOM      2  C   UNL     1      25.894  26.950  23.657  1.00  0.00     0.237 C 
BRANCH   2   3
ATOM      3  N   UNL     1      25.192  28.189  23.297  1.00  0.00    -0.350 N 
ATOM      4  H   UNL     1      25.860  28.922  22.964  1.00  0.00     0.345 HD
ATOM      5  H   UNL     1      24.495  27.995  22.543  1.00  0.00     0.345 HD
ATOM      6  H   UNL     1      24.676  28.555  24.131  1.00  0.00     0.345 HD
ENDBRANCH   2   3
BRANCH   2   7
ATOM      7  C   UNL     1      27.373  27.186  23.827  1.00  0.00     0.100 C 
ATOM      8  O   UNL     1      27.810  27.890  24.776  1.00  0.00    -0.544 OA
ATOM      9  O   UNL     1      28.265  26.666  22.898  1.00  0.00    -0.544 OA
ENDBRANCH   2   7
ENDBRANCH   1   2
BRANCH   1  10
ATOM     10  C   UNL     1      24.973  24.608  23.268  1.00  0.00     0.223 C 
ATOM     11  O   UNL     1      24.731  24.593  24.505  1.00  0.00    -0.275 OA
ATOM     12  N   UNL     1      24.617  23.483  22.465  1.00  0.00    -0.369 N 
ATOM     13  H   UNL     1      24.806  23.479  21.437  1.00  0.00     0.159 HD
ATOM     14  H   UNL     1      24.159  22.650  22.898  1.00  0.00     0.159 HD
ENDBRANCH   1  10
TORSDOF 4
ENDMDL
MODEL 6
REMARK VINA RESULT:    -3.472      1.728      3.922
REMARK INTER + INTRA:          -4.499
REMARK INTER:                  -4.245
REMARK INTRA:                  -0.254
REMARK UNBOUND:                -0.317
REMARK SMILES NC(=O)C[C@H]([NH3+])C(=O)[O-]
REMARK SMILES IDX 4 1 5 2 6 3 7 7 8 8 9 9 2 10 3 11 1 12
REMARK H PARENT 6 4 6 5 6 6 1 13 1 14
REMARK Flexibility Score: inf
ROOT
ATOM      1  C   UNL     1      28.196  26.461  21.349  1.00  0.00     0.171 C 
ENDROOT
BRANCH   1   2
ATOM      2  C   UNL     1      27.446  25.890  22.572  1.00  0.00     0.237 C 
BRANCH   2   3
ATOM      3  N   UNL     1      26.470  24.862  22.183  1.00  0.00    -0.350 N 
ATOM      4  H   UNL     1      25.707  25.267  21.594  1.00  0.00     0.345 HD
ATOM      5  H   UNL     1      26.950  24.104  21.646  1.00  0.00     0.345 HD
ATOM      6  H   UNL     1      26.048  24.438  23.041  1.00  0.00     0.345 HD
ENDBRANCH   2   3
BRANCH   2   7
ATOM      7  C   UNL     1      26.799  26.984  23.383  1.00  0.00     0.100 C 
ATOM      8  O   UNL     1      27.459  27.627  24.242  1.00  0.00    -0.544 OA
ATOM      9  O   UNL     1      25.446  27.254  23.220  1.00  0.00    -0.544 OA
ENDBRANCH   2   7
ENDBRANCH   1   2
BRANCH   1  10
ATOM     10  C   UNL     1      28.662  25.403  20.388  1.00  0.00     0.223 C 
ATOM     11  O   UNL     1      29.361  24.442  20.806  1.00  0.00    -0.275 OA
ATOM     12  N   UNL     1      28.301  25.467  19.008  1.00  0.00    -0.369 N 
ATOM     13  H   UNL     1      27.719  26.255  18.645  1.00  0.00     0.159 HD
ATOM     14  H   UNL     1      28.616  24.723  18.346  1.00  0.00     0.159 HD
ENDBRANCH   1  10
TORSDOF 4
ENDMDL
MODEL 7
REMARK VINA RESULT:    -3.426      2.169      3.050
REMARK INTER + INTRA:          -4.444
REMARK INTER:                  -4.161
REMARK INTRA:                  -0.283
REMARK UNBOUND:                -0.317
REMARK SMILES NC(=O)C[C@H]([NH3+])C(=O)[O-]
REMARK SMILES IDX 4 1 5 2 6 3 7 7 8 8 9 9 2 10 3 11 1 12
REMARK H PARENT 6 4 6 5 6 6 1 13 1 14
REMARK Flexibility Score: inf
ROOT
ATOM      1  C   UNL     1      29.391  25.712  21.996  1.00  0.00     0.171 C 
ENDROOT
BRANCH   1   2
ATOM      2  C   UNL     1      29.688  26.816  23.034  1.00  0.00     0.237 C 
BRANCH   2   3
ATOM      3  N   UNL     1      28.496  27.622  23.331  1.00  0.00    -0.350 N 
ATOM      4  H   UNL     1      27.910  27.763  22.476  1.00  0.00     0.345 HD
ATOM      5  H   UNL     1      27.921  27.146  24.064  1.00  0.00     0.345 HD
ATOM      6  H   UNL     1      28.787  28.556  23.701  1.00  0.00     0.345 HD
ENDBRANCH   2   3
BRANCH   2   7
ATOM      7  C   UNL     1      30.843  27.683  22.602  1.00  0.00     0.100 C 
ATOM      8  O   UNL     1      32.022  27.409  22.952  1.00  0.00    -0.544 OA
ATOM      9  O   UNL     1      30.603  28.827  21.852  1.00  0.00    -0.544 OA
ENDBRANCH   2   7
ENDBRANCH   1   2
BRANCH   1  10
ATOM     10  C   UNL     1      27.981  25.749  21.474  1.00  0.00     0.223 C 
ATOM     11  O   UNL     1      27.024  25.440  22.233  1.00  0.00    -0.275 OA
ATOM     12  N   UNL     1      27.716  26.151  20.130  1.00  0.00    -0.369 N 
ATOM     13  H   UNL     1      28.496  26.415  19.488  1.00  0.00     0.159 HD
ATOM     14  H   UNL     1      26.734  26.189  19.775  1.00  0.00     0.159 HD
ENDBRANCH   1  10
TORSDOF 4
ENDMDL
MODEL 8
REMARK VINA RESULT:    -3.420      2.817      3.937
REMARK INTER + INTRA:          -4.437
REMARK INTER:                  -4.127
REMARK INTRA:                  -0.309
REMARK UNBOUND:                -0.317
REMARK SMILES NC(=O)C[C@H]([NH3+])C(=O)[O-]
REMARK SMILES IDX 4 1 5 2 6 3 7 7 8 8 9 9 2 10 3 11 1 12
REMARK H PARENT 6 4 6 5 6 6 1 13 1 14
REMARK Flexibility Score: inf
ROOT
ATOM      1  C   UNL     1      24.742  27.728  24.441  1.00  0.00     0.171 C 
ENDROOT
BRANCH   1   2
ATOM      2  C   UNL     1      26.129  27.086  24.225  1.00  0.00     0.237 C 
BRANCH   2   3
ATOM      3  N   UNL     1      27.193  28.097  24.150  1.00  0.00    -0.350 N 
ATOM      4  H   UNL     1      27.253  28.514  23.192  1.00  0.00     0.345 HD
ATOM      5  H   UNL     1      27.008  28.858  24.843  1.00  0.00     0.345 HD
ATOM      6  H   UNL     1      28.112  27.657  24.386  1.00  0.00     0.345 HD
ENDBRANCH   2   3
BRANCH   2   7
ATOM      7  C   UNL     1      26.139  26.186  23.016  1.00  0.00     0.100 C 
ATOM      8  O   UNL     1      25.266  25.289  22.871  1.00  0.00    -0.544 OA
ATOM      9  O   UNL     1      27.152  26.309  22.074  1.00  0.00    -0.544 OA
ENDBRANCH   2   7
ENDBRANCH   1   2
BRANCH   1  10
ATOM     10  C   UNL     1      24.729  29.213  24.206  1.00  0.00     0.223 C 
ATOM     11  O   UNL     1      25.089  29.996  25.125  1.00  0.00    -0.275 OA
ATOM     12  N   UNL     1      24.330  29.743  22.941  1.00  0.00    -0.369 N 
ATOM     13  H   UNL     1      24.032  29.109  22.167  1.00  0.00     0.159 HD
ATOM     14  H   UNL     1      24.336  30.774  22.777  1.00  0.00     0.159 HD
ENDBRANCH   1  10
TORSDOF 4
ENDMDL
MODEL 9
REMARK VINA RESULT:    -3.383      1.936      3.690
REMARK INTER + INTRA:          -4.393
REMARK INTER:                  -4.199
REMARK INTRA:                  -0.193
REMARK UNBOUND:                -0.317
REMARK SMILES NC(=O)C[C@H]([NH3+])C(=O)[O-]
REMARK SMILES IDX 4 1 5 2 6 3 7 7 8 8 9 9 2 10 3 11 1 12
REMARK H PARENT 6 4 6 5 6 6 1 13 1 14
REMARK Flexibility Score: inf
ROOT
ATOM      1  C   UNL     1      29.412  26.673  21.867  1.00  0.00     0.171 C 
ENDROOT
BRANCH   1   2
ATOM      2  C   UNL     1      28.049  25.975  21.664  1.00  0.00     0.237 C 
BRANCH   2   3
ATOM      3  N   UNL     1      27.553  26.136  20.291  1.00  0.00    -0.350 N 
ATOM      4  H   UNL     1      28.308  25.955  19.590  1.00  0.00     0.345 HD
ATOM      5  H   UNL     1      26.763  25.473  20.120  1.00  0.00     0.345 HD
ATOM      6  H   UNL     1      27.195  27.110  20.159  1.00  0.00     0.345 HD
ENDBRANCH   2   3
BRANCH   2   7
ATOM      7  C   UNL     1      27.033  26.444  22.675  1.00  0.00     0.100 C 
ATOM      8  O   UNL     1      27.374  27.176  23.642  1.00  0.00    -0.544 OA
ATOM      9  O   UNL     1      25.714  26.022  22.571  1.00  0.00    -0.544 OA
ENDBRANCH   2   7
ENDBRANCH   1   2
BRANCH   1  10
ATOM     10  C   UNL     1      30.292  25.981  22.871  1.00  0.00     0.223 C 
ATOM     11  O   UNL     1      30.933  24.949  22.537  1.00  0.00    -0.275 OA
ATOM     12  N   UNL     1      30.422  26.496  24.197  1.00  0.00    -0.369 N 
ATOM     13  H   UNL     1      29.901  27.352  24.490  1.00  0.00     0.159 HD
ATOM     14  H   UNL     1      31.045  26.020  24.887  1.00  0.00     0.159 HD
ENDBRANCH   1  10
TORSDOF 4
ENDMDL
