MODEL 1
REMARK VINA RESULT:    -4.096      0.000      0.000
REMARK INTER + INTRA:          -5.914
REMARK INTER:                  -5.772
REMARK INTRA:                  -0.142
REMARK UNBOUND:                -0.142
REMARK SMILES CC1=CCC(=C(C)C)C(=O)CC(C)=CCC1
REMARK SMILES IDX 12 1 14 2 13 3 15 4 16 5 2 6 1 7 3 8 11 10 9 11 10 12 5 13
REMARK SMILES IDX 6 14 7 15 8 16 4 17
REMARK H PARENT
REMARK Flexibility Score: 60.00
ROOT
ATOM      1  C   UNL     1      19.479 -23.577 -23.786  1.00  0.00    -0.070 C 
ATOM      2  C   UNL     1      19.331 -23.609 -25.130  1.00  0.00    -0.027 C 
ATOM      3  C   UNL     1      20.360 -24.619 -23.144  1.00  0.00     0.039 C 
ENDROOT
BRANCH   2   4
ATOM      4  C   UNL     1      18.613 -22.563 -25.944  1.00  0.00     0.032 C 
BRANCH   4   5
ATOM      5  C   UNL     1      17.267 -23.113 -26.429  1.00  0.00     0.034 C 
BRANCH   5   6
ATOM      6  C   UNL     1      16.161 -22.079 -26.366  1.00  0.00    -0.077 C 
ATOM      7  C   UNL     1      15.970 -21.154 -27.542  1.00  0.00     0.039 C 
ATOM      8  C   UNL     1      15.373 -21.887 -25.278  1.00  0.00    -0.023 CG0
ATOM      9  G   UNL     1      15.336 -22.718 -24.008  1.00  0.00     0.000 G0
ENDBRANCH   5   6
ENDBRANCH   4   5
ENDBRANCH   2   4
BRANCH   1  10
ATOM     10  C   UNL     1      18.790 -22.564 -22.894  1.00  0.00     0.111 C 
BRANCH  10  11
ATOM     11  C   UNL     1      17.404 -23.013 -22.497  1.00  0.00     0.163 C 
ATOM     12  O   UNL     1      17.311 -24.106 -21.875  1.00  0.00    -0.294 OA
BRANCH  11  13
ATOM     13  C   UNL     1      16.154 -22.248 -22.821  1.00  0.00    -0.002 C 
ATOM     14  C   UNL     1      15.707 -21.260 -21.984  1.00  0.00    -0.069 C 
ATOM     15  C   UNL     1      14.343 -20.630 -22.146  1.00  0.00     0.039 C 
ATOM     16  C   UNL     1      16.578 -20.710 -20.877  1.00  0.00     0.039 C 
BRANCH  13  17
ATOM     17  C   UNL     1      15.312 -22.724 -23.999  1.00  0.00     0.066 CG0
ATOM     18  G   UNL     1      15.388 -21.890 -25.266  1.00  0.00     0.000 G0
ENDBRANCH  13  17
ENDBRANCH  11  13
ENDBRANCH  10  11
ENDBRANCH   1  10
TORSDOF 0
ENDMDL
MODEL 2
REMARK VINA RESULT:    -4.087      1.923      4.063
REMARK INTER + INTRA:          -5.901
REMARK INTER:                  -5.932
REMARK INTRA:                   0.031
REMARK UNBOUND:                -0.142
REMARK SMILES CC1=CCC(=C(C)C)C(=O)CC(C)=CCC1
REMARK SMILES IDX 12 1 14 2 13 3 15 4 16 5 2 6 1 7 3 8 11 10 9 11 10 12 5 13
REMARK SMILES IDX 6 14 7 15 8 16 4 17
REMARK H PARENT
REMARK Flexibility Score: 60.00
ROOT
ATOM      1  C   UNL     1      18.909 -24.399 -24.609  1.00  0.00    -0.070 C 
ATOM      2  C   UNL     1      19.074 -24.747 -23.312  1.00  0.00    -0.027 C 
ATOM      3  C   UNL     1      18.129 -25.332 -25.500  1.00  0.00     0.039 C 
ENDROOT
BRANCH   2   4
ATOM      4  C   UNL     1      19.694 -23.869 -22.255  1.00  0.00     0.032 C 
BRANCH   4   5
ATOM      5  C   UNL     1      18.606 -23.331 -21.320  1.00  0.00     0.034 C 
BRANCH   5   6
ATOM      6  C   UNL     1      18.345 -21.852 -21.521  1.00  0.00    -0.077 C 
ATOM      7  C   UNL     1      19.086 -20.864 -20.656  1.00  0.00     0.039 C 
ATOM      8  C   UNL     1      17.425 -21.363 -22.390  1.00  0.00    -0.023 CG0
ATOM      9  G   UNL     1      16.602 -22.145 -23.400  1.00  0.00     0.000 G0
ENDBRANCH   5   6
ENDBRANCH   4   5
ENDBRANCH   2   4
BRANCH   1  10
ATOM     10  C   UNL     1      19.485 -23.134 -25.213  1.00  0.00     0.111 C 
BRANCH  10  11
ATOM     11  C   UNL     1      18.526 -21.972 -25.108  1.00  0.00     0.163 C 
ATOM     12  O   UNL     1      19.012 -20.815 -25.223  1.00  0.00    -0.294 OA
BRANCH  11  13
ATOM     13  C   UNL     1      17.054 -22.126 -24.857  1.00  0.00    -0.002 C 
ATOM     14  C   UNL     1      16.164 -22.096 -25.897  1.00  0.00    -0.069 C 
ATOM     15  C   UNL     1      14.672 -22.012 -25.672  1.00  0.00     0.039 C 
ATOM     16  C   UNL     1      16.625 -22.195 -27.334  1.00  0.00     0.039 C 
BRANCH  13  17
ATOM     17  C   UNL     1      16.576 -22.131 -23.409  1.00  0.00     0.066 CG0
ATOM     18  G   UNL     1      17.436 -21.376 -22.410  1.00  0.00     0.000 G0
ENDBRANCH  13  17
ENDBRANCH  11  13
ENDBRANCH  10  11
ENDBRANCH   1  10
TORSDOF 0
ENDMDL
MODEL 3
REMARK VINA RESULT:    -3.851      1.663      2.820
REMARK INTER + INTRA:          -5.568
REMARK INTER:                  -6.080
REMARK INTRA:                   0.512
REMARK UNBOUND:                -0.142
REMARK SMILES CC1=CCC(=C(C)C)C(=O)CC(C)=CCC1
REMARK SMILES IDX 12 1 14 2 13 3 15 4 16 5 2 6 1 7 3 8 11 10 9 11 10 12 5 13
REMARK SMILES IDX 6 14 7 15 8 16 4 17
REMARK H PARENT
REMARK Flexibility Score: 60.00
ROOT
ATOM      1  C   UNL     1      18.061 -23.807 -25.831  1.00  0.00    -0.070 C 
ATOM      2  C   UNL     1      16.975 -23.439 -26.549  1.00  0.00    -0.027 C 
ATOM      3  C   UNL     1      18.169 -25.247 -25.396  1.00  0.00     0.039 C 
ENDROOT
BRANCH   2   4
ATOM      4  C   UNL     1      16.780 -22.087 -27.186  1.00  0.00     0.032 C 
BRANCH   4   5
ATOM      5  C   UNL     1      15.911 -21.205 -26.283  1.00  0.00     0.034 C 
BRANCH   5   6
ATOM      6  C   UNL     1      15.060 -22.015 -25.324  1.00  0.00    -0.077 C 
ATOM      7  C   UNL     1      13.871 -22.764 -25.870  1.00  0.00     0.039 C 
ATOM      8  C   UNL     1      15.266 -22.049 -23.984  1.00  0.00    -0.023 CG0
ATOM      9  G   UNL     1      16.418 -21.431 -23.211  1.00  0.00     0.000 G0
ENDBRANCH   5   6
ENDBRANCH   4   5
ENDBRANCH   2   4
BRANCH   1  10
ATOM     10  C   UNL     1      19.159 -22.844 -25.425  1.00  0.00     0.111 C 
BRANCH  10  11
ATOM     11  C   UNL     1      18.667 -21.813 -24.437  1.00  0.00     0.163 C 
ATOM     12  O   UNL     1      19.056 -20.626 -24.605  1.00  0.00    -0.294 OA
BRANCH  11  13
ATOM     13  C   UNL     1      17.774 -22.133 -23.273  1.00  0.00    -0.002 C 
ATOM     14  C   UNL     1      18.097 -23.141 -22.405  1.00  0.00    -0.069 C 
ATOM     15  C   UNL     1      17.122 -23.647 -21.367  1.00  0.00     0.039 C 
ATOM     16  C   UNL     1      19.471 -23.774 -22.405  1.00  0.00     0.039 C 
BRANCH  13  17
ATOM     17  C   UNL     1      16.424 -21.429 -23.198  1.00  0.00     0.066 CG0
ATOM     18  G   UNL     1      15.285 -22.065 -23.975  1.00  0.00     0.000 G0
ENDBRANCH  13  17
ENDBRANCH  11  13
ENDBRANCH  10  11
ENDBRANCH   1  10
TORSDOF 0
ENDMDL
MODEL 4
REMARK VINA RESULT:    -3.829      1.992      2.981
REMARK INTER + INTRA:          -5.537
REMARK INTER:                  -5.922
REMARK INTRA:                   0.384
REMARK UNBOUND:                -0.142
REMARK SMILES CC1=CCC(=C(C)C)C(=O)CC(C)=CCC1
REMARK SMILES IDX 12 1 14 2 13 3 15 4 16 5 2 6 1 7 3 8 11 10 9 11 10 12 5 13
REMARK SMILES IDX 6 14 7 15 8 16 4 17
REMARK H PARENT
REMARK Flexibility Score: 60.00
ROOT
ATOM      1  C   UNL     1      18.945 -24.159 -24.845  1.00  0.00    -0.070 C 
ATOM      2  C   UNL     1      18.735 -23.094 -25.652  1.00  0.00    -0.027 C 
ATOM      3  C   UNL     1      18.420 -25.500 -25.289  1.00  0.00     0.039 C 
ENDROOT
BRANCH   2   4
ATOM      4  C   UNL     1      19.315 -21.719 -25.436  1.00  0.00     0.032 C 
BRANCH   4   5
ATOM      5  C   UNL     1      18.185 -20.691 -25.307  1.00  0.00     0.034 C 
BRANCH   5   6
ATOM      6  C   UNL     1      17.011 -21.215 -24.504  1.00  0.00    -0.077 C 
ATOM      7  C   UNL     1      15.724 -21.527 -25.226  1.00  0.00     0.039 C 
ATOM      8  C   UNL     1      17.027 -21.353 -23.155  1.00  0.00    -0.023 CG0
ATOM      9  G   UNL     1      18.210 -21.160 -22.221  1.00  0.00     0.000 G0
ENDBRANCH   5   6
ENDBRANCH   4   5
ENDBRANCH   2   4
BRANCH   1  10
ATOM     10  C   UNL     1      19.660 -24.067 -23.511  1.00  0.00     0.111 C 
BRANCH  10  11
ATOM     11  C   UNL     1      18.720 -23.679 -22.394  1.00  0.00     0.163 C 
ATOM     12  O   UNL     1      17.782 -24.479 -22.130  1.00  0.00    -0.294 OA
BRANCH  11  13
ATOM     13  C   UNL     1      18.834 -22.402 -21.613  1.00  0.00    -0.002 C 
ATOM     14  C   UNL     1      19.333 -22.408 -20.339  1.00  0.00    -0.069 C 
ATOM     15  C   UNL     1      19.249 -21.196 -19.440  1.00  0.00     0.039 C 
ATOM     16  C   UNL     1      20.044 -23.619 -19.775  1.00  0.00     0.039 C 
BRANCH  13  17
ATOM     17  C   UNL     1      18.213 -21.145 -22.211  1.00  0.00     0.066 CG0
ATOM     18  G   UNL     1      17.045 -21.353 -23.161  1.00  0.00     0.000 G0
ENDBRANCH  13  17
ENDBRANCH  11  13
ENDBRANCH  10  11
ENDBRANCH   1  10
TORSDOF 0
ENDMDL
MODEL 5
REMARK VINA RESULT:    -3.707     13.724     16.022
REMARK INTER + INTRA:          -5.366
REMARK INTER:                  -5.285
REMARK INTRA:                  -0.081
REMARK UNBOUND:                -0.142
REMARK SMILES CC1=CCC(=C(C)C)C(=O)CC(C)=CCC1
REMARK SMILES IDX 12 1 14 2 13 3 15 4 16 5 2 6 1 7 3 8 11 10 9 11 10 12 5 13
REMARK SMILES IDX 6 14 7 15 8 16 4 17
REMARK H PARENT
REMARK Flexibility Score: 60.00
ROOT
ATOM      1  C   UNL     1      23.187 -13.829 -14.491  1.00  0.00    -0.070 C 
ATOM      2  C   UNL     1      23.562 -12.618 -14.019  1.00  0.00    -0.027 C 
ATOM      3  C   UNL     1      22.025 -14.522 -13.827  1.00  0.00     0.039 C 
ENDROOT
BRANCH   2   4
ATOM      4  C   UNL     1      24.599 -11.727 -14.653  1.00  0.00     0.032 C 
BRANCH   4   5
ATOM      5  C   UNL     1      25.818 -11.607 -13.732  1.00  0.00     0.034 C 
BRANCH   5   6
ATOM      6  C   UNL     1      27.126 -11.804 -14.471  1.00  0.00    -0.077 C 
ATOM      7  C   UNL     1      27.855 -10.588 -14.985  1.00  0.00     0.039 C 
ATOM      8  C   UNL     1      27.648 -13.022 -14.761  1.00  0.00    -0.023 CG0
ATOM      9  G   UNL     1      27.135 -14.378 -14.308  1.00  0.00     0.000 G0
ENDBRANCH   5   6
ENDBRANCH   4   5
ENDBRANCH   2   4
BRANCH   1  10
ATOM     10  C   UNL     1      23.889 -14.531 -15.637  1.00  0.00     0.111 C 
BRANCH  10  11
ATOM     11  C   UNL     1      24.960 -15.476 -15.148  1.00  0.00     0.163 C 
ATOM     12  O   UNL     1      24.578 -16.505 -14.527  1.00  0.00    -0.294 OA
BRANCH  11  13
ATOM     13  C   UNL     1      26.431 -15.243 -15.341  1.00  0.00    -0.002 C 
ATOM     14  C   UNL     1      27.116 -15.905 -16.325  1.00  0.00    -0.069 C 
ATOM     15  C   UNL     1      28.625 -15.879 -16.406  1.00  0.00     0.039 C 
ATOM     16  C   UNL     1      26.394 -16.660 -17.419  1.00  0.00     0.039 C 
BRANCH  13  17
ATOM     17  C   UNL     1      27.160 -14.398 -14.304  1.00  0.00     0.066 CG0
ATOM     18  G   UNL     1      27.650 -13.036 -14.764  1.00  0.00     0.000 G0
ENDBRANCH  13  17
ENDBRANCH  11  13
ENDBRANCH  10  11
ENDBRANCH   1  10
TORSDOF 0
ENDMDL
MODEL 6
REMARK VINA RESULT:    -3.697      2.598      4.895
REMARK INTER + INTRA:          -5.352
REMARK INTER:                  -5.266
REMARK INTRA:                  -0.086
REMARK UNBOUND:                -0.142
REMARK SMILES CC1=CCC(=C(C)C)C(=O)CC(C)=CCC1
REMARK SMILES IDX 12 1 14 2 13 3 15 4 16 5 2 6 1 7 3 8 11 10 9 11 10 12 5 13
REMARK SMILES IDX 6 14 7 15 8 16 4 17
REMARK H PARENT
REMARK Flexibility Score: 60.00
ROOT
ATOM      1  C   UNL     1      18.668 -22.710 -25.280  1.00  0.00    -0.070 C 
ATOM      2  C   UNL     1      18.324 -21.484 -24.826  1.00  0.00    -0.027 C 
ATOM      3  C   UNL     1      18.129 -23.149 -26.618  1.00  0.00     0.039 C 
ENDROOT
BRANCH   2   4
ATOM      4  C   UNL     1      18.887 -20.832 -23.589  1.00  0.00     0.032 C 
BRANCH   4   5
ATOM      5  C   UNL     1      17.898 -20.977 -22.427  1.00  0.00     0.034 C 
BRANCH   5   6
ATOM      6  C   UNL     1      18.561 -21.470 -21.157  1.00  0.00    -0.077 C 
ATOM      7  C   UNL     1      19.285 -20.473 -20.286  1.00  0.00     0.039 C 
ATOM      8  C   UNL     1      18.604 -22.776 -20.790  1.00  0.00    -0.023 CG0
ATOM      9  G   UNL     1      17.910 -23.946 -21.464  1.00  0.00     0.000 G0
ENDBRANCH   5   6
ENDBRANCH   4   5
ENDBRANCH   2   4
BRANCH   1  10
ATOM     10  C   UNL     1      19.549 -23.671 -24.505  1.00  0.00     0.111 C 
BRANCH  10  11
ATOM     11  C   UNL     1      18.737 -24.712 -23.772  1.00  0.00     0.163 C 
ATOM     12  O   UNL     1      17.987 -25.450 -24.468  1.00  0.00    -0.294 OA
BRANCH  11  13
ATOM     13  C   UNL     1      18.762 -24.893 -22.282  1.00  0.00    -0.002 C 
ATOM     14  C   UNL     1      19.407 -25.964 -21.722  1.00  0.00    -0.069 C 
ATOM     15  C   UNL     1      19.261 -26.310 -20.258  1.00  0.00     0.039 C 
ATOM     16  C   UNL     1      20.343 -26.833 -22.532  1.00  0.00     0.039 C 
BRANCH  13  17
ATOM     17  C   UNL     1      17.903 -23.960 -21.437  1.00  0.00     0.066 CG0
ATOM     18  G   UNL     1      18.612 -22.777 -20.801  1.00  0.00     0.000 G0
ENDBRANCH  13  17
ENDBRANCH  11  13
ENDBRANCH  10  11
ENDBRANCH   1  10
TORSDOF 0
ENDMDL
MODEL 7
REMARK VINA RESULT:    -3.616      2.973      4.851
REMARK INTER + INTRA:          -5.238
REMARK INTER:                  -5.084
REMARK INTRA:                  -0.155
REMARK UNBOUND:                -0.142
REMARK SMILES CC1=CCC(=C(C)C)C(=O)CC(C)=CCC1
REMARK SMILES IDX 12 1 14 2 13 3 15 4 16 5 2 6 1 7 3 8 11 10 9 11 10 12 5 13
REMARK SMILES IDX 6 14 7 15 8 16 4 17
REMARK H PARENT
REMARK Flexibility Score: 60.00
ROOT
ATOM      1  C   UNL     1      18.743 -22.542 -24.476  1.00  0.00    -0.070 C 
ATOM      2  C   UNL     1      19.438 -23.683 -24.690  1.00  0.00    -0.027 C 
ATOM      3  C   UNL     1      18.930 -21.404 -25.447  1.00  0.00     0.039 C 
ENDROOT
BRANCH   2   4
ATOM      4  C   UNL     1      19.261 -24.960 -23.911  1.00  0.00     0.032 C 
BRANCH   4   5
ATOM      5  C   UNL     1      20.376 -25.095 -22.869  1.00  0.00     0.034 C 
BRANCH   5   6
ATOM      6  C   UNL     1      19.867 -25.600 -21.534  1.00  0.00    -0.077 C 
ATOM      7  C   UNL     1      19.635 -27.080 -21.362  1.00  0.00     0.039 C 
ATOM      8  C   UNL     1      19.536 -24.786 -20.500  1.00  0.00    -0.023 CG0
ATOM      9  G   UNL     1      19.731 -23.282 -20.411  1.00  0.00     0.000 G0
ENDBRANCH   5   6
ENDBRANCH   4   5
ENDBRANCH   2   4
BRANCH   1  10
ATOM     10  C   UNL     1      17.805 -22.345 -23.302  1.00  0.00     0.111 C 
BRANCH  10  11
ATOM     11  C   UNL     1      18.514 -21.751 -22.108  1.00  0.00     0.163 C 
ATOM     12  O   UNL     1      19.125 -20.662 -22.286  1.00  0.00    -0.294 OA
BRANCH  11  13
ATOM     13  C   UNL     1      18.545 -22.393 -20.751  1.00  0.00    -0.002 C 
ATOM     14  C   UNL     1      17.609 -22.068 -19.806  1.00  0.00    -0.069 C 
ATOM     15  C   UNL     1      17.739 -22.509 -18.366  1.00  0.00     0.039 C 
ATOM     16  C   UNL     1      16.364 -21.288 -20.164  1.00  0.00     0.039 C 
BRANCH  13  17
ATOM     17  C   UNL     1      19.744 -23.268 -20.406  1.00  0.00     0.066 CG0
ATOM     18  G   UNL     1      19.539 -24.770 -20.511  1.00  0.00     0.000 G0
ENDBRANCH  13  17
ENDBRANCH  11  13
ENDBRANCH  10  11
ENDBRANCH   1  10
TORSDOF 0
ENDMDL
MODEL 8
REMARK VINA RESULT:    -3.581     13.427     14.655
REMARK INTER + INTRA:          -5.189
REMARK INTER:                  -5.014
REMARK INTRA:                  -0.174
REMARK UNBOUND:                -0.142
REMARK SMILES CC1=CCC(=C(C)C)C(=O)CC(C)=CCC1
REMARK SMILES IDX 12 1 14 2 13 3 15 4 16 5 2 6 1 7 3 8 11 10 9 11 10 12 5 13
REMARK SMILES IDX 6 14 7 15 8 16 4 17
REMARK H PARENT
REMARK Flexibility Score: 60.00
ROOT
ATOM      1  C   UNL     1      29.695 -17.151 -17.489  1.00  0.00    -0.070 C 
ATOM      2  C   UNL     1      28.765 -16.395 -18.115  1.00  0.00    -0.027 C 
ATOM      3  C   UNL     1      30.778 -17.783 -18.327  1.00  0.00     0.039 C 
ENDROOT
BRANCH   2   4
ATOM      4  C   UNL     1      27.708 -15.576 -17.420  1.00  0.00     0.032 C 
BRANCH   4   5
ATOM      5  C   UNL     1      26.375 -16.333 -17.423  1.00  0.00     0.034 C 
BRANCH   5   6
ATOM      6  C   UNL     1      25.651 -16.240 -16.095  1.00  0.00    -0.077 C 
ATOM      7  C   UNL     1      24.888 -14.980 -15.776  1.00  0.00     0.039 C 
ATOM      8  C   UNL     1      25.709 -17.202 -15.140  1.00  0.00    -0.023 CG0
ATOM      9  G   UNL     1      26.359 -18.570 -15.246  1.00  0.00     0.000 G0
ENDBRANCH   5   6
ENDBRANCH   4   5
ENDBRANCH   2   4
BRANCH   1  10
ATOM     10  C   UNL     1      29.691 -17.412 -15.996  1.00  0.00     0.111 C 
BRANCH  10  11
ATOM     11  C   UNL     1      28.929 -18.668 -15.645  1.00  0.00     0.163 C 
ATOM     12  O   UNL     1      29.277 -19.731 -16.226  1.00  0.00    -0.294 OA
BRANCH  11  13
ATOM     13  C   UNL     1      27.785 -18.705 -14.674  1.00  0.00    -0.002 C 
ATOM     14  C   UNL     1      28.002 -19.005 -13.356  1.00  0.00    -0.069 C 
ATOM     15  C   UNL     1      26.864 -19.282 -12.400  1.00  0.00     0.039 C 
ATOM     16  C   UNL     1      29.396 -19.028 -12.770  1.00  0.00     0.039 C 
BRANCH  13  17
ATOM     17  C   UNL     1      26.372 -18.581 -15.233  1.00  0.00     0.066 CG0
ATOM     18  G   UNL     1      25.720 -17.214 -15.127  1.00  0.00     0.000 G0
ENDBRANCH  13  17
ENDBRANCH  11  13
ENDBRANCH  10  11
ENDBRANCH   1  10
TORSDOF 0
ENDMDL
MODEL 9
REMARK VINA RESULT:    -3.542      2.161      3.875
REMARK INTER + INTRA:          -5.133
REMARK INTER:                  -5.381
REMARK INTRA:                   0.248
REMARK UNBOUND:                -0.142
REMARK SMILES CC1=CCC(=C(C)C)C(=O)CC(C)=CCC1
REMARK SMILES IDX 12 1 14 2 13 3 15 4 16 5 2 6 1 7 3 8 11 10 9 11 10 12 5 13
REMARK SMILES IDX 6 14 7 15 8 16 4 17
REMARK H PARENT
REMARK Flexibility Score: 60.00
ROOT
ATOM      1  C   UNL     1      18.313 -21.576 -22.082  1.00  0.00    -0.070 C 
ATOM      2  C   UNL     1      18.853 -20.928 -23.139  1.00  0.00    -0.027 C 
ATOM      3  C   UNL     1      18.967 -21.404 -20.735  1.00  0.00     0.039 C 
ENDROOT
BRANCH   2   4
ATOM      4  C   UNL     1      18.246 -20.869 -24.518  1.00  0.00     0.032 C 
BRANCH   4   5
ATOM      5  C   UNL     1      19.105 -21.673 -25.501  1.00  0.00     0.034 C 
BRANCH   5   6
ATOM      6  C   UNL     1      18.495 -23.017 -25.841  1.00  0.00    -0.077 C 
ATOM      7  C   UNL     1      17.570 -23.110 -27.029  1.00  0.00     0.039 C 
ATOM      8  C   UNL     1      18.675 -24.135 -25.093  1.00  0.00    -0.023 CG0
ATOM      9  G   UNL     1      19.595 -24.306 -23.897  1.00  0.00     0.000 G0
ENDBRANCH   5   6
ENDBRANCH   4   5
ENDBRANCH   2   4
BRANCH   1  10
ATOM     10  C   UNL     1      17.101 -22.480 -22.188  1.00  0.00     0.111 C 
BRANCH  10  11
ATOM     11  C   UNL     1      17.490 -23.920 -22.424  1.00  0.00     0.163 C 
ATOM     12  O   UNL     1      16.555 -24.760 -22.512  1.00  0.00    -0.294 OA
BRANCH  11  13
ATOM     13  C   UNL     1      18.911 -24.393 -22.532  1.00  0.00    -0.002 C 
ATOM     14  C   UNL     1      19.619 -24.732 -21.410  1.00  0.00    -0.069 C 
ATOM     15  C   UNL     1      21.108 -24.986 -21.450  1.00  0.00     0.039 C 
ATOM     16  C   UNL     1      18.937 -24.919 -20.073  1.00  0.00     0.039 C 
BRANCH  13  17
ATOM     17  C   UNL     1      19.587 -24.308 -23.896  1.00  0.00     0.066 CG0
ATOM     18  G   UNL     1      18.672 -24.120 -25.094  1.00  0.00     0.000 G0
ENDBRANCH  13  17
ENDBRANCH  11  13
ENDBRANCH  10  11
ENDBRANCH   1  10
TORSDOF 0
ENDMDL
