MODEL 1
REMARK VINA RESULT:    -6.052      0.000      0.000
REMARK INTER + INTRA:          -6.504
REMARK INTER:                  -6.406
REMARK INTRA:                  -0.098
REMARK UNBOUND:                -0.098
REMARK SMILES C=C(C)[C@@H]1CC=C(C)C(=O)C1
REMARK SMILES IDX 8 1 7 2 6 3 5 4 4 5 11 6 9 7 10 8 2 9 1 10 3 11
REMARK H PARENT
REMARK Flexibility Score: inf
ROOT
ATOM      1  C   UNL     1      -2.767  10.965  22.175  1.00  0.00     0.048 C 
ATOM      2  C   UNL     1      -2.161  12.336  22.051  1.00  0.00    -0.012 C 
ATOM      3  C   UNL     1      -0.825  12.482  22.080  1.00  0.00    -0.019 C 
ATOM      4  C   UNL     1      -0.166  13.828  21.941  1.00  0.00     0.036 C 
ATOM      5  C   UNL     1      -1.039  14.939  22.555  1.00  0.00     0.025 C 
ATOM      6  C   UNL     1      -2.449  14.914  21.936  1.00  0.00     0.089 C 
ATOM      7  C   UNL     1      -3.039  13.534  22.020  1.00  0.00     0.158 C 
ATOM      8  O   UNL     1      -4.292  13.401  22.028  1.00  0.00    -0.295 OA
ENDROOT
BRANCH   5   9
ATOM      9  C   UNL     1      -0.389  16.308  22.401  1.00  0.00    -0.077 C 
ATOM     10  C   UNL     1      -0.826  17.158  21.458  1.00  0.00     0.008 C 
ATOM     11  C   UNL     1       0.750  16.742  23.290  1.00  0.00     0.039 C 
ENDBRANCH   5   9
TORSDOF 1
ENDMDL
MODEL 2
REMARK VINA RESULT:    -6.040      1.426      2.071
REMARK INTER + INTRA:          -6.492
REMARK INTER:                  -6.402
REMARK INTRA:                  -0.090
REMARK UNBOUND:                -0.098
REMARK SMILES C=C(C)[C@@H]1CC=C(C)C(=O)C1
REMARK SMILES IDX 8 1 7 2 6 3 5 4 4 5 11 6 9 7 10 8 2 9 1 10 3 11
REMARK H PARENT
REMARK Flexibility Score: inf
ROOT
ATOM      1  C   UNL     1      -3.007  11.196  21.839  1.00  0.00     0.048 C 
ATOM      2  C   UNL     1      -2.307  12.500  22.110  1.00  0.00    -0.012 C 
ATOM      3  C   UNL     1      -3.018  13.638  22.187  1.00  0.00    -0.019 C 
ATOM      4  C   UNL     1      -2.371  14.966  22.475  1.00  0.00     0.036 C 
ATOM      5  C   UNL     1      -0.948  15.028  21.888  1.00  0.00     0.025 C 
ATOM      6  C   UNL     1      -0.106  13.846  22.402  1.00  0.00     0.089 C 
ATOM      7  C   UNL     1      -0.824  12.545  22.170  1.00  0.00     0.158 C 
ATOM      8  O   UNL     1      -0.152  11.483  22.063  1.00  0.00    -0.295 OA
ENDROOT
BRANCH   5   9
ATOM      9  C   UNL     1      -0.278  16.361  22.192  1.00  0.00    -0.077 C 
ATOM     10  C   UNL     1      -0.606  17.456  21.486  1.00  0.00     0.008 C 
ATOM     11  C   UNL     1       0.761  16.490  23.277  1.00  0.00     0.039 C 
ENDBRANCH   5   9
TORSDOF 1
ENDMDL
MODEL 3
REMARK VINA RESULT:    -6.031      4.190      6.602
REMARK INTER + INTRA:          -6.482
REMARK INTER:                  -6.383
REMARK INTRA:                  -0.098
REMARK UNBOUND:                -0.098
REMARK SMILES C=C(C)[C@@H]1CC=C(C)C(=O)C1
REMARK SMILES IDX 8 1 7 2 6 3 5 4 4 5 11 6 9 7 10 8 2 9 1 10 3 11
REMARK H PARENT
REMARK Flexibility Score: inf
ROOT
ATOM      1  C   UNL     1       2.977  14.132  22.133  1.00  0.00     0.048 C 
ATOM      2  C   UNL     1       2.311  12.787  22.039  1.00  0.00    -0.012 C 
ATOM      3  C   UNL     1       0.976  12.690  22.163  1.00  0.00    -0.019 C 
ATOM      4  C   UNL     1       0.258  11.372  22.058  1.00  0.00     0.036 C 
ATOM      5  C   UNL     1       1.130  10.221  22.595  1.00  0.00     0.025 C 
ATOM      6  C   UNL     1       2.491  10.201  21.876  1.00  0.00     0.089 C 
ATOM      7  C   UNL     1       3.138  11.558  21.932  1.00  0.00     0.158 C 
ATOM      8  O   UNL     1       4.393  11.643  21.851  1.00  0.00    -0.295 OA
ENDROOT
BRANCH   5   9
ATOM      9  C   UNL     1       0.418   8.880  22.474  1.00  0.00    -0.077 C 
ATOM     10  C   UNL     1       0.814   7.988  21.550  1.00  0.00     0.008 C 
ATOM     11  C   UNL     1      -0.737   8.518  23.374  1.00  0.00     0.039 C 
ENDBRANCH   5   9
TORSDOF 1
ENDMDL
MODEL 4
REMARK VINA RESULT:    -5.963      3.526      6.044
REMARK INTER + INTRA:          -6.410
REMARK INTER:                  -6.320
REMARK INTRA:                  -0.090
REMARK UNBOUND:                -0.098
REMARK SMILES C=C(C)[C@@H]1CC=C(C)C(=O)C1
REMARK SMILES IDX 8 1 7 2 6 3 5 4 4 5 11 6 9 7 10 8 2 9 1 10 3 11
REMARK H PARENT
REMARK Flexibility Score: inf
ROOT
ATOM      1  C   UNL     1       3.014  14.024  21.905  1.00  0.00     0.048 C 
ATOM      2  C   UNL     1       2.357  12.695  22.158  1.00  0.00    -0.012 C 
ATOM      3  C   UNL     1       3.098  11.573  22.167  1.00  0.00    -0.019 C 
ATOM      4  C   UNL     1       2.495  10.220  22.434  1.00  0.00     0.036 C 
ATOM      5  C   UNL     1       1.051  10.142  21.903  1.00  0.00     0.025 C 
ATOM      6  C   UNL     1       0.203  11.285  22.491  1.00  0.00     0.089 C 
ATOM      7  C   UNL     1       0.879  12.611  22.276  1.00  0.00     0.158 C 
ATOM      8  O   UNL     1       0.179  13.658  22.233  1.00  0.00    -0.295 OA
ENDROOT
BRANCH   5   9
ATOM      9  C   UNL     1       0.426   8.783  22.186  1.00  0.00    -0.077 C 
ATOM     10  C   UNL     1       0.767   7.717  21.443  1.00  0.00     0.008 C 
ATOM     11  C   UNL     1      -0.583   8.596  23.291  1.00  0.00     0.039 C 
ENDBRANCH   5   9
TORSDOF 1
ENDMDL
MODEL 5
REMARK VINA RESULT:    -5.948      2.026      4.634
REMARK INTER + INTRA:          -6.394
REMARK INTER:                  -6.297
REMARK INTRA:                  -0.097
REMARK UNBOUND:                -0.098
REMARK SMILES C=C(C)[C@@H]1CC=C(C)C(=O)C1
REMARK SMILES IDX 8 1 7 2 6 3 5 4 4 5 11 6 9 7 10 8 2 9 1 10 3 11
REMARK H PARENT
REMARK Flexibility Score: inf
ROOT
ATOM      1  C   UNL     1       0.756  16.542  23.264  1.00  0.00     0.048 C 
ATOM      2  C   UNL     1      -0.201  15.531  22.693  1.00  0.00    -0.012 C 
ATOM      3  C   UNL     1      -1.520  15.660  22.914  1.00  0.00    -0.019 C 
ATOM      4  C   UNL     1      -2.522  14.688  22.350  1.00  0.00     0.036 C 
ATOM      5  C   UNL     1      -1.928  13.269  22.260  1.00  0.00     0.025 C 
ATOM      6  C   UNL     1      -0.618  13.289  21.452  1.00  0.00     0.089 C 
ATOM      7  C   UNL     1       0.323  14.330  21.994  1.00  0.00     0.158 C 
ATOM      8  O   UNL     1       1.563  14.189  21.817  1.00  0.00    -0.295 OA
ENDROOT
BRANCH   5   9
ATOM      9  C   UNL     1      -2.929  12.283  21.673  1.00  0.00    -0.077 C 
ATOM     10  C   UNL     1      -3.729  12.657  20.660  1.00  0.00     0.008 C 
ATOM     11  C   UNL     1      -3.051  10.876  22.204  1.00  0.00     0.039 C 
ENDBRANCH   5   9
TORSDOF 1
ENDMDL
MODEL 6
REMARK VINA RESULT:    -5.942      3.585      4.418
REMARK INTER + INTRA:          -6.387
REMARK INTER:                  -6.290
REMARK INTRA:                  -0.098
REMARK UNBOUND:                -0.098
REMARK SMILES C=C(C)[C@@H]1CC=C(C)C(=O)C1
REMARK SMILES IDX 8 1 7 2 6 3 5 4 4 5 11 6 9 7 10 8 2 9 1 10 3 11
REMARK H PARENT
REMARK Flexibility Score: inf
ROOT
ATOM      1  C   UNL     1      -0.646   8.522  23.242  1.00  0.00     0.048 C 
ATOM      2  C   UNL     1       0.310   9.535  22.674  1.00  0.00    -0.012 C 
ATOM      3  C   UNL     1       1.629   9.413  22.903  1.00  0.00    -0.019 C 
ATOM      4  C   UNL     1       2.630  10.388  22.343  1.00  0.00     0.036 C 
ATOM      5  C   UNL     1       2.030  11.803  22.246  1.00  0.00     0.025 C 
ATOM      6  C   UNL     1       0.725  11.776  21.430  1.00  0.00     0.089 C 
ATOM      7  C   UNL     1      -0.215  10.733  21.969  1.00  0.00     0.158 C 
ATOM      8  O   UNL     1      -1.454  10.868  21.785  1.00  0.00    -0.295 OA
ENDROOT
BRANCH   5   9
ATOM      9  C   UNL     1       3.030  12.793  21.662  1.00  0.00    -0.077 C 
ATOM     10  C   UNL     1       3.855  12.412  20.673  1.00  0.00     0.008 C 
ATOM     11  C   UNL     1       3.124  14.209  22.172  1.00  0.00     0.039 C 
ENDBRANCH   5   9
TORSDOF 1
ENDMDL
MODEL 7
REMARK VINA RESULT:    -5.776      2.796      3.936
REMARK INTER + INTRA:          -6.212
REMARK INTER:                  -6.115
REMARK INTRA:                  -0.097
REMARK UNBOUND:                -0.098
REMARK SMILES C=C(C)[C@@H]1CC=C(C)C(=O)C1
REMARK SMILES IDX 8 1 7 2 6 3 5 4 4 5 11 6 9 7 10 8 2 9 1 10 3 11
REMARK H PARENT
REMARK Flexibility Score: inf
ROOT
ATOM      1  C   UNL     1       3.791  12.096  21.617  1.00  0.00     0.048 C 
ATOM      2  C   UNL     1       2.672  13.097  21.703  1.00  0.00    -0.012 C 
ATOM      3  C   UNL     1       2.781  14.152  22.529  1.00  0.00    -0.019 C 
ATOM      4  C   UNL     1       1.699  15.194  22.640  1.00  0.00     0.036 C 
ATOM      5  C   UNL     1       0.307  14.572  22.422  1.00  0.00     0.025 C 
ATOM      6  C   UNL     1       0.260  13.824  21.077  1.00  0.00     0.089 C 
ATOM      7  C   UNL     1       1.403  12.854  20.971  1.00  0.00     0.158 C 
ATOM      8  O   UNL     1       1.287  11.846  20.223  1.00  0.00    -0.295 OA
ENDROOT
BRANCH   5   9
ATOM      9  C   UNL     1      -0.792  15.623  22.512  1.00  0.00    -0.077 C 
ATOM     10  C   UNL     1      -0.666  16.787  21.855  1.00  0.00     0.008 C 
ATOM     11  C   UNL     1      -2.036  15.391  23.333  1.00  0.00     0.039 C 
ENDBRANCH   5   9
TORSDOF 1
ENDMDL
MODEL 8
REMARK VINA RESULT:    -5.755      3.174      4.959
REMARK INTER + INTRA:          -6.190
REMARK INTER:                  -6.093
REMARK INTRA:                  -0.097
REMARK UNBOUND:                -0.098
REMARK SMILES C=C(C)[C@@H]1CC=C(C)C(=O)C1
REMARK SMILES IDX 8 1 7 2 6 3 5 4 4 5 11 6 9 7 10 8 2 9 1 10 3 11
REMARK H PARENT
REMARK Flexibility Score: inf
ROOT
ATOM      1  C   UNL     1      -3.696  13.002  21.589  1.00  0.00     0.048 C 
ATOM      2  C   UNL     1      -2.584  11.993  21.680  1.00  0.00    -0.012 C 
ATOM      3  C   UNL     1      -2.702  10.940  22.508  1.00  0.00    -0.019 C 
ATOM      4  C   UNL     1      -1.628   9.891  22.623  1.00  0.00     0.036 C 
ATOM      5  C   UNL     1      -0.231  10.503  22.406  1.00  0.00     0.025 C 
ATOM      6  C   UNL     1      -0.176  11.247  21.060  1.00  0.00     0.089 C 
ATOM      7  C   UNL     1      -1.312  12.226  20.950  1.00  0.00     0.158 C 
ATOM      8  O   UNL     1      -1.187  13.231  20.200  1.00  0.00    -0.295 OA
ENDROOT
BRANCH   5   9
ATOM      9  C   UNL     1       0.861   9.445  22.502  1.00  0.00    -0.077 C 
ATOM     10  C   UNL     1       0.722   8.274  21.858  1.00  0.00     0.008 C 
ATOM     11  C   UNL     1       2.111   9.676  23.313  1.00  0.00     0.039 C 
ENDBRANCH   5   9
TORSDOF 1
ENDMDL
MODEL 9
REMARK VINA RESULT:    -5.746      2.760      4.964
REMARK INTER + INTRA:          -6.180
REMARK INTER:                  -6.083
REMARK INTRA:                  -0.097
REMARK UNBOUND:                -0.098
REMARK SMILES C=C(C)[C@@H]1CC=C(C)C(=O)C1
REMARK SMILES IDX 8 1 7 2 6 3 5 4 4 5 11 6 9 7 10 8 2 9 1 10 3 11
REMARK H PARENT
REMARK Flexibility Score: inf
ROOT
ATOM      1  C   UNL     1      -3.006  13.120  21.835  1.00  0.00     0.048 C 
ATOM      2  C   UNL     1      -1.820  12.240  22.119  1.00  0.00    -0.012 C 
ATOM      3  C   UNL     1      -0.577  12.744  22.032  1.00  0.00    -0.019 C 
ATOM      4  C   UNL     1       0.644  11.913  22.324  1.00  0.00     0.036 C 
ATOM      5  C   UNL     1       0.419  10.441  21.930  1.00  0.00     0.025 C 
ATOM      6  C   UNL     1      -0.841   9.888  22.621  1.00  0.00     0.089 C 
ATOM      7  C   UNL     1      -2.018  10.790  22.374  1.00  0.00     0.158 C 
ATOM      8  O   UNL     1      -3.182  10.309  22.420  1.00  0.00    -0.295 OA
ENDROOT
BRANCH   5   9
ATOM      9  C   UNL     1       1.642   9.588  22.240  1.00  0.00    -0.077 C 
ATOM     10  C   UNL     1       2.289   9.739  23.408  1.00  0.00     0.008 C 
ATOM     11  C   UNL     1       2.158   8.565  21.259  1.00  0.00     0.039 C 
ENDBRANCH   5   9
TORSDOF 1
ENDMDL
