MODEL 1
REMARK VINA RESULT:    -8.048      0.000      0.000
REMARK INTER + INTRA:         -12.593
REMARK INTER:                 -11.106
REMARK INTRA:                  -1.486
REMARK UNBOUND:                -1.486
REMARK SMILES O=C([O-])[C@@H]1O[C@H](Oc2cc3oc(-c4ccccc4)cc(=O)c3c(O)c2O)[C@@H](O)[C@H](O)[C@@H]1O
REMARK SMILES IDX 7 1 6 2 4 3 31 4 5 5 29 6 27 7 2 8 1 9 3 10 32 11 30 13
REMARK SMILES IDX 28 15 8 17 25 18 9 19 23 20 10 21 22 22 11 23 20 24 12 25
REMARK SMILES IDX 19 26 21 27 26 28 24 30 13 32 14 33 18 34 15 35 17 36 16 37
REMARK H PARENT 32 12 30 14 28 16 26 29 24 31
REMARK Flexibility Score: inf
ROOT
ATOM      1  O   UNL     1     -63.119 -42.619 -35.562  1.00  0.00    -0.458 OA
ENDROOT
BRANCH   1   2
ATOM      2  C   UNL     1     -64.090 -43.597 -35.960  1.00  0.00     0.339 C 
ATOM      3  C   UNL     1     -63.579 -43.206 -38.255  1.00  0.00     0.199 C 
ATOM      4  C   UNL     1     -62.418 -44.230 -38.081  1.00  0.00     0.180 C 
ATOM      5  O   UNL     1     -64.592 -43.276 -37.249  1.00  0.00    -0.328 OA
ATOM      6  C   UNL     1     -62.952 -45.451 -37.315  1.00  0.00     0.181 C 
ATOM      7  C   UNL     1     -63.512 -45.041 -35.933  1.00  0.00     0.214 C 
BRANCH   3   8
ATOM      8  C   UNL     1     -63.095 -41.792 -38.449  1.00  0.00     0.073 C 
ATOM      9  O   UNL     1     -63.831 -40.815 -38.153  1.00  0.00    -0.547 OA
ATOM     10  O   UNL     1     -61.848 -41.558 -39.016  1.00  0.00    -0.547 OA
ENDBRANCH   3   8
BRANCH   4  11
ATOM     11  O   UNL     1     -61.337 -43.651 -37.387  1.00  0.00    -0.387 OA
ATOM     12  H   UNL     1     -60.505 -44.039 -37.765  1.00  0.00     0.211 HD
ENDBRANCH   4  11
BRANCH   6  13
ATOM     13  O   UNL     1     -61.978 -46.460 -37.204  1.00  0.00    -0.387 OA
ATOM     14  H   UNL     1     -61.592 -46.616 -38.105  1.00  0.00     0.211 HD
ENDBRANCH   6  13
BRANCH   7  15
ATOM     15  O   UNL     1     -64.517 -45.953 -35.571  1.00  0.00    -0.384 OA
ATOM     16  H   UNL     1     -65.192 -45.450 -35.045  1.00  0.00     0.211 HD
ENDBRANCH   7  15
ENDBRANCH   1   2
BRANCH   1  17
ATOM     17  C   UNL     1     -62.563 -42.414 -34.286  1.00  0.00     0.172 A 
ATOM     18  C   UNL     1     -61.200 -42.611 -33.966  1.00  0.00     0.201 A 
ATOM     19  C   UNL     1     -63.443 -42.007 -33.285  1.00  0.00     0.098 A 
ATOM     20  C   UNL     1     -60.732 -42.362 -32.658  1.00  0.00     0.176 A 
ATOM     21  C   UNL     1     -62.994 -41.721 -31.999  1.00  0.00     0.146 A 
ATOM     22  C   UNL     1     -61.624 -41.858 -31.669  1.00  0.00     0.111 A 
ATOM     23  O   UNL     1     -63.875 -41.306 -31.095  1.00  0.00    -0.456 OA
ATOM     24  C   UNL     1     -61.236 -41.445 -30.372  1.00  0.00     0.197 A 
ATOM     25  C   UNL     1     -63.549 -40.975 -29.850  1.00  0.00     0.138 A 
ATOM     26  C   UNL     1     -62.204 -41.023 -29.459  1.00  0.00     0.100 A 
ATOM     27  O   UNL     1     -60.028 -41.406 -30.017  1.00  0.00    -0.289 OA
BRANCH  18  28
ATOM     28  O   UNL     1     -60.315 -43.088 -34.933  1.00  0.00    -0.502 OA
ATOM     29  H   UNL     1     -59.544 -43.707 -34.718  1.00  0.00     0.293 HD
ENDBRANCH  18  28
BRANCH  20  30
ATOM     30  O   UNL     1     -59.393 -42.667 -32.387  1.00  0.00    -0.504 OA
ATOM     31  H   UNL     1     -58.765 -43.115 -33.037  1.00  0.00     0.293 HD
ENDBRANCH  20  30
BRANCH  25  32
ATOM     32  C   UNL     1     -64.622 -40.539 -28.922  1.00  0.00     0.017 A 
ATOM     33  C   UNL     1     -65.966 -40.812 -29.239  1.00  0.00     0.012 A 
ATOM     34  C   UNL     1     -64.332 -39.885 -27.707  1.00  0.00     0.012 A 
ATOM     35  C   UNL     1     -66.994 -40.421 -28.375  1.00  0.00     0.001 A 
ATOM     36  C   UNL     1     -65.365 -39.499 -26.846  1.00  0.00     0.001 A 
ATOM     37  C   UNL     1     -66.694 -39.763 -27.181  1.00  0.00     0.000 A 
ENDBRANCH  25  32
ENDBRANCH   1  17
TORSDOF 9
ENDMDL
MODEL 2
REMARK VINA RESULT:    -8.000      0.837      2.638
REMARK INTER + INTRA:         -12.526
REMARK INTER:                 -11.314
REMARK INTRA:                  -1.212
REMARK UNBOUND:                -1.486
REMARK SMILES O=C([O-])[C@@H]1O[C@H](Oc2cc3oc(-c4ccccc4)cc(=O)c3c(O)c2O)[C@@H](O)[C@H](O)[C@@H]1O
REMARK SMILES IDX 7 1 6 2 4 3 31 4 5 5 29 6 27 7 2 8 1 9 3 10 32 11 30 13
REMARK SMILES IDX 28 15 8 17 25 18 9 19 23 20 10 21 22 22 11 23 20 24 12 25
REMARK SMILES IDX 19 26 21 27 26 28 24 30 13 32 14 33 18 34 15 35 17 36 16 37
REMARK H PARENT 32 12 30 14 28 16 26 29 24 31
REMARK Flexibility Score: inf
ROOT
ATOM      1  O   UNL     1     -62.736 -42.581 -35.916  1.00  0.00    -0.458 OA
ENDROOT
BRANCH   1   2
ATOM      2  C   UNL     1     -62.033 -42.526 -37.165  1.00  0.00     0.339 C 
ATOM      3  C   UNL     1     -62.575 -44.806 -37.600  1.00  0.00     0.199 C 
ATOM      4  C   UNL     1     -63.924 -44.284 -38.179  1.00  0.00     0.180 C 
ATOM      5  O   UNL     1     -61.548 -43.818 -37.499  1.00  0.00    -0.328 OA
ATOM      6  C   UNL     1     -63.634 -43.080 -39.088  1.00  0.00     0.181 C 
ATOM      7  C   UNL     1     -62.918 -41.952 -38.309  1.00  0.00     0.214 C 
BRANCH   3   8
ATOM      8  C   UNL     1     -62.741 -45.559 -36.304  1.00  0.00     0.073 C 
ATOM      9  O   UNL     1     -61.778 -45.681 -35.504  1.00  0.00    -0.547 OA
ATOM     10  O   UNL     1     -63.950 -46.180 -36.013  1.00  0.00    -0.547 OA
ENDBRANCH   3   8
BRANCH   4  11
ATOM     11  O   UNL     1     -64.806 -43.915 -37.144  1.00  0.00    -0.387 OA
ATOM     12  H   UNL     1     -65.083 -42.977 -37.315  1.00  0.00     0.211 HD
ENDBRANCH   4  11
BRANCH   6  13
ATOM     13  O   UNL     1     -64.801 -42.615 -39.721  1.00  0.00    -0.387 OA
ATOM     14  H   UNL     1     -65.196 -43.370 -40.232  1.00  0.00     0.211 HD
ENDBRANCH   6  13
BRANCH   7  15
ATOM     15  O   UNL     1     -62.122 -41.224 -39.210  1.00  0.00    -0.384 OA
ATOM     16  H   UNL     1     -61.577 -40.592 -38.673  1.00  0.00     0.211 HD
ENDBRANCH   7  15
ENDBRANCH   1   2
BRANCH   1  17
ATOM     17  C   UNL     1     -62.217 -42.428 -34.617  1.00  0.00     0.172 A 
ATOM     18  C   UNL     1     -60.876 -42.693 -34.255  1.00  0.00     0.201 A 
ATOM     19  C   UNL     1     -63.113 -42.002 -33.639  1.00  0.00     0.098 A 
ATOM     20  C   UNL     1     -60.444 -42.493 -32.926  1.00  0.00     0.176 A 
ATOM     21  C   UNL     1     -62.697 -41.762 -32.332  1.00  0.00     0.146 A 
ATOM     22  C   UNL     1     -61.347 -41.968 -31.958  1.00  0.00     0.111 A 
ATOM     23  O   UNL     1     -63.590 -41.326 -31.450  1.00  0.00    -0.456 OA
ATOM     24  C   UNL     1     -60.987 -41.600 -30.639  1.00  0.00     0.197 A 
ATOM     25  C   UNL     1     -63.294 -41.036 -30.187  1.00  0.00     0.138 A 
ATOM     26  C   UNL     1     -61.967 -41.153 -29.751  1.00  0.00     0.100 A 
ATOM     27  O   UNL     1     -59.792 -41.624 -30.242  1.00  0.00    -0.289 OA
BRANCH  18  28
ATOM     28  O   UNL     1     -59.980 -43.190 -35.201  1.00  0.00    -0.502 OA
ATOM     29  H   UNL     1     -59.858 -42.776 -36.117  1.00  0.00     0.293 HD
ENDBRANCH  18  28
BRANCH  20  30
ATOM     30  O   UNL     1     -59.131 -42.864 -32.616  1.00  0.00    -0.504 OA
ATOM     31  H   UNL     1     -58.314 -42.314 -32.835  1.00  0.00     0.293 HD
ENDBRANCH  20  30
BRANCH  25  32
ATOM     32  C   UNL     1     -64.379 -40.571 -29.287  1.00  0.00     0.017 A 
ATOM     33  C   UNL     1     -65.719 -40.858 -29.610  1.00  0.00     0.012 A 
ATOM     34  C   UNL     1     -64.104 -39.874 -28.092  1.00  0.00     0.012 A 
ATOM     35  C   UNL     1     -66.757 -40.439 -28.772  1.00  0.00     0.001 A 
ATOM     36  C   UNL     1     -65.148 -39.460 -27.258  1.00  0.00     0.001 A 
ATOM     37  C   UNL     1     -66.472 -39.740 -27.599  1.00  0.00     0.000 A 
ENDBRANCH  25  32
ENDBRANCH   1  17
TORSDOF 9
ENDMDL
MODEL 3
REMARK VINA RESULT:    -7.958      1.673      2.266
REMARK INTER + INTRA:         -12.469
REMARK INTER:                 -11.010
REMARK INTRA:                  -1.458
REMARK UNBOUND:                -1.486
REMARK SMILES O=C([O-])[C@@H]1O[C@H](Oc2cc3oc(-c4ccccc4)cc(=O)c3c(O)c2O)[C@@H](O)[C@H](O)[C@@H]1O
REMARK SMILES IDX 7 1 6 2 4 3 31 4 5 5 29 6 27 7 2 8 1 9 3 10 32 11 30 13
REMARK SMILES IDX 28 15 8 17 25 18 9 19 23 20 10 21 22 22 11 23 20 24 12 25
REMARK SMILES IDX 19 26 21 27 26 28 24 30 13 32 14 33 18 34 15 35 17 36 16 37
REMARK H PARENT 32 12 30 14 28 16 26 29 24 31
REMARK Flexibility Score: inf
ROOT
ATOM      1  O   UNL     1     -64.816 -43.188 -34.586  1.00  0.00    -0.458 OA
ENDROOT
BRANCH   1   2
ATOM      2  C   UNL     1     -66.139 -43.741 -34.580  1.00  0.00     0.339 C 
ATOM      3  C   UNL     1     -65.840 -44.542 -36.805  1.00  0.00     0.199 C 
ATOM      4  C   UNL     1     -65.166 -45.795 -36.171  1.00  0.00     0.180 C 
ATOM      5  O   UNL     1     -66.648 -43.780 -35.905  1.00  0.00    -0.328 OA
ATOM      6  C   UNL     1     -66.026 -46.269 -34.989  1.00  0.00     0.181 C 
ATOM      7  C   UNL     1     -66.180 -45.153 -33.929  1.00  0.00     0.214 C 
BRANCH   3   8
ATOM      8  C   UNL     1     -64.869 -43.663 -37.551  1.00  0.00     0.073 C 
ATOM      9  O   UNL     1     -65.108 -42.438 -37.717  1.00  0.00    -0.547 OA
ATOM     10  O   UNL     1     -63.726 -44.216 -38.115  1.00  0.00    -0.547 OA
ENDBRANCH   3   8
BRANCH   4  11
ATOM     11  O   UNL     1     -63.859 -45.497 -35.737  1.00  0.00    -0.387 OA
ATOM     12  H   UNL     1     -63.593 -44.645 -36.172  1.00  0.00     0.211 HD
ENDBRANCH   4  11
BRANCH   6  13
ATOM     13  O   UNL     1     -65.524 -47.456 -34.425  1.00  0.00    -0.387 OA
ATOM     14  H   UNL     1     -64.705 -47.231 -33.911  1.00  0.00     0.211 HD
ENDBRANCH   6  13
BRANCH   7  15
ATOM     15  O   UNL     1     -67.404 -45.338 -33.262  1.00  0.00    -0.384 OA
ATOM     16  H   UNL     1     -67.201 -45.403 -32.293  1.00  0.00     0.211 HD
ENDBRANCH   7  15
ENDBRANCH   1   2
BRANCH   1  17
ATOM     17  C   UNL     1     -64.020 -42.823 -33.484  1.00  0.00     0.172 A 
ATOM     18  C   UNL     1     -62.618 -42.991 -33.420  1.00  0.00     0.201 A 
ATOM     19  C   UNL     1     -64.690 -42.281 -32.389  1.00  0.00     0.098 A 
ATOM     20  C   UNL     1     -61.903 -42.578 -32.275  1.00  0.00     0.176 A 
ATOM     21  C   UNL     1     -63.999 -41.834 -31.267  1.00  0.00     0.146 A 
ATOM     22  C   UNL     1     -62.588 -41.940 -31.202  1.00  0.00     0.111 A 
ATOM     23  O   UNL     1     -64.689 -41.296 -30.267  1.00  0.00    -0.456 OA
ATOM     24  C   UNL     1     -61.957 -41.366 -30.073  1.00  0.00     0.197 A 
ATOM     25  C   UNL     1     -64.127 -40.809 -29.165  1.00  0.00     0.138 A 
ATOM     26  C   UNL     1     -62.730 -40.819 -29.048  1.00  0.00     0.100 A 
ATOM     27  O   UNL     1     -60.703 -41.293 -29.975  1.00  0.00    -0.289 OA
BRANCH  18  28
ATOM     28  O   UNL     1     -61.936 -43.598 -34.474  1.00  0.00    -0.502 OA
ATOM     29  H   UNL     1     -60.949 -43.457 -34.646  1.00  0.00     0.293 HD
ENDBRANCH  18  28
BRANCH  20  30
ATOM     30  O   UNL     1     -60.532 -42.858 -32.240  1.00  0.00    -0.504 OA
ATOM     31  H   UNL     1     -60.135 -43.736 -31.939  1.00  0.00     0.293 HD
ENDBRANCH  20  30
BRANCH  25  32
ATOM     32  C   UNL     1     -65.001 -40.245 -28.106  1.00  0.00     0.017 A 
ATOM     33  C   UNL     1     -66.398 -40.365 -28.224  1.00  0.00     0.012 A 
ATOM     34  C   UNL     1     -64.468 -39.619 -26.961  1.00  0.00     0.012 A 
ATOM     35  C   UNL     1     -67.242 -39.851 -27.234  1.00  0.00     0.001 A 
ATOM     36  C   UNL     1     -65.318 -39.109 -25.973  1.00  0.00     0.001 A 
ATOM     37  C   UNL     1     -66.702 -39.222 -26.110  1.00  0.00     0.000 A 
ENDBRANCH  25  32
ENDBRANCH   1  17
TORSDOF 9
ENDMDL
MODEL 4
REMARK VINA RESULT:    -7.848      1.425      3.125
REMARK INTER + INTRA:         -12.316
REMARK INTER:                 -10.768
REMARK INTRA:                  -1.548
REMARK UNBOUND:                -1.486
REMARK SMILES O=C([O-])[C@@H]1O[C@H](Oc2cc3oc(-c4ccccc4)cc(=O)c3c(O)c2O)[C@@H](O)[C@H](O)[C@@H]1O
REMARK SMILES IDX 7 1 6 2 4 3 31 4 5 5 29 6 27 7 2 8 1 9 3 10 32 11 30 13
REMARK SMILES IDX 28 15 8 17 25 18 9 19 23 20 10 21 22 22 11 23 20 24 12 25
REMARK SMILES IDX 19 26 21 27 26 28 24 30 13 32 14 33 18 34 15 35 17 36 16 37
REMARK H PARENT 32 12 30 14 28 16 26 29 24 31
REMARK Flexibility Score: inf
ROOT
ATOM      1  O   UNL     1     -63.635 -42.709 -36.913  1.00  0.00    -0.458 OA
ENDROOT
BRANCH   1   2
ATOM      2  C   UNL     1     -63.232 -42.212 -38.197  1.00  0.00     0.339 C 
ATOM      3  C   UNL     1     -63.920 -44.247 -39.229  1.00  0.00     0.199 C 
ATOM      4  C   UNL     1     -65.350 -43.634 -39.287  1.00  0.00     0.180 C 
ATOM      5  O   UNL     1     -62.870 -43.296 -39.038  1.00  0.00    -0.328 OA
ATOM      6  C   UNL     1     -65.242 -42.185 -39.788  1.00  0.00     0.181 C 
ATOM      7  C   UNL     1     -64.338 -41.340 -38.859  1.00  0.00     0.214 C 
BRANCH   3   8
ATOM      8  C   UNL     1     -63.807 -45.392 -38.254  1.00  0.00     0.073 C 
ATOM      9  O   UNL     1     -62.699 -45.690 -37.738  1.00  0.00    -0.547 OA
ATOM     10  O   UNL     1     -64.924 -46.166 -37.962  1.00  0.00    -0.547 OA
ENDBRANCH   3   8
BRANCH   4  11
ATOM     11  O   UNL     1     -65.964 -43.669 -38.020  1.00  0.00    -0.387 OA
ATOM     12  H   UNL     1     -66.397 -44.558 -37.928  1.00  0.00     0.211 HD
ENDBRANCH   4  11
BRANCH   6  13
ATOM     13  O   UNL     1     -66.509 -41.597 -39.955  1.00  0.00    -0.387 OA
ATOM     14  H   UNL     1     -66.434 -40.633 -39.731  1.00  0.00     0.211 HD
ENDBRANCH   6  13
BRANCH   7  15
ATOM     15  O   UNL     1     -63.749 -40.317 -39.622  1.00  0.00    -0.384 OA
ATOM     16  H   UNL     1     -64.155 -40.356 -40.526  1.00  0.00     0.211 HD
ENDBRANCH   7  15
ENDBRANCH   1   2
BRANCH   1  17
ATOM     17  C   UNL     1     -62.920 -42.674 -35.702  1.00  0.00     0.172 A 
ATOM     18  C   UNL     1     -61.584 -43.109 -35.549  1.00  0.00     0.201 A 
ATOM     19  C   UNL     1     -63.608 -42.190 -34.591  1.00  0.00     0.098 A 
ATOM     20  C   UNL     1     -60.944 -43.017 -34.294  1.00  0.00     0.176 A 
ATOM     21  C   UNL     1     -62.982 -42.057 -33.354  1.00  0.00     0.146 A 
ATOM     22  C   UNL     1     -61.628 -42.435 -33.190  1.00  0.00     0.111 A 
ATOM     23  O   UNL     1     -63.680 -41.559 -32.339  1.00  0.00    -0.456 OA
ATOM     24  C   UNL     1     -61.040 -42.169 -31.930  1.00  0.00     0.197 A 
ATOM     25  C   UNL     1     -63.173 -41.360 -31.127  1.00  0.00     0.138 A 
ATOM     26  C   UNL     1     -61.821 -41.650 -30.895  1.00  0.00     0.100 A 
ATOM     27  O   UNL     1     -59.812 -42.348 -31.715  1.00  0.00    -0.289 OA
BRANCH  18  28
ATOM     28  O   UNL     1     -60.900 -43.665 -36.630  1.00  0.00    -0.502 OA
ATOM     29  H   UNL     1     -61.155 -43.489 -37.594  1.00  0.00     0.293 HD
ENDBRANCH  18  28
BRANCH  20  30
ATOM     30  O   UNL     1     -59.655 -43.552 -34.191  1.00  0.00    -0.504 OA
ATOM     31  H   UNL     1     -59.222 -44.142 -34.887  1.00  0.00     0.293 HD
ENDBRANCH  20  30
BRANCH  25  32
ATOM     32  C   UNL     1     -64.052 -40.812 -30.064  1.00  0.00     0.017 A 
ATOM     33  C   UNL     1     -65.399 -40.529 -30.357  1.00  0.00     0.012 A 
ATOM     34  C   UNL     1     -63.583 -40.595 -28.752  1.00  0.00     0.012 A 
ATOM     35  C   UNL     1     -66.250 -40.022 -29.370  1.00  0.00     0.001 A 
ATOM     36  C   UNL     1     -64.441 -40.089 -27.769  1.00  0.00     0.001 A 
ATOM     37  C   UNL     1     -65.771 -39.800 -28.078  1.00  0.00     0.000 A 
ENDBRANCH  25  32
ENDBRANCH   1  17
TORSDOF 9
ENDMDL
MODEL 5
REMARK VINA RESULT:    -7.699      2.586      4.393
REMARK INTER + INTRA:         -12.111
REMARK INTER:                 -11.244
REMARK INTRA:                  -0.866
REMARK UNBOUND:                -1.486
REMARK SMILES O=C([O-])[C@@H]1O[C@H](Oc2cc3oc(-c4ccccc4)cc(=O)c3c(O)c2O)[C@@H](O)[C@H](O)[C@@H]1O
REMARK SMILES IDX 7 1 6 2 4 3 31 4 5 5 29 6 27 7 2 8 1 9 3 10 32 11 30 13
REMARK SMILES IDX 28 15 8 17 25 18 9 19 23 20 10 21 22 22 11 23 20 24 12 25
REMARK SMILES IDX 19 26 21 27 26 28 24 30 13 32 14 33 18 34 15 35 17 36 16 37
REMARK H PARENT 32 12 30 14 28 16 26 29 24 31
REMARK Flexibility Score: inf
ROOT
ATOM      1  O   UNL     1     -65.939 -44.032 -34.163  1.00  0.00    -0.458 OA
ENDROOT
BRANCH   1   2
ATOM      2  C   UNL     1     -66.059 -44.196 -35.583  1.00  0.00     0.339 C 
ATOM      3  C   UNL     1     -67.051 -46.341 -35.275  1.00  0.00     0.199 C 
ATOM      4  C   UNL     1     -68.408 -45.593 -35.110  1.00  0.00     0.180 C 
ATOM      5  O   UNL     1     -66.023 -45.577 -35.910  1.00  0.00    -0.328 OA
ATOM      6  C   UNL     1     -68.520 -44.531 -36.214  1.00  0.00     0.181 C 
ATOM      7  C   UNL     1     -67.347 -43.526 -36.143  1.00  0.00     0.214 C 
BRANCH   3   8
ATOM      8  C   UNL     1     -66.561 -46.965 -33.994  1.00  0.00     0.073 C 
ATOM      9  O   UNL     1     -65.334 -47.180 -33.812  1.00  0.00    -0.547 OA
ATOM     10  O   UNL     1     -67.472 -47.364 -33.023  1.00  0.00    -0.547 OA
ENDBRANCH   3   8
BRANCH   4  11
ATOM     11  O   UNL     1     -68.498 -44.990 -33.840  1.00  0.00    -0.387 OA
ATOM     12  H   UNL     1     -69.448 -44.741 -33.699  1.00  0.00     0.211 HD
ENDBRANCH   4  11
BRANCH   6  13
ATOM     13  O   UNL     1     -69.766 -43.879 -36.182  1.00  0.00    -0.387 OA
ATOM     14  H   UNL     1     -69.639 -42.992 -35.753  1.00  0.00     0.211 HD
ENDBRANCH   6  13
BRANCH   7  15
ATOM     15  O   UNL     1     -67.105 -43.030 -37.435  1.00  0.00    -0.384 OA
ATOM     16  H   UNL     1     -67.882 -42.463 -37.680  1.00  0.00     0.211 HD
ENDBRANCH   7  15
ENDBRANCH   1   2
BRANCH   1  17
ATOM     17  C   UNL     1     -65.017 -43.240 -33.453  1.00  0.00     0.172 A 
ATOM     18  C   UNL     1     -63.697 -42.972 -33.881  1.00  0.00     0.201 A 
ATOM     19  C   UNL     1     -65.458 -42.714 -32.240  1.00  0.00     0.098 A 
ATOM     20  C   UNL     1     -62.850 -42.150 -33.106  1.00  0.00     0.176 A 
ATOM     21  C   UNL     1     -64.651 -41.871 -31.481  1.00  0.00     0.146 A 
ATOM     22  C   UNL     1     -63.344 -41.544 -31.916  1.00  0.00     0.111 A 
ATOM     23  O   UNL     1     -65.139 -41.374 -30.349  1.00  0.00    -0.456 OA
ATOM     24  C   UNL     1     -62.632 -40.599 -31.139  1.00  0.00     0.197 A 
ATOM     25  C   UNL     1     -64.466 -40.537 -29.566  1.00  0.00     0.138 A 
ATOM     26  C   UNL     1     -63.188 -40.112 -29.955  1.00  0.00     0.100 A 
ATOM     27  O   UNL     1     -61.515 -40.143 -31.502  1.00  0.00    -0.289 OA
BRANCH  18  28
ATOM     28  O   UNL     1     -63.210 -43.547 -35.054  1.00  0.00    -0.502 OA
ATOM     29  H   UNL     1     -62.259 -43.422 -35.376  1.00  0.00     0.293 HD
ENDBRANCH  18  28
BRANCH  20  30
ATOM     30  O   UNL     1     -61.528 -42.003 -33.539  1.00  0.00    -0.504 OA
ATOM     31  H   UNL     1     -61.128 -42.484 -34.331  1.00  0.00     0.293 HD
ENDBRANCH  20  30
BRANCH  25  32
ATOM     32  C   UNL     1     -65.106 -40.057 -28.315  1.00  0.00     0.017 A 
ATOM     33  C   UNL     1     -64.321 -39.426 -27.333  1.00  0.00     0.012 A 
ATOM     34  C   UNL     1     -66.493 -40.187 -28.095  1.00  0.00     0.012 A 
ATOM     35  C   UNL     1     -64.903 -38.956 -26.151  1.00  0.00     0.001 A 
ATOM     36  C   UNL     1     -67.069 -39.713 -26.911  1.00  0.00     0.001 A 
ATOM     37  C   UNL     1     -66.275 -39.101 -25.940  1.00  0.00     0.000 A 
ENDBRANCH  25  32
ENDBRANCH   1  17
TORSDOF 9
ENDMDL
MODEL 6
REMARK VINA RESULT:    -7.575      2.069      4.615
REMARK INTER + INTRA:         -11.940
REMARK INTER:                 -11.153
REMARK INTRA:                  -0.787
REMARK UNBOUND:                -1.486
REMARK SMILES O=C([O-])[C@@H]1O[C@H](Oc2cc3oc(-c4ccccc4)cc(=O)c3c(O)c2O)[C@@H](O)[C@H](O)[C@@H]1O
REMARK SMILES IDX 7 1 6 2 4 3 31 4 5 5 29 6 27 7 2 8 1 9 3 10 32 11 30 13
REMARK SMILES IDX 28 15 8 17 25 18 9 19 23 20 10 21 22 22 11 23 20 24 12 25
REMARK SMILES IDX 19 26 21 27 26 28 24 30 13 32 14 33 18 34 15 35 17 36 16 37
REMARK H PARENT 32 12 30 14 28 16 26 29 24 31
REMARK Flexibility Score: inf
ROOT
ATOM      1  O   UNL     1     -62.430 -42.898 -33.614  1.00  0.00    -0.458 OA
ENDROOT
BRANCH   1   2
ATOM      2  C   UNL     1     -61.098 -43.010 -33.095  1.00  0.00     0.339 C 
ATOM      3  C   UNL     1     -60.195 -42.354 -35.200  1.00  0.00     0.199 C 
ATOM      4  C   UNL     1     -60.401 -40.882 -34.733  1.00  0.00     0.180 C 
ATOM      5  O   UNL     1     -60.198 -43.320 -34.147  1.00  0.00    -0.328 OA
ATOM      6  C   UNL     1     -59.899 -40.753 -33.287  1.00  0.00     0.181 C 
ATOM      7  C   UNL     1     -60.653 -41.721 -32.345  1.00  0.00     0.214 C 
BRANCH   3   8
ATOM      8  C   UNL     1     -61.127 -42.755 -36.316  1.00  0.00     0.073 C 
ATOM      9  O   UNL     1     -61.428 -43.964 -36.498  1.00  0.00    -0.547 OA
ATOM     10  O   UNL     1     -61.614 -41.793 -37.193  1.00  0.00    -0.547 OA
ENDBRANCH   3   8
BRANCH   4  11
ATOM     11  O   UNL     1     -61.759 -40.515 -34.815  1.00  0.00    -0.387 OA
ATOM     12  H   UNL     1     -62.279 -41.345 -34.974  1.00  0.00     0.211 HD
ENDBRANCH   4  11
BRANCH   6  13
ATOM     13  O   UNL     1     -59.968 -39.424 -32.831  1.00  0.00    -0.387 OA
ATOM     14  H   UNL     1     -60.181 -39.441 -31.861  1.00  0.00     0.211 HD
ENDBRANCH   6  13
BRANCH   7  15
ATOM     15  O   UNL     1     -59.803 -42.057 -31.278  1.00  0.00    -0.384 OA
ATOM     16  H   UNL     1     -59.072 -41.384 -31.264  1.00  0.00     0.211 HD
ENDBRANCH   7  15
ENDBRANCH   1   2
BRANCH   1  17
ATOM     17  C   UNL     1     -63.629 -42.699 -32.903  1.00  0.00     0.172 A 
ATOM     18  C   UNL     1     -64.851 -43.343 -33.201  1.00  0.00     0.201 A 
ATOM     19  C   UNL     1     -63.580 -41.787 -31.851  1.00  0.00     0.098 A 
ATOM     20  C   UNL     1     -65.998 -43.091 -32.418  1.00  0.00     0.176 A 
ATOM     21  C   UNL     1     -64.690 -41.553 -31.044  1.00  0.00     0.146 A 
ATOM     22  C   UNL     1     -65.911 -42.227 -31.289  1.00  0.00     0.111 A 
ATOM     23  O   UNL     1     -64.574 -40.696 -30.036  1.00  0.00    -0.456 OA
ATOM     24  C   UNL     1     -66.956 -42.012 -30.359  1.00  0.00     0.197 A 
ATOM     25  C   UNL     1     -65.559 -40.424 -29.187  1.00  0.00     0.138 A 
ATOM     26  C   UNL     1     -66.783 -41.095 -29.321  1.00  0.00     0.100 A 
ATOM     27  O   UNL     1     -68.038 -42.654 -30.410  1.00  0.00    -0.289 OA
BRANCH  18  28
ATOM     28  O   UNL     1     -64.942 -44.204 -34.295  1.00  0.00    -0.502 OA
ATOM     29  H   UNL     1     -65.548 -44.028 -35.086  1.00  0.00     0.293 HD
ENDBRANCH  18  28
BRANCH  20  30
ATOM     30  O   UNL     1     -67.197 -43.688 -32.825  1.00  0.00    -0.504 OA
ATOM     31  H   UNL     1     -67.284 -44.321 -33.606  1.00  0.00     0.293 HD
ENDBRANCH  20  30
BRANCH  25  32
ATOM     32  C   UNL     1     -65.320 -39.435 -28.106  1.00  0.00     0.017 A 
ATOM     33  C   UNL     1     -64.488 -38.327 -28.352  1.00  0.00     0.012 A 
ATOM     34  C   UNL     1     -65.931 -39.556 -26.841  1.00  0.00     0.012 A 
ATOM     35  C   UNL     1     -64.255 -37.377 -27.353  1.00  0.00     0.001 A 
ATOM     36  C   UNL     1     -65.695 -38.601 -25.847  1.00  0.00     0.001 A 
ATOM     37  C   UNL     1     -64.857 -37.515 -26.101  1.00  0.00     0.000 A 
ENDBRANCH  25  32
ENDBRANCH   1  17
TORSDOF 9
ENDMDL
MODEL 7
REMARK VINA RESULT:    -7.490      3.834      6.875
REMARK INTER + INTRA:         -11.822
REMARK INTER:                 -10.339
REMARK INTRA:                  -1.483
REMARK UNBOUND:                -1.486
REMARK SMILES O=C([O-])[C@@H]1O[C@H](Oc2cc3oc(-c4ccccc4)cc(=O)c3c(O)c2O)[C@@H](O)[C@H](O)[C@@H]1O
REMARK SMILES IDX 7 1 6 2 4 3 31 4 5 5 29 6 27 7 2 8 1 9 3 10 32 11 30 13
REMARK SMILES IDX 28 15 8 17 25 18 9 19 23 20 10 21 22 22 11 23 20 24 12 25
REMARK SMILES IDX 19 26 21 27 26 28 24 30 13 32 14 33 18 34 15 35 17 36 16 37
REMARK H PARENT 32 12 30 14 28 16 26 29 24 31
REMARK Flexibility Score: inf
ROOT
ATOM      1  O   UNL     1     -66.236 -43.197 -40.173  1.00  0.00    -0.458 OA
ENDROOT
BRANCH   1   2
ATOM      2  C   UNL     1     -67.567 -43.486 -39.722  1.00  0.00     0.339 C 
ATOM      3  C   UNL     1     -68.470 -42.591 -41.738  1.00  0.00     0.199 C 
ATOM      4  C   UNL     1     -68.231 -43.996 -42.367  1.00  0.00     0.180 C 
ATOM      5  O   UNL     1     -68.481 -42.572 -40.309  1.00  0.00    -0.328 OA
ATOM      6  C   UNL     1     -68.721 -45.066 -41.379  1.00  0.00     0.181 C 
ATOM      7  C   UNL     1     -67.980 -44.955 -40.025  1.00  0.00     0.214 C 
BRANCH   3   8
ATOM      8  C   UNL     1     -67.555 -41.531 -42.296  1.00  0.00     0.073 C 
ATOM      9  O   UNL     1     -67.117 -41.614 -43.473  1.00  0.00    -0.547 OA
ATOM     10  O   UNL     1     -67.140 -40.479 -41.488  1.00  0.00    -0.547 OA
ENDBRANCH   3   8
BRANCH   4  11
ATOM     11  O   UNL     1     -66.866 -44.189 -42.661  1.00  0.00    -0.387 OA
ATOM     12  H   UNL     1     -66.756 -44.063 -43.639  1.00  0.00     0.211 HD
ENDBRANCH   4  11
BRANCH   6  13
ATOM     13  O   UNL     1     -68.620 -46.359 -41.922  1.00  0.00    -0.387 OA
ATOM     14  H   UNL     1     -68.235 -46.956 -41.229  1.00  0.00     0.211 HD
ENDBRANCH   6  13
BRANCH   7  15
ATOM     15  O   UNL     1     -68.830 -45.432 -39.013  1.00  0.00    -0.384 OA
ATOM     16  H   UNL     1     -68.883 -46.418 -39.116  1.00  0.00     0.211 HD
ENDBRANCH   7  15
ENDBRANCH   1   2
BRANCH   1  17
ATOM     17  C   UNL     1     -65.016 -43.600 -39.599  1.00  0.00     0.172 A 
ATOM     18  C   UNL     1     -64.185 -44.618 -40.120  1.00  0.00     0.201 A 
ATOM     19  C   UNL     1     -64.636 -42.945 -38.429  1.00  0.00     0.098 A 
ATOM     20  C   UNL     1     -62.968 -44.940 -39.481  1.00  0.00     0.176 A 
ATOM     21  C   UNL     1     -63.423 -43.223 -37.806  1.00  0.00     0.146 A 
ATOM     22  C   UNL     1     -62.548 -44.200 -38.339  1.00  0.00     0.111 A 
ATOM     23  O   UNL     1     -63.100 -42.543 -36.710  1.00  0.00    -0.456 OA
ATOM     24  C   UNL     1     -61.291 -44.345 -37.705  1.00  0.00     0.197 A 
ATOM     25  C   UNL     1     -61.955 -42.706 -36.056  1.00  0.00     0.138 A 
ATOM     26  C   UNL     1     -61.006 -43.610 -36.553  1.00  0.00     0.100 A 
ATOM     27  O   UNL     1     -60.391 -45.092 -38.171  1.00  0.00    -0.289 OA
BRANCH  18  28
ATOM     28  O   UNL     1     -64.580 -45.336 -41.248  1.00  0.00    -0.502 OA
ATOM     29  H   UNL     1     -65.460 -45.834 -41.305  1.00  0.00     0.293 HD
ENDBRANCH  18  28
BRANCH  20  30
ATOM     30  O   UNL     1     -62.241 -46.020 -39.994  1.00  0.00    -0.504 OA
ATOM     31  H   UNL     1     -61.613 -46.596 -39.454  1.00  0.00     0.293 HD
ENDBRANCH  20  30
BRANCH  25  32
ATOM     32  C   UNL     1     -61.709 -41.902 -34.833  1.00  0.00     0.017 A 
ATOM     33  C   UNL     1     -62.715 -41.805 -33.854  1.00  0.00     0.012 A 
ATOM     34  C   UNL     1     -60.477 -41.255 -34.606  1.00  0.00     0.012 A 
ATOM     35  C   UNL     1     -62.504 -41.062 -32.688  1.00  0.00     0.001 A 
ATOM     36  C   UNL     1     -60.272 -40.515 -33.437  1.00  0.00     0.001 A 
ATOM     37  C   UNL     1     -61.284 -40.416 -32.481  1.00  0.00     0.000 A 
ENDBRANCH  25  32
ENDBRANCH   1  17
TORSDOF 9
ENDMDL
MODEL 8
REMARK VINA RESULT:    -7.485      0.989      2.278
REMARK INTER + INTRA:         -11.815
REMARK INTER:                 -10.913
REMARK INTRA:                  -0.902
REMARK UNBOUND:                -1.486
REMARK SMILES O=C([O-])[C@@H]1O[C@H](Oc2cc3oc(-c4ccccc4)cc(=O)c3c(O)c2O)[C@@H](O)[C@H](O)[C@@H]1O
REMARK SMILES IDX 7 1 6 2 4 3 31 4 5 5 29 6 27 7 2 8 1 9 3 10 32 11 30 13
REMARK SMILES IDX 28 15 8 17 25 18 9 19 23 20 10 21 22 22 11 23 20 24 12 25
REMARK SMILES IDX 19 26 21 27 26 28 24 30 13 32 14 33 18 34 15 35 17 36 16 37
REMARK H PARENT 32 12 30 14 28 16 26 29 24 31
REMARK Flexibility Score: inf
ROOT
ATOM      1  O   UNL     1     -62.851 -43.189 -35.663  1.00  0.00    -0.458 OA
ENDROOT
BRANCH   1   2
ATOM      2  C   UNL     1     -62.445 -44.200 -36.595  1.00  0.00     0.339 C 
ATOM      3  C   UNL     1     -64.681 -44.395 -37.397  1.00  0.00     0.199 C 
ATOM      4  C   UNL     1     -64.354 -43.200 -38.341  1.00  0.00     0.180 C 
ATOM      5  O   UNL     1     -63.536 -45.067 -36.867  1.00  0.00    -0.328 OA
ATOM      6  C   UNL     1     -62.981 -43.446 -38.985  1.00  0.00     0.181 C 
ATOM      7  C   UNL     1     -61.879 -43.591 -37.910  1.00  0.00     0.214 C 
BRANCH   3   8
ATOM      8  C   UNL     1     -65.660 -44.036 -36.307  1.00  0.00     0.073 C 
ATOM      9  O   UNL     1     -66.541 -43.158 -36.499  1.00  0.00    -0.547 OA
ATOM     10  O   UNL     1     -65.556 -44.634 -35.057  1.00  0.00    -0.547 OA
ENDBRANCH   3   8
BRANCH   4  11
ATOM     11  O   UNL     1     -64.351 -41.984 -37.630  1.00  0.00    -0.387 OA
ATOM     12  H   UNL     1     -65.157 -41.477 -37.911  1.00  0.00     0.211 HD
ENDBRANCH   4  11
BRANCH   6  13
ATOM     13  O   UNL     1     -62.663 -42.448 -39.925  1.00  0.00    -0.387 OA
ATOM     14  H   UNL     1     -62.638 -42.868 -40.824  1.00  0.00     0.211 HD
ENDBRANCH   6  13
BRANCH   7  15
ATOM     15  O   UNL     1     -60.863 -44.416 -38.422  1.00  0.00    -0.384 OA
ATOM     16  H   UNL     1     -60.161 -44.483 -37.723  1.00  0.00     0.211 HD
ENDBRANCH   7  15
ENDBRANCH   1   2
BRANCH   1  17
ATOM     17  C   UNL     1     -62.297 -42.891 -34.404  1.00  0.00     0.172 A 
ATOM     18  C   UNL     1     -60.930 -43.044 -34.076  1.00  0.00     0.201 A 
ATOM     19  C   UNL     1     -63.182 -42.434 -33.430  1.00  0.00     0.098 A 
ATOM     20  C   UNL     1     -60.465 -42.702 -32.788  1.00  0.00     0.176 A 
ATOM     21  C   UNL     1     -62.736 -42.057 -32.167  1.00  0.00     0.146 A 
ATOM     22  C   UNL     1     -61.363 -42.149 -31.832  1.00  0.00     0.111 A 
ATOM     23  O   UNL     1     -63.623 -41.598 -31.289  1.00  0.00    -0.456 OA
ATOM     24  C   UNL     1     -60.980 -41.646 -30.566  1.00  0.00     0.197 A 
ATOM     25  C   UNL     1     -63.300 -41.182 -30.069  1.00  0.00     0.138 A 
ATOM     26  C   UNL     1     -61.954 -41.181 -29.680  1.00  0.00     0.100 A 
ATOM     27  O   UNL     1     -59.772 -41.564 -30.218  1.00  0.00    -0.289 OA
BRANCH  18  28
ATOM     28  O   UNL     1     -60.039 -43.569 -35.012  1.00  0.00    -0.502 OA
ATOM     29  H   UNL     1     -60.108 -44.513 -35.370  1.00  0.00     0.293 HD
ENDBRANCH  18  28
BRANCH  20  30
ATOM     30  O   UNL     1     -59.120 -42.967 -32.501  1.00  0.00    -0.504 OA
ATOM     31  H   UNL     1     -58.682 -42.799 -31.608  1.00  0.00     0.293 HD
ENDBRANCH  20  30
BRANCH  25  32
ATOM     32  C   UNL     1     -64.379 -40.704 -29.169  1.00  0.00     0.017 A 
ATOM     33  C   UNL     1     -65.724 -40.912 -29.527  1.00  0.00     0.012 A 
ATOM     34  C   UNL     1     -64.094 -40.072 -27.940  1.00  0.00     0.012 A 
ATOM     35  C   UNL     1     -66.758 -40.481 -28.690  1.00  0.00     0.001 A 
ATOM     36  C   UNL     1     -65.134 -39.645 -27.107  1.00  0.00     0.001 A 
ATOM     37  C   UNL     1     -66.462 -39.846 -27.482  1.00  0.00     0.000 A 
ENDBRANCH  25  32
ENDBRANCH   1  17
TORSDOF 9
ENDMDL
MODEL 9
REMARK VINA RESULT:    -7.327      3.947      8.546
REMARK INTER + INTRA:         -11.597
REMARK INTER:                 -10.142
REMARK INTRA:                  -1.455
REMARK UNBOUND:                -1.486
REMARK SMILES O=C([O-])[C@@H]1O[C@H](Oc2cc3oc(-c4ccccc4)cc(=O)c3c(O)c2O)[C@@H](O)[C@H](O)[C@@H]1O
REMARK SMILES IDX 7 1 6 2 4 3 31 4 5 5 29 6 27 7 2 8 1 9 3 10 32 11 30 13
REMARK SMILES IDX 28 15 8 17 25 18 9 19 23 20 10 21 22 22 11 23 20 24 12 25
REMARK SMILES IDX 19 26 21 27 26 28 24 30 13 32 14 33 18 34 15 35 17 36 16 37
REMARK H PARENT 32 12 30 14 28 16 26 29 24 31
REMARK Flexibility Score: inf
ROOT
ATOM      1  O   UNL     1     -62.662 -42.845 -35.281  1.00  0.00    -0.458 OA
ENDROOT
BRANCH   1   2
ATOM      2  C   UNL     1     -61.490 -43.649 -35.474  1.00  0.00     0.339 C 
ATOM      3  C   UNL     1     -60.346 -42.432 -33.774  1.00  0.00     0.199 C 
ATOM      4  C   UNL     1     -61.011 -43.402 -32.752  1.00  0.00     0.180 C 
ATOM      5  O   UNL     1     -60.334 -42.903 -35.123  1.00  0.00    -0.328 OA
ATOM      6  C   UNL     1     -60.884 -44.838 -33.285  1.00  0.00     0.181 C 
ATOM      7  C   UNL     1     -61.557 -44.980 -34.670  1.00  0.00     0.214 C 
BRANCH   3   8
ATOM      8  C   UNL     1     -60.881 -41.025 -33.688  1.00  0.00     0.073 C 
ATOM      9  O   UNL     1     -60.821 -40.253 -34.680  1.00  0.00    -0.547 OA
ATOM     10  O   UNL     1     -61.394 -40.551 -32.486  1.00  0.00    -0.547 OA
ENDBRANCH   3   8
BRANCH   4  11
ATOM     11  O   UNL     1     -62.367 -43.071 -32.555  1.00  0.00    -0.387 OA
ATOM     12  H   UNL     1     -62.425 -42.569 -31.700  1.00  0.00     0.211 HD
ENDBRANCH   4  11
BRANCH   6  13
ATOM     13  O   UNL     1     -61.382 -45.778 -32.365  1.00  0.00    -0.387 OA
ATOM     14  H   UNL     1     -61.640 -45.294 -31.538  1.00  0.00     0.211 HD
ENDBRANCH   6  13
BRANCH   7  15
ATOM     15  O   UNL     1     -60.902 -46.001 -35.380  1.00  0.00    -0.384 OA
ATOM     16  H   UNL     1     -60.698 -45.643 -36.283  1.00  0.00     0.211 HD
ENDBRANCH   7  15
ENDBRANCH   1   2
BRANCH   1  17
ATOM     17  C   UNL     1     -63.977 -43.106 -35.708  1.00  0.00     0.172 A 
ATOM     18  C   UNL     1     -65.006 -43.601 -34.874  1.00  0.00     0.201 A 
ATOM     19  C   UNL     1     -64.250 -42.869 -37.054  1.00  0.00     0.098 A 
ATOM     20  C   UNL     1     -66.301 -43.816 -35.392  1.00  0.00     0.176 A 
ATOM     21  C   UNL     1     -65.530 -43.039 -37.574  1.00  0.00     0.146 A 
ATOM     22  C   UNL     1     -66.589 -43.482 -36.746  1.00  0.00     0.111 A 
ATOM     23  O   UNL     1     -65.736 -42.766 -38.858  1.00  0.00    -0.456 OA
ATOM     24  C   UNL     1     -67.878 -43.526 -37.328  1.00  0.00     0.197 A 
ATOM     25  C   UNL     1     -66.923 -42.863 -39.448  1.00  0.00     0.138 A 
ATOM     26  C   UNL     1     -68.038 -43.235 -38.684  1.00  0.00     0.100 A 
ATOM     27  O   UNL     1     -68.908 -43.784 -36.651  1.00  0.00    -0.289 OA
BRANCH  18  28
ATOM     28  O   UNL     1     -64.737 -43.915 -33.542  1.00  0.00    -0.502 OA
ATOM     29  H   UNL     1     -64.184 -44.716 -33.265  1.00  0.00     0.293 HD
ENDBRANCH  18  28
BRANCH  20  30
ATOM     30  O   UNL     1     -67.245 -44.396 -34.537  1.00  0.00    -0.504 OA
ATOM     31  H   UNL     1     -67.106 -44.546 -33.548  1.00  0.00     0.293 HD
ENDBRANCH  20  30
BRANCH  25  32
ATOM     32  C   UNL     1     -67.031 -42.547 -40.894  1.00  0.00     0.017 A 
ATOM     33  C   UNL     1     -66.936 -43.585 -41.840  1.00  0.00     0.012 A 
ATOM     34  C   UNL     1     -67.262 -41.233 -41.351  1.00  0.00     0.012 A 
ATOM     35  C   UNL     1     -67.046 -43.314 -43.207  1.00  0.00     0.001 A 
ATOM     36  C   UNL     1     -67.373 -40.969 -42.720  1.00  0.00     0.001 A 
ATOM     37  C   UNL     1     -67.262 -42.007 -43.647  1.00  0.00     0.000 A 
ENDBRANCH  25  32
ENDBRANCH   1  17
TORSDOF 9
ENDMDL
