MODEL 1
REMARK VINA RESULT:    -5.682      0.000      0.000
REMARK INTER + INTRA:          -9.213
REMARK INTER:                  -8.008
REMARK INTRA:                  -1.205
REMARK UNBOUND:                -1.205
REMARK SMILES COc1c(O[C@H]2O[C@@H](C(=O)[O-])[C@@H](O)[C@H](O)[C@H]2O)cc(O)c2c(=O)cc(-c3ccccc3)oc12
REMARK SMILES IDX 5 1 6 2 8 3 12 4 7 5 14 6 16 7 9 8 10 9 11 10 13 11 15 13
REMARK SMILES IDX 17 15 4 17 3 18 18 19 33 20 19 21 21 22 32 23 22 24 25 25
REMARK SMILES IDX 24 26 23 27 2 28 1 29 20 30 26 32 27 33 31 34 28 35 30 36
REMARK SMILES IDX 29 37
REMARK H PARENT 13 12 15 14 17 16 20 31
REMARK Flexibility Score: inf
ROOT
ATOM      1  O   UNL     1       4.969  31.858  86.274  1.00  0.00    -0.458 OA
ENDROOT
BRANCH   1   2
ATOM      2  C   UNL     1       5.760  33.026  86.073  1.00  0.00     0.339 C 
ATOM      3  C   UNL     1       6.186  35.165  86.960  1.00  0.00     0.199 C 
ATOM      4  C   UNL     1       7.368  35.189  85.931  1.00  0.00     0.180 C 
ATOM      5  O   UNL     1       5.666  33.862  87.210  1.00  0.00    -0.328 OA
ATOM      6  C   UNL     1       8.165  33.868  85.991  1.00  0.00     0.181 C 
ATOM      7  C   UNL     1       7.234  32.635  85.842  1.00  0.00     0.214 C 
BRANCH   3   8
ATOM      8  C   UNL     1       6.589  35.754  88.281  1.00  0.00     0.073 C 
ATOM      9  O   UNL     1       5.810  36.535  88.891  1.00  0.00    -0.547 OA
ATOM     10  O   UNL     1       7.844  35.481  88.816  1.00  0.00    -0.547 OA
ENDBRANCH   3   8
BRANCH   4  11
ATOM     11  O   UNL     1       8.200  36.319  86.083  1.00  0.00    -0.387 OA
ATOM     12  H   UNL     1       8.750  36.412  85.261  1.00  0.00     0.211 HD
ENDBRANCH   4  11
BRANCH   6  13
ATOM     13  O   UNL     1       9.134  33.865  84.976  1.00  0.00    -0.387 OA
ATOM     14  H   UNL     1       8.662  33.644  84.129  1.00  0.00     0.211 HD
ENDBRANCH   6  13
BRANCH   7  15
ATOM     15  O   UNL     1       7.624  31.659  86.777  1.00  0.00    -0.384 OA
ATOM     16  H   UNL     1       8.307  31.083  86.341  1.00  0.00     0.211 HD
ENDBRANCH   7  15
ENDBRANCH   1   2
BRANCH   1  17
ATOM     17  C   UNL     1       3.794  31.648  85.550  1.00  0.00     0.172 A 
ATOM     18  C   UNL     1       2.545  31.723  86.183  1.00  0.00     0.205 A 
ATOM     19  C   UNL     1       3.887  31.378  84.187  1.00  0.00     0.097 A 
ATOM     20  C   UNL     1       1.368  31.528  85.414  1.00  0.00     0.188 A 
ATOM     21  C   UNL     1       2.741  31.191  83.414  1.00  0.00     0.134 A 
ATOM     22  C   UNL     1       1.467  31.263  84.020  1.00  0.00     0.111 A 
ATOM     23  O   UNL     1       0.167  31.585  85.989  1.00  0.00    -0.452 OA
ATOM     24  C   UNL     1       0.271  31.092  83.294  1.00  0.00     0.197 A 
ATOM     25  C   UNL     1      -0.979  31.402  85.333  1.00  0.00     0.138 A 
ATOM     26  C   UNL     1      -0.953  31.162  83.953  1.00  0.00     0.100 A 
ATOM     27  O   UNL     1       0.279  30.875  82.051  1.00  0.00    -0.289 OA
BRANCH  18  28
ATOM     28  O   UNL     1       2.542  31.989  87.566  1.00  0.00    -0.490 OA
ATOM     29  C   UNL     1       2.122  33.191  88.199  1.00  0.00     0.278 C 
ENDBRANCH  18  28
BRANCH  21  30
ATOM     30  O   UNL     1       2.874  30.935  82.050  1.00  0.00    -0.507 OA
ATOM     31  H   UNL     1       3.270  31.619  81.417  1.00  0.00     0.293 HD
ENDBRANCH  21  30
BRANCH  25  32
ATOM     32  C   UNL     1      -2.259  31.475  86.084  1.00  0.00     0.017 A 
ATOM     33  C   UNL     1      -2.294  31.385  87.491  1.00  0.00     0.012 A 
ATOM     34  C   UNL     1      -3.469  31.658  85.389  1.00  0.00     0.012 A 
ATOM     35  C   UNL     1      -3.509  31.454  88.175  1.00  0.00     0.001 A 
ATOM     36  C   UNL     1      -4.682  31.731  86.079  1.00  0.00     0.001 A 
ATOM     37  C   UNL     1      -4.703  31.625  87.471  1.00  0.00     0.000 A 
ENDBRANCH  25  32
ENDBRANCH   1  17
TORSDOF 9
ENDMDL
MODEL 2
REMARK VINA RESULT:    -4.278      1.949      3.773
REMARK INTER + INTRA:          -7.233
REMARK INTER:                  -6.710
REMARK INTRA:                  -0.524
REMARK UNBOUND:                -1.205
REMARK SMILES COc1c(O[C@H]2O[C@@H](C(=O)[O-])[C@@H](O)[C@H](O)[C@H]2O)cc(O)c2c(=O)cc(-c3ccccc3)oc12
REMARK SMILES IDX 5 1 6 2 8 3 12 4 7 5 14 6 16 7 9 8 10 9 11 10 13 11 15 13
REMARK SMILES IDX 17 15 4 17 3 18 18 19 33 20 19 21 21 22 32 23 22 24 25 25
REMARK SMILES IDX 24 26 23 27 2 28 1 29 20 30 26 32 27 33 31 34 28 35 30 36
REMARK SMILES IDX 29 37
REMARK H PARENT 13 12 15 14 17 16 20 31
REMARK Flexibility Score: inf
ROOT
ATOM      1  O   UNL     1       4.157  32.461  85.868  1.00  0.00    -0.458 OA
ENDROOT
BRANCH   1   2
ATOM      2  C   UNL     1       5.053  33.243  86.653  1.00  0.00     0.339 C 
ATOM      3  C   UNL     1       6.673  33.078  88.352  1.00  0.00     0.199 C 
ATOM      4  C   UNL     1       6.949  34.587  88.027  1.00  0.00     0.180 C 
ATOM      5  O   UNL     1       5.952  32.391  87.334  1.00  0.00    -0.328 OA
ATOM      6  C   UNL     1       7.068  34.798  86.502  1.00  0.00     0.181 C 
ATOM      7  C   UNL     1       5.844  34.210  85.749  1.00  0.00     0.214 C 
BRANCH   3   8
ATOM      8  C   UNL     1       7.948  32.322  88.595  1.00  0.00     0.073 C 
ATOM      9  O   UNL     1       9.058  32.836  88.287  1.00  0.00    -0.547 OA
ATOM     10  O   UNL     1       7.909  31.033  89.115  1.00  0.00    -0.547 OA
ENDBRANCH   3   8
BRANCH   4  11
ATOM     11  O   UNL     1       8.063  35.100  88.723  1.00  0.00    -0.387 OA
ATOM     12  H   UNL     1       8.854  35.048  88.125  1.00  0.00     0.211 HD
ENDBRANCH   4  11
BRANCH   6  13
ATOM     13  O   UNL     1       7.186  36.170  86.232  1.00  0.00    -0.387 OA
ATOM     14  H   UNL     1       6.622  36.355  85.435  1.00  0.00     0.211 HD
ENDBRANCH   6  13
BRANCH   7  15
ATOM     15  O   UNL     1       6.301  33.532  84.605  1.00  0.00    -0.384 OA
ATOM     16  H   UNL     1       7.262  33.317  84.747  1.00  0.00     0.211 HD
ENDBRANCH   7  15
ENDBRANCH   1   2
BRANCH   1  17
ATOM     17  C   UNL     1       2.791  32.424  86.153  1.00  0.00     0.172 A 
ATOM     18  C   UNL     1       1.860  32.139  85.143  1.00  0.00     0.205 A 
ATOM     19  C   UNL     1       2.373  32.662  87.460  1.00  0.00     0.097 A 
ATOM     20  C   UNL     1       0.480  32.087  85.470  1.00  0.00     0.188 A 
ATOM     21  C   UNL     1       1.022  32.608  87.801  1.00  0.00     0.134 A 
ATOM     22  C   UNL     1       0.059  32.320  86.809  1.00  0.00     0.111 A 
ATOM     23  O   UNL     1      -0.428  31.827  84.531  1.00  0.00    -0.452 OA
ATOM     24  C   UNL     1      -1.320  32.242  87.090  1.00  0.00     0.197 A 
ATOM     25  C   UNL     1      -1.741  31.772  84.762  1.00  0.00     0.138 A 
ATOM     26  C   UNL     1      -2.220  31.967  86.064  1.00  0.00     0.100 A 
ATOM     27  O   UNL     1      -1.766  32.416  88.257  1.00  0.00    -0.289 OA
BRANCH  18  28
ATOM     28  O   UNL     1       2.366  31.923  83.847  1.00  0.00    -0.490 OA
ATOM     29  C   UNL     1       3.312  30.935  83.459  1.00  0.00     0.278 C 
ENDBRANCH  18  28
BRANCH  21  30
ATOM     30  O   UNL     1       0.644  32.839  89.123  1.00  0.00    -0.507 OA
ATOM     31  H   UNL     1       0.355  33.757  89.442  1.00  0.00     0.293 HD
ENDBRANCH  21  30
BRANCH  25  32
ATOM     32  C   UNL     1      -2.660  31.487  83.631  1.00  0.00     0.017 A 
ATOM     33  C   UNL     1      -2.172  31.137  82.355  1.00  0.00     0.012 A 
ATOM     34  C   UNL     1      -4.053  31.544  83.829  1.00  0.00     0.012 A 
ATOM     35  C   UNL     1      -3.056  30.875  81.306  1.00  0.00     0.001 A 
ATOM     36  C   UNL     1      -4.933  31.278  82.777  1.00  0.00     0.001 A 
ATOM     37  C   UNL     1      -4.435  30.947  81.515  1.00  0.00     0.000 A 
ENDBRANCH  25  32
ENDBRANCH   1  17
TORSDOF 9
ENDMDL
MODEL 3
REMARK VINA RESULT:    -4.190      1.273      2.462
REMARK INTER + INTRA:          -7.110
REMARK INTER:                  -6.993
REMARK INTRA:                  -0.117
REMARK UNBOUND:                -1.205
REMARK SMILES COc1c(O[C@H]2O[C@@H](C(=O)[O-])[C@@H](O)[C@H](O)[C@H]2O)cc(O)c2c(=O)cc(-c3ccccc3)oc12
REMARK SMILES IDX 5 1 6 2 8 3 12 4 7 5 14 6 16 7 9 8 10 9 11 10 13 11 15 13
REMARK SMILES IDX 17 15 4 17 3 18 18 19 33 20 19 21 21 22 32 23 22 24 25 25
REMARK SMILES IDX 24 26 23 27 2 28 1 29 20 30 26 32 27 33 31 34 28 35 30 36
REMARK SMILES IDX 29 37
REMARK H PARENT 13 12 15 14 17 16 20 31
REMARK Flexibility Score: inf
ROOT
ATOM      1  O   UNL     1       4.946  31.875  88.239  1.00  0.00    -0.458 OA
ENDROOT
BRANCH   1   2
ATOM      2  C   UNL     1       6.058  32.765  88.172  1.00  0.00     0.339 C 
ATOM      3  C   UNL     1       7.872  33.383  86.806  1.00  0.00     0.199 C 
ATOM      4  C   UNL     1       8.047  34.557  87.830  1.00  0.00     0.180 C 
ATOM      5  O   UNL     1       6.596  32.752  86.865  1.00  0.00    -0.328 OA
ATOM      6  C   UNL     1       6.689  35.235  88.113  1.00  0.00     0.181 C 
ATOM      7  C   UNL     1       5.612  34.197  88.531  1.00  0.00     0.214 C 
BRANCH   3   8
ATOM      8  C   UNL     1       8.086  33.845  85.393  1.00  0.00     0.073 C 
ATOM      9  O   UNL     1       9.240  34.161  84.997  1.00  0.00    -0.547 OA
ATOM     10  O   UNL     1       7.004  33.973  84.528  1.00  0.00    -0.547 OA
ENDBRANCH   3   8
BRANCH   4  11
ATOM     11  O   UNL     1       9.031  35.486  87.432  1.00  0.00    -0.387 OA
ATOM     12  H   UNL     1       9.159  35.401  86.451  1.00  0.00     0.211 HD
ENDBRANCH   4  11
BRANCH   6  13
ATOM     13  O   UNL     1       6.851  36.194  89.125  1.00  0.00    -0.387 OA
ATOM     14  H   UNL     1       7.821  36.409  89.164  1.00  0.00     0.211 HD
ENDBRANCH   6  13
BRANCH   7  15
ATOM     15  O   UNL     1       4.408  34.505  87.871  1.00  0.00    -0.384 OA
ATOM     16  H   UNL     1       3.963  35.232  88.384  1.00  0.00     0.211 HD
ENDBRANCH   7  15
ENDBRANCH   1   2
BRANCH   1  17
ATOM     17  C   UNL     1       4.111  31.681  87.137  1.00  0.00     0.172 A 
ATOM     18  C   UNL     1       2.719  31.794  87.270  1.00  0.00     0.205 A 
ATOM     19  C   UNL     1       4.687  31.387  85.904  1.00  0.00     0.097 A 
ATOM     20  C   UNL     1       1.899  31.612  86.127  1.00  0.00     0.188 A 
ATOM     21  C   UNL     1       3.897  31.213  84.768  1.00  0.00     0.134 A 
ATOM     22  C   UNL     1       2.492  31.324  84.866  1.00  0.00     0.111 A 
ATOM     23  O   UNL     1       0.573  31.706  86.223  1.00  0.00    -0.452 OA
ATOM     24  C   UNL     1       1.638  31.168  83.756  1.00  0.00     0.197 A 
ATOM     25  C   UNL     1      -0.260  31.538  85.196  1.00  0.00     0.138 A 
ATOM     26  C   UNL     1       0.261  31.276  83.922  1.00  0.00     0.100 A 
ATOM     27  O   UNL     1       2.094  30.931  82.603  1.00  0.00    -0.289 OA
BRANCH  18  28
ATOM     28  O   UNL     1       2.220  32.081  88.555  1.00  0.00    -0.490 OA
ATOM     29  C   UNL     1       1.626  33.301  88.982  1.00  0.00     0.278 C 
ENDBRANCH  18  28
BRANCH  21  30
ATOM     30  O   UNL     1       4.511  30.932  83.548  1.00  0.00    -0.507 OA
ATOM     31  H   UNL     1       4.691  29.981  83.249  1.00  0.00     0.293 HD
ENDBRANCH  21  30
BRANCH  25  32
ATOM     32  C   UNL     1      -1.723  31.652  85.428  1.00  0.00     0.017 A 
ATOM     33  C   UNL     1      -2.309  31.248  86.645  1.00  0.00     0.012 A 
ATOM     34  C   UNL     1      -2.550  32.192  84.426  1.00  0.00     0.012 A 
ATOM     35  C   UNL     1      -3.688  31.362  86.839  1.00  0.00     0.001 A 
ATOM     36  C   UNL     1      -3.928  32.308  84.627  1.00  0.00     0.001 A 
ATOM     37  C   UNL     1      -4.497  31.891  85.831  1.00  0.00     0.000 A 
ENDBRANCH  25  32
ENDBRANCH   1  17
TORSDOF 9
ENDMDL
MODEL 4
REMARK VINA RESULT:    -3.953      1.727      3.332
REMARK INTER + INTRA:          -6.776
REMARK INTER:                  -6.922
REMARK INTRA:                   0.147
REMARK UNBOUND:                -1.205
REMARK SMILES COc1c(O[C@H]2O[C@@H](C(=O)[O-])[C@@H](O)[C@H](O)[C@H]2O)cc(O)c2c(=O)cc(-c3ccccc3)oc12
REMARK SMILES IDX 5 1 6 2 8 3 12 4 7 5 14 6 16 7 9 8 10 9 11 10 13 11 15 13
REMARK SMILES IDX 17 15 4 17 3 18 18 19 33 20 19 21 21 22 32 23 22 24 25 25
REMARK SMILES IDX 24 26 23 27 2 28 1 29 20 30 26 32 27 33 31 34 28 35 30 36
REMARK SMILES IDX 29 37
REMARK H PARENT 13 12 15 14 17 16 20 31
REMARK Flexibility Score: inf
ROOT
ATOM      1  O   UNL     1       5.007  31.554  85.423  1.00  0.00    -0.458 OA
ENDROOT
BRANCH   1   2
ATOM      2  C   UNL     1       6.175  32.230  85.881  1.00  0.00     0.339 C 
ATOM      3  C   UNL     1       6.946  34.328  86.620  1.00  0.00     0.199 C 
ATOM      4  C   UNL     1       8.257  33.549  86.981  1.00  0.00     0.180 C 
ATOM      5  O   UNL     1       5.813  33.487  86.418  1.00  0.00    -0.328 OA
ATOM      6  C   UNL     1       7.922  32.246  87.739  1.00  0.00     0.181 C 
ATOM      7  C   UNL     1       6.881  31.391  86.967  1.00  0.00     0.214 C 
BRANCH   3   8
ATOM      8  C   UNL     1       6.585  35.327  87.682  1.00  0.00     0.073 C 
ATOM      9  O   UNL     1       5.744  35.031  88.573  1.00  0.00    -0.547 OA
ATOM     10  O   UNL     1       7.140  36.602  87.660  1.00  0.00    -0.547 OA
ENDBRANCH   3   8
BRANCH   4  11
ATOM     11  O   UNL     1       9.189  34.345  87.680  1.00  0.00    -0.387 OA
ATOM     12  H   UNL     1       9.711  34.867  87.016  1.00  0.00     0.211 HD
ENDBRANCH   4  11
BRANCH   6  13
ATOM     13  O   UNL     1       9.099  31.508  87.936  1.00  0.00    -0.387 OA
ATOM     14  H   UNL     1       9.278  31.508  88.914  1.00  0.00     0.211 HD
ENDBRANCH   6  13
BRANCH   7  15
ATOM     15  O   UNL     1       5.935  30.896  87.882  1.00  0.00    -0.384 OA
ATOM     16  H   UNL     1       5.297  31.632  88.081  1.00  0.00     0.211 HD
ENDBRANCH   7  15
ENDBRANCH   1   2
BRANCH   1  17
ATOM     17  C   UNL     1       3.731  32.001  85.771  1.00  0.00     0.172 A 
ATOM     18  C   UNL     1       2.621  31.668  84.981  1.00  0.00     0.205 A 
ATOM     19  C   UNL     1       3.582  32.770  86.921  1.00  0.00     0.097 A 
ATOM     20  C   UNL     1       1.333  32.119  85.374  1.00  0.00     0.188 A 
ATOM     21  C   UNL     1       2.324  33.217  87.327  1.00  0.00     0.134 A 
ATOM     22  C   UNL     1       1.184  32.896  86.556  1.00  0.00     0.111 A 
ATOM     23  O   UNL     1       0.261  31.826  84.640  1.00  0.00    -0.452 OA
ATOM     24  C   UNL     1      -0.115  33.308  86.915  1.00  0.00     0.197 A 
ATOM     25  C   UNL     1      -0.976  32.223  84.941  1.00  0.00     0.138 A 
ATOM     26  C   UNL     1      -1.195  32.970  86.106  1.00  0.00     0.100 A 
ATOM     27  O   UNL     1      -0.327  33.981  87.961  1.00  0.00    -0.289 OA
BRANCH  18  28
ATOM     28  O   UNL     1       2.862  30.896  83.828  1.00  0.00    -0.490 OA
ATOM     29  C   UNL     1       2.507  31.232  82.492  1.00  0.00     0.278 C 
ENDBRANCH  18  28
BRANCH  21  30
ATOM     30  O   UNL     1       2.213  33.974  88.492  1.00  0.00    -0.507 OA
ATOM     31  H   UNL     1       1.728  33.625  89.310  1.00  0.00     0.293 HD
ENDBRANCH  21  30
BRANCH  25  32
ATOM     32  C   UNL     1      -2.094  31.846  84.039  1.00  0.00     0.017 A 
ATOM     33  C   UNL     1      -1.858  31.255  82.780  1.00  0.00     0.012 A 
ATOM     34  C   UNL     1      -3.424  32.061  84.445  1.00  0.00     0.012 A 
ATOM     35  C   UNL     1      -2.925  30.911  81.947  1.00  0.00     0.001 A 
ATOM     36  C   UNL     1      -4.489  31.712  83.609  1.00  0.00     0.001 A 
ATOM     37  C   UNL     1      -4.239  31.140  82.360  1.00  0.00     0.000 A 
ENDBRANCH  25  32
ENDBRANCH   1  17
TORSDOF 9
ENDMDL
MODEL 5
REMARK VINA RESULT:    -3.295      2.227      8.826
REMARK INTER + INTRA:          -5.848
REMARK INTER:                  -6.467
REMARK INTRA:                   0.618
REMARK UNBOUND:                -1.205
REMARK SMILES COc1c(O[C@H]2O[C@@H](C(=O)[O-])[C@@H](O)[C@H](O)[C@H]2O)cc(O)c2c(=O)cc(-c3ccccc3)oc12
REMARK SMILES IDX 5 1 6 2 8 3 12 4 7 5 14 6 16 7 9 8 10 9 11 10 13 11 15 13
REMARK SMILES IDX 17 15 4 17 3 18 18 19 33 20 19 21 21 22 32 23 22 24 25 25
REMARK SMILES IDX 24 26 23 27 2 28 1 29 20 30 26 32 27 33 31 34 28 35 30 36
REMARK SMILES IDX 29 37
REMARK H PARENT 13 12 15 14 17 16 20 31
REMARK Flexibility Score: inf
ROOT
ATOM      1  O   UNL     1      -0.327  33.390  86.730  1.00  0.00    -0.458 OA
ENDROOT
BRANCH   1   2
ATOM      2  C   UNL     1      -1.570  33.010  86.145  1.00  0.00     0.339 C 
ATOM      3  C   UNL     1      -2.572  32.456  84.089  1.00  0.00     0.199 C 
ATOM      4  C   UNL     1      -3.806  32.060  84.970  1.00  0.00     0.180 C 
ATOM      5  O   UNL     1      -1.354  32.569  84.820  1.00  0.00    -0.328 OA
ATOM      6  C   UNL     1      -3.361  31.195  86.168  1.00  0.00     0.181 C 
ATOM      7  C   UNL     1      -2.217  31.876  86.967  1.00  0.00     0.214 C 
BRANCH   3   8
ATOM      8  C   UNL     1      -2.345  31.471  82.978  1.00  0.00     0.073 C 
ATOM      9  O   UNL     1      -1.239  30.875  82.875  1.00  0.00    -0.547 OA
ATOM     10  O   UNL     1      -3.336  31.247  82.028  1.00  0.00    -0.547 OA
ENDBRANCH   3   8
BRANCH   4  11
ATOM     11  O   UNL     1      -4.834  31.446  84.224  1.00  0.00    -0.387 OA
ATOM     12  H   UNL     1      -5.394  30.913  84.847  1.00  0.00     0.211 HD
ENDBRANCH   4  11
BRANCH   6  13
ATOM     13  O   UNL     1      -4.462  30.962  87.007  1.00  0.00    -0.387 OA
ATOM     14  H   UNL     1      -4.707  30.005  86.900  1.00  0.00     0.211 HD
ENDBRANCH   6  13
BRANCH   7  15
ATOM     15  O   UNL     1      -1.251  30.905  87.289  1.00  0.00    -0.384 OA
ATOM     16  H   UNL     1      -1.347  30.696  88.256  1.00  0.00     0.211 HD
ENDBRANCH   7  15
ENDBRANCH   1   2
BRANCH   1  17
ATOM     17  C   UNL     1       0.886  32.979  86.176  1.00  0.00     0.172 A 
ATOM     18  C   UNL     1       2.102  33.352  86.767  1.00  0.00     0.205 A 
ATOM     19  C   UNL     1       0.865  32.181  85.034  1.00  0.00     0.097 A 
ATOM     20  C   UNL     1       3.318  32.898  86.192  1.00  0.00     0.188 A 
ATOM     21  C   UNL     1       2.050  31.721  84.460  1.00  0.00     0.134 A 
ATOM     22  C   UNL     1       3.291  32.074  85.033  1.00  0.00     0.111 A 
ATOM     23  O   UNL     1       4.489  33.243  86.727  1.00  0.00    -0.452 OA
ATOM     24  C   UNL     1       4.523  31.636  84.507  1.00  0.00     0.197 A 
ATOM     25  C   UNL     1       5.669  32.863  86.237  1.00  0.00     0.138 A 
ATOM     26  C   UNL     1       5.712  32.030  85.111  1.00  0.00     0.100 A 
ATOM     27  O   UNL     1       4.577  30.886  83.494  1.00  0.00    -0.289 OA
BRANCH  18  28
ATOM     28  O   UNL     1       2.034  34.169  87.912  1.00  0.00    -0.490 OA
ATOM     29  C   UNL     1       2.815  34.043  89.093  1.00  0.00     0.278 C 
ENDBRANCH  18  28
BRANCH  21  30
ATOM     30  O   UNL     1       1.987  30.914  83.325  1.00  0.00    -0.507 OA
ATOM     31  H   UNL     1       2.157  31.285  82.397  1.00  0.00     0.293 HD
ENDBRANCH  21  30
BRANCH  25  32
ATOM     32  C   UNL     1       6.911  33.321  86.911  1.00  0.00     0.017 A 
ATOM     33  C   UNL     1       7.132  33.089  88.285  1.00  0.00     0.012 A 
ATOM     34  C   UNL     1       7.906  33.986  86.171  1.00  0.00     0.012 A 
ATOM     35  C   UNL     1       8.306  33.532  88.899  1.00  0.00     0.001 A 
ATOM     36  C   UNL     1       9.081  34.423  86.789  1.00  0.00     0.001 A 
ATOM     37  C   UNL     1       9.279  34.199  88.152  1.00  0.00     0.000 A 
ENDBRANCH  25  32
ENDBRANCH   1  17
TORSDOF 9
ENDMDL
