MODEL 1
REMARK VINA RESULT:    -3.844      0.000      0.000
REMARK INTER + INTRA:          -7.245
REMARK INTER:                  -6.091
REMARK INTRA:                  -1.154
REMARK UNBOUND:                -1.154
REMARK SMILES CCCCCCCCCCCC(=O)[O-]
REMARK SMILES IDX 7 1 8 2 9 3 10 4 11 5 12 6 13 7 14 8 6 9 5 10 4 11 3 12 2 13
REMARK SMILES IDX 1 14
REMARK H PARENT
REMARK Flexibility Score: inf
ROOT
ATOM      1  C   UNL     1       8.810  -1.582  41.569  1.00  0.00     0.000 C 
ENDROOT
BRANCH   1   2
ATOM      2  C   UNL     1       7.870  -2.350  40.624  1.00  0.00     0.000 C 
BRANCH   2   3
ATOM      3  C   UNL     1       8.286  -2.235  39.150  1.00  0.00     0.000 C 
BRANCH   3   4
ATOM      4  C   UNL     1       7.875  -3.491  38.365  1.00  0.00     0.006 C 
BRANCH   4   5
ATOM      5  C   UNL     1       6.698  -3.224  37.418  1.00  0.00     0.053 C 
BRANCH   5   6
ATOM      6  C   UNL     1       7.107  -3.334  35.981  1.00  0.00     0.041 C 
ATOM      7  O   UNL     1       7.849  -4.279  35.603  1.00  0.00    -0.550 OA
ATOM      8  O   UNL     1       6.641  -2.411  35.052  1.00  0.00    -0.550 OA
ENDBRANCH   5   6
ENDBRANCH   4   5
ENDBRANCH   3   4
ENDBRANCH   2   3
ENDBRANCH   1   2
BRANCH   1   9
ATOM      9  C   UNL     1       9.460  -2.493  42.624  1.00  0.00     0.000 C 
BRANCH   9  10
ATOM     10  C   UNL     1      10.311  -3.609  41.996  1.00  0.00    -0.000 C 
BRANCH  10  11
ATOM     11  C   UNL     1       9.815  -5.015  42.368  1.00  0.00    -0.000 C 
BRANCH  11  12
ATOM     12  C   UNL     1       9.128  -5.688  41.174  1.00  0.00    -0.000 C 
BRANCH  12  13
ATOM     13  C   UNL     1       7.683  -6.068  41.513  1.00  0.00    -0.003 C 
ATOM     14  C   UNL     1       7.207  -5.356  42.777  1.00  0.00     0.004 C 
ENDBRANCH  12  13
ENDBRANCH  11  12
ENDBRANCH  10  11
ENDBRANCH   9  10
ENDBRANCH   1   9
TORSDOF 10
ENDMDL
MODEL 2
REMARK VINA RESULT:    -3.824      1.463      2.758
REMARK INTER + INTRA:          -7.213
REMARK INTER:                  -6.411
REMARK INTRA:                  -0.802
REMARK UNBOUND:                -1.154
REMARK SMILES CCCCCCCCCCCC(=O)[O-]
REMARK SMILES IDX 7 1 8 2 9 3 10 4 11 5 12 6 13 7 14 8 6 9 5 10 4 11 3 12 2 13
REMARK SMILES IDX 1 14
REMARK H PARENT
REMARK Flexibility Score: inf
ROOT
ATOM      1  C   UNL     1       7.151  -1.719  38.628  1.00  0.00     0.000 C 
ENDROOT
BRANCH   1   2
ATOM      2  C   UNL     1       5.934  -1.926  37.712  1.00  0.00     0.000 C 
BRANCH   2   3
ATOM      3  C   UNL     1       6.074  -1.199  36.365  1.00  0.00     0.000 C 
BRANCH   3   4
ATOM      4  C   UNL     1       7.074  -1.924  35.452  1.00  0.00     0.006 C 
BRANCH   4   5
ATOM      5  C   UNL     1       6.884  -3.447  35.477  1.00  0.00     0.053 C 
BRANCH   5   6
ATOM      6  C   UNL     1       8.190  -4.167  35.606  1.00  0.00     0.041 C 
ATOM      7  O   UNL     1       9.047  -3.781  36.446  1.00  0.00    -0.550 OA
ATOM      8  O   UNL     1       8.449  -5.285  34.824  1.00  0.00    -0.550 OA
ENDBRANCH   5   6
ENDBRANCH   4   5
ENDBRANCH   3   4
ENDBRANCH   2   3
ENDBRANCH   1   2
BRANCH   1   9
ATOM      9  C   UNL     1       7.489  -2.972  39.454  1.00  0.00     0.000 C 
BRANCH   9  10
ATOM     10  C   UNL     1       8.783  -2.812  40.267  1.00  0.00    -0.000 C 
BRANCH  10  11
ATOM     11  C   UNL     1       8.522  -2.625  41.769  1.00  0.00    -0.000 C 
BRANCH  11  12
ATOM     12  C   UNL     1       8.798  -3.922  42.539  1.00  0.00    -0.000 C 
BRANCH  12  13
ATOM     13  C   UNL     1       7.511  -4.731  42.734  1.00  0.00    -0.003 C 
ATOM     14  C   UNL     1       7.559  -6.041  41.952  1.00  0.00     0.004 C 
ENDBRANCH  12  13
ENDBRANCH  11  12
ENDBRANCH  10  11
ENDBRANCH   9  10
ENDBRANCH   1   9
TORSDOF 10
ENDMDL
MODEL 3
REMARK VINA RESULT:    -3.813      2.109      2.982
REMARK INTER + INTRA:          -7.196
REMARK INTER:                  -6.316
REMARK INTRA:                  -0.880
REMARK UNBOUND:                -1.154
REMARK SMILES CCCCCCCCCCCC(=O)[O-]
REMARK SMILES IDX 7 1 8 2 9 3 10 4 11 5 12 6 13 7 14 8 6 9 5 10 4 11 3 12 2 13
REMARK SMILES IDX 1 14
REMARK H PARENT
REMARK Flexibility Score: inf
ROOT
ATOM      1  C   UNL     1       7.478  -4.794  42.625  1.00  0.00     0.000 C 
ENDROOT
BRANCH   1   2
ATOM      2  C   UNL     1       8.278  -3.485  42.729  1.00  0.00     0.000 C 
BRANCH   2   3
ATOM      3  C   UNL     1       8.695  -2.932  41.357  1.00  0.00     0.000 C 
BRANCH   3   4
ATOM      4  C   UNL     1       7.846  -3.551  40.237  1.00  0.00     0.006 C 
BRANCH   4   5
ATOM      5  C   UNL     1       8.674  -3.859  38.983  1.00  0.00     0.053 C 
BRANCH   5   6
ATOM      6  C   UNL     1       7.964  -3.441  37.732  1.00  0.00     0.041 C 
ATOM      7  O   UNL     1       8.119  -4.096  36.666  1.00  0.00    -0.550 OA
ATOM      8  O   UNL     1       7.106  -2.349  37.750  1.00  0.00    -0.550 OA
ENDBRANCH   5   6
ENDBRANCH   4   5
ENDBRANCH   3   4
ENDBRANCH   2   3
ENDBRANCH   1   2
BRANCH   1   9
ATOM      9  C   UNL     1       8.297  -6.023  43.052  1.00  0.00     0.000 C 
BRANCH   9  10
ATOM     10  C   UNL     1       9.271  -6.493  41.959  1.00  0.00    -0.000 C 
BRANCH  10  11
ATOM     11  C   UNL     1       9.060  -7.963  41.567  1.00  0.00    -0.000 C 
BRANCH  11  12
ATOM     12  C   UNL     1       7.576  -8.341  41.634  1.00  0.00    -0.000 C 
BRANCH  12  13
ATOM     13  C   UNL     1       7.392  -9.745  42.223  1.00  0.00    -0.003 C 
ATOM     14  C   UNL     1       7.463  -9.717  43.747  1.00  0.00     0.004 C 
ENDBRANCH  12  13
ENDBRANCH  11  12
ENDBRANCH  10  11
ENDBRANCH   9  10
ENDBRANCH   1   9
TORSDOF 10
ENDMDL
MODEL 4
REMARK VINA RESULT:    -3.790      3.132      6.191
REMARK INTER + INTRA:          -7.159
REMARK INTER:                  -6.438
REMARK INTRA:                  -0.721
REMARK UNBOUND:                -1.154
REMARK SMILES CCCCCCCCCCCC(=O)[O-]
REMARK SMILES IDX 7 1 8 2 9 3 10 4 11 5 12 6 13 7 14 8 6 9 5 10 4 11 3 12 2 13
REMARK SMILES IDX 1 14
REMARK H PARENT
REMARK Flexibility Score: inf
ROOT
ATOM      1  C   UNL     1       7.662  -2.433  39.024  1.00  0.00     0.000 C 
ENDROOT
BRANCH   1   2
ATOM      2  C   UNL     1       7.913  -2.359  40.540  1.00  0.00     0.000 C 
BRANCH   2   3
ATOM      3  C   UNL     1       8.490  -3.664  41.110  1.00  0.00     0.000 C 
BRANCH   3   4
ATOM      4  C   UNL     1       8.160  -3.802  42.605  1.00  0.00     0.006 C 
BRANCH   4   5
ATOM      5  C   UNL     1       7.322  -5.052  42.902  1.00  0.00     0.053 C 
BRANCH   5   6
ATOM      6  C   UNL     1       8.067  -6.310  42.578  1.00  0.00     0.041 C 
ATOM      7  O   UNL     1       9.127  -6.596  43.195  1.00  0.00    -0.550 OA
ATOM      8  O   UNL     1       7.572  -7.184  41.618  1.00  0.00    -0.550 OA
ENDBRANCH   5   6
ENDBRANCH   4   5
ENDBRANCH   3   4
ENDBRANCH   2   3
ENDBRANCH   1   2
BRANCH   1   9
ATOM      9  C   UNL     1       8.335  -3.653  38.373  1.00  0.00     0.000 C 
BRANCH   9  10
ATOM     10  C   UNL     1       8.006  -3.779  36.876  1.00  0.00    -0.000 C 
BRANCH  10  11
ATOM     11  C   UNL     1       6.731  -3.019  36.482  1.00  0.00    -0.000 C 
BRANCH  11  12
ATOM     12  C   UNL     1       6.924  -2.277  35.154  1.00  0.00    -0.000 C 
BRANCH  12  13
ATOM     13  C   UNL     1       6.363  -0.852  35.233  1.00  0.00    -0.003 C 
ATOM     14  C   UNL     1       5.577  -0.640  36.524  1.00  0.00     0.004 C 
ENDBRANCH  12  13
ENDBRANCH  11  12
ENDBRANCH  10  11
ENDBRANCH   9  10
ENDBRANCH   1   9
TORSDOF 10
ENDMDL
MODEL 5
REMARK VINA RESULT:    -3.776      4.830      7.154
REMARK INTER + INTRA:          -7.137
REMARK INTER:                  -6.349
REMARK INTRA:                  -0.788
REMARK UNBOUND:                -1.154
REMARK SMILES CCCCCCCCCCCC(=O)[O-]
REMARK SMILES IDX 7 1 8 2 9 3 10 4 11 5 12 6 13 7 14 8 6 9 5 10 4 11 3 12 2 13
REMARK SMILES IDX 1 14
REMARK H PARENT
REMARK Flexibility Score: inf
ROOT
ATOM      1  C   UNL     1       7.927  -8.841  43.918  1.00  0.00     0.000 C 
ENDROOT
BRANCH   1   2
ATOM      2  C   UNL     1       7.532  -9.730  42.727  1.00  0.00     0.000 C 
BRANCH   2   3
ATOM      3  C   UNL     1       6.375 -10.685  43.056  1.00  0.00     0.000 C 
BRANCH   3   4
ATOM      4  C   UNL     1       5.652 -11.132  41.776  1.00  0.00     0.006 C 
BRANCH   4   5
ATOM      5  C   UNL     1       6.407 -10.714  40.507  1.00  0.00     0.053 C 
BRANCH   5   6
ATOM      6  C   UNL     1       7.061 -11.884  39.839  1.00  0.00     0.041 C 
ATOM      7  O   UNL     1       6.950 -12.047  38.595  1.00  0.00    -0.550 OA
ATOM      8  O   UNL     1       7.820 -12.777  40.585  1.00  0.00    -0.550 OA
ENDBRANCH   5   6
ENDBRANCH   4   5
ENDBRANCH   3   4
ENDBRANCH   2   3
ENDBRANCH   1   2
BRANCH   1   9
ATOM      9  C   UNL     1       8.671  -7.567  43.483  1.00  0.00     0.000 C 
BRANCH   9  10
ATOM     10  C   UNL     1       8.516  -7.275  41.982  1.00  0.00    -0.000 C 
BRANCH  10  11
ATOM     11  C   UNL     1       7.561  -6.104  41.701  1.00  0.00    -0.000 C 
BRANCH  11  12
ATOM     12  C   UNL     1       7.397  -5.219  42.941  1.00  0.00    -0.000 C 
BRANCH  12  13
ATOM     13  C   UNL     1       7.976  -3.821  42.701  1.00  0.00    -0.003 C 
ATOM     14  C   UNL     1       8.185  -3.559  41.211  1.00  0.00     0.004 C 
ENDBRANCH  12  13
ENDBRANCH  11  12
ENDBRANCH  10  11
ENDBRANCH   9  10
ENDBRANCH   1   9
TORSDOF 10
ENDMDL
MODEL 6
REMARK VINA RESULT:    -3.758      3.254      6.117
REMARK INTER + INTRA:          -7.109
REMARK INTER:                  -6.472
REMARK INTRA:                  -0.637
REMARK UNBOUND:                -1.154
REMARK SMILES CCCCCCCCCCCC(=O)[O-]
REMARK SMILES IDX 7 1 8 2 9 3 10 4 11 5 12 6 13 7 14 8 6 9 5 10 4 11 3 12 2 13
REMARK SMILES IDX 1 14
REMARK H PARENT
REMARK Flexibility Score: inf
ROOT
ATOM      1  C   UNL     1       8.849  -4.249  40.000  1.00  0.00     0.000 C 
ENDROOT
BRANCH   1   2
ATOM      2  C   UNL     1       8.736  -3.323  41.223  1.00  0.00     0.000 C 
BRANCH   2   3
ATOM      3  C   UNL     1       8.118  -4.024  42.443  1.00  0.00     0.000 C 
BRANCH   3   4
ATOM      4  C   UNL     1       7.418  -5.327  42.030  1.00  0.00     0.006 C 
BRANCH   4   5
ATOM      5  C   UNL     1       8.019  -6.555  42.726  1.00  0.00     0.053 C 
BRANCH   5   6
ATOM      6  C   UNL     1       8.367  -7.634  41.746  1.00  0.00     0.041 C 
ATOM      7  O   UNL     1       9.526  -7.697  41.257  1.00  0.00    -0.550 OA
ATOM      8  O   UNL     1       7.421  -8.590  41.399  1.00  0.00    -0.550 OA
ENDBRANCH   5   6
ENDBRANCH   4   5
ENDBRANCH   3   4
ENDBRANCH   2   3
ENDBRANCH   1   2
BRANCH   1   9
ATOM      9  C   UNL     1       8.295  -3.605  38.718  1.00  0.00     0.000 C 
BRANCH   9  10
ATOM     10  C   UNL     1       7.214  -2.550  39.007  1.00  0.00    -0.000 C 
BRANCH  10  11
ATOM     11  C   UNL     1       6.151  -2.470  37.901  1.00  0.00    -0.000 C 
BRANCH  11  12
ATOM     12  C   UNL     1       6.271  -1.157  37.118  1.00  0.00    -0.000 C 
BRANCH  12  13
ATOM     13  C   UNL     1       6.747  -1.414  35.684  1.00  0.00    -0.003 C 
ATOM     14  C   UNL     1       5.567  -1.523  34.722  1.00  0.00     0.004 C 
ENDBRANCH  12  13
ENDBRANCH  11  12
ENDBRANCH  10  11
ENDBRANCH   9  10
ENDBRANCH   1   9
TORSDOF 10
ENDMDL
MODEL 7
REMARK VINA RESULT:    -3.725      1.519      1.969
REMARK INTER + INTRA:          -7.057
REMARK INTER:                  -6.444
REMARK INTRA:                  -0.613
REMARK UNBOUND:                -1.154
REMARK SMILES CCCCCCCCCCCC(=O)[O-]
REMARK SMILES IDX 7 1 8 2 9 3 10 4 11 5 12 6 13 7 14 8 6 9 5 10 4 11 3 12 2 13
REMARK SMILES IDX 1 14
REMARK H PARENT
REMARK Flexibility Score: inf
ROOT
ATOM      1  C   UNL     1       8.887  -3.061  40.312  1.00  0.00     0.000 C 
ENDROOT
BRANCH   1   2
ATOM      2  C   UNL     1       7.825  -3.300  39.226  1.00  0.00     0.000 C 
BRANCH   2   3
ATOM      3  C   UNL     1       7.219  -1.993  38.692  1.00  0.00     0.000 C 
BRANCH   3   4
ATOM      4  C   UNL     1       5.971  -2.276  37.842  1.00  0.00     0.006 C 
BRANCH   4   5
ATOM      5  C   UNL     1       5.782  -1.241  36.725  1.00  0.00     0.053 C 
BRANCH   5   6
ATOM      6  C   UNL     1       6.120  -1.807  35.380  1.00  0.00     0.041 C 
ATOM      7  O   UNL     1       6.591  -2.971  35.283  1.00  0.00    -0.550 OA
ATOM      8  O   UNL     1       5.883  -1.062  34.232  1.00  0.00    -0.550 OA
ENDBRANCH   5   6
ENDBRANCH   4   5
ENDBRANCH   3   4
ENDBRANCH   2   3
ENDBRANCH   1   2
BRANCH   1   9
ATOM      9  C   UNL     1       8.268  -2.774  41.691  1.00  0.00     0.000 C 
BRANCH   9  10
ATOM     10  C   UNL     1       8.534  -3.900  42.704  1.00  0.00    -0.000 C 
BRANCH  10  11
ATOM     11  C   UNL     1       7.348  -4.865  42.845  1.00  0.00    -0.000 C 
BRANCH  11  12
ATOM     12  C   UNL     1       7.528  -6.092  41.945  1.00  0.00    -0.000 C 
BRANCH  12  13
ATOM     13  C   UNL     1       8.620  -7.019  42.490  1.00  0.00    -0.003 C 
ATOM     14  C   UNL     1       8.296  -7.478  43.909  1.00  0.00     0.004 C 
ENDBRANCH  12  13
ENDBRANCH  11  12
ENDBRANCH  10  11
ENDBRANCH   9  10
ENDBRANCH   1   9
TORSDOF 10
ENDMDL
MODEL 8
REMARK VINA RESULT:    -3.717      1.602      2.701
REMARK INTER + INTRA:          -7.044
REMARK INTER:                  -6.027
REMARK INTRA:                  -1.017
REMARK UNBOUND:                -1.154
REMARK SMILES CCCCCCCCCCCC(=O)[O-]
REMARK SMILES IDX 7 1 8 2 9 3 10 4 11 5 12 6 13 7 14 8 6 9 5 10 4 11 3 12 2 13
REMARK SMILES IDX 1 14
REMARK H PARENT
REMARK Flexibility Score: inf
ROOT
ATOM      1  C   UNL     1       7.481  -2.798  39.437  1.00  0.00     0.000 C 
ENDROOT
BRANCH   1   2
ATOM      2  C   UNL     1       7.947  -3.863  38.430  1.00  0.00     0.000 C 
BRANCH   2   3
ATOM      3  C   UNL     1       8.131  -3.299  37.012  1.00  0.00     0.000 C 
BRANCH   3   4
ATOM      4  C   UNL     1       6.795  -3.278  36.254  1.00  0.00     0.006 C 
BRANCH   4   5
ATOM      5  C   UNL     1       6.657  -2.042  35.355  1.00  0.00     0.053 C 
BRANCH   5   6
ATOM      6  C   UNL     1       5.680  -1.055  35.915  1.00  0.00     0.041 C 
ATOM      7  O   UNL     1       5.252  -0.110  35.200  1.00  0.00    -0.550 OA
ATOM      8  O   UNL     1       5.215  -1.197  37.216  1.00  0.00    -0.550 OA
ENDBRANCH   5   6
ENDBRANCH   4   5
ENDBRANCH   3   4
ENDBRANCH   2   3
ENDBRANCH   1   2
BRANCH   1   9
ATOM      9  C   UNL     1       8.614  -1.848  39.860  1.00  0.00     0.000 C 
BRANCH   9  10
ATOM     10  C   UNL     1       8.701  -1.674  41.385  1.00  0.00    -0.000 C 
BRANCH  10  11
ATOM     11  C   UNL     1       8.243  -2.924  42.152  1.00  0.00    -0.000 C 
BRANCH  11  12
ATOM     12  C   UNL     1       9.405  -3.904  42.348  1.00  0.00    -0.000 C 
BRANCH  12  13
ATOM     13  C   UNL     1       9.058  -5.288  41.787  1.00  0.00    -0.003 C 
ATOM     14  C   UNL     1       7.572  -5.594  41.954  1.00  0.00     0.004 C 
ENDBRANCH  12  13
ENDBRANCH  11  12
ENDBRANCH  10  11
ENDBRANCH   9  10
ENDBRANCH   1   9
TORSDOF 10
ENDMDL
MODEL 9
REMARK VINA RESULT:    -3.715      1.658      2.979
REMARK INTER + INTRA:          -7.041
REMARK INTER:                  -6.183
REMARK INTRA:                  -0.858
REMARK UNBOUND:                -1.154
REMARK SMILES CCCCCCCCCCCC(=O)[O-]
REMARK SMILES IDX 7 1 8 2 9 3 10 4 11 5 12 6 13 7 14 8 6 9 5 10 4 11 3 12 2 13
REMARK SMILES IDX 1 14
REMARK H PARENT
REMARK Flexibility Score: inf
ROOT
ATOM      1  C   UNL     1       8.815  -3.794  39.126  1.00  0.00     0.000 C 
ENDROOT
BRANCH   1   2
ATOM      2  C   UNL     1       7.476  -3.072  39.347  1.00  0.00     0.000 C 
BRANCH   2   3
ATOM      3  C   UNL     1       7.268  -1.897  38.379  1.00  0.00     0.000 C 
BRANCH   3   4
ATOM      4  C   UNL     1       5.957  -2.058  37.595  1.00  0.00     0.006 C 
BRANCH   4   5
ATOM      5  C   UNL     1       5.568  -0.779  36.843  1.00  0.00     0.053 C 
BRANCH   5   6
ATOM      6  C   UNL     1       5.555  -0.989  35.360  1.00  0.00     0.041 C 
ATOM      7  O   UNL     1       6.083  -2.018  34.860  1.00  0.00    -0.550 OA
ATOM      8  O   UNL     1       4.930  -0.065  34.531  1.00  0.00    -0.550 OA
ENDBRANCH   5   6
ENDBRANCH   4   5
ENDBRANCH   3   4
ENDBRANCH   2   3
ENDBRANCH   1   2
BRANCH   1   9
ATOM      9  C   UNL     1       9.103  -4.850  40.206  1.00  0.00     0.000 C 
BRANCH   9  10
ATOM     10  C   UNL     1       7.889  -5.114  41.112  1.00  0.00    -0.000 C 
BRANCH  10  11
ATOM     11  C   UNL     1       8.117  -4.653  42.560  1.00  0.00    -0.000 C 
BRANCH  11  12
ATOM     12  C   UNL     1       9.210  -3.581  42.629  1.00  0.00    -0.000 C 
BRANCH  12  13
ATOM     13  C   UNL     1       8.632  -2.234  43.079  1.00  0.00    -0.003 C 
ATOM     14  C   UNL     1       8.984  -1.125  42.091  1.00  0.00     0.004 C 
ENDBRANCH  12  13
ENDBRANCH  11  12
ENDBRANCH  10  11
ENDBRANCH   9  10
ENDBRANCH   1   9
TORSDOF 10
ENDMDL
