MODEL 1
REMARK VINA RESULT:    -4.281      0.000      0.000
REMARK INTER + INTRA:          -8.009
REMARK INTER:                  -6.534
REMARK INTRA:                  -1.475
REMARK UNBOUND:                -1.475
REMARK SMILES OC[C@@H]1O[C@@](CO)(O[C@@H]2O[C@H](CO)[C@@H](O)[C@H](O)[C@@H]2O)[C@H](O)[C@@H]1O
REMARK SMILES IDX 8 1 9 2 11 3 14 4 10 5 16 6 18 7 12 8 13 9 15 11 17 13 19 15
REMARK SMILES IDX 5 17 20 18 4 19 22 20 3 21 6 22 7 23 21 25 23 27 2 29 1 30
REMARK H PARENT 13 10 15 12 17 14 19 16 7 24 21 26 23 28 1 31
REMARK Flexibility Score: inf
ROOT
ATOM      1  O   UNL     1       3.531   2.056   1.804  1.00  0.00    -0.313 OA
ENDROOT
BRANCH   1   2
ATOM      2  C   UNL     1       3.690   0.706   1.402  1.00  0.00     0.285 C 
ATOM      3  C   UNL     1       5.164  -1.114   1.547  1.00  0.00     0.178 C 
ATOM      4  C   UNL     1       5.830  -0.916   0.153  1.00  0.00     0.177 C 
ATOM      5  O   UNL     1       4.795   0.135   2.101  1.00  0.00    -0.341 OA
ATOM      6  C   UNL     1       5.358   0.405  -0.496  1.00  0.00     0.179 C 
ATOM      7  C   UNL     1       3.880   0.654  -0.145  1.00  0.00     0.202 C 
BRANCH   3   8
ATOM      8  C   UNL     1       6.102  -1.835   2.527  1.00  0.00     0.191 C 
BRANCH   8   9
ATOM      9  O   UNL     1       7.079  -2.576   1.843  1.00  0.00    -0.394 OA
ATOM     10  H   UNL     1       6.798  -2.607   0.890  1.00  0.00     0.210 HD
ENDBRANCH   8   9
ENDBRANCH   3   8
BRANCH   4  11
ATOM     11  O   UNL     1       5.494  -1.988  -0.691  1.00  0.00    -0.387 OA
ATOM     12  H   UNL     1       6.216  -2.054  -1.369  1.00  0.00     0.211 HD
ENDBRANCH   4  11
BRANCH   6  13
ATOM     13  O   UNL     1       6.137   1.478  -0.024  1.00  0.00    -0.387 OA
ATOM     14  H   UNL     1       6.927   1.087   0.429  1.00  0.00     0.211 HD
ENDBRANCH   6  13
BRANCH   7  15
ATOM     15  O   UNL     1       3.426   1.840  -0.747  1.00  0.00    -0.385 OA
ATOM     16  H   UNL     1       2.518   1.653  -1.107  1.00  0.00     0.211 HD
ENDBRANCH   7  15
ENDBRANCH   1   2
BRANCH   1  17
ATOM     17  C   UNL     1       2.543   2.273   2.813  1.00  0.00     0.224 C 
ATOM     18  C   UNL     1       1.391   3.075   2.179  1.00  0.00     0.208 C 
ATOM     19  O   UNL     1       1.987   1.067   3.320  1.00  0.00    -0.337 OA
ATOM     20  C   UNL     1       0.171   2.593   2.922  1.00  0.00     0.180 C 
ATOM     21  C   UNL     1       0.578   1.162   3.281  1.00  0.00     0.179 C 
BRANCH  17  22
ATOM     22  C   UNL     1       3.207   3.016   3.995  1.00  0.00     0.225 C 
BRANCH  22  23
ATOM     23  O   UNL     1       3.332   2.171   5.106  1.00  0.00    -0.391 OA
ATOM     24  H   UNL     1       3.355   1.244   4.747  1.00  0.00     0.210 HD
ENDBRANCH  22  23
ENDBRANCH  17  22
BRANCH  18  25
ATOM     25  O   UNL     1       1.549   4.468   2.277  1.00  0.00    -0.385 OA
ATOM     26  H   UNL     1       0.717   4.871   1.915  1.00  0.00     0.211 HD
ENDBRANCH  18  25
BRANCH  20  27
ATOM     27  O   UNL     1      -0.057   3.370   4.073  1.00  0.00    -0.387 OA
ATOM     28  H   UNL     1       0.191   2.807   4.852  1.00  0.00     0.211 HD
ENDBRANCH  20  27
BRANCH  21  29
ATOM     29  C   UNL     1      -0.028   0.645   4.595  1.00  0.00     0.191 C 
BRANCH  29  30
ATOM     30  O   UNL     1       0.721   1.096   5.692  1.00  0.00    -0.394 OA
ATOM     31  H   UNL     1       1.636   1.265   5.349  1.00  0.00     0.210 HD
ENDBRANCH  29  30
ENDBRANCH  21  29
ENDBRANCH   1  17
TORSDOF 13
ENDMDL
MODEL 2
REMARK VINA RESULT:    -4.222      1.135      1.810
REMARK INTER + INTRA:          -7.919
REMARK INTER:                  -6.507
REMARK INTRA:                  -1.412
REMARK UNBOUND:                -1.475
REMARK SMILES OC[C@@H]1O[C@@](CO)(O[C@@H]2O[C@H](CO)[C@@H](O)[C@H](O)[C@@H]2O)[C@H](O)[C@@H]1O
REMARK SMILES IDX 8 1 9 2 11 3 14 4 10 5 16 6 18 7 12 8 13 9 15 11 17 13 19 15
REMARK SMILES IDX 5 17 20 18 4 19 22 20 3 21 6 22 7 23 21 25 23 27 2 29 1 30
REMARK H PARENT 13 10 15 12 17 14 19 16 7 24 21 26 23 28 1 31
REMARK Flexibility Score: inf
ROOT
ATOM      1  O   UNL     1       3.179   1.991   1.567  1.00  0.00    -0.313 OA
ENDROOT
BRANCH   1   2
ATOM      2  C   UNL     1       3.476   0.645   1.234  1.00  0.00     0.285 C 
ATOM      3  C   UNL     1       5.055  -1.053   1.598  1.00  0.00     0.178 C 
ATOM      4  C   UNL     1       5.848  -0.846   0.273  1.00  0.00     0.177 C 
ATOM      5  O   UNL     1       4.540   0.180   2.064  1.00  0.00    -0.341 OA
ATOM      6  C   UNL     1       5.352   0.416  -0.470  1.00  0.00     0.179 C 
ATOM      7  C   UNL     1       3.832   0.562  -0.282  1.00  0.00     0.202 C 
BRANCH   3   8
ATOM      8  C   UNL     1       5.933  -1.671   2.695  1.00  0.00     0.191 C 
BRANCH   8   9
ATOM      9  O   UNL     1       7.060  -2.306   2.147  1.00  0.00    -0.394 OA
ATOM     10  H   UNL     1       6.799  -3.249   1.973  1.00  0.00     0.210 HD
ENDBRANCH   8   9
ENDBRANCH   3   8
BRANCH   4  11
ATOM     11  O   UNL     1       5.681  -1.965  -0.560  1.00  0.00    -0.387 OA
ATOM     12  H   UNL     1       4.765  -2.309  -0.395  1.00  0.00     0.211 HD
ENDBRANCH   4  11
BRANCH   6  13
ATOM     13  O   UNL     1       5.998   1.558   0.040  1.00  0.00    -0.387 OA
ATOM     14  H   UNL     1       6.973   1.382   0.005  1.00  0.00     0.211 HD
ENDBRANCH   6  13
BRANCH   7  15
ATOM     15  O   UNL     1       3.359   1.692  -0.971  1.00  0.00    -0.385 OA
ATOM     16  H   UNL     1       3.681   2.490  -0.475  1.00  0.00     0.211 HD
ENDBRANCH   7  15
ENDBRANCH   1   2
BRANCH   1  17
ATOM     17  C   UNL     1       1.835   2.223   1.995  1.00  0.00     0.224 C 
ATOM     18  C   UNL     1       0.988   1.011   1.564  1.00  0.00     0.208 C 
ATOM     19  O   UNL     1       1.709   2.346   3.405  1.00  0.00    -0.337 OA
ATOM     20  C   UNL     1      -0.065   0.914   2.639  1.00  0.00     0.180 C 
ATOM     21  C   UNL     1       0.678   1.487   3.847  1.00  0.00     0.179 C 
BRANCH  17  22
ATOM     22  C   UNL     1       1.345   3.547   1.363  1.00  0.00     0.225 C 
BRANCH  22  23
ATOM     23  O   UNL     1       1.323   4.574   2.317  1.00  0.00    -0.391 OA
ATOM     24  H   UNL     1       1.870   5.313   1.941  1.00  0.00     0.210 HD
ENDBRANCH  22  23
ENDBRANCH  17  22
BRANCH  18  25
ATOM     25  O   UNL     1       0.422   1.141   0.284  1.00  0.00    -0.385 OA
ATOM     26  H   UNL     1       1.168   1.365  -0.331  1.00  0.00     0.211 HD
ENDBRANCH  18  25
BRANCH  20  27
ATOM     27  O   UNL     1      -1.192   1.690   2.310  1.00  0.00    -0.387 OA
ATOM     28  H   UNL     1      -1.984   1.099   2.408  1.00  0.00     0.211 HD
ENDBRANCH  20  27
BRANCH  21  29
ATOM     29  C   UNL     1      -0.223   2.213   4.857  1.00  0.00     0.191 C 
BRANCH  29  30
ATOM     30  O   UNL     1      -0.578   3.482   4.375  1.00  0.00    -0.394 OA
ATOM     31  H   UNL     1       0.232   4.046   4.466  1.00  0.00     0.210 HD
ENDBRANCH  29  30
ENDBRANCH  21  29
ENDBRANCH   1  17
TORSDOF 13
ENDMDL
MODEL 3
REMARK VINA RESULT:    -4.131      1.657      6.182
REMARK INTER + INTRA:          -7.780
REMARK INTER:                  -6.244
REMARK INTRA:                  -1.536
REMARK UNBOUND:                -1.475
REMARK SMILES OC[C@@H]1O[C@@](CO)(O[C@@H]2O[C@H](CO)[C@@H](O)[C@H](O)[C@@H]2O)[C@H](O)[C@@H]1O
REMARK SMILES IDX 8 1 9 2 11 3 14 4 10 5 16 6 18 7 12 8 13 9 15 11 17 13 19 15
REMARK SMILES IDX 5 17 20 18 4 19 22 20 3 21 6 22 7 23 21 25 23 27 2 29 1 30
REMARK H PARENT 13 10 15 12 17 14 19 16 7 24 21 26 23 28 1 31
REMARK Flexibility Score: inf
ROOT
ATOM      1  O   UNL     1       3.312   0.964   1.766  1.00  0.00    -0.313 OA
ENDROOT
BRANCH   1   2
ATOM      2  C   UNL     1       2.344   1.188   2.778  1.00  0.00     0.285 C 
ATOM      3  C   UNL     1       0.029   1.292   3.142  1.00  0.00     0.178 C 
ATOM      4  C   UNL     1      -0.093   2.844   3.076  1.00  0.00     0.177 C 
ATOM      5  O   UNL     1       1.054   0.839   2.279  1.00  0.00    -0.341 OA
ATOM      6  C   UNL     1       1.246   3.479   2.638  1.00  0.00     0.179 C 
ATOM      7  C   UNL     1       2.418   2.678   3.232  1.00  0.00     0.202 C 
BRANCH   3   8
ATOM      8  C   UNL     1      -1.288   0.602   2.755  1.00  0.00     0.191 C 
BRANCH   8   9
ATOM      9  O   UNL     1      -2.355   1.516   2.737  1.00  0.00    -0.394 OA
ATOM     10  H   UNL     1      -2.687   1.547   1.800  1.00  0.00     0.210 HD
ENDBRANCH   8   9
ENDBRANCH   3   8
BRANCH   4  11
ATOM     11  O   UNL     1      -0.448   3.346   4.339  1.00  0.00    -0.387 OA
ATOM     12  H   UNL     1       0.394   3.428   4.861  1.00  0.00     0.211 HD
ENDBRANCH   4  11
BRANCH   6  13
ATOM     13  O   UNL     1       1.343   3.474   1.233  1.00  0.00    -0.387 OA
ATOM     14  H   UNL     1       2.221   3.078   1.003  1.00  0.00     0.211 HD
ENDBRANCH   6  13
BRANCH   7  15
ATOM     15  O   UNL     1       3.645   3.256   2.863  1.00  0.00    -0.385 OA
ATOM     16  H   UNL     1       4.316   2.523   2.842  1.00  0.00     0.211 HD
ENDBRANCH   7  15
ENDBRANCH   1   2
BRANCH   1  17
ATOM     17  C   UNL     1       4.035  -0.263   1.884  1.00  0.00     0.224 C 
ATOM     18  C   UNL     1       3.321  -1.315   1.015  1.00  0.00     0.208 C 
ATOM     19  O   UNL     1       5.375  -0.171   1.419  1.00  0.00    -0.337 OA
ATOM     20  C   UNL     1       4.441  -2.209   0.548  1.00  0.00     0.180 C 
ATOM     21  C   UNL     1       5.619  -1.234   0.521  1.00  0.00     0.179 C 
BRANCH  17  22
ATOM     22  C   UNL     1       4.083  -0.659   3.379  1.00  0.00     0.225 C 
BRANCH  22  23
ATOM     23  O   UNL     1       5.368  -0.459   3.903  1.00  0.00    -0.391 OA
ATOM     24  H   UNL     1       5.503   0.525   3.937  1.00  0.00     0.210 HD
ENDBRANCH  22  23
ENDBRANCH  17  22
BRANCH  18  25
ATOM     25  O   UNL     1       2.325  -2.034   1.699  1.00  0.00    -0.385 OA
ATOM     26  H   UNL     1       2.769  -2.454   2.481  1.00  0.00     0.211 HD
ENDBRANCH  18  25
BRANCH  20  27
ATOM     27  O   UNL     1       4.660  -3.260   1.459  1.00  0.00    -0.387 OA
ATOM     28  H   UNL     1       3.995  -3.149   2.188  1.00  0.00     0.211 HD
ENDBRANCH  20  27
BRANCH  21  29
ATOM     29  C   UNL     1       6.981  -1.880   0.818  1.00  0.00     0.191 C 
BRANCH  29  30
ATOM     30  O   UNL     1       7.079  -2.217   2.176  1.00  0.00    -0.394 OA
ATOM     31  H   UNL     1       7.480  -3.124   2.205  1.00  0.00     0.210 HD
ENDBRANCH  29  30
ENDBRANCH  21  29
ENDBRANCH   1  17
TORSDOF 13
ENDMDL
MODEL 4
REMARK VINA RESULT:    -4.057      1.948      2.523
REMARK INTER + INTRA:          -7.667
REMARK INTER:                  -6.291
REMARK INTRA:                  -1.376
REMARK UNBOUND:                -1.475
REMARK SMILES OC[C@@H]1O[C@@](CO)(O[C@@H]2O[C@H](CO)[C@@H](O)[C@H](O)[C@@H]2O)[C@H](O)[C@@H]1O
REMARK SMILES IDX 8 1 9 2 11 3 14 4 10 5 16 6 18 7 12 8 13 9 15 11 17 13 19 15
REMARK SMILES IDX 5 17 20 18 4 19 22 20 3 21 6 22 7 23 21 25 23 27 2 29 1 30
REMARK H PARENT 13 10 15 12 17 14 19 16 7 24 21 26 23 28 1 31
REMARK Flexibility Score: inf
ROOT
ATOM      1  O   UNL     1       4.059   0.997   3.061  1.00  0.00    -0.313 OA
ENDROOT
BRANCH   1   2
ATOM      2  C   UNL     1       3.536  -0.224   2.565  1.00  0.00     0.285 C 
ATOM      3  C   UNL     1       3.271  -2.489   3.114  1.00  0.00     0.178 C 
ATOM      4  C   UNL     1       4.496  -3.013   2.306  1.00  0.00     0.177 C 
ATOM      5  O   UNL     1       3.527  -1.191   3.614  1.00  0.00    -0.341 OA
ATOM      6  C   UNL     1       5.328  -1.835   1.750  1.00  0.00     0.179 C 
ATOM      7  C   UNL     1       4.390  -0.685   1.345  1.00  0.00     0.202 C 
BRANCH   3   8
ATOM      8  C   UNL     1       2.929  -3.416   4.290  1.00  0.00     0.191 C 
BRANCH   8   9
ATOM      9  O   UNL     1       3.018  -4.767   3.915  1.00  0.00    -0.394 OA
ATOM     10  H   UNL     1       3.743  -4.827   3.236  1.00  0.00     0.210 HD
ENDBRANCH   8   9
ENDBRANCH   3   8
BRANCH   4  11
ATOM     11  O   UNL     1       4.055  -3.809   1.236  1.00  0.00    -0.387 OA
ATOM     12  H   UNL     1       4.804  -3.856   0.587  1.00  0.00     0.211 HD
ENDBRANCH   4  11
BRANCH   6  13
ATOM     13  O   UNL     1       6.230  -1.378   2.730  1.00  0.00    -0.387 OA
ATOM     14  H   UNL     1       6.871  -0.774   2.276  1.00  0.00     0.211 HD
ENDBRANCH   6  13
BRANCH   7  15
ATOM     15  O   UNL     1       5.127   0.387   0.814  1.00  0.00    -0.385 OA
ATOM     16  H   UNL     1       6.045   0.049   0.638  1.00  0.00     0.211 HD
ENDBRANCH   7  15
ENDBRANCH   1   2
BRANCH   1  17
ATOM     17  C   UNL     1       3.097   2.039   3.236  1.00  0.00     0.224 C 
ATOM     18  C   UNL     1       2.862   2.698   1.863  1.00  0.00     0.208 C 
ATOM     19  O   UNL     1       1.838   1.567   3.698  1.00  0.00    -0.337 OA
ATOM     20  C   UNL     1       1.420   3.132   1.920  1.00  0.00     0.180 C 
ATOM     21  C   UNL     1       0.822   2.088   2.865  1.00  0.00     0.179 C 
BRANCH  17  22
ATOM     22  C   UNL     1       3.639   3.034   4.288  1.00  0.00     0.225 C 
BRANCH  22  23
ATOM     23  O   UNL     1       3.109   2.754   5.555  1.00  0.00    -0.391 OA
ATOM     24  H   UNL     1       2.907   1.781   5.563  1.00  0.00     0.210 HD
ENDBRANCH  22  23
ENDBRANCH  17  22
BRANCH  18  25
ATOM     25  O   UNL     1       3.725   3.774   1.595  1.00  0.00    -0.385 OA
ATOM     26  H   UNL     1       4.076   3.631   0.678  1.00  0.00     0.211 HD
ENDBRANCH  18  25
BRANCH  20  27
ATOM     27  O   UNL     1       1.306   4.432   2.449  1.00  0.00    -0.387 OA
ATOM     28  H   UNL     1       1.327   4.341   3.437  1.00  0.00     0.211 HD
ENDBRANCH  20  27
BRANCH  21  29
ATOM     29  C   UNL     1      -0.351   2.601   3.714  1.00  0.00     0.191 C 
BRANCH  29  30
ATOM     30  O   UNL     1       0.104   3.048   4.962  1.00  0.00    -0.394 OA
ATOM     31  H   UNL     1      -0.125   4.012   5.009  1.00  0.00     0.210 HD
ENDBRANCH  29  30
ENDBRANCH  21  29
ENDBRANCH   1  17
TORSDOF 13
ENDMDL
MODEL 5
REMARK VINA RESULT:    -4.043      1.601      6.350
REMARK INTER + INTRA:          -7.645
REMARK INTER:                  -6.642
REMARK INTRA:                  -1.003
REMARK UNBOUND:                -1.475
REMARK SMILES OC[C@@H]1O[C@@](CO)(O[C@@H]2O[C@H](CO)[C@@H](O)[C@H](O)[C@@H]2O)[C@H](O)[C@@H]1O
REMARK SMILES IDX 8 1 9 2 11 3 14 4 10 5 16 6 18 7 12 8 13 9 15 11 17 13 19 15
REMARK SMILES IDX 5 17 20 18 4 19 22 20 3 21 6 22 7 23 21 25 23 27 2 29 1 30
REMARK H PARENT 13 10 15 12 17 14 19 16 7 24 21 26 23 28 1 31
REMARK Flexibility Score: inf
ROOT
ATOM      1  O   UNL     1       3.822   1.666   1.902  1.00  0.00    -0.313 OA
ENDROOT
BRANCH   1   2
ATOM      2  C   UNL     1       2.716   1.221   2.670  1.00  0.00     0.285 C 
ATOM      3  C   UNL     1       0.793   1.989   3.772  1.00  0.00     0.178 C 
ATOM      4  C   UNL     1       1.409   2.026   5.203  1.00  0.00     0.177 C 
ATOM      5  O   UNL     1       1.777   2.288   2.801  1.00  0.00    -0.341 OA
ATOM      6  C   UNL     1       2.929   1.748   5.150  1.00  0.00     0.179 C 
ATOM      7  C   UNL     1       3.227   0.712   4.052  1.00  0.00     0.202 C 
BRANCH   3   8
ATOM      8  C   UNL     1      -0.366   2.987   3.629  1.00  0.00     0.191 C 
BRANCH   8   9
ATOM      9  O   UNL     1      -0.878   3.356   4.884  1.00  0.00    -0.394 OA
ATOM     10  H   UNL     1      -0.369   2.838   5.562  1.00  0.00     0.210 HD
ENDBRANCH   8   9
ENDBRANCH   3   8
BRANCH   4  11
ATOM     11  O   UNL     1       0.793   1.056   6.011  1.00  0.00    -0.387 OA
ATOM     12  H   UNL     1       1.467   0.775   6.683  1.00  0.00     0.211 HD
ENDBRANCH   4  11
BRANCH   6  13
ATOM     13  O   UNL     1       3.626   2.938   4.870  1.00  0.00    -0.387 OA
ATOM     14  H   UNL     1       3.659   3.461   5.712  1.00  0.00     0.211 HD
ENDBRANCH   6  13
BRANCH   7  15
ATOM     15  O   UNL     1       4.603   0.428   4.005  1.00  0.00    -0.385 OA
ATOM     16  H   UNL     1       4.692  -0.556   3.894  1.00  0.00     0.211 HD
ENDBRANCH   7  15
ENDBRANCH   1   2
BRANCH   1  17
ATOM     17  C   UNL     1       4.179   0.816   0.810  1.00  0.00     0.224 C 
ATOM     18  C   UNL     1       4.528   1.715  -0.391  1.00  0.00     0.208 C 
ATOM     19  O   UNL     1       5.319   0.009   1.078  1.00  0.00    -0.337 OA
ATOM     20  C   UNL     1       5.580   0.928  -1.130  1.00  0.00     0.180 C 
ATOM     21  C   UNL     1       6.235   0.147   0.011  1.00  0.00     0.179 C 
BRANCH  17  22
ATOM     22  C   UNL     1       2.991  -0.131   0.521  1.00  0.00     0.225 C 
BRANCH  22  23
ATOM     23  O   UNL     1       3.389  -1.471   0.622  1.00  0.00    -0.391 OA
ATOM     24  H   UNL     1       3.784  -1.576   1.528  1.00  0.00     0.210 HD
ENDBRANCH  22  23
ENDBRANCH  17  22
BRANCH  18  25
ATOM     25  O   UNL     1       3.427   2.018  -1.210  1.00  0.00    -0.385 OA
ATOM     26  H   UNL     1       3.038   1.149  -1.491  1.00  0.00     0.211 HD
ENDBRANCH  18  25
BRANCH  20  27
ATOM     27  O   UNL     1       4.993   0.066  -2.075  1.00  0.00    -0.387 OA
ATOM     28  H   UNL     1       5.575   0.085  -2.879  1.00  0.00     0.211 HD
ENDBRANCH  20  27
BRANCH  21  29
ATOM     29  C   UNL     1       6.786  -1.228  -0.398  1.00  0.00     0.191 C 
BRANCH  29  30
ATOM     30  O   UNL     1       8.134  -1.346  -0.031  1.00  0.00    -0.394 OA
ATOM     31  H   UNL     1       8.141  -1.478   0.952  1.00  0.00     0.210 HD
ENDBRANCH  29  30
ENDBRANCH  21  29
ENDBRANCH   1  17
TORSDOF 13
ENDMDL
MODEL 6
REMARK VINA RESULT:    -4.001      1.506      2.721
REMARK INTER + INTRA:          -7.581
REMARK INTER:                  -6.025
REMARK INTRA:                  -1.556
REMARK UNBOUND:                -1.475
REMARK SMILES OC[C@@H]1O[C@@](CO)(O[C@@H]2O[C@H](CO)[C@@H](O)[C@H](O)[C@@H]2O)[C@H](O)[C@@H]1O
REMARK SMILES IDX 8 1 9 2 11 3 14 4 10 5 16 6 18 7 12 8 13 9 15 11 17 13 19 15
REMARK SMILES IDX 5 17 20 18 4 19 22 20 3 21 6 22 7 23 21 25 23 27 2 29 1 30
REMARK H PARENT 13 10 15 12 17 14 19 16 7 24 21 26 23 28 1 31
REMARK Flexibility Score: inf
ROOT
ATOM      1  O   UNL     1       2.798  -0.163   2.206  1.00  0.00    -0.313 OA
ENDROOT
BRANCH   1   2
ATOM      2  C   UNL     1       4.200  -0.353   2.306  1.00  0.00     0.285 C 
ATOM      3  C   UNL     1       6.133  -0.627   1.005  1.00  0.00     0.178 C 
ATOM      4  C   UNL     1       6.200  -2.180   1.111  1.00  0.00     0.177 C 
ATOM      5  O   UNL     1       4.788  -0.188   1.017  1.00  0.00    -0.341 OA
ATOM      6  C   UNL     1       4.936  -2.736   1.804  1.00  0.00     0.179 C 
ATOM      7  C   UNL     1       4.481  -1.764   2.907  1.00  0.00     0.202 C 
BRANCH   3   8
ATOM      8  C   UNL     1       6.813  -0.115  -0.273  1.00  0.00     0.191 C 
BRANCH   8   9
ATOM      9  O   UNL     1       8.073  -0.709  -0.452  1.00  0.00    -0.394 OA
ATOM     10  H   UNL     1       8.420  -0.921   0.456  1.00  0.00     0.210 HD
ENDBRANCH   8   9
ENDBRANCH   3   8
BRANCH   4  11
ATOM     11  O   UNL     1       7.334  -2.557   1.850  1.00  0.00    -0.387 OA
ATOM     12  H   UNL     1       7.918  -3.072   1.233  1.00  0.00     0.211 HD
ENDBRANCH   4  11
BRANCH   6  13
ATOM     13  O   UNL     1       3.901  -2.891   0.863  1.00  0.00    -0.387 OA
ATOM     14  H   UNL     1       3.181  -2.259   1.116  1.00  0.00     0.211 HD
ENDBRANCH   6  13
BRANCH   7  15
ATOM     15  O   UNL     1       3.345  -2.265   3.565  1.00  0.00    -0.385 OA
ATOM     16  H   UNL     1       3.049  -3.069   3.061  1.00  0.00     0.211 HD
ENDBRANCH   7  15
ENDBRANCH   1   2
BRANCH   1  17
ATOM     17  C   UNL     1       2.334   1.126   2.612  1.00  0.00     0.224 C 
ATOM     18  C   UNL     1       2.173   1.989   1.347  1.00  0.00     0.208 C 
ATOM     19  O   UNL     1       1.069   1.088   3.259  1.00  0.00    -0.337 OA
ATOM     20  C   UNL     1       1.025   2.905   1.684  1.00  0.00     0.180 C 
ATOM     21  C   UNL     1       0.218   2.039   2.653  1.00  0.00     0.179 C 
BRANCH  17  22
ATOM     22  C   UNL     1       3.354   1.719   3.612  1.00  0.00     0.225 C 
BRANCH  22  23
ATOM     23  O   UNL     1       2.845   1.688   4.918  1.00  0.00    -0.391 OA
ATOM     24  H   UNL     1       2.130   2.377   4.953  1.00  0.00     0.210 HD
ENDBRANCH  22  23
ENDBRANCH  17  22
BRANCH  18  25
ATOM     25  O   UNL     1       3.331   2.705   0.998  1.00  0.00    -0.385 OA
ATOM     26  H   UNL     1       3.189   3.035   0.073  1.00  0.00     0.211 HD
ENDBRANCH  18  25
BRANCH  20  27
ATOM     27  O   UNL     1       1.486   4.082   2.304  1.00  0.00    -0.387 OA
ATOM     28  H   UNL     1       1.132   4.842   1.773  1.00  0.00     0.211 HD
ENDBRANCH  20  27
BRANCH  21  29
ATOM     29  C   UNL     1      -0.544   2.832   3.726  1.00  0.00     0.191 C 
BRANCH  29  30
ATOM     30  O   UNL     1       0.217   2.926   4.900  1.00  0.00    -0.394 OA
ATOM     31  H   UNL     1      -0.096   3.744   5.366  1.00  0.00     0.210 HD
ENDBRANCH  29  30
ENDBRANCH  21  29
ENDBRANCH   1  17
TORSDOF 13
ENDMDL
MODEL 7
REMARK VINA RESULT:    -3.998      1.826      6.404
REMARK INTER + INTRA:          -7.577
REMARK INTER:                  -6.046
REMARK INTRA:                  -1.532
REMARK UNBOUND:                -1.475
REMARK SMILES OC[C@@H]1O[C@@](CO)(O[C@@H]2O[C@H](CO)[C@@H](O)[C@H](O)[C@@H]2O)[C@H](O)[C@@H]1O
REMARK SMILES IDX 8 1 9 2 11 3 14 4 10 5 16 6 18 7 12 8 13 9 15 11 17 13 19 15
REMARK SMILES IDX 5 17 20 18 4 19 22 20 3 21 6 22 7 23 21 25 23 27 2 29 1 30
REMARK H PARENT 13 10 15 12 17 14 19 16 7 24 21 26 23 28 1 31
REMARK Flexibility Score: inf
ROOT
ATOM      1  O   UNL     1       4.341   0.259   3.856  1.00  0.00    -0.313 OA
ENDROOT
BRANCH   1   2
ATOM      2  C   UNL     1       2.971   0.504   3.586  1.00  0.00     0.285 C 
ATOM      3  C   UNL     1       1.499   2.154   2.801  1.00  0.00     0.178 C 
ATOM      4  C   UNL     1       1.020   2.645   4.200  1.00  0.00     0.177 C 
ATOM      5  O   UNL     1       2.847   1.727   2.862  1.00  0.00    -0.341 OA
ATOM      6  C   UNL     1       1.845   1.980   5.325  1.00  0.00     0.179 C 
ATOM      7  C   UNL     1       2.184   0.532   4.931  1.00  0.00     0.202 C 
BRANCH   3   8
ATOM      8  C   UNL     1       1.374   3.257   1.739  1.00  0.00     0.191 C 
BRANCH   8   9
ATOM      9  O   UNL     1       1.341   4.531   2.330  1.00  0.00    -0.394 OA
ATOM     10  H   UNL     1       0.490   4.956   2.041  1.00  0.00     0.210 HD
ENDBRANCH   8   9
ENDBRANCH   3   8
BRANCH   4  11
ATOM     11  O   UNL     1      -0.337   2.327   4.376  1.00  0.00    -0.387 OA
ATOM     12  H   UNL     1      -0.624   1.840   3.559  1.00  0.00     0.211 HD
ENDBRANCH   4  11
BRANCH   6  13
ATOM     13  O   UNL     1       3.038   2.698   5.534  1.00  0.00    -0.387 OA
ATOM     14  H   UNL     1       3.639   2.490   4.775  1.00  0.00     0.211 HD
ENDBRANCH   6  13
BRANCH   7  15
ATOM     15  O   UNL     1       2.914  -0.097   5.954  1.00  0.00    -0.385 OA
ATOM     16  H   UNL     1       2.289  -0.234   6.714  1.00  0.00     0.211 HD
ENDBRANCH   7  15
ENDBRANCH   1   2
BRANCH   1  17
ATOM     17  C   UNL     1       4.917  -0.822   3.120  1.00  0.00     0.224 C 
ATOM     18  C   UNL     1       3.779  -1.781   2.723  1.00  0.00     0.208 C 
ATOM     19  O   UNL     1       5.554  -0.406   1.919  1.00  0.00    -0.337 OA
ATOM     20  C   UNL     1       4.238  -2.352   1.406  1.00  0.00     0.180 C 
ATOM     21  C   UNL     1       5.082  -1.202   0.852  1.00  0.00     0.179 C 
BRANCH  17  22
ATOM     22  C   UNL     1       5.986  -1.501   4.007  1.00  0.00     0.225 C 
BRANCH  22  23
ATOM     23  O   UNL     1       5.550  -1.580   5.337  1.00  0.00    -0.391 OA
ATOM     24  H   UNL     1       5.353  -2.539   5.508  1.00  0.00     0.210 HD
ENDBRANCH  22  23
ENDBRANCH  17  22
BRANCH  18  25
ATOM     25  O   UNL     1       3.528  -2.786   3.673  1.00  0.00    -0.385 OA
ATOM     26  H   UNL     1       3.939  -3.617   3.317  1.00  0.00     0.211 HD
ENDBRANCH  18  25
BRANCH  20  27
ATOM     27  O   UNL     1       5.009  -3.512   1.602  1.00  0.00    -0.387 OA
ATOM     28  H   UNL     1       5.704  -3.517   0.892  1.00  0.00     0.211 HD
ENDBRANCH  20  27
BRANCH  21  29
ATOM     29  C   UNL     1       6.253  -1.649  -0.037  1.00  0.00     0.191 C 
BRANCH  29  30
ATOM     30  O   UNL     1       7.386  -1.921   0.743  1.00  0.00    -0.394 OA
ATOM     31  H   UNL     1       7.356  -1.283   1.502  1.00  0.00     0.210 HD
ENDBRANCH  29  30
ENDBRANCH  21  29
ENDBRANCH   1  17
TORSDOF 13
ENDMDL
MODEL 8
REMARK VINA RESULT:    -3.997      1.757      6.178
REMARK INTER + INTRA:          -7.576
REMARK INTER:                  -5.881
REMARK INTRA:                  -1.695
REMARK UNBOUND:                -1.475
REMARK SMILES OC[C@@H]1O[C@@](CO)(O[C@@H]2O[C@H](CO)[C@@H](O)[C@H](O)[C@@H]2O)[C@H](O)[C@@H]1O
REMARK SMILES IDX 8 1 9 2 11 3 14 4 10 5 16 6 18 7 12 8 13 9 15 11 17 13 19 15
REMARK SMILES IDX 5 17 20 18 4 19 22 20 3 21 6 22 7 23 21 25 23 27 2 29 1 30
REMARK H PARENT 13 10 15 12 17 14 19 16 7 24 21 26 23 28 1 31
REMARK Flexibility Score: inf
ROOT
ATOM      1  O   UNL     1       4.346   1.694   1.138  1.00  0.00    -0.313 OA
ENDROOT
BRANCH   1   2
ATOM      2  C   UNL     1       3.137   1.270   1.746  1.00  0.00     0.285 C 
ATOM      3  C   UNL     1       1.279   2.067   2.937  1.00  0.00     0.178 C 
ATOM      4  C   UNL     1       1.797   1.680   4.354  1.00  0.00     0.177 C 
ATOM      5  O   UNL     1       2.360   2.416   2.094  1.00  0.00    -0.341 OA
ATOM      6  C   UNL     1       3.258   1.180   4.286  1.00  0.00     0.179 C 
ATOM      7  C   UNL     1       3.472   0.386   2.985  1.00  0.00     0.202 C 
BRANCH   3   8
ATOM      8  C   UNL     1       0.294   3.244   2.995  1.00  0.00     0.191 C 
BRANCH   8   9
ATOM      9  O   UNL     1      -0.348   3.310   4.243  1.00  0.00    -0.394 OA
ATOM     10  H   UNL     1      -0.400   4.273   4.485  1.00  0.00     0.210 HD
ENDBRANCH   8   9
ENDBRANCH   3   8
BRANCH   4  11
ATOM     11  O   UNL     1       0.989   0.664   4.894  1.00  0.00    -0.387 OA
ATOM     12  H   UNL     1       1.581  -0.118   5.051  1.00  0.00     0.211 HD
ENDBRANCH   4  11
BRANCH   6  13
ATOM     13  O   UNL     1       4.142   2.276   4.314  1.00  0.00    -0.387 OA
ATOM     14  H   UNL     1       3.636   3.066   3.993  1.00  0.00     0.211 HD
ENDBRANCH   6  13
BRANCH   7  15
ATOM     15  O   UNL     1       4.790  -0.097   2.916  1.00  0.00    -0.385 OA
ATOM     16  H   UNL     1       4.790  -0.848   2.266  1.00  0.00     0.211 HD
ENDBRANCH   7  15
ENDBRANCH   1   2
BRANCH   1  17
ATOM     17  C   UNL     1       4.422   1.474  -0.272  1.00  0.00     0.224 C 
ATOM     18  C   UNL     1       3.438   0.343  -0.625  1.00  0.00     0.208 C 
ATOM     19  O   UNL     1       4.049   2.612  -1.038  1.00  0.00    -0.337 OA
ATOM     20  C   UNL     1       2.980   0.693  -2.017  1.00  0.00     0.180 C 
ATOM     21  C   UNL     1       3.095   2.219  -2.003  1.00  0.00     0.179 C 
BRANCH  17  22
ATOM     22  C   UNL     1       5.885   1.125  -0.632  1.00  0.00     0.225 C 
BRANCH  22  23
ATOM     23  O   UNL     1       6.479   0.363   0.383  1.00  0.00    -0.391 OA
ATOM     24  H   UNL     1       6.183   0.767   1.242  1.00  0.00     0.210 HD
ENDBRANCH  22  23
ENDBRANCH  17  22
BRANCH  18  25
ATOM     25  O   UNL     1       4.006  -0.942  -0.566  1.00  0.00    -0.385 OA
ATOM     26  H   UNL     1       3.355  -1.556  -0.995  1.00  0.00     0.211 HD
ENDBRANCH  18  25
BRANCH  20  27
ATOM     27  O   UNL     1       3.826   0.120  -2.985  1.00  0.00    -0.387 OA
ATOM     28  H   UNL     1       4.186  -0.717  -2.591  1.00  0.00     0.211 HD
ENDBRANCH  20  27
BRANCH  21  29
ATOM     29  C   UNL     1       3.430   2.840  -3.367  1.00  0.00     0.191 C 
BRANCH  29  30
ATOM     30  O   UNL     1       4.815   2.820  -3.589  1.00  0.00    -0.394 OA
ATOM     31  H   UNL     1       4.954   3.204  -4.492  1.00  0.00     0.210 HD
ENDBRANCH  29  30
ENDBRANCH  21  29
ENDBRANCH   1  17
TORSDOF 13
ENDMDL
MODEL 9
REMARK VINA RESULT:    -3.967      1.801      6.208
REMARK INTER + INTRA:          -7.529
REMARK INTER:                  -5.856
REMARK INTRA:                  -1.674
REMARK UNBOUND:                -1.475
REMARK SMILES OC[C@@H]1O[C@@](CO)(O[C@@H]2O[C@H](CO)[C@@H](O)[C@H](O)[C@@H]2O)[C@H](O)[C@@H]1O
REMARK SMILES IDX 8 1 9 2 11 3 14 4 10 5 16 6 18 7 12 8 13 9 15 11 17 13 19 15
REMARK SMILES IDX 5 17 20 18 4 19 22 20 3 21 6 22 7 23 21 25 23 27 2 29 1 30
REMARK H PARENT 13 10 15 12 17 14 19 16 7 24 21 26 23 28 1 31
REMARK Flexibility Score: inf
ROOT
ATOM      1  O   UNL     1       4.034   0.809   1.749  1.00  0.00    -0.313 OA
ENDROOT
BRANCH   1   2
ATOM      2  C   UNL     1       2.948   0.676   2.652  1.00  0.00     0.285 C 
ATOM      3  C   UNL     1       1.148   1.863   3.577  1.00  0.00     0.178 C 
ATOM      4  C   UNL     1       1.850   2.234   4.918  1.00  0.00     0.177 C 
ATOM      5  O   UNL     1       2.091   1.810   2.524  1.00  0.00    -0.341 OA
ATOM      6  C   UNL     1       3.342   1.832   4.884  1.00  0.00     0.179 C 
ATOM      7  C   UNL     1       3.506   0.519   4.099  1.00  0.00     0.202 C 
BRANCH   3   8
ATOM      8  C   UNL     1       0.051   2.874   3.212  1.00  0.00     0.191 C 
BRANCH   8   9
ATOM      9  O   UNL     1      -0.587   3.369   4.362  1.00  0.00    -0.394 OA
ATOM     10  H   UNL     1      -0.919   4.279   4.133  1.00  0.00     0.210 HD
ENDBRANCH   8   9
ENDBRANCH   3   8
BRANCH   4  11
ATOM     11  O   UNL     1       1.219   1.570   5.983  1.00  0.00    -0.387 OA
ATOM     12  H   UNL     1       1.408   2.101   6.802  1.00  0.00     0.211 HD
ENDBRANCH   4  11
BRANCH   6  13
ATOM     13  O   UNL     1       4.098   2.844   4.263  1.00  0.00    -0.387 OA
ATOM     14  H   UNL     1       4.644   3.275   4.969  1.00  0.00     0.211 HD
ENDBRANCH   6  13
BRANCH   7  15
ATOM     15  O   UNL     1       4.855   0.124   4.078  1.00  0.00    -0.385 OA
ATOM     16  H   UNL     1       4.866  -0.869   4.054  1.00  0.00     0.211 HD
ENDBRANCH   7  15
ENDBRANCH   1   2
BRANCH   1  17
ATOM     17  C   UNL     1       4.106  -0.201   0.740  1.00  0.00     0.224 C 
ATOM     18  C   UNL     1       3.377  -1.449   1.271  1.00  0.00     0.208 C 
ATOM     19  O   UNL     1       3.469   0.174  -0.474  1.00  0.00    -0.337 OA
ATOM     20  C   UNL     1       2.805  -2.082   0.028  1.00  0.00     0.180 C 
ATOM     21  C   UNL     1       2.589  -0.859  -0.866  1.00  0.00     0.179 C 
BRANCH  17  22
ATOM     22  C   UNL     1       5.596  -0.470   0.425  1.00  0.00     0.225 C 
BRANCH  22  23
ATOM     23  O   UNL     1       6.342  -0.577   1.607  1.00  0.00    -0.391 OA
ATOM     24  H   UNL     1       5.996  -1.379   2.081  1.00  0.00     0.210 HD
ENDBRANCH  22  23
ENDBRANCH  17  22
BRANCH  18  25
ATOM     25  O   UNL     1       4.210  -2.335   1.976  1.00  0.00    -0.385 OA
ATOM     26  H   UNL     1       4.822  -1.773   2.519  1.00  0.00     0.211 HD
ENDBRANCH  18  25
BRANCH  20  27
ATOM     27  O   UNL     1       3.720  -2.985  -0.544  1.00  0.00    -0.387 OA
ATOM     28  H   UNL     1       4.627  -2.618  -0.375  1.00  0.00     0.211 HD
ENDBRANCH  20  27
BRANCH  21  29
ATOM     29  C   UNL     1       2.734  -1.141  -2.368  1.00  0.00     0.191 C 
BRANCH  29  30
ATOM     30  O   UNL     1       4.087  -1.151  -2.738  1.00  0.00    -0.394 OA
ATOM     31  H   UNL     1       4.263  -2.053  -3.110  1.00  0.00     0.210 HD
ENDBRANCH  29  30
ENDBRANCH  21  29
ENDBRANCH   1  17
TORSDOF 13
ENDMDL
