MODEL 1
REMARK VINA RESULT:    -6.520      0.000      0.000
REMARK INTER + INTRA:          -6.520
REMARK INTER:                  -6.520
REMARK INTRA:                   0.000
REMARK UNBOUND:                 0.000
REMARK SMILES C=C1CCC[C@@]2(C)C=C3OC(=O)C(C)=C3C[C@H]12
REMARK SMILES IDX 14 1 13 2 15 3 16 4 17 5 2 6 1 7 3 8 4 9 5 10 6 11 8 12 9 13
REMARK SMILES IDX 10 14 11 15 12 16 7 17
REMARK H PARENT
REMARK Flexibility Score: inf
ROOT
ATOM      1  C   UNL     1      10.856  20.745  21.390  1.00  0.00     0.053 C 
ATOM      2  C   UNL     1      10.594  20.860  19.922  1.00  0.00     0.041 C 
ATOM      3  C   UNL     1      11.422  20.516  18.940  1.00  0.00     0.005 C 
ATOM      4  C   UNL     1      12.828  20.007  19.023  1.00  0.00     0.049 C 
ATOM      5  C   UNL     1      13.199  19.295  17.689  1.00  0.00     0.029 C 
ATOM      6  C   UNL     1      14.663  18.870  17.571  1.00  0.00    -0.073 C 
ATOM      7  C   UNL     1      15.517  18.857  18.610  1.00  0.00     0.008 C 
ATOM      8  C   UNL     1      15.158  18.400  16.221  1.00  0.00     0.031 C 
ATOM      9  C   UNL     1      13.998  18.107  15.264  1.00  0.00     0.005 C 
ATOM     10  C   UNL     1      13.020  19.290  15.109  1.00  0.00     0.012 C 
ATOM     11  C   UNL     1      12.781  20.128  16.414  1.00  0.00    -0.004 C 
ATOM     12  C   UNL     1      11.308  20.518  16.492  1.00  0.00     0.027 C 
ATOM     13  C   UNL     1      10.740  20.733  17.677  1.00  0.00     0.131 C 
ATOM     14  O   UNL     1       9.447  21.184  17.900  1.00  0.00    -0.423 OA
ATOM     15  C   UNL     1       9.337  21.263  19.283  1.00  0.00     0.339 C 
ATOM     16  O   UNL     1       8.294  21.629  19.884  1.00  0.00    -0.246 OA
ATOM     17  C   UNL     1      13.592  21.447  16.329  1.00  0.00     0.016 C 
ENDROOT
TORSDOF 0
ENDMDL
MODEL 2
REMARK VINA RESULT:    -6.444     17.180     19.559
REMARK INTER + INTRA:          -6.444
REMARK INTER:                  -6.444
REMARK INTRA:                   0.000
REMARK UNBOUND:                 0.000
REMARK SMILES C=C1CCC[C@@]2(C)C=C3OC(=O)C(C)=C3C[C@H]12
REMARK SMILES IDX 14 1 13 2 15 3 16 4 17 5 2 6 1 7 3 8 4 9 5 10 6 11 8 12 9 13
REMARK SMILES IDX 10 14 11 15 12 16 7 17
REMARK H PARENT
REMARK Flexibility Score: inf
ROOT
ATOM      1  C   UNL     1      22.862  11.989   2.620  1.00  0.00     0.053 C 
ATOM      2  C   UNL     1      23.928  13.012   2.850  1.00  0.00     0.041 C 
ATOM      3  C   UNL     1      23.747  14.279   3.210  1.00  0.00     0.005 C 
ATOM      4  C   UNL     1      22.466  15.032   3.406  1.00  0.00     0.049 C 
ATOM      5  C   UNL     1      22.738  16.293   4.278  1.00  0.00     0.029 C 
ATOM      6  C   UNL     1      21.549  17.244   4.422  1.00  0.00    -0.073 C 
ATOM      7  C   UNL     1      20.294  16.923   4.061  1.00  0.00     0.008 C 
ATOM      8  C   UNL     1      21.799  18.602   5.041  1.00  0.00     0.031 C 
ATOM      9  C   UNL     1      23.162  18.663   5.739  1.00  0.00     0.005 C 
ATOM     10  C   UNL     1      24.335  18.251   4.825  1.00  0.00     0.012 C 
ATOM     11  C   UNL     1      24.013  17.098   3.812  1.00  0.00    -0.004 C 
ATOM     12  C   UNL     1      25.220  16.171   3.712  1.00  0.00     0.027 C 
ATOM     13  C   UNL     1      25.051  14.892   3.384  1.00  0.00     0.131 C 
ATOM     14  O   UNL     1      26.054  13.959   3.163  1.00  0.00    -0.423 OA
ATOM     15  C   UNL     1      25.378  12.789   2.836  1.00  0.00     0.339 C 
ATOM     16  O   UNL     1      25.948  11.699   2.572  1.00  0.00    -0.246 OA
ATOM     17  C   UNL     1      23.794  17.705   2.401  1.00  0.00     0.016 C 
ENDROOT
TORSDOF 0
ENDMDL
MODEL 3
REMARK VINA RESULT:    -6.189     16.904     18.706
REMARK INTER + INTRA:          -6.189
REMARK INTER:                  -6.189
REMARK INTRA:                   0.000
REMARK UNBOUND:                 0.000
REMARK SMILES C=C1CCC[C@@]2(C)C=C3OC(=O)C(C)=C3C[C@H]12
REMARK SMILES IDX 14 1 13 2 15 3 16 4 17 5 2 6 1 7 3 8 4 9 5 10 6 11 8 12 9 13
REMARK SMILES IDX 10 14 11 15 12 16 7 17
REMARK H PARENT
REMARK Flexibility Score: inf
ROOT
ATOM      1  C   UNL     1      22.200  11.431   2.612  1.00  0.00     0.053 C 
ATOM      2  C   UNL     1      21.410  12.648   2.972  1.00  0.00     0.041 C 
ATOM      3  C   UNL     1      21.893  13.861   3.225  1.00  0.00     0.005 C 
ATOM      4  C   UNL     1      23.319  14.315   3.293  1.00  0.00     0.049 C 
ATOM      5  C   UNL     1      23.376  15.862   3.129  1.00  0.00     0.029 C 
ATOM      6  C   UNL     1      24.757  16.482   3.343  1.00  0.00    -0.073 C 
ATOM      7  C   UNL     1      25.891  15.762   3.407  1.00  0.00     0.008 C 
ATOM      8  C   UNL     1      24.850  17.989   3.446  1.00  0.00     0.031 C 
ATOM      9  C   UNL     1      23.560  18.668   2.972  1.00  0.00     0.005 C 
ATOM     10  C   UNL     1      22.296  18.145   3.686  1.00  0.00     0.012 C 
ATOM     11  C   UNL     1      22.310  16.613   4.020  1.00  0.00    -0.004 C 
ATOM     12  C   UNL     1      20.917  16.038   3.781  1.00  0.00     0.027 C 
ATOM     13  C   UNL     1      20.774  14.753   3.465  1.00  0.00     0.131 C 
ATOM     14  O   UNL     1      19.574  14.072   3.313  1.00  0.00    -0.423 OA
ATOM     15  C   UNL     1      19.949  12.770   3.003  1.00  0.00     0.339 C 
ATOM     16  O   UNL     1      19.132  11.839   2.780  1.00  0.00    -0.246 OA
ATOM     17  C   UNL     1      22.623  16.421   5.528  1.00  0.00     0.016 C 
ENDROOT
TORSDOF 0
ENDMDL
MODEL 4
REMARK VINA RESULT:    -6.100     15.447     17.806
REMARK INTER + INTRA:          -6.100
REMARK INTER:                  -6.100
REMARK INTRA:                   0.000
REMARK UNBOUND:                 0.000
REMARK SMILES C=C1CCC[C@@]2(C)C=C3OC(=O)C(C)=C3C[C@H]12
REMARK SMILES IDX 14 1 13 2 15 3 16 4 17 5 2 6 1 7 3 8 4 9 5 10 6 11 8 12 9 13
REMARK SMILES IDX 10 14 11 15 12 16 7 17
REMARK H PARENT
REMARK Flexibility Score: inf
ROOT
ATOM      1  C   UNL     1      19.111  14.758   4.612  1.00  0.00     0.053 C 
ATOM      2  C   UNL     1      19.757  16.099   4.464  1.00  0.00     0.041 C 
ATOM      3  C   UNL     1      21.032  16.337   4.171  1.00  0.00     0.005 C 
ATOM      4  C   UNL     1      22.157  15.365   3.988  1.00  0.00     0.049 C 
ATOM      5  C   UNL     1      23.307  16.051   3.193  1.00  0.00     0.029 C 
ATOM      6  C   UNL     1      24.589  15.227   3.076  1.00  0.00    -0.073 C 
ATOM      7  C   UNL     1      24.663  13.920   3.389  1.00  0.00     0.008 C 
ATOM      8  C   UNL     1      25.827  15.913   2.539  1.00  0.00     0.031 C 
ATOM      9  C   UNL     1      25.487  17.252   1.877  1.00  0.00     0.005 C 
ATOM     10  C   UNL     1      24.686  18.201   2.793  1.00  0.00     0.012 C 
ATOM     11  C   UNL     1      23.648  17.495   3.733  1.00  0.00    -0.004 C 
ATOM     12  C   UNL     1      22.385  18.347   3.809  1.00  0.00     0.027 C 
ATOM     13  C   UNL     1      21.211  17.773   4.061  1.00  0.00     0.131 C 
ATOM     14  O   UNL     1      20.000  18.424   4.253  1.00  0.00    -0.423 OA
ATOM     15  C   UNL     1      19.089  17.404   4.499  1.00  0.00     0.339 C 
ATOM     16  O   UNL     1      17.864  17.594   4.715  1.00  0.00    -0.246 OA
ATOM     17  C   UNL     1      24.228  17.421   5.170  1.00  0.00     0.016 C 
ENDROOT
TORSDOF 0
ENDMDL
MODEL 5
REMARK VINA RESULT:    -5.272      2.265      5.164
REMARK INTER + INTRA:          -5.272
REMARK INTER:                  -5.272
REMARK INTRA:                   0.000
REMARK UNBOUND:                 0.000
REMARK SMILES C=C1CCC[C@@]2(C)C=C3OC(=O)C(C)=C3C[C@H]12
REMARK SMILES IDX 14 1 13 2 15 3 16 4 17 5 2 6 1 7 3 8 4 9 5 10 6 11 8 12 9 13
REMARK SMILES IDX 10 14 11 15 12 16 7 17
REMARK H PARENT
REMARK Flexibility Score: inf
ROOT
ATOM      1  C   UNL     1      15.518  18.497  17.702  1.00  0.00     0.053 C 
ATOM      2  C   UNL     1      14.341  18.931  16.887  1.00  0.00     0.041 C 
ATOM      3  C   UNL     1      13.207  19.451  17.347  1.00  0.00     0.005 C 
ATOM      4  C   UNL     1      12.775  19.672  18.764  1.00  0.00     0.049 C 
ATOM      5  C   UNL     1      11.629  20.726  18.795  1.00  0.00     0.029 C 
ATOM      6  C   UNL     1      10.977  20.928  20.164  1.00  0.00    -0.073 C 
ATOM      7  C   UNL     1      11.495  20.451  21.310  1.00  0.00     0.008 C 
ATOM      8  C   UNL     1       9.704  21.744  20.229  1.00  0.00     0.031 C 
ATOM      9  C   UNL     1       9.466  22.525  18.933  1.00  0.00     0.005 C 
ATOM     10  C   UNL     1       9.485  21.635  17.672  1.00  0.00     0.012 C 
ATOM     11  C   UNL     1      10.516  20.454  17.709  1.00  0.00    -0.004 C 
ATOM     12  C   UNL     1      11.147  20.299  16.328  1.00  0.00     0.027 C 
ATOM     13  C   UNL     1      12.369  19.787  16.210  1.00  0.00     0.131 C 
ATOM     14  O   UNL     1      13.030  19.499  15.024  1.00  0.00    -0.423 OA
ATOM     15  C   UNL     1      14.253  18.973  15.424  1.00  0.00     0.339 C 
ATOM     16  O   UNL     1      15.149  18.595  14.625  1.00  0.00    -0.246 OA
ATOM     17  C   UNL     1       9.765  19.130  18.011  1.00  0.00     0.016 C 
ENDROOT
TORSDOF 0
ENDMDL
MODEL 6
REMARK VINA RESULT:    -4.964     15.577     17.829
REMARK INTER + INTRA:          -4.964
REMARK INTER:                  -4.964
REMARK INTRA:                   0.000
REMARK UNBOUND:                 0.000
REMARK SMILES C=C1CCC[C@@]2(C)C=C3OC(=O)C(C)=C3C[C@H]12
REMARK SMILES IDX 14 1 13 2 15 3 16 4 17 5 2 6 1 7 3 8 4 9 5 10 6 11 8 12 9 13
REMARK SMILES IDX 10 14 11 15 12 16 7 17
REMARK H PARENT
REMARK Flexibility Score: inf
ROOT
ATOM      1  C   UNL     1      24.633  19.821   6.349  1.00  0.00     0.053 C 
ATOM      2  C   UNL     1      23.386  19.233   5.770  1.00  0.00     0.041 C 
ATOM      3  C   UNL     1      23.300  18.140   5.018  1.00  0.00     0.005 C 
ATOM      4  C   UNL     1      24.397  17.264   4.495  1.00  0.00     0.049 C 
ATOM      5  C   UNL     1      23.806  15.879   4.100  1.00  0.00     0.029 C 
ATOM      6  C   UNL     1      24.785  14.938   3.396  1.00  0.00    -0.073 C 
ATOM      7  C   UNL     1      26.112  15.153   3.342  1.00  0.00     0.008 C 
ATOM      8  C   UNL     1      24.230  13.681   2.763  1.00  0.00     0.031 C 
ATOM      9  C   UNL     1      22.802  13.393   3.238  1.00  0.00     0.005 C 
ATOM     10  C   UNL     1      21.839  14.581   3.035  1.00  0.00     0.012 C 
ATOM     11  C   UNL     1      22.478  15.997   3.254  1.00  0.00    -0.004 C 
ATOM     12  C   UNL     1      21.471  16.893   3.968  1.00  0.00     0.027 C 
ATOM     13  C   UNL     1      21.898  17.897   4.730  1.00  0.00     0.131 C 
ATOM     14  O   UNL     1      21.107  18.847   5.360  1.00  0.00    -0.423 OA
ATOM     15  C   UNL     1      22.010  19.679   6.011  1.00  0.00     0.339 C 
ATOM     16  O   UNL     1      21.673  20.670   6.710  1.00  0.00    -0.246 OA
ATOM     17  C   UNL     1      22.762  16.648   1.875  1.00  0.00     0.016 C 
ENDROOT
TORSDOF 0
ENDMDL
MODEL 7
REMARK VINA RESULT:    -4.858     15.111     17.553
REMARK INTER + INTRA:          -4.858
REMARK INTER:                  -4.858
REMARK INTRA:                   0.000
REMARK UNBOUND:                 0.000
REMARK SMILES C=C1CCC[C@@]2(C)C=C3OC(=O)C(C)=C3C[C@H]12
REMARK SMILES IDX 14 1 13 2 15 3 16 4 17 5 2 6 1 7 3 8 4 9 5 10 6 11 8 12 9 13
REMARK SMILES IDX 10 14 11 15 12 16 7 17
REMARK H PARENT
REMARK Flexibility Score: inf
ROOT
ATOM      1  C   UNL     1      18.509  18.337   4.505  1.00  0.00     0.053 C 
ATOM      2  C   UNL     1      19.242  17.033   4.478  1.00  0.00     0.041 C 
ATOM      3  C   UNL     1      20.517  16.847   4.151  1.00  0.00     0.005 C 
ATOM      4  C   UNL     1      21.522  17.845   3.661  1.00  0.00     0.049 C 
ATOM      5  C   UNL     1      22.957  17.281   3.881  1.00  0.00     0.029 C 
ATOM      6  C   UNL     1      24.080  18.124   3.275  1.00  0.00    -0.073 C 
ATOM      7  C   UNL     1      23.903  19.377   2.818  1.00  0.00     0.008 C 
ATOM      8  C   UNL     1      25.470  17.527   3.229  1.00  0.00     0.031 C 
ATOM      9  C   UNL     1      25.581  16.286   4.121  1.00  0.00     0.005 C 
ATOM     10  C   UNL     1      24.512  15.216   3.815  1.00  0.00     0.012 C 
ATOM     11  C   UNL     1      23.105  15.781   3.412  1.00  0.00    -0.004 C 
ATOM     12  C   UNL     1      22.020  14.916   4.048  1.00  0.00     0.027 C 
ATOM     13  C   UNL     1      20.829  15.441   4.324  1.00  0.00     0.131 C 
ATOM     14  O   UNL     1      19.722  14.760   4.810  1.00  0.00    -0.423 OA
ATOM     15  C   UNL     1      18.733  15.730   4.916  1.00  0.00     0.339 C 
ATOM     16  O   UNL     1      17.568  15.502   5.335  1.00  0.00    -0.246 OA
ATOM     17  C   UNL     1      22.929  15.665   1.875  1.00  0.00     0.016 C 
ENDROOT
TORSDOF 0
ENDMDL
