MODEL 1
REMARK VINA RESULT:    -4.724      0.000      0.000
REMARK INTER + INTRA:          -7.622
REMARK INTER:                  -6.933
REMARK INTRA:                  -0.689
REMARK UNBOUND:                -0.689
REMARK SMILES O=C([O-])CCCCCCCC(=O)[O-]
REMARK SMILES IDX 7 1 6 2 5 3 4 4 2 5 1 6 3 7 8 8 9 9 10 10 11 11 12 12 13 13
REMARK H PARENT
REMARK Flexibility Score: inf
ROOT
ATOM      1  C   UNL     1       1.602  45.683   9.233  1.00  0.00     0.000 C 
ENDROOT
BRANCH   1   2
ATOM      2  C   UNL     1       1.533  44.341   9.970  1.00  0.00     0.000 C 
BRANCH   2   3
ATOM      3  C   UNL     1       2.335  43.263   9.225  1.00  0.00     0.006 C 
BRANCH   3   4
ATOM      4  C   UNL     1       3.803  43.219   9.671  1.00  0.00     0.053 C 
BRANCH   4   5
ATOM      5  C   UNL     1       3.928  42.975  11.144  1.00  0.00     0.041 C 
ATOM      6  O   UNL     1       3.578  41.871  11.636  1.00  0.00    -0.550 OA
ATOM      7  O   UNL     1       4.401  43.981  11.976  1.00  0.00    -0.550 OA
ENDBRANCH   4   5
ENDBRANCH   3   4
ENDBRANCH   2   3
ENDBRANCH   1   2
BRANCH   1   8
ATOM      8  C   UNL     1       2.573  46.646   9.932  1.00  0.00     0.000 C 
BRANCH   8   9
ATOM      9  C   UNL     1       3.819  46.950   9.085  1.00  0.00     0.006 C 
BRANCH   9  10
ATOM     10  C   UNL     1       5.126  46.723   9.856  1.00  0.00     0.053 C 
BRANCH  10  11
ATOM     11  C   UNL     1       6.189  47.655   9.365  1.00  0.00     0.041 C 
ATOM     12  O   UNL     1       5.874  48.744   8.819  1.00  0.00    -0.550 OA
ATOM     13  O   UNL     1       7.529  47.344   9.557  1.00  0.00    -0.550 OA
ENDBRANCH  10  11
ENDBRANCH   9  10
ENDBRANCH   8   9
ENDBRANCH   1   8
TORSDOF 8
ENDMDL
MODEL 2
REMARK VINA RESULT:    -4.699      0.139      4.849
REMARK INTER + INTRA:          -7.585
REMARK INTER:                  -6.908
REMARK INTRA:                  -0.678
REMARK UNBOUND:                -0.689
REMARK SMILES O=C([O-])CCCCCCCC(=O)[O-]
REMARK SMILES IDX 7 1 6 2 5 3 4 4 2 5 1 6 3 7 8 8 9 9 10 10 11 11 12 12 13 13
REMARK H PARENT
REMARK Flexibility Score: inf
ROOT
ATOM      1  C   UNL     1       1.629  45.710   9.445  1.00  0.00     0.000 C 
ENDROOT
BRANCH   1   2
ATOM      2  C   UNL     1       2.692  46.566  10.143  1.00  0.00     0.000 C 
BRANCH   2   3
ATOM      3  C   UNL     1       3.796  46.982   9.159  1.00  0.00     0.006 C 
BRANCH   3   4
ATOM      4  C   UNL     1       5.192  46.570   9.645  1.00  0.00     0.053 C 
BRANCH   4   5
ATOM      5  C   UNL     1       6.223  47.606   9.315  1.00  0.00     0.041 C 
ATOM      6  O   UNL     1       7.432  47.413   9.605  1.00  0.00    -0.550 OA
ATOM      7  O   UNL     1       5.841  48.799   8.715  1.00  0.00    -0.550 OA
ENDBRANCH   4   5
ENDBRANCH   3   4
ENDBRANCH   2   3
ENDBRANCH   1   2
BRANCH   1   8
ATOM      8  C   UNL     1       1.550  44.311  10.074  1.00  0.00     0.000 C 
BRANCH   8   9
ATOM      9  C   UNL     1       2.321  43.254   9.267  1.00  0.00     0.006 C 
BRANCH   9  10
ATOM     10  C   UNL     1       3.800  43.169   9.667  1.00  0.00     0.053 C 
BRANCH  10  11
ATOM     11  C   UNL     1       3.930  42.957  11.142  1.00  0.00     0.041 C 
ATOM     12  O   UNL     1       3.611  41.852  11.654  1.00  0.00    -0.550 OA
ATOM     13  O   UNL     1       4.450  43.963  11.946  1.00  0.00    -0.550 OA
ENDBRANCH  10  11
ENDBRANCH   9  10
ENDBRANCH   8   9
ENDBRANCH   1   8
TORSDOF 8
ENDMDL
MODEL 3
REMARK VINA RESULT:    -4.673      0.938      1.389
REMARK INTER + INTRA:          -7.548
REMARK INTER:                  -6.900
REMARK INTRA:                  -0.648
REMARK UNBOUND:                -0.689
REMARK SMILES O=C([O-])CCCCCCCC(=O)[O-]
REMARK SMILES IDX 7 1 6 2 5 3 4 4 2 5 1 6 3 7 8 8 9 9 10 10 11 11 12 12 13 13
REMARK H PARENT
REMARK Flexibility Score: inf
ROOT
ATOM      1  C   UNL     1       1.388  45.928   9.416  1.00  0.00     0.000 C 
ENDROOT
BRANCH   1   2
ATOM      2  C   UNL     1       1.325  44.464   9.868  1.00  0.00     0.000 C 
BRANCH   2   3
ATOM      3  C   UNL     1       1.352  44.361  11.401  1.00  0.00     0.006 C 
BRANCH   3   4
ATOM      4  C   UNL     1       2.263  43.226  11.890  1.00  0.00     0.053 C 
BRANCH   4   5
ATOM      5  C   UNL     1       3.709  43.529  11.638  1.00  0.00     0.041 C 
ATOM      6  O   UNL     1       4.363  44.228  12.455  1.00  0.00    -0.550 OA
ATOM      7  O   UNL     1       4.324  43.065  10.482  1.00  0.00    -0.550 OA
ENDBRANCH   4   5
ENDBRANCH   3   4
ENDBRANCH   2   3
ENDBRANCH   1   2
BRANCH   1   8
ATOM      8  C   UNL     1       2.590  46.647  10.048  1.00  0.00     0.000 C 
BRANCH   8   9
ATOM      9  C   UNL     1       3.817  46.677   9.123  1.00  0.00     0.006 C 
BRANCH   9  10
ATOM     10  C   UNL     1       5.140  46.576   9.894  1.00  0.00     0.053 C 
BRANCH  10  11
ATOM     11  C   UNL     1       6.133  47.556   9.355  1.00  0.00     0.041 C 
ATOM     12  O   UNL     1       5.741  48.606   8.783  1.00  0.00    -0.550 OA
ATOM     13  O   UNL     1       7.494  47.333   9.528  1.00  0.00    -0.550 OA
ENDBRANCH  10  11
ENDBRANCH   9  10
ENDBRANCH   8   9
ENDBRANCH   1   8
TORSDOF 8
ENDMDL
MODEL 4
REMARK VINA RESULT:    -4.673      1.794      2.233
REMARK INTER + INTRA:          -7.547
REMARK INTER:                  -7.320
REMARK INTRA:                  -0.228
REMARK UNBOUND:                -0.689
REMARK SMILES O=C([O-])CCCCCCCC(=O)[O-]
REMARK SMILES IDX 7 1 6 2 5 3 4 4 2 5 1 6 3 7 8 8 9 9 10 10 11 11 12 12 13 13
REMARK H PARENT
REMARK Flexibility Score: inf
ROOT
ATOM      1  C   UNL     1       3.345  44.973  11.577  1.00  0.00     0.000 C 
ENDROOT
BRANCH   1   2
ATOM      2  C   UNL     1       2.006  44.250  11.394  1.00  0.00     0.000 C 
BRANCH   2   3
ATOM      3  C   UNL     1       2.036  42.862  12.050  1.00  0.00     0.006 C 
BRANCH   3   4
ATOM      4  C   UNL     1       3.070  41.934  11.396  1.00  0.00     0.053 C 
BRANCH   4   5
ATOM      5  C   UNL     1       3.419  40.780  12.285  1.00  0.00     0.041 C 
ATOM      6  O   UNL     1       2.514  40.036  12.745  1.00  0.00    -0.550 OA
ATOM      7  O   UNL     1       4.744  40.547  12.632  1.00  0.00    -0.550 OA
ENDBRANCH   4   5
ENDBRANCH   3   4
ENDBRANCH   2   3
ENDBRANCH   1   2
BRANCH   1   8
ATOM      8  C   UNL     1       3.474  46.150  10.598  1.00  0.00     0.000 C 
BRANCH   8   9
ATOM      9  C   UNL     1       4.866  46.233   9.951  1.00  0.00     0.006 C 
BRANCH   9  10
ATOM     10  C   UNL     1       5.013  47.446   9.022  1.00  0.00     0.053 C 
BRANCH  10  11
ATOM     11  C   UNL     1       6.343  48.100   9.226  1.00  0.00     0.041 C 
ATOM     12  O   UNL     1       7.347  47.410   9.538  1.00  0.00    -0.550 OA
ATOM     13  O   UNL     1       6.483  49.468   9.024  1.00  0.00    -0.550 OA
ENDBRANCH  10  11
ENDBRANCH   9  10
ENDBRANCH   8   9
ENDBRANCH   1   8
TORSDOF 8
ENDMDL
MODEL 5
REMARK VINA RESULT:    -4.585      1.933      6.016
REMARK INTER + INTRA:          -7.418
REMARK INTER:                  -7.119
REMARK INTRA:                  -0.299
REMARK UNBOUND:                -0.689
REMARK SMILES O=C([O-])CCCCCCCC(=O)[O-]
REMARK SMILES IDX 7 1 6 2 5 3 4 4 2 5 1 6 3 7 8 8 9 9 10 10 11 11 12 12 13 13
REMARK H PARENT
REMARK Flexibility Score: inf
ROOT
ATOM      1  C   UNL     1       3.766  44.789  11.692  1.00  0.00     0.000 C 
ENDROOT
BRANCH   1   2
ATOM      2  C   UNL     1       3.498  45.842  10.611  1.00  0.00     0.000 C 
BRANCH   2   3
ATOM      3  C   UNL     1       4.716  46.005   9.689  1.00  0.00     0.006 C 
BRANCH   3   4
ATOM      4  C   UNL     1       4.767  47.393   9.035  1.00  0.00     0.053 C 
BRANCH   4   5
ATOM      5  C   UNL     1       6.134  47.998   9.126  1.00  0.00     0.041 C 
ATOM      6  O   UNL     1       7.120  47.292   9.463  1.00  0.00    -0.550 OA
ATOM      7  O   UNL     1       6.313  49.352   8.870  1.00  0.00    -0.550 OA
ENDBRANCH   4   5
ENDBRANCH   3   4
ENDBRANCH   2   3
ENDBRANCH   1   2
BRANCH   1   8
ATOM      8  C   UNL     1       2.464  44.088  12.112  1.00  0.00     0.000 C 
BRANCH   8   9
ATOM      9  C   UNL     1       2.377  42.642  11.596  1.00  0.00     0.006 C 
BRANCH   9  10
ATOM     10  C   UNL     1       3.746  41.949  11.548  1.00  0.00     0.053 C 
BRANCH  10  11
ATOM     11  C   UNL     1       3.736  40.716  12.395  1.00  0.00     0.041 C 
ATOM     12  O   UNL     1       2.649  40.143  12.667  1.00  0.00    -0.550 OA
ATOM     13  O   UNL     1       4.932  40.171  12.843  1.00  0.00    -0.550 OA
ENDBRANCH  10  11
ENDBRANCH   9  10
ENDBRANCH   8   9
ENDBRANCH   1   8
TORSDOF 8
ENDMDL
MODEL 6
REMARK VINA RESULT:    -4.526      2.098      2.812
REMARK INTER + INTRA:          -7.332
REMARK INTER:                  -6.866
REMARK INTRA:                  -0.465
REMARK UNBOUND:                -0.689
REMARK SMILES O=C([O-])CCCCCCCC(=O)[O-]
REMARK SMILES IDX 7 1 6 2 5 3 4 4 2 5 1 6 3 7 8 8 9 9 10 10 11 11 12 12 13 13
REMARK H PARENT
REMARK Flexibility Score: inf
ROOT
ATOM      1  C   UNL     1       4.230  44.591  11.424  1.00  0.00     0.000 C 
ENDROOT
BRANCH   1   2
ATOM      2  C   UNL     1       3.037  44.359  12.358  1.00  0.00     0.000 C 
BRANCH   2   3
ATOM      3  C   UNL     1       1.920  43.585  11.642  1.00  0.00     0.006 C 
BRANCH   3   4
ATOM      4  C   UNL     1       1.010  44.507  10.819  1.00  0.00     0.053 C 
BRANCH   4   5
ATOM      5  C   UNL     1       1.212  44.316   9.347  1.00  0.00     0.041 C 
ATOM      6  O   UNL     1       0.572  45.018   8.522  1.00  0.00    -0.550 OA
ATOM      7  O   UNL     1       2.085  43.338   8.887  1.00  0.00    -0.550 OA
ENDBRANCH   4   5
ENDBRANCH   3   4
ENDBRANCH   2   3
ENDBRANCH   1   2
BRANCH   1   8
ATOM      8  C   UNL     1       4.236  46.029  10.885  1.00  0.00     0.000 C 
BRANCH   8   9
ATOM      9  C   UNL     1       4.847  46.134   9.479  1.00  0.00     0.006 C 
BRANCH   9  10
ATOM     10  C   UNL     1       4.908  47.579   8.968  1.00  0.00     0.053 C 
BRANCH  10  11
ATOM     11  C   UNL     1       6.275  48.150   9.180  1.00  0.00     0.041 C 
ATOM     12  O   UNL     1       6.472  49.386   9.052  1.00  0.00    -0.550 OA
ATOM     13  O   UNL     1       7.321  47.322   9.568  1.00  0.00    -0.550 OA
ENDBRANCH  10  11
ENDBRANCH   9  10
ENDBRANCH   8   9
ENDBRANCH   1   8
TORSDOF 8
ENDMDL
MODEL 7
REMARK VINA RESULT:    -4.438      2.391      3.314
REMARK INTER + INTRA:          -7.202
REMARK INTER:                  -6.617
REMARK INTRA:                  -0.585
REMARK UNBOUND:                -0.689
REMARK SMILES O=C([O-])CCCCCCCC(=O)[O-]
REMARK SMILES IDX 7 1 6 2 5 3 4 4 2 5 1 6 3 7 8 8 9 9 10 10 11 11 12 12 13 13
REMARK H PARENT
REMARK Flexibility Score: inf
ROOT
ATOM      1  C   UNL     1       3.853  45.686  11.373  1.00  0.00     0.000 C 
ENDROOT
BRANCH   1   2
ATOM      2  C   UNL     1       4.038  44.299  12.001  1.00  0.00     0.000 C 
BRANCH   2   3
ATOM      3  C   UNL     1       2.772  43.445  11.831  1.00  0.00     0.006 C 
BRANCH   3   4
ATOM      4  C   UNL     1       2.943  42.363  10.756  1.00  0.00     0.053 C 
BRANCH   4   5
ATOM      5  C   UNL     1       2.916  42.943   9.375  1.00  0.00     0.041 C 
ATOM      6  O   UNL     1       3.969  42.998   8.688  1.00  0.00    -0.550 OA
ATOM      7  O   UNL     1       1.731  43.453   8.860  1.00  0.00    -0.550 OA
ENDBRANCH   4   5
ENDBRANCH   3   4
ENDBRANCH   2   3
ENDBRANCH   1   2
BRANCH   1   8
ATOM      8  C   UNL     1       4.930  45.956  10.311  1.00  0.00     0.000 C 
BRANCH   8   9
ATOM      9  C   UNL     1       4.436  46.881   9.187  1.00  0.00     0.006 C 
BRANCH   9  10
ATOM     10  C   UNL     1       2.905  46.944   9.106  1.00  0.00     0.053 C 
BRANCH  10  11
ATOM     11  C   UNL     1       2.479  47.798   7.953  1.00  0.00     0.041 C 
ATOM     12  O   UNL     1       3.330  48.466   7.312  1.00  0.00    -0.550 OA
ATOM     13  O   UNL     1       1.148  47.816   7.557  1.00  0.00    -0.550 OA
ENDBRANCH  10  11
ENDBRANCH   9  10
ENDBRANCH   8   9
ENDBRANCH   1   8
TORSDOF 8
ENDMDL
MODEL 8
REMARK VINA RESULT:    -4.376      1.099      4.608
REMARK INTER + INTRA:          -7.112
REMARK INTER:                  -6.408
REMARK INTRA:                  -0.704
REMARK UNBOUND:                -0.689
REMARK SMILES O=C([O-])CCCCCCCC(=O)[O-]
REMARK SMILES IDX 7 1 6 2 5 3 4 4 2 5 1 6 3 7 8 8 9 9 10 10 11 11 12 12 13 13
REMARK H PARENT
REMARK Flexibility Score: inf
ROOT
ATOM      1  C   UNL     1       0.627  45.486  10.149  1.00  0.00     0.000 C 
ENDROOT
BRANCH   1   2
ATOM      2  C   UNL     1       1.290  46.163   8.943  1.00  0.00     0.000 C 
BRANCH   2   3
ATOM      3  C   UNL     1       2.187  47.327   9.391  1.00  0.00     0.006 C 
BRANCH   3   4
ATOM      4  C   UNL     1       3.546  47.320   8.676  1.00  0.00     0.053 C 
BRANCH   4   5
ATOM      5  C   UNL     1       4.653  46.906   9.596  1.00  0.00     0.041 C 
ATOM      6  O   UNL     1       5.853  47.004   9.229  1.00  0.00    -0.550 OA
ATOM      7  O   UNL     1       4.357  46.380  10.848  1.00  0.00    -0.550 OA
ENDBRANCH   4   5
ENDBRANCH   3   4
ENDBRANCH   2   3
ENDBRANCH   1   2
BRANCH   1   8
ATOM      8  C   UNL     1       1.443  44.272  10.616  1.00  0.00     0.000 C 
BRANCH   8   9
ATOM      9  C   UNL     1       2.150  43.552   9.457  1.00  0.00     0.006 C 
BRANCH   9  10
ATOM     10  C   UNL     1       3.605  43.190   9.787  1.00  0.00     0.053 C 
BRANCH  10  11
ATOM     11  C   UNL     1       3.702  42.635  11.173  1.00  0.00     0.041 C 
ATOM     12  O   UNL     1       4.286  43.288  12.077  1.00  0.00    -0.550 OA
ATOM     13  O   UNL     1       3.105  41.418  11.478  1.00  0.00    -0.550 OA
ENDBRANCH  10  11
ENDBRANCH   9  10
ENDBRANCH   8   9
ENDBRANCH   1   8
TORSDOF 8
ENDMDL
MODEL 9
REMARK VINA RESULT:    -4.312      2.123      2.905
REMARK INTER + INTRA:          -7.018
REMARK INTER:                  -6.605
REMARK INTRA:                  -0.412
REMARK UNBOUND:                -0.689
REMARK SMILES O=C([O-])CCCCCCCC(=O)[O-]
REMARK SMILES IDX 7 1 6 2 5 3 4 4 2 5 1 6 3 7 8 8 9 9 10 10 11 11 12 12 13 13
REMARK H PARENT
REMARK Flexibility Score: inf
ROOT
ATOM      1  C   UNL     1       1.626  43.852  11.717  1.00  0.00     0.000 C 
ENDROOT
BRANCH   1   2
ATOM      2  C   UNL     1       3.099  44.078  12.076  1.00  0.00     0.000 C 
BRANCH   2   3
ATOM      3  C   UNL     1       3.935  42.823  11.783  1.00  0.00     0.006 C 
BRANCH   3   4
ATOM      4  C   UNL     1       3.060  41.581  11.565  1.00  0.00     0.053 C 
BRANCH   4   5
ATOM      5  C   UNL     1       3.518  40.426  12.402  1.00  0.00     0.041 C 
ATOM      6  O   UNL     1       2.705  39.526  12.741  1.00  0.00    -0.550 OA
ATOM      7  O   UNL     1       4.837  40.361  12.834  1.00  0.00    -0.550 OA
ENDBRANCH   4   5
ENDBRANCH   3   4
ENDBRANCH   2   3
ENDBRANCH   1   2
BRANCH   1   8
ATOM      8  C   UNL     1       1.125  44.933  10.746  1.00  0.00     0.000 C 
BRANCH   8   9
ATOM      9  C   UNL     1       2.225  45.433   9.797  1.00  0.00     0.006 C 
BRANCH   9  10
ATOM     10  C   UNL     1       2.188  46.954   9.600  1.00  0.00     0.053 C 
BRANCH  10  11
ATOM     11  C   UNL     1       3.309  47.392   8.711  1.00  0.00     0.041 C 
ATOM     12  O   UNL     1       3.064  47.908   7.590  1.00  0.00    -0.550 OA
ATOM     13  O   UNL     1       4.624  47.275   9.143  1.00  0.00    -0.550 OA
ENDBRANCH  10  11
ENDBRANCH   9  10
ENDBRANCH   8   9
ENDBRANCH   1   8
TORSDOF 8
ENDMDL
