MODEL 1
REMARK VINA RESULT:    -2.991      0.000      0.000
REMARK INTER + INTRA:          -3.783
REMARK INTER:                  -3.515
REMARK INTRA:                  -0.268
REMARK UNBOUND:                -0.268
REMARK SMILES O=c1cc(-c2ccc(O)c(O)c2)oc2cc(O)cc(O)c12
REMARK SMILES IDX 4 1 3 2 2 3 1 4 21 5 19 6 18 7 16 8 15 9 14 10 13 11 5 12
REMARK SMILES IDX 6 13 7 14 8 15 12 16 10 17 9 18 11 20 20 22 17 24
REMARK H PARENT 9 19 11 21 20 23 17 25
REMARK Flexibility Score: inf
ROOT
ATOM      1  C   UNL     1      55.081  67.903  57.802  1.00  0.00     0.138 A 
ATOM      2  C   UNL     1      55.875  68.449  56.784  1.00  0.00     0.100 A 
ATOM      3  C   UNL     1      56.643  67.607  55.980  1.00  0.00     0.197 A 
ATOM      4  O   UNL     1      57.296  68.120  55.035  1.00  0.00    -0.289 OA
ATOM      5  C   UNL     1      56.641  66.212  56.220  1.00  0.00     0.107 A 
ATOM      6  C   UNL     1      57.416  65.261  55.490  1.00  0.00     0.134 A 
ATOM      7  C   UNL     1      57.245  63.893  55.739  1.00  0.00     0.093 A 
ATOM      8  C   UNL     1      56.372  63.446  56.730  1.00  0.00     0.123 A 
ATOM      9  C   UNL     1      55.649  64.369  57.487  1.00  0.00     0.094 A 
ATOM     10  C   UNL     1      55.772  65.738  57.238  1.00  0.00     0.146 A 
ATOM     11  O   UNL     1      55.055  66.584  57.970  1.00  0.00    -0.456 OA
ENDROOT
BRANCH   1  12
ATOM     12  C   UNL     1      54.245  68.753  58.686  1.00  0.00     0.021 A 
ATOM     13  C   UNL     1      54.801  69.478  59.756  1.00  0.00     0.016 A 
ATOM     14  C   UNL     1      53.989  70.263  60.579  1.00  0.00     0.051 A 
ATOM     15  C   UNL     1      52.611  70.331  60.356  1.00  0.00     0.157 A 
ATOM     16  C   UNL     1      52.856  68.816  58.476  1.00  0.00     0.062 A 
ATOM     17  C   UNL     1      52.040  69.603  59.300  1.00  0.00     0.158 A 
BRANCH  15  18
ATOM     18  O   UNL     1      51.827  71.125  61.194  1.00  0.00    -0.504 OA
ATOM     19  H   UNL     1      52.047  71.252  62.175  1.00  0.00     0.293 HD
ENDBRANCH  15  18
BRANCH  17  20
ATOM     20  O   UNL     1      50.665  69.664  59.074  1.00  0.00    -0.504 OA
ATOM     21  H   UNL     1      50.143  68.858  58.752  1.00  0.00     0.293 HD
ENDBRANCH  17  20
ENDBRANCH   1  12
BRANCH   6  22
ATOM     22  O   UNL     1      58.380  65.604  54.537  1.00  0.00    -0.507 OA
ATOM     23  H   UNL     1      58.463  65.184  53.623  1.00  0.00     0.293 HD
ENDBRANCH   6  22
BRANCH   8  24
ATOM     24  O   UNL     1      56.238  62.078  56.961  1.00  0.00    -0.508 OA
ATOM     25  H   UNL     1      56.491  61.394  56.258  1.00  0.00     0.293 HD
ENDBRANCH   8  24
TORSDOF 5
ENDMDL
MODEL 2
REMARK VINA RESULT:    -2.098      1.973      7.766
REMARK INTER + INTRA:          -2.734
REMARK INTER:                  -2.464
REMARK INTRA:                  -0.270
REMARK UNBOUND:                -0.268
REMARK SMILES O=c1cc(-c2ccc(O)c(O)c2)oc2cc(O)cc(O)c12
REMARK SMILES IDX 4 1 3 2 2 3 1 4 21 5 19 6 18 7 16 8 15 9 14 10 13 11 5 12
REMARK SMILES IDX 6 13 7 14 8 15 12 16 10 17 9 18 11 20 20 22 17 24
REMARK H PARENT 9 19 11 21 20 23 17 25
REMARK Flexibility Score: inf
ROOT
ATOM      1  C   UNL     1      53.646  69.372  59.331  1.00  0.00     0.138 A 
ATOM      2  C   UNL     1      52.319  69.663  58.982  1.00  0.00     0.100 A 
ATOM      3  C   UNL     1      51.451  70.179  59.943  1.00  0.00     0.197 A 
ATOM      4  O   UNL     1      50.285  70.489  59.585  1.00  0.00    -0.289 OA
ATOM      5  C   UNL     1      51.904  70.373  61.269  1.00  0.00     0.107 A 
ATOM      6  C   UNL     1      51.096  70.856  62.343  1.00  0.00     0.134 A 
ATOM      7  C   UNL     1      51.684  71.118  63.587  1.00  0.00     0.093 A 
ATOM      8  C   UNL     1      53.035  70.862  63.813  1.00  0.00     0.123 A 
ATOM      9  C   UNL     1      53.824  70.339  62.787  1.00  0.00     0.094 A 
ATOM     10  C   UNL     1      53.274  70.099  61.525  1.00  0.00     0.146 A 
ATOM     11  O   UNL     1      54.062  69.615  60.570  1.00  0.00    -0.456 OA
ENDROOT
BRANCH   1  12
ATOM     12  C   UNL     1      54.612  68.820  58.348  1.00  0.00     0.021 A 
ATOM     13  C   UNL     1      55.136  69.606  57.305  1.00  0.00     0.016 A 
ATOM     14  C   UNL     1      56.036  69.058  56.388  1.00  0.00     0.051 A 
ATOM     15  C   UNL     1      56.423  67.719  56.488  1.00  0.00     0.157 A 
ATOM     16  C   UNL     1      54.995  67.470  58.436  1.00  0.00     0.062 A 
ATOM     17  C   UNL     1      55.899  66.919  57.516  1.00  0.00     0.158 A 
BRANCH  15  18
ATOM     18  O   UNL     1      57.325  67.202  55.559  1.00  0.00    -0.504 OA
ATOM     19  H   UNL     1      58.021  67.781  55.104  1.00  0.00     0.293 HD
ENDBRANCH  15  18
BRANCH  17  20
ATOM     20  O   UNL     1      56.278  65.581  57.621  1.00  0.00    -0.504 OA
ATOM     21  H   UNL     1      55.955  64.884  56.962  1.00  0.00     0.293 HD
ENDBRANCH  17  20
ENDBRANCH   1  12
BRANCH   6  22
ATOM     22  O   UNL     1      49.717  71.066  62.249  1.00  0.00    -0.507 OA
ATOM     23  H   UNL     1      49.143  70.787  61.467  1.00  0.00     0.293 HD
ENDBRANCH   6  22
BRANCH   8  24
ATOM     24  O   UNL     1      53.584  71.121  65.067  1.00  0.00    -0.508 OA
ATOM     25  H   UNL     1      54.466  71.608  65.170  1.00  0.00     0.293 HD
ENDBRANCH   8  24
TORSDOF 5
ENDMDL
MODEL 3
REMARK VINA RESULT:    -1.160     14.202     17.167
REMARK INTER + INTRA:          -1.631
REMARK INTER:                  -1.368
REMARK INTRA:                  -0.263
REMARK UNBOUND:                -0.268
REMARK SMILES O=c1cc(-c2ccc(O)c(O)c2)oc2cc(O)cc(O)c12
REMARK SMILES IDX 4 1 3 2 2 3 1 4 21 5 19 6 18 7 16 8 15 9 14 10 13 11 5 12
REMARK SMILES IDX 6 13 7 14 8 15 12 16 10 17 9 18 11 20 20 22 17 24
REMARK H PARENT 9 19 11 21 20 23 17 25
REMARK Flexibility Score: inf
ROOT
ATOM      1  C   UNL     1      60.455  51.811  59.008  1.00  0.00     0.138 A 
ATOM      2  C   UNL     1      60.387  51.629  60.396  1.00  0.00     0.100 A 
ATOM      3  C   UNL     1      61.562  51.456  61.128  1.00  0.00     0.197 A 
ATOM      4  O   UNL     1      61.473  51.357  62.380  1.00  0.00    -0.289 OA
ATOM      5  C   UNL     1      62.809  51.431  60.461  1.00  0.00     0.107 A 
ATOM      6  C   UNL     1      64.069  51.221  61.099  1.00  0.00     0.134 A 
ATOM      7  C   UNL     1      65.249  51.334  60.353  1.00  0.00     0.093 A 
ATOM      8  C   UNL     1      65.212  51.591  58.983  1.00  0.00     0.123 A 
ATOM      9  C   UNL     1      63.984  51.745  58.337  1.00  0.00     0.094 A 
ATOM     10  C   UNL     1      62.792  51.672  59.061  1.00  0.00     0.146 A 
ATOM     11  O   UNL     1      61.644  51.839  58.413  1.00  0.00    -0.456 OA
ENDROOT
BRANCH   1  12
ATOM     12  C   UNL     1      59.237  51.999  58.181  1.00  0.00     0.021 A 
ATOM     13  C   UNL     1      58.782  51.003  57.296  1.00  0.00     0.016 A 
ATOM     14  C   UNL     1      57.638  51.212  56.522  1.00  0.00     0.051 A 
ATOM     15  C   UNL     1      56.933  52.415  56.609  1.00  0.00     0.157 A 
ATOM     16  C   UNL     1      58.531  53.213  58.254  1.00  0.00     0.062 A 
ATOM     17  C   UNL     1      57.382  53.423  57.478  1.00  0.00     0.158 A 
BRANCH  15  18
ATOM     18  O   UNL     1      55.793  52.592  55.825  1.00  0.00    -0.504 OA
ATOM     19  H   UNL     1      55.811  52.483  54.818  1.00  0.00     0.293 HD
ENDBRANCH  15  18
BRANCH  17  20
ATOM     20  O   UNL     1      56.686  54.628  57.567  1.00  0.00    -0.504 OA
ATOM     21  H   UNL     1      56.071  54.944  56.827  1.00  0.00     0.293 HD
ENDBRANCH  17  20
ENDBRANCH   1  12
BRANCH   6  22
ATOM     22  O   UNL     1      64.214  50.875  62.446  1.00  0.00    -0.507 OA
ATOM     23  H   UNL     1      63.541  51.079  63.170  1.00  0.00     0.293 HD
ENDBRANCH   6  22
BRANCH   8  24
ATOM     24  O   UNL     1      66.405  51.681  58.268  1.00  0.00    -0.508 OA
ATOM     25  H   UNL     1      67.162  51.024  58.415  1.00  0.00     0.293 HD
ENDBRANCH   8  24
TORSDOF 5
ENDMDL
MODEL 4
REMARK VINA RESULT:    -1.148     13.473     16.935
REMARK INTER + INTRA:          -1.617
REMARK INTER:                  -1.344
REMARK INTRA:                  -0.273
REMARK UNBOUND:                -0.268
REMARK SMILES O=c1cc(-c2ccc(O)c(O)c2)oc2cc(O)cc(O)c12
REMARK SMILES IDX 4 1 3 2 2 3 1 4 21 5 19 6 18 7 16 8 15 9 14 10 13 11 5 12
REMARK SMILES IDX 6 13 7 14 8 15 12 16 10 17 9 18 11 20 20 22 17 24
REMARK H PARENT 9 19 11 21 20 23 17 25
REMARK Flexibility Score: inf
ROOT
ATOM      1  C   UNL     1      52.417  52.192  52.905  1.00  0.00     0.138 A 
ATOM      2  C   UNL     1      51.063  51.951  53.174  1.00  0.00     0.100 A 
ATOM      3  C   UNL     1      50.214  51.556  52.141  1.00  0.00     0.197 A 
ATOM      4  O   UNL     1      49.018  51.286  52.425  1.00  0.00    -0.289 OA
ATOM      5  C   UNL     1      50.718  51.435  50.824  1.00  0.00     0.107 A 
ATOM      6  C   UNL     1      49.936  51.078  49.684  1.00  0.00     0.134 A 
ATOM      7  C   UNL     1      50.567  50.875  48.450  1.00  0.00     0.093 A 
ATOM      8  C   UNL     1      51.939  51.072  48.302  1.00  0.00     0.123 A 
ATOM      9  C   UNL     1      52.705  51.473  49.397  1.00  0.00     0.094 A 
ATOM     10  C   UNL     1      52.111  51.650  50.649  1.00  0.00     0.146 A 
ATOM     11  O   UNL     1      52.877  52.017  51.670  1.00  0.00    -0.456 OA
ENDROOT
BRANCH   1  12
ATOM     12  C   UNL     1      53.365  52.616  53.968  1.00  0.00     0.021 A 
ATOM     13  C   UNL     1      53.661  51.788  55.067  1.00  0.00     0.016 A 
ATOM     14  C   UNL     1      54.549  52.216  56.057  1.00  0.00     0.051 A 
ATOM     15  C   UNL     1      55.149  53.475  55.974  1.00  0.00     0.157 A 
ATOM     16  C   UNL     1      53.962  53.887  53.897  1.00  0.00     0.062 A 
ATOM     17  C   UNL     1      54.854  54.317  54.890  1.00  0.00     0.158 A 
BRANCH  15  18
ATOM     18  O   UNL     1      56.033  53.873  56.978  1.00  0.00    -0.504 OA
ATOM     19  H   UNL     1      56.962  54.219  56.770  1.00  0.00     0.293 HD
ENDBRANCH  15  18
BRANCH  17  20
ATOM     20  O   UNL     1      55.446  55.576  54.802  1.00  0.00    -0.504 OA
ATOM     21  H   UNL     1      54.957  56.367  54.400  1.00  0.00     0.293 HD
ENDBRANCH  17  20
ENDBRANCH   1  12
BRANCH   6  22
ATOM     22  O   UNL     1      48.545  50.939  49.703  1.00  0.00    -0.507 OA
ATOM     23  H   UNL     1      47.907  51.584  50.145  1.00  0.00     0.293 HD
ENDBRANCH   6  22
BRANCH   8  24
ATOM     24  O   UNL     1      52.531  50.876  47.056  1.00  0.00    -0.508 OA
ATOM     25  H   UNL     1      53.510  51.079  46.896  1.00  0.00     0.293 HD
ENDBRANCH   8  24
TORSDOF 5
ENDMDL
MODEL 5
REMARK VINA RESULT:    -1.096      8.792     13.969
REMARK INTER + INTRA:          -1.555
REMARK INTER:                  -1.293
REMARK INTRA:                  -0.262
REMARK UNBOUND:                -0.268
REMARK SMILES O=c1cc(-c2ccc(O)c(O)c2)oc2cc(O)cc(O)c12
REMARK SMILES IDX 4 1 3 2 2 3 1 4 21 5 19 6 18 7 16 8 15 9 14 10 13 11 5 12
REMARK SMILES IDX 6 13 7 14 8 15 12 16 10 17 9 18 11 20 20 22 17 24
REMARK H PARENT 9 19 11 21 20 23 17 25
REMARK Flexibility Score: inf
ROOT
ATOM      1  C   UNL     1      57.400  54.656  56.867  1.00  0.00     0.138 A 
ATOM      2  C   UNL     1      56.449  54.264  55.915  1.00  0.00     0.100 A 
ATOM      3  C   UNL     1      55.718  55.235  55.230  1.00  0.00     0.197 A 
ATOM      4  O   UNL     1      54.916  54.855  54.337  1.00  0.00    -0.289 OA
ATOM      5  C   UNL     1      55.919  56.604  55.524  1.00  0.00     0.107 A 
ATOM      6  C   UNL     1      55.203  57.679  54.918  1.00  0.00     0.134 A 
ATOM      7  C   UNL     1      55.568  59.001  55.203  1.00  0.00     0.093 A 
ATOM      8  C   UNL     1      56.583  59.287  56.115  1.00  0.00     0.123 A 
ATOM      9  C   UNL     1      57.254  58.244  56.756  1.00  0.00     0.094 A 
ATOM     10  C   UNL     1      56.936  56.915  56.466  1.00  0.00     0.146 A 
ATOM     11  O   UNL     1      57.609  55.950  57.085  1.00  0.00    -0.456 OA
ENDROOT
BRANCH   1  12
ATOM     12  C   UNL     1      58.205  53.665  57.626  1.00  0.00     0.021 A 
ATOM     13  C   UNL     1      57.860  53.279  58.935  1.00  0.00     0.016 A 
ATOM     14  C   UNL     1      58.642  52.352  59.629  1.00  0.00     0.051 A 
ATOM     15  C   UNL     1      59.780  51.800  59.037  1.00  0.00     0.157 A 
ATOM     16  C   UNL     1      59.360  53.116  57.040  1.00  0.00     0.062 A 
ATOM     17  C   UNL     1      60.144  52.185  57.736  1.00  0.00     0.158 A 
BRANCH  15  18
ATOM     18  O   UNL     1      60.539  50.875  59.755  1.00  0.00    -0.504 OA
ATOM     19  H   UNL     1      60.600  49.902  59.482  1.00  0.00     0.293 HD
ENDBRANCH  15  18
BRANCH  17  20
ATOM     20  O   UNL     1      61.281  51.641  57.139  1.00  0.00    -0.504 OA
ATOM     21  H   UNL     1      61.218  51.020  56.342  1.00  0.00     0.293 HD
ENDBRANCH  17  20
ENDBRANCH   1  12
BRANCH   6  22
ATOM     22  O   UNL     1      54.115  57.506  54.056  1.00  0.00    -0.507 OA
ATOM     23  H   UNL     1      53.631  56.633  53.906  1.00  0.00     0.293 HD
ENDBRANCH   6  22
BRANCH   8  24
ATOM     24  O   UNL     1      56.910  60.613  56.386  1.00  0.00    -0.508 OA
ATOM     25  H   UNL     1      56.327  61.379  56.069  1.00  0.00     0.293 HD
ENDBRANCH   8  24
TORSDOF 5
ENDMDL
MODEL 6
REMARK VINA RESULT:    -0.687     12.050     15.241
REMARK INTER + INTRA:          -1.075
REMARK INTER:                  -0.800
REMARK INTRA:                  -0.275
REMARK UNBOUND:                -0.268
REMARK SMILES O=c1cc(-c2ccc(O)c(O)c2)oc2cc(O)cc(O)c12
REMARK SMILES IDX 4 1 3 2 2 3 1 4 21 5 19 6 18 7 16 8 15 9 14 10 13 11 5 12
REMARK SMILES IDX 6 13 7 14 8 15 12 16 10 17 9 18 11 20 20 22 17 24
REMARK H PARENT 9 19 11 21 20 23 17 25
REMARK Flexibility Score: inf
ROOT
ATOM      1  C   UNL     1      53.656  53.380  54.223  1.00  0.00     0.138 A 
ATOM      2  C   UNL     1      53.833  52.290  53.360  1.00  0.00     0.100 A 
ATOM      3  C   UNL     1      52.757  51.827  52.603  1.00  0.00     0.197 A 
ATOM      4  O   UNL     1      52.961  50.887  51.791  1.00  0.00    -0.289 OA
ATOM      5  C   UNL     1      51.488  52.440  52.735  1.00  0.00     0.107 A 
ATOM      6  C   UNL     1      50.309  52.028  52.044  1.00  0.00     0.134 A 
ATOM      7  C   UNL     1      49.136  52.783  52.166  1.00  0.00     0.093 A 
ATOM      8  C   UNL     1      49.083  53.900  52.999  1.00  0.00     0.123 A 
ATOM      9  C   UNL     1      50.214  54.282  53.722  1.00  0.00     0.094 A 
ATOM     10  C   UNL     1      51.409  53.569  53.594  1.00  0.00     0.146 A 
ATOM     11  O   UNL     1      52.468  53.973  54.287  1.00  0.00    -0.456 OA
ENDROOT
BRANCH   1  12
ATOM     12  C   UNL     1      54.767  53.913  55.052  1.00  0.00     0.021 A 
ATOM     13  C   UNL     1      55.362  53.146  56.071  1.00  0.00     0.016 A 
ATOM     14  C   UNL     1      56.398  53.677  56.843  1.00  0.00     0.051 A 
ATOM     15  C   UNL     1      56.854  54.978  56.619  1.00  0.00     0.157 A 
ATOM     16  C   UNL     1      55.221  55.227  54.840  1.00  0.00     0.062 A 
ATOM     17  C   UNL     1      56.262  55.759  55.614  1.00  0.00     0.158 A 
BRANCH  15  18
ATOM     18  O   UNL     1      57.892  55.479  57.405  1.00  0.00    -0.504 OA
ATOM     19  H   UNL     1      58.725  55.890  56.999  1.00  0.00     0.293 HD
ENDBRANCH  15  18
BRANCH  17  20
ATOM     20  O   UNL     1      56.708  57.061  55.387  1.00  0.00    -0.504 OA
ATOM     21  H   UNL     1      57.689  57.305  55.450  1.00  0.00     0.293 HD
ENDBRANCH  17  20
ENDBRANCH   1  12
BRANCH   6  22
ATOM     22  O   UNL     1      50.230  50.877  51.253  1.00  0.00    -0.507 OA
ATOM     23  H   UNL     1      49.899  50.855  50.300  1.00  0.00     0.293 HD
ENDBRANCH   6  22
BRANCH   8  24
ATOM     24  O   UNL     1      47.895  54.620  53.108  1.00  0.00    -0.508 OA
ATOM     25  H   UNL     1      47.191  54.379  53.796  1.00  0.00     0.293 HD
ENDBRANCH   8  24
TORSDOF 5
ENDMDL
MODEL 7
REMARK VINA RESULT:    -0.269     12.660     16.002
REMARK INTER + INTRA:          -0.584
REMARK INTER:                  -0.321
REMARK INTRA:                  -0.263
REMARK UNBOUND:                -0.268
REMARK SMILES O=c1cc(-c2ccc(O)c(O)c2)oc2cc(O)cc(O)c12
REMARK SMILES IDX 4 1 3 2 2 3 1 4 21 5 19 6 18 7 16 8 15 9 14 10 13 11 5 12
REMARK SMILES IDX 6 13 7 14 8 15 12 16 10 17 9 18 11 20 20 22 17 24
REMARK H PARENT 9 19 11 21 20 23 17 25
REMARK Flexibility Score: inf
ROOT
ATOM      1  C   UNL     1      59.182  52.544  58.206  1.00  0.00     0.138 A 
ATOM      2  C   UNL     1      60.413  52.259  57.598  1.00  0.00     0.100 A 
ATOM      3  C   UNL     1      61.465  51.764  58.370  1.00  0.00     0.197 A 
ATOM      4  O   UNL     1      62.537  51.459  57.786  1.00  0.00    -0.289 OA
ATOM      5  C   UNL     1      61.292  51.585  59.762  1.00  0.00     0.107 A 
ATOM      6  C   UNL     1      62.306  51.125  60.655  1.00  0.00     0.134 A 
ATOM      7  C   UNL     1      61.986  50.875  61.996  1.00  0.00     0.093 A 
ATOM      8  C   UNL     1      60.706  51.124  62.488  1.00  0.00     0.123 A 
ATOM      9  C   UNL     1      59.720  51.625  61.637  1.00  0.00     0.094 A 
ATOM     10  C   UNL     1      59.999  51.852  60.287  1.00  0.00     0.146 A 
ATOM     11  O   UNL     1      59.029  52.314  59.506  1.00  0.00    -0.456 OA
ENDROOT
BRANCH   1  12
ATOM     12  C   UNL     1      58.030  53.073  57.432  1.00  0.00     0.021 A 
ATOM     13  C   UNL     1      57.102  52.217  56.810  1.00  0.00     0.016 A 
ATOM     14  C   UNL     1      56.033  52.743  56.080  1.00  0.00     0.051 A 
ATOM     15  C   UNL     1      55.875  54.125  55.951  1.00  0.00     0.157 A 
ATOM     16  C   UNL     1      57.872  54.463  57.288  1.00  0.00     0.062 A 
ATOM     17  C   UNL     1      56.799  54.991  56.556  1.00  0.00     0.158 A 
BRANCH  15  18
ATOM     18  O   UNL     1      54.796  54.619  55.218  1.00  0.00    -0.504 OA
ATOM     19  H   UNL     1      54.070  54.013  54.853  1.00  0.00     0.293 HD
ENDBRANCH  15  18
BRANCH  17  20
ATOM     20  O   UNL     1      56.650  56.372  56.429  1.00  0.00    -0.504 OA
ATOM     21  H   UNL     1      56.598  56.978  57.239  1.00  0.00     0.293 HD
ENDBRANCH  17  20
ENDBRANCH   1  12
BRANCH   6  22
ATOM     22  O   UNL     1      63.641  50.925  60.286  1.00  0.00    -0.507 OA
ATOM     23  H   UNL     1      64.074  51.310  59.460  1.00  0.00     0.293 HD
ENDBRANCH   6  22
BRANCH   8  24
ATOM     24  O   UNL     1      60.426  50.878  63.831  1.00  0.00    -0.508 OA
ATOM     25  H   UNL     1      60.363  51.632  64.506  1.00  0.00     0.293 HD
ENDBRANCH   8  24
TORSDOF 5
ENDMDL
