MODEL 1
REMARK VINA RESULT:    -3.179      0.000      0.000
REMARK INTER + INTRA:          -3.166
REMARK INTER:                  -3.922
REMARK INTRA:                   0.756
REMARK UNBOUND:                 0.756
REMARK SMILES CC1=CC=CC(C)(C)CC1=O
REMARK SMILES IDX 1 1 2 2 3 3 10 4 11 5 9 6 4 8 5 9 6 10 7 11 8 12
REMARK H PARENT
REMARK Flexibility Score: 80.00
ROOT
ATOM      1  C   UNL     1      16.194   6.392  26.293  1.00  0.00     0.048 C 
ATOM      2  C   UNL     1      15.436   7.645  25.926  1.00  0.00    -0.008 C 
ATOM      3  C   UNL     1      14.090   7.568  25.864  1.00  0.00     0.007 C 
ENDROOT
BRANCH   2   4
ATOM      4  C   UNL     1      16.232   8.884  25.736  1.00  0.00     0.159 C 
ATOM      5  O   UNL     1      17.453   8.879  26.057  1.00  0.00    -0.295 OA
BRANCH   4   6
ATOM      6  C   UNL     1      15.668  10.148  25.165  1.00  0.00     0.091 CG0
ATOM      7  G   UNL     1      14.476  10.704  25.975  1.00  0.00     0.000 G0
ENDBRANCH   4   6
ENDBRANCH   2   4
BRANCH   3   8
ATOM      8  C   UNL     1      13.089   8.619  25.561  1.00  0.00    -0.003 C 
ATOM      9  C   UNL     1      13.223   9.950  25.607  1.00  0.00    -0.020 C 
BRANCH   9  10
ATOM     10  C   UNL     1      14.475  10.714  25.964  1.00  0.00    -0.010 CG0
ATOM     11  C   UNL     1      14.280  12.189  25.541  1.00  0.00     0.016 C 
ATOM     12  C   UNL     1      14.695  10.682  27.494  1.00  0.00     0.016 C 
ATOM     13  G   UNL     1      15.676  10.143  25.177  1.00  0.00     0.000 G0
ENDBRANCH   9  10
ENDBRANCH   3   8
TORSDOF 0
ENDMDL
MODEL 2
REMARK VINA RESULT:    -3.165     10.482     11.501
REMARK INTER + INTRA:          -3.149
REMARK INTER:                  -3.899
REMARK INTRA:                   0.750
REMARK UNBOUND:                 0.756
REMARK SMILES CC1=CC=CC(C)(C)CC1=O
REMARK SMILES IDX 1 1 2 2 3 3 10 4 11 5 9 6 4 8 5 9 6 10 7 11 8 12
REMARK H PARENT
REMARK Flexibility Score: 80.00
ROOT
ATOM      1  C   UNL     1      18.526   1.405  21.253  1.00  0.00     0.048 C 
ATOM      2  C   UNL     1      17.380   0.497  20.876  1.00  0.00    -0.008 C 
ATOM      3  C   UNL     1      16.827  -0.251  21.854  1.00  0.00     0.007 C 
ENDROOT
BRANCH   2   4
ATOM      4  C   UNL     1      16.906   0.556  19.471  1.00  0.00     0.159 C 
ATOM      5  O   UNL     1      17.340   1.472  18.720  1.00  0.00    -0.295 OA
BRANCH   4   6
ATOM      6  C   UNL     1      15.942  -0.428  18.883  1.00  0.00     0.091 CG0
ATOM      7  G   UNL     1      14.591  -0.479  19.631  1.00  0.00     0.000 G0
ENDBRANCH   4   6
ENDBRANCH   2   4
BRANCH   3   8
ATOM      8  C   UNL     1      15.691  -1.202  21.798  1.00  0.00    -0.003 C 
ATOM      9  C   UNL     1      14.728  -1.312  20.874  1.00  0.00    -0.020 C 
BRANCH   9  10
ATOM     10  C   UNL     1      14.588  -0.483  19.620  1.00  0.00    -0.010 CG0
ATOM     11  C   UNL     1      13.573  -1.183  18.687  1.00  0.00     0.016 C 
ATOM     12  C   UNL     1      14.028   0.915  19.970  1.00  0.00     0.016 C 
ATOM     13  G   UNL     1      15.947  -0.414  18.888  1.00  0.00     0.000 G0
ENDBRANCH   9  10
ENDBRANCH   3   8
TORSDOF 0
ENDMDL
MODEL 3
REMARK VINA RESULT:    -3.016      3.064      5.447
REMARK INTER + INTRA:          -2.965
REMARK INTER:                  -3.715
REMARK INTRA:                   0.749
REMARK UNBOUND:                 0.756
REMARK SMILES CC1=CC=CC(C)(C)CC1=O
REMARK SMILES IDX 1 1 2 2 3 3 10 4 11 5 9 6 4 8 5 9 6 10 7 11 8 12
REMARK H PARENT
REMARK Flexibility Score: 80.00
ROOT
ATOM      1  C   UNL     1      14.248  16.298  24.966  1.00  0.00     0.048 C 
ATOM      2  C   UNL     1      15.039  15.055  25.296  1.00  0.00    -0.008 C 
ATOM      3  C   UNL     1      15.823  15.085  26.394  1.00  0.00     0.007 C 
ENDROOT
BRANCH   2   4
ATOM      4  C   UNL     1      14.831  13.872  24.424  1.00  0.00     0.159 C 
ATOM      5  O   UNL     1      13.876  13.883  23.599  1.00  0.00    -0.295 OA
BRANCH   4   6
ATOM      6  C   UNL     1      15.709  12.658  24.456  1.00  0.00     0.091 CG0
ATOM      7  G   UNL     1      15.742  11.967  25.837  1.00  0.00     0.000 G0
ENDBRANCH   4   6
ENDBRANCH   2   4
BRANCH   3   8
ATOM      8  C   UNL     1      16.684  14.029  26.978  1.00  0.00    -0.003 C 
ATOM      9  C   UNL     1      16.659  12.707  26.766  1.00  0.00    -0.020 C 
BRANCH   9  10
ATOM     10  C   UNL     1      15.736  11.966  25.829  1.00  0.00    -0.010 CG0
ATOM     11  C   UNL     1      16.295  10.539  25.624  1.00  0.00     0.016 C 
ATOM     12  C   UNL     1      14.331  11.840  26.461  1.00  0.00     0.016 C 
ATOM     13  G   UNL     1      15.709  12.674  24.456  1.00  0.00     0.000 G0
ENDBRANCH   9  10
ENDBRANCH   3   8
TORSDOF 0
ENDMDL
MODEL 4
REMARK VINA RESULT:    -2.864      1.076      1.413
REMARK INTER + INTRA:          -2.777
REMARK INTER:                  -3.538
REMARK INTRA:                   0.760
REMARK UNBOUND:                 0.756
REMARK SMILES CC1=CC=CC(C)(C)CC1=O
REMARK SMILES IDX 1 1 2 2 3 3 10 4 11 5 9 6 4 8 5 9 6 10 7 11 8 12
REMARK H PARENT
REMARK Flexibility Score: 80.00
ROOT
ATOM      1  C   UNL     1      15.279   7.325  25.872  1.00  0.00     0.048 C 
ATOM      2  C   UNL     1      14.995   8.802  25.739  1.00  0.00    -0.008 C 
ATOM      3  C   UNL     1      13.705   9.197  25.775  1.00  0.00     0.007 C 
ENDROOT
BRANCH   2   4
ATOM      4  C   UNL     1      16.167   9.710  25.655  1.00  0.00     0.159 C 
ATOM      5  O   UNL     1      17.317   9.241  25.876  1.00  0.00    -0.295 OA
BRANCH   4   6
ATOM      6  C   UNL     1      16.062  11.162  25.305  1.00  0.00     0.091 CG0
ATOM      7  G   UNL     1      15.160  11.959  26.272  1.00  0.00     0.000 G0
ENDBRANCH   4   6
ENDBRANCH   2   4
BRANCH   3   8
ATOM      8  C   UNL     1      13.124  10.558  25.696  1.00  0.00    -0.003 C 
ATOM      9  C   UNL     1      13.713  11.741  25.913  1.00  0.00    -0.020 C 
BRANCH   9  10
ATOM     10  C   UNL     1      15.162  11.969  26.272  1.00  0.00    -0.010 CG0
ATOM     11  C   UNL     1      15.478  13.471  26.082  1.00  0.00     0.016 C 
ATOM     12  C   UNL     1      15.400  11.617  27.758  1.00  0.00     0.016 C 
ATOM     13  G   UNL     1      16.069  11.163  25.316  1.00  0.00     0.000 G0
ENDBRANCH   9  10
ENDBRANCH   3   8
TORSDOF 0
ENDMDL
MODEL 5
REMARK VINA RESULT:    -2.847      1.442      2.043
REMARK INTER + INTRA:          -2.757
REMARK INTER:                  -3.516
REMARK INTRA:                   0.760
REMARK UNBOUND:                 0.756
REMARK SMILES CC1=CC=CC(C)(C)CC1=O
REMARK SMILES IDX 1 1 2 2 3 3 10 4 11 5 9 6 4 8 5 9 6 10 7 11 8 12
REMARK H PARENT
REMARK Flexibility Score: 80.00
ROOT
ATOM      1  C   UNL     1      17.302   8.731  25.027  1.00  0.00     0.048 C 
ATOM      2  C   UNL     1      15.810   8.922  25.160  1.00  0.00    -0.008 C 
ATOM      3  C   UNL     1      15.015   7.884  24.825  1.00  0.00     0.007 C 
ENDROOT
BRANCH   2   4
ATOM      4  C   UNL     1      15.342  10.214  25.721  1.00  0.00     0.159 C 
ATOM      5  O   UNL     1      16.186  10.992  26.245  1.00  0.00    -0.295 OA
BRANCH   4   6
ATOM      6  C   UNL     1      13.912  10.659  25.687  1.00  0.00     0.091 CG0
ATOM      7  G   UNL     1      12.957   9.697  26.428  1.00  0.00     0.000 G0
ENDBRANCH   4   6
ENDBRANCH   2   4
BRANCH   3   8
ATOM      8  C   UNL     1      13.538   7.763  24.873  1.00  0.00    -0.003 C 
ATOM      9  C   UNL     1      12.651   8.509  25.545  1.00  0.00    -0.020 C 
BRANCH   9  10
ATOM     10  C   UNL     1      12.960   9.703  26.415  1.00  0.00    -0.010 CG0
ATOM     11  C   UNL     1      11.640  10.461  26.685  1.00  0.00     0.016 C 
ATOM     12  C   UNL     1      13.526   9.233  27.775  1.00  0.00     0.016 C 
ATOM     13  G   UNL     1      13.919  10.657  25.670  1.00  0.00     0.000 G0
ENDBRANCH   9  10
ENDBRANCH   3   8
TORSDOF 0
ENDMDL
MODEL 6
REMARK VINA RESULT:    -2.768      9.279     10.513
REMARK INTER + INTRA:          -2.660
REMARK INTER:                  -3.416
REMARK INTRA:                   0.756
REMARK UNBOUND:                 0.756
REMARK SMILES CC1=CC=CC(C)(C)CC1=O
REMARK SMILES IDX 1 1 2 2 3 3 10 4 11 5 9 6 4 8 5 9 6 10 7 11 8 12
REMARK H PARENT
REMARK Flexibility Score: 80.00
ROOT
ATOM      1  C   UNL     1      14.673   7.054  17.492  1.00  0.00     0.048 C 
ATOM      2  C   UNL     1      15.110   5.610  17.540  1.00  0.00    -0.008 C 
ATOM      3  C   UNL     1      16.393   5.354  17.870  1.00  0.00     0.007 C 
ENDROOT
BRANCH   2   4
ATOM      4  C   UNL     1      14.068   4.581  17.293  1.00  0.00     0.159 C 
ATOM      5  O   UNL     1      12.861   4.942  17.225  1.00  0.00    -0.295 OA
BRANCH   4   6
ATOM      6  C   UNL     1      14.372   3.127  17.103  1.00  0.00     0.091 CG0
ATOM      7  G   UNL     1      15.120   2.500  18.300  1.00  0.00     0.000 G0
ENDBRANCH   4   6
ENDBRANCH   2   4
BRANCH   3   8
ATOM      8  C   UNL     1      17.097   4.058  18.022  1.00  0.00    -0.003 C 
ATOM      9  C   UNL     1      16.583   2.836  18.215  1.00  0.00    -0.020 C 
BRANCH   9  10
ATOM     10  C   UNL     1      15.118   2.482  18.295  1.00  0.00    -0.010 CG0
ATOM     11  C   UNL     1      14.983   0.947  18.168  1.00  0.00     0.016 C 
ATOM     12  C   UNL     1      14.548   2.897  19.671  1.00  0.00     0.016 C 
ATOM     13  G   UNL     1      14.359   3.131  17.117  1.00  0.00     0.000 G0
ENDBRANCH   9  10
ENDBRANCH   3   8
TORSDOF 0
ENDMDL
MODEL 7
REMARK VINA RESULT:    -2.765      9.948     11.087
REMARK INTER + INTRA:          -2.655
REMARK INTER:                  -3.397
REMARK INTRA:                   0.741
REMARK UNBOUND:                 0.756
REMARK SMILES CC1=CC=CC(C)(C)CC1=O
REMARK SMILES IDX 1 1 2 2 3 3 10 4 11 5 9 6 4 8 5 9 6 10 7 11 8 12
REMARK H PARENT
REMARK Flexibility Score: 80.00
ROOT
ATOM      1  C   UNL     1      16.110  -0.943  21.938  1.00  0.00     0.048 C 
ATOM      2  C   UNL     1      15.887  -0.395  20.549  1.00  0.00    -0.008 C 
ATOM      3  C   UNL     1      14.723  -0.698  19.936  1.00  0.00     0.007 C 
ENDROOT
BRANCH   2   4
ATOM      4  C   UNL     1      16.938   0.497  19.998  1.00  0.00     0.159 C 
ATOM      5  O   UNL     1      17.856   0.901  20.763  1.00  0.00    -0.295 OA
BRANCH   4   6
ATOM      6  C   UNL     1      16.979   0.939  18.567  1.00  0.00     0.091 CG0
ATOM      7  G   UNL     1      15.704   1.692  18.125  1.00  0.00     0.000 G0
ENDBRANCH   4   6
ENDBRANCH   2   4
BRANCH   3   8
ATOM      8  C   UNL     1      14.215  -0.292  18.604  1.00  0.00    -0.003 C 
ATOM      9  C   UNL     1      14.607   0.724  17.825  1.00  0.00    -0.020 C 
BRANCH   9  10
ATOM     10  C   UNL     1      15.715   1.705  18.121  1.00  0.00    -0.010 CG0
ATOM     11  C   UNL     1      16.067   2.450  16.811  1.00  0.00     0.016 C 
ATOM     12  C   UNL     1      15.232   2.754  19.149  1.00  0.00     0.016 C 
ATOM     13  G   UNL     1      16.974   0.944  18.593  1.00  0.00     0.000 G0
ENDBRANCH   9  10
ENDBRANCH   3   8
TORSDOF 0
ENDMDL
MODEL 8
REMARK VINA RESULT:    -2.758      2.235      4.219
REMARK INTER + INTRA:          -2.647
REMARK INTER:                  -3.392
REMARK INTRA:                   0.745
REMARK UNBOUND:                 0.756
REMARK SMILES CC1=CC=CC(C)(C)CC1=O
REMARK SMILES IDX 1 1 2 2 3 3 10 4 11 5 9 6 4 8 5 9 6 10 7 11 8 12
REMARK H PARENT
REMARK Flexibility Score: 80.00
ROOT
ATOM      1  C   UNL     1      16.750  14.912  26.523  1.00  0.00     0.048 C 
ATOM      2  C   UNL     1      16.360  13.464  26.702  1.00  0.00    -0.008 C 
ATOM      3  C   UNL     1      15.936  13.076  27.923  1.00  0.00     0.007 C 
ENDROOT
BRANCH   2   4
ATOM      4  C   UNL     1      16.404  12.599  25.496  1.00  0.00     0.159 C 
ATOM      5  O   UNL     1      16.567  13.137  24.366  1.00  0.00    -0.295 OA
BRANCH   4   6
ATOM      6  C   UNL     1      16.278  11.107  25.545  1.00  0.00     0.091 CG0
ATOM      7  G   UNL     1      14.947  10.628  26.166  1.00  0.00     0.000 G0
ENDBRANCH   4   6
ENDBRANCH   2   4
BRANCH   3   8
ATOM      8  C   UNL     1      15.469  11.750  28.392  1.00  0.00    -0.003 C 
ATOM      9  C   UNL     1      15.038  10.705  27.674  1.00  0.00    -0.020 C 
BRANCH   9  10
ATOM     10  C   UNL     1      14.953  10.624  26.169  1.00  0.00    -0.010 CG0
ATOM     11  C   UNL     1      14.770   9.141  25.772  1.00  0.00     0.016 C 
ATOM     12  C   UNL     1      13.719  11.408  25.667  1.00  0.00     0.016 C 
ATOM     13  G   UNL     1      16.273  11.129  25.545  1.00  0.00     0.000 G0
ENDBRANCH   9  10
ENDBRANCH   3   8
TORSDOF 0
ENDMDL
MODEL 9
REMARK VINA RESULT:    -2.586      1.966      3.098
REMARK INTER + INTRA:          -2.435
REMARK INTER:                  -3.190
REMARK INTRA:                   0.754
REMARK UNBOUND:                 0.756
REMARK SMILES CC1=CC=CC(C)(C)CC1=O
REMARK SMILES IDX 1 1 2 2 3 3 10 4 11 5 9 6 4 8 5 9 6 10 7 11 8 12
REMARK H PARENT
REMARK Flexibility Score: 80.00
ROOT
ATOM      1  C   UNL     1      16.623   8.746  25.046  1.00  0.00     0.048 C 
ATOM      2  C   UNL     1      16.107  10.008  25.693  1.00  0.00    -0.008 C 
ATOM      3  C   UNL     1      16.740  11.165  25.402  1.00  0.00     0.007 C 
ENDROOT
BRANCH   2   4
ATOM      4  C   UNL     1      14.895   9.886  26.541  1.00  0.00     0.159 C 
ATOM      5  O   UNL     1      14.249   8.802  26.527  1.00  0.00    -0.295 OA
BRANCH   4   6
ATOM      6  C   UNL     1      14.397  10.981  27.433  1.00  0.00     0.091 CG0
ATOM      7  G   UNL     1      14.056  12.280  26.670  1.00  0.00     0.000 G0
ENDBRANCH   4   6
ENDBRANCH   2   4
BRANCH   3   8
ATOM      8  C   UNL     1      16.453  12.547  25.855  1.00  0.00    -0.003 C 
ATOM      9  C   UNL     1      15.329  13.045  26.385  1.00  0.00    -0.020 C 
BRANCH   9  10
ATOM     10  C   UNL     1      14.061  12.281  26.680  1.00  0.00    -0.010 CG0
ATOM     11  C   UNL     1      13.177  13.147  27.607  1.00  0.00     0.016 C 
ATOM     12  C   UNL     1      13.277  12.033  25.370  1.00  0.00     0.016 C 
ATOM     13  G   UNL     1      14.402  10.972  27.425  1.00  0.00     0.000 G0
ENDBRANCH   9  10
ENDBRANCH   3   8
TORSDOF 0
ENDMDL
