MODEL 1
REMARK VINA RESULT:    -4.047      0.000      0.000
REMARK INTER + INTRA:          -7.484
REMARK INTER:                  -6.532
REMARK INTRA:                  -0.953
REMARK UNBOUND:                -0.953
REMARK SMILES CCCCCCCCCCCCO
REMARK SMILES IDX 7 1 6 2 5 3 4 4 3 5 2 6 1 7 8 8 9 9 10 10 11 11 12 12 13 13
REMARK H PARENT 13 14
REMARK Flexibility Score: inf
ROOT
ATOM      1  C   UNL     1     178.414 168.462 185.200  1.00  0.00     0.000 C 
ENDROOT
BRANCH   1   2
ATOM      2  C   UNL     1     177.886 169.507 186.198  1.00  0.00    -0.000 C 
BRANCH   2   3
ATOM      3  C   UNL     1     177.883 170.934 185.620  1.00  0.00    -0.000 C 
BRANCH   3   4
ATOM      4  C   UNL     1     176.484 171.556 185.438  1.00  0.00    -0.000 C 
BRANCH   4   5
ATOM      5  C   UNL     1     175.329 170.778 186.099  1.00  0.00    -0.000 C 
BRANCH   5   6
ATOM      6  C   UNL     1     174.361 170.098 185.116  1.00  0.00    -0.003 C 
ATOM      7  C   UNL     1     174.947 169.946 183.713  1.00  0.00     0.004 C 
ENDBRANCH   5   6
ENDBRANCH   4   5
ENDBRANCH   3   4
ENDBRANCH   2   3
ENDBRANCH   1   2
BRANCH   1   8
ATOM      8  C   UNL     1     178.667 169.055 183.804  1.00  0.00     0.000 C 
BRANCH   8   9
ATOM      9  C   UNL     1     178.192 168.126 182.674  1.00  0.00     0.000 C 
BRANCH   9  10
ATOM     10  C   UNL     1     178.834 166.732 182.748  1.00  0.00     0.002 C 
BRANCH  10  11
ATOM     11  C   UNL     1     180.315 166.741 182.345  1.00  0.00     0.028 C 
BRANCH  11  12
ATOM     12  C   UNL     1     181.076 165.593 183.013  1.00  0.00     0.156 C 
BRANCH  12  13
ATOM     13  O   UNL     1     180.862 164.398 182.314  1.00  0.00    -0.396 OA
ATOM     14  H   UNL     1     180.527 163.737 182.975  1.00  0.00     0.210 HD
ENDBRANCH  12  13
ENDBRANCH  11  12
ENDBRANCH  10  11
ENDBRANCH   9  10
ENDBRANCH   8   9
ENDBRANCH   1   8
TORSDOF 11
ENDMDL
MODEL 2
REMARK VINA RESULT:    -3.953      1.471      2.062
REMARK INTER + INTRA:          -7.332
REMARK INTER:                  -6.602
REMARK INTRA:                  -0.730
REMARK UNBOUND:                -0.953
REMARK SMILES CCCCCCCCCCCCO
REMARK SMILES IDX 7 1 6 2 5 3 4 4 3 5 2 6 1 7 8 8 9 9 10 10 11 11 12 12 13 13
REMARK H PARENT 13 14
REMARK Flexibility Score: inf
ROOT
ATOM      1  C   UNL     1     178.670 168.270 184.964  1.00  0.00     0.000 C 
ENDROOT
BRANCH   1   2
ATOM      2  C   UNL     1     177.905 169.027 186.064  1.00  0.00    -0.000 C 
BRANCH   2   3
ATOM      3  C   UNL     1     178.012 170.556 185.919  1.00  0.00    -0.000 C 
BRANCH   3   4
ATOM      4  C   UNL     1     176.669 171.310 186.005  1.00  0.00    -0.000 C 
BRANCH   4   5
ATOM      5  C   UNL     1     176.492 172.451 184.984  1.00  0.00    -0.000 C 
BRANCH   5   6
ATOM      6  C   UNL     1     177.461 172.409 183.791  1.00  0.00    -0.003 C 
ATOM      7  C   UNL     1     177.819 173.798 183.264  1.00  0.00     0.004 C 
ENDBRANCH   5   6
ENDBRANCH   4   5
ENDBRANCH   3   4
ENDBRANCH   2   3
ENDBRANCH   1   2
BRANCH   1   8
ATOM      8  C   UNL     1     178.352 168.797 183.556  1.00  0.00     0.000 C 
BRANCH   8   9
ATOM      9  C   UNL     1     179.454 168.459 182.537  1.00  0.00     0.000 C 
BRANCH   9  10
ATOM     10  C   UNL     1     180.645 167.729 183.177  1.00  0.00     0.002 C 
BRANCH  10  11
ATOM     11  C   UNL     1     181.181 166.589 182.299  1.00  0.00     0.028 C 
BRANCH  11  12
ATOM     12  C   UNL     1     181.221 165.269 183.073  1.00  0.00     0.156 C 
BRANCH  12  13
ATOM     13  O   UNL     1     179.950 164.680 183.094  1.00  0.00    -0.396 OA
ATOM     14  H   UNL     1     179.951 164.028 183.844  1.00  0.00     0.210 HD
ENDBRANCH  12  13
ENDBRANCH  11  12
ENDBRANCH  10  11
ENDBRANCH   9  10
ENDBRANCH   8   9
ENDBRANCH   1   8
TORSDOF 11
ENDMDL
MODEL 3
REMARK VINA RESULT:    -3.898     11.420     14.812
REMARK INTER + INTRA:          -7.244
REMARK INTER:                  -6.406
REMARK INTRA:                  -0.838
REMARK UNBOUND:                -0.953
REMARK SMILES CCCCCCCCCCCCO
REMARK SMILES IDX 7 1 6 2 5 3 4 4 3 5 2 6 1 7 8 8 9 9 10 10 11 11 12 12 13 13
REMARK H PARENT 13 14
REMARK Flexibility Score: inf
ROOT
ATOM      1  C   UNL     1     165.955 175.596 185.322  1.00  0.00     0.000 C 
ENDROOT
BRANCH   1   2
ATOM      2  C   UNL     1     166.459 174.389 186.133  1.00  0.00    -0.000 C 
BRANCH   2   3
ATOM      3  C   UNL     1     166.644 173.128 185.271  1.00  0.00    -0.000 C 
BRANCH   3   4
ATOM      4  C   UNL     1     168.094 172.610 185.182  1.00  0.00    -0.000 C 
BRANCH   4   5
ATOM      5  C   UNL     1     169.100 173.317 186.113  1.00  0.00    -0.000 C 
BRANCH   5   6
ATOM      6  C   UNL     1     170.191 174.124 185.390  1.00  0.00    -0.003 C 
ATOM      7  C   UNL     1     169.811 174.489 183.956  1.00  0.00     0.004 C 
ENDBRANCH   5   6
ENDBRANCH   4   5
ENDBRANCH   3   4
ENDBRANCH   2   3
ENDBRANCH   1   2
BRANCH   1   8
ATOM      8  C   UNL     1     166.014 175.352 183.805  1.00  0.00     0.000 C 
BRANCH   8   9
ATOM      9  C   UNL     1     165.564 176.579 182.994  1.00  0.00     0.000 C 
BRANCH   9  10
ATOM     10  C   UNL     1     164.271 177.205 183.539  1.00  0.00     0.002 C 
BRANCH  10  11
ATOM     11  C   UNL     1     163.372 177.765 182.427  1.00  0.00     0.028 C 
BRANCH  11  12
ATOM     12  C   UNL     1     163.765 179.202 182.071  1.00  0.00     0.156 C 
BRANCH  12  13
ATOM     13  O   UNL     1     164.267 179.861 183.201  1.00  0.00    -0.396 OA
ATOM     14  H   UNL     1     164.585 179.156 183.824  1.00  0.00     0.210 HD
ENDBRANCH  12  13
ENDBRANCH  11  12
ENDBRANCH  10  11
ENDBRANCH   9  10
ENDBRANCH   8   9
ENDBRANCH   1   8
TORSDOF 11
ENDMDL
MODEL 4
REMARK VINA RESULT:    -3.896     11.670     14.379
REMARK INTER + INTRA:          -7.239
REMARK INTER:                  -6.308
REMARK INTRA:                  -0.931
REMARK UNBOUND:                -0.953
REMARK SMILES CCCCCCCCCCCCO
REMARK SMILES IDX 7 1 6 2 5 3 4 4 3 5 2 6 1 7 8 8 9 9 10 10 11 11 12 12 13 13
REMARK H PARENT 13 14
REMARK Flexibility Score: inf
ROOT
ATOM      1  C   UNL     1     166.636 175.557 185.455  1.00  0.00     0.000 C 
ENDROOT
BRANCH   1   2
ATOM      2  C   UNL     1     166.325 174.263 186.228  1.00  0.00    -0.000 C 
BRANCH   2   3
ATOM      3  C   UNL     1     167.505 173.275 186.231  1.00  0.00    -0.000 C 
BRANCH   3   4
ATOM      4  C   UNL     1     168.629 173.604 185.228  1.00  0.00    -0.000 C 
BRANCH   4   5
ATOM      5  C   UNL     1     168.638 172.745 183.948  1.00  0.00    -0.000 C 
BRANCH   5   6
ATOM      6  C   UNL     1     167.768 171.479 184.013  1.00  0.00    -0.003 C 
ATOM      7  C   UNL     1     166.592 171.514 183.039  1.00  0.00     0.004 C 
ENDBRANCH   5   6
ENDBRANCH   4   5
ENDBRANCH   3   4
ENDBRANCH   2   3
ENDBRANCH   1   2
BRANCH   1   8
ATOM      8  C   UNL     1     165.484 175.982 184.530  1.00  0.00     0.000 C 
BRANCH   8   9
ATOM      9  C   UNL     1     165.650 175.448 183.097  1.00  0.00     0.000 C 
BRANCH   9  10
ATOM     10  C   UNL     1     165.812 176.572 182.063  1.00  0.00     0.002 C 
BRANCH  10  11
ATOM     11  C   UNL     1     164.782 177.696 182.246  1.00  0.00     0.028 C 
BRANCH  11  12
ATOM     12  C   UNL     1     165.469 179.056 182.395  1.00  0.00     0.156 C 
BRANCH  12  13
ATOM     13  O   UNL     1     164.678 179.917 183.166  1.00  0.00    -0.396 OA
ATOM     14  H   UNL     1     163.744 179.807 182.847  1.00  0.00     0.210 HD
ENDBRANCH  12  13
ENDBRANCH  11  12
ENDBRANCH  10  11
ENDBRANCH   9  10
ENDBRANCH   8   9
ENDBRANCH   1   8
TORSDOF 11
ENDMDL
MODEL 5
REMARK VINA RESULT:    -3.884      1.478      2.099
REMARK INTER + INTRA:          -7.220
REMARK INTER:                  -6.512
REMARK INTRA:                  -0.708
REMARK UNBOUND:                -0.953
REMARK SMILES CCCCCCCCCCCCO
REMARK SMILES IDX 7 1 6 2 5 3 4 4 3 5 2 6 1 7 8 8 9 9 10 10 11 11 12 12 13 13
REMARK H PARENT 13 14
REMARK Flexibility Score: inf
ROOT
ATOM      1  C   UNL     1     177.897 170.307 186.409  1.00  0.00     0.000 C 
ENDROOT
BRANCH   1   2
ATOM      2  C   UNL     1     177.508 171.352 185.348  1.00  0.00    -0.000 C 
BRANCH   2   3
ATOM      3  C   UNL     1     176.086 171.906 185.553  1.00  0.00    -0.000 C 
BRANCH   3   4
ATOM      4  C   UNL     1     175.079 170.903 186.151  1.00  0.00    -0.000 C 
BRANCH   4   5
ATOM      5  C   UNL     1     174.491 169.888 185.151  1.00  0.00    -0.000 C 
BRANCH   5   6
ATOM      6  C   UNL     1     173.384 170.445 184.240  1.00  0.00    -0.003 C 
ATOM      7  C   UNL     1     172.291 171.179 185.014  1.00  0.00     0.004 C 
ENDBRANCH   5   6
ENDBRANCH   4   5
ENDBRANCH   3   4
ENDBRANCH   2   3
ENDBRANCH   1   2
BRANCH   1   8
ATOM      8  C   UNL     1     178.064 168.899 185.815  1.00  0.00     0.000 C 
BRANCH   8   9
ATOM      9  C   UNL     1     178.268 168.923 184.291  1.00  0.00     0.000 C 
BRANCH   9  10
ATOM     10  C   UNL     1     178.892 167.623 183.759  1.00  0.00     0.002 C 
BRANCH  10  11
ATOM     11  C   UNL     1     180.426 167.679 183.716  1.00  0.00     0.028 C 
BRANCH  11  12
ATOM     12  C   UNL     1     181.036 166.298 183.975  1.00  0.00     0.156 C 
BRANCH  12  13
ATOM     13  O   UNL     1     181.537 166.227 185.281  1.00  0.00    -0.396 OA
ATOM     14  H   UNL     1     182.401 166.717 185.281  1.00  0.00     0.210 HD
ENDBRANCH  12  13
ENDBRANCH  11  12
ENDBRANCH  10  11
ENDBRANCH   9  10
ENDBRANCH   8   9
ENDBRANCH   1   8
TORSDOF 11
ENDMDL
MODEL 6
REMARK VINA RESULT:    -3.800      8.547     11.313
REMARK INTER + INTRA:          -7.085
REMARK INTER:                  -6.027
REMARK INTRA:                  -1.058
REMARK UNBOUND:                -0.953
REMARK SMILES CCCCCCCCCCCCO
REMARK SMILES IDX 7 1 6 2 5 3 4 4 3 5 2 6 1 7 8 8 9 9 10 10 11 11 12 12 13 13
REMARK H PARENT 13 14
REMARK Flexibility Score: inf
ROOT
ATOM      1  C   UNL     1     167.407 172.769 184.801  1.00  0.00     0.000 C 
ENDROOT
BRANCH   1   2
ATOM      2  C   UNL     1     167.280 173.462 186.169  1.00  0.00    -0.000 C 
BRANCH   2   3
ATOM      3  C   UNL     1     166.104 174.454 186.226  1.00  0.00    -0.000 C 
BRANCH   3   4
ATOM      4  C   UNL     1     166.368 175.812 185.545  1.00  0.00    -0.000 C 
BRANCH   4   5
ATOM      5  C   UNL     1     165.327 176.228 184.486  1.00  0.00    -0.000 C 
BRANCH   5   6
ATOM      6  C   UNL     1     165.481 175.535 183.122  1.00  0.00    -0.003 C 
ATOM      7  C   UNL     1     166.829 175.815 182.461  1.00  0.00     0.004 C 
ENDBRANCH   5   6
ENDBRANCH   4   5
ENDBRANCH   3   4
ENDBRANCH   2   3
ENDBRANCH   1   2
BRANCH   1   8
ATOM      8  C   UNL     1     168.746 173.071 184.109  1.00  0.00     0.000 C 
BRANCH   8   9
ATOM      9  C   UNL     1     169.604 174.074 184.900  1.00  0.00     0.000 C 
BRANCH   9  10
ATOM     10  C   UNL     1     171.007 174.251 184.298  1.00  0.00     0.002 C 
BRANCH  10  11
ATOM     11  C   UNL     1     172.065 173.392 185.003  1.00  0.00     0.028 C 
BRANCH  11  12
ATOM     12  C   UNL     1     173.465 173.989 184.831  1.00  0.00     0.156 C 
BRANCH  12  13
ATOM     13  O   UNL     1     173.383 175.247 184.220  1.00  0.00    -0.396 OA
ATOM     14  H   UNL     1     172.480 175.306 183.810  1.00  0.00     0.210 HD
ENDBRANCH  12  13
ENDBRANCH  11  12
ENDBRANCH  10  11
ENDBRANCH   9  10
ENDBRANCH   8   9
ENDBRANCH   1   8
TORSDOF 11
ENDMDL
MODEL 7
REMARK VINA RESULT:    -3.797      3.652      5.907
REMARK INTER + INTRA:          -7.081
REMARK INTER:                  -5.555
REMARK INTRA:                  -1.526
REMARK UNBOUND:                -0.953
REMARK SMILES CCCCCCCCCCCCO
REMARK SMILES IDX 7 1 6 2 5 3 4 4 3 5 2 6 1 7 8 8 9 9 10 10 11 11 12 12 13 13
REMARK H PARENT 13 14
REMARK Flexibility Score: inf
ROOT
ATOM      1  C   UNL     1     177.543 168.738 185.336  1.00  0.00     0.000 C 
ENDROOT
BRANCH   1   2
ATOM      2  C   UNL     1     178.548 168.356 184.235  1.00  0.00    -0.000 C 
BRANCH   2   3
ATOM      3  C   UNL     1     178.491 169.302 183.022  1.00  0.00    -0.000 C 
BRANCH   3   4
ATOM      4  C   UNL     1     177.070 169.608 182.506  1.00  0.00    -0.000 C 
BRANCH   4   5
ATOM      5  C   UNL     1     176.659 171.093 182.561  1.00  0.00    -0.000 C 
BRANCH   5   6
ATOM      6  C   UNL     1     177.765 172.053 183.030  1.00  0.00    -0.003 C 
ATOM      7  C   UNL     1     177.215 173.338 183.647  1.00  0.00     0.004 C 
ENDBRANCH   5   6
ENDBRANCH   4   5
ENDBRANCH   3   4
ENDBRANCH   2   3
ENDBRANCH   1   2
BRANCH   1   8
ATOM      8  C   UNL     1     178.076 169.844 186.261  1.00  0.00     0.000 C 
BRANCH   8   9
ATOM      9  C   UNL     1     177.034 170.946 186.522  1.00  0.00     0.000 C 
BRANCH   9  10
ATOM     10  C   UNL     1     175.641 170.580 185.987  1.00  0.00     0.002 C 
BRANCH  10  11
ATOM     11  C   UNL     1     174.678 171.776 185.980  1.00  0.00     0.028 C 
BRANCH  11  12
ATOM     12  C   UNL     1     173.540 171.572 186.984  1.00  0.00     0.156 C 
BRANCH  12  13
ATOM     13  O   UNL     1     174.059 171.259 188.248  1.00  0.00    -0.396 OA
ATOM     14  H   UNL     1     173.283 171.193 188.865  1.00  0.00     0.210 HD
ENDBRANCH  12  13
ENDBRANCH  11  12
ENDBRANCH  10  11
ENDBRANCH   9  10
ENDBRANCH   8   9
ENDBRANCH   1   8
TORSDOF 11
ENDMDL
MODEL 8
REMARK VINA RESULT:    -3.777     10.154     12.861
REMARK INTER + INTRA:          -7.048
REMARK INTER:                  -5.867
REMARK INTRA:                  -1.181
REMARK UNBOUND:                -0.953
REMARK SMILES CCCCCCCCCCCCO
REMARK SMILES IDX 7 1 6 2 5 3 4 4 3 5 2 6 1 7 8 8 9 9 10 10 11 11 12 12 13 13
REMARK H PARENT 13 14
REMARK Flexibility Score: inf
ROOT
ATOM      1  C   UNL     1     166.555 175.841 185.391  1.00  0.00     0.000 C 
ENDROOT
BRANCH   1   2
ATOM      2  C   UNL     1     165.312 176.251 184.582  1.00  0.00    -0.000 C 
BRANCH   2   3
ATOM      3  C   UNL     1     165.662 177.063 183.323  1.00  0.00    -0.000 C 
BRANCH   3   4
ATOM      4  C   UNL     1     165.534 176.287 181.996  1.00  0.00    -0.000 C 
BRANCH   4   5
ATOM      5  C   UNL     1     166.871 175.890 181.337  1.00  0.00    -0.000 C 
BRANCH   5   6
ATOM      6  C   UNL     1     167.570 174.678 181.974  1.00  0.00    -0.003 C 
ATOM      7  C   UNL     1     169.063 174.907 182.206  1.00  0.00     0.004 C 
ENDBRANCH   5   6
ENDBRANCH   4   5
ENDBRANCH   3   4
ENDBRANCH   2   3
ENDBRANCH   1   2
BRANCH   1   8
ATOM      8  C   UNL     1     166.372 174.496 186.112  1.00  0.00     0.000 C 
BRANCH   8   9
ATOM      9  C   UNL     1     166.433 173.298 185.148  1.00  0.00     0.000 C 
BRANCH   9  10
ATOM     10  C   UNL     1     167.734 172.493 185.290  1.00  0.00     0.002 C 
BRANCH  10  11
ATOM     11  C   UNL     1     168.740 173.158 186.240  1.00  0.00     0.028 C 
BRANCH  11  12
ATOM     12  C   UNL     1     169.982 173.635 185.483  1.00  0.00     0.156 C 
BRANCH  12  13
ATOM     13  O   UNL     1     170.105 175.027 185.582  1.00  0.00    -0.396 OA
ATOM     14  H   UNL     1     170.718 175.311 184.853  1.00  0.00     0.210 HD
ENDBRANCH  12  13
ENDBRANCH  11  12
ENDBRANCH  10  11
ENDBRANCH   9  10
ENDBRANCH   8   9
ENDBRANCH   1   8
TORSDOF 11
ENDMDL
MODEL 9
REMARK VINA RESULT:    -3.762      1.326      2.276
REMARK INTER + INTRA:          -7.023
REMARK INTER:                  -5.966
REMARK INTRA:                  -1.057
REMARK UNBOUND:                -0.953
REMARK SMILES CCCCCCCCCCCCO
REMARK SMILES IDX 7 1 6 2 5 3 4 4 3 5 2 6 1 7 8 8 9 9 10 10 11 11 12 12 13 13
REMARK H PARENT 13 14
REMARK Flexibility Score: inf
ROOT
ATOM      1  C   UNL     1     177.995 169.661 186.134  1.00  0.00     0.000 C 
ENDROOT
BRANCH   1   2
ATOM      2  C   UNL     1     177.040 170.677 185.483  1.00  0.00    -0.000 C 
BRANCH   2   3
ATOM      3  C   UNL     1     175.603 170.141 185.350  1.00  0.00    -0.000 C 
BRANCH   3   4
ATOM      4  C   UNL     1     174.914 170.462 184.008  1.00  0.00    -0.000 C 
BRANCH   4   5
ATOM      5  C   UNL     1     175.528 169.771 182.774  1.00  0.00    -0.000 C 
BRANCH   5   6
ATOM      6  C   UNL     1     176.409 170.677 181.897  1.00  0.00    -0.003 C 
ATOM      7  C   UNL     1     176.128 172.164 182.107  1.00  0.00     0.004 C 
ENDBRANCH   5   6
ENDBRANCH   4   5
ENDBRANCH   3   4
ENDBRANCH   2   3
ENDBRANCH   1   2
BRANCH   1   8
ATOM      8  C   UNL     1     177.936 168.281 185.459  1.00  0.00     0.000 C 
BRANCH   8   9
ATOM      9  C   UNL     1     179.133 168.030 184.525  1.00  0.00     0.000 C 
BRANCH   9  10
ATOM     10  C   UNL     1     178.722 167.960 183.046  1.00  0.00     0.002 C 
BRANCH  10  11
ATOM     11  C   UNL     1     178.786 166.534 182.482  1.00  0.00     0.028 C 
BRANCH  11  12
ATOM     12  C   UNL     1     180.149 165.892 182.759  1.00  0.00     0.156 C 
BRANCH  12  13
ATOM     13  O   UNL     1     179.984 164.566 183.178  1.00  0.00    -0.396 OA
ATOM     14  H   UNL     1     179.748 164.600 184.143  1.00  0.00     0.210 HD
ENDBRANCH  12  13
ENDBRANCH  11  12
ENDBRANCH  10  11
ENDBRANCH   9  10
ENDBRANCH   8   9
ENDBRANCH   1   8
TORSDOF 11
ENDMDL
