MODEL 1
REMARK VINA RESULT:    13.826      0.000      0.000
REMARK INTER + INTRA:          24.295
REMARK INTER:                  20.696
REMARK INTRA:                   3.599
REMARK UNBOUND:                 3.599
REMARK SMILES C=C(CC[C@@H](C(=O)[O-])[C@@H]1[C@H](O)C[C@@]2(C)C3=C(CC[C@@]12C)[C@]1(C)CC[C@H](OC(C)=O)C(C)(C)[C@H]1CC3)C(C)C
REMARK SMILES IDX 4 1 5 2 6 3 7 4 8 5 9 6 10 7 19 8 12 9 13 10 18 11 20 12
REMARK SMILES IDX 14 13 15 14 17 15 16 16 35 17 21 18 34 19 33 20 23 21 22 22
REMARK SMILES IDX 30 23 24 24 25 25 31 26 32 27 11 28 26 30 27 31 29 32 28 33
REMARK SMILES IDX 3 34 2 35 1 36 36 37 37 38 38 39
REMARK H PARENT 11 29
REMARK Flexibility Score: inf
ROOT
ATOM      1  C   UNL     1      -6.089  34.623  24.678  1.00  0.00     0.014 C 
ENDROOT
BRANCH   1   2
ATOM      2  C   UNL     1      -4.949  35.030  25.659  1.00  0.00     0.042 C 
BRANCH   2   3
ATOM      3  C   UNL     1      -5.090  36.512  25.916  1.00  0.00     0.045 C 
ATOM      4  O   UNL     1      -4.287  37.336  25.401  1.00  0.00    -0.550 OA
ATOM      5  O   UNL     1      -6.125  36.977  26.722  1.00  0.00    -0.550 OA
ENDBRANCH   2   3
BRANCH   2   6
ATOM      6  C   UNL     1      -4.944  34.105  26.952  1.00  0.00     0.033 C 
ATOM      7  C   UNL     1      -3.660  34.084  27.838  1.00  0.00     0.119 C 
ATOM      8  C   UNL     1      -5.229  32.556  26.702  1.00  0.00    -0.017 C 
ATOM      9  C   UNL     1      -2.879  32.814  27.510  1.00  0.00     0.043 C 
ATOM     10  C   UNL     1      -3.794  31.871  26.686  1.00  0.00    -0.003 C 
ATOM     11  C   UNL     1      -6.122  32.000  27.875  1.00  0.00     0.012 C 
ATOM     12  C   UNL     1      -6.039  32.224  25.405  1.00  0.00     0.013 C 
ATOM     13  C   UNL     1      -3.192  31.808  25.243  1.00  0.00     0.017 C 
ATOM     14  C   UNL     1      -3.792  30.458  27.347  1.00  0.00    -0.064 C 
ATOM     15  C   UNL     1      -5.350  31.381  29.033  1.00  0.00     0.032 C 
ATOM     16  C   UNL     1      -4.454  30.264  28.532  1.00  0.00    -0.064 C 
ATOM     17  C   UNL     1      -2.891  29.367  26.752  1.00  0.00     0.032 C 
ATOM     18  C   UNL     1      -4.447  28.903  29.271  1.00  0.00    -0.008 C 
ATOM     19  C   UNL     1      -2.929  28.003  27.442  1.00  0.00     0.009 C 
ATOM     20  C   UNL     1      -3.084  28.181  28.958  1.00  0.00     0.009 C 
ATOM     21  C   UNL     1      -4.538  29.113  30.814  1.00  0.00     0.015 C 
ATOM     22  C   UNL     1      -5.717  28.158  28.777  1.00  0.00     0.016 C 
ATOM     23  C   UNL     1      -2.709  26.909  29.821  1.00  0.00     0.005 C 
ATOM     24  C   UNL     1      -4.287  27.833  31.622  1.00  0.00     0.047 C 
ATOM     25  C   UNL     1      -2.908  27.234  31.334  1.00  0.00     0.182 C 
ATOM     26  C   UNL     1      -1.207  26.556  29.610  1.00  0.00     0.015 C 
ATOM     27  C   UNL     1      -3.506  25.633  29.439  1.00  0.00     0.015 C 
BRANCH   7  28
ATOM     28  O   UNL     1      -2.817  35.200  27.728  1.00  0.00    -0.393 OA
ATOM     29  H   UNL     1      -2.617  35.507  28.653  1.00  0.00     0.210 HD
ENDBRANCH   7  28
BRANCH  25  30
ATOM     30  O   UNL     1      -1.917  28.174  31.774  1.00  0.00    -0.462 OA
BRANCH  30  31
ATOM     31  C   UNL     1      -2.110  29.557  31.848  1.00  0.00     0.302 C 
ATOM     32  O   UNL     1      -1.982  30.286  30.828  1.00  0.00    -0.253 OA
ATOM     33  C   UNL     1      -2.526  30.164  33.144  1.00  0.00     0.139 C 
ENDBRANCH  30  31
ENDBRANCH  25  30
ENDBRANCH   2   6
ENDBRANCH   1   2
BRANCH   1  34
ATOM     34  C   UNL     1      -6.125  35.523  23.432  1.00  0.00     0.031 C 
BRANCH  34  35
ATOM     35  C   UNL     1      -5.030  35.146  22.452  1.00  0.00    -0.075 C 
ATOM     36  C   UNL     1      -4.301  36.119  21.880  1.00  0.00     0.008 C 
BRANCH  35  37
ATOM     37  C   UNL     1      -4.799  33.693  22.059  1.00  0.00     0.008 C 
ATOM     38  C   UNL     1      -3.787  33.016  22.991  1.00  0.00     0.012 C 
ATOM     39  C   UNL     1      -6.122  32.920  22.027  1.00  0.00     0.012 C 
ENDBRANCH  35  37
ENDBRANCH  34  35
ENDBRANCH   1  34
TORSDOF 9
ENDMDL
