MODEL 1
REMARK VINA RESULT:    -4.903      0.000      0.000
REMARK INTER + INTRA:          -6.040
REMARK INTER:                  -5.906
REMARK INTRA:                  -0.133
REMARK UNBOUND:                -0.133
REMARK SMILES [NH3+][C@@H](Cc1cnc[nH]1)C(=O)[O-]
REMARK SMILES IDX 3 1 2 2 1 3 9 7 10 8 11 9 4 10 5 11 8 12 6 13 7 14
REMARK H PARENT 1 4 1 5 1 6 8 15
REMARK Flexibility Score: inf
ROOT
ATOM      1  C   UNL     1     -12.608 -27.101 -12.985  1.00  0.00     0.127 C 
ENDROOT
BRANCH   1   2
ATOM      2  C   UNL     1     -13.729 -26.583 -13.910  1.00  0.00     0.233 C 
BRANCH   2   3
ATOM      3  N   UNL     1     -13.621 -27.156 -15.259  1.00  0.00    -0.350 N 
ATOM      4  H   UNL     1     -12.655 -27.522 -15.418  1.00  0.00     0.345 HD
ATOM      5  H   UNL     1     -14.287 -27.958 -15.359  1.00  0.00     0.345 HD
ATOM      6  H   UNL     1     -13.839 -26.437 -15.987  1.00  0.00     0.345 HD
ENDBRANCH   2   3
BRANCH   2   7
ATOM      7  C   UNL     1     -13.680 -25.080 -13.977  1.00  0.00     0.099 C 
ATOM      8  O   UNL     1     -14.735 -24.401 -13.861  1.00  0.00    -0.544 OA
ATOM      9  O   UNL     1     -12.469 -24.434 -14.189  1.00  0.00    -0.544 OA
ENDBRANCH   2   7
ENDBRANCH   1   2
BRANCH   1  10
ATOM     10  C   UNL     1     -13.109 -28.161 -12.049  1.00  0.00     0.041 A 
ATOM     11  C   UNL     1     -14.388 -28.278 -11.552  1.00  0.00     0.134 A 
ATOM     12  N   UNL     1     -12.347 -29.124 -11.509  1.00  0.00    -0.348 N 
ATOM     13  N   UNL     1     -14.435 -29.325 -10.704  1.00  0.00    -0.245 NA
ATOM     14  C   UNL     1     -13.177 -29.815 -10.705  1.00  0.00     0.196 A 
ATOM     15  H   UNL     1     -11.330 -29.298 -11.670  1.00  0.00     0.167 HD
ENDBRANCH   1  10
TORSDOF 4
ENDMDL
MODEL 2
REMARK VINA RESULT:    -4.871      1.042      1.530
REMARK INTER + INTRA:          -6.001
REMARK INTER:                  -5.725
REMARK INTRA:                  -0.276
REMARK UNBOUND:                -0.133
REMARK SMILES [NH3+][C@@H](Cc1cnc[nH]1)C(=O)[O-]
REMARK SMILES IDX 3 1 2 2 1 3 9 7 10 8 11 9 4 10 5 11 8 12 6 13 7 14
REMARK H PARENT 1 4 1 5 1 6 8 15
REMARK Flexibility Score: inf
ROOT
ATOM      1  C   UNL     1     -12.707 -27.410 -13.007  1.00  0.00     0.127 C 
ENDROOT
BRANCH   1   2
ATOM      2  C   UNL     1     -13.926 -26.979 -13.849  1.00  0.00     0.233 C 
BRANCH   2   3
ATOM      3  N   UNL     1     -13.631 -27.029 -15.287  1.00  0.00    -0.350 N 
ATOM      4  H   UNL     1     -13.762 -26.084 -15.714  1.00  0.00     0.345 HD
ATOM      5  H   UNL     1     -12.634 -27.312 -15.436  1.00  0.00     0.345 HD
ATOM      6  H   UNL     1     -14.257 -27.713 -15.772  1.00  0.00     0.345 HD
ENDBRANCH   2   3
BRANCH   2   7
ATOM      7  C   UNL     1     -14.355 -25.591 -13.453  1.00  0.00     0.099 C 
ATOM      8  O   UNL     1     -14.333 -24.651 -14.291  1.00  0.00    -0.544 OA
ATOM      9  O   UNL     1     -14.759 -25.336 -12.148  1.00  0.00    -0.544 OA
ENDBRANCH   2   7
ENDBRANCH   1   2
BRANCH   1  10
ATOM     10  C   UNL     1     -13.094 -28.379 -11.930  1.00  0.00     0.041 A 
ATOM     11  C   UNL     1     -12.258 -29.257 -11.277  1.00  0.00     0.134 A 
ATOM     12  N   UNL     1     -14.347 -28.569 -11.489  1.00  0.00    -0.348 N 
ATOM     13  N   UNL     1     -12.984 -29.996 -10.414  1.00  0.00    -0.245 NA
ATOM     14  C   UNL     1     -14.248 -29.548 -10.570  1.00  0.00     0.196 A 
ATOM     15  H   UNL     1     -15.213 -28.072 -11.794  1.00  0.00     0.167 HD
ENDBRANCH   1  10
TORSDOF 4
ENDMDL
MODEL 3
REMARK VINA RESULT:    -4.810      1.982      2.314
REMARK INTER + INTRA:          -5.928
REMARK INTER:                  -5.695
REMARK INTRA:                  -0.232
REMARK UNBOUND:                -0.133
REMARK SMILES [NH3+][C@@H](Cc1cnc[nH]1)C(=O)[O-]
REMARK SMILES IDX 3 1 2 2 1 3 9 7 10 8 11 9 4 10 5 11 8 12 6 13 7 14
REMARK H PARENT 1 4 1 5 1 6 8 15
REMARK Flexibility Score: inf
ROOT
ATOM      1  C   UNL     1     -15.293 -27.143 -12.745  1.00  0.00     0.127 C 
ENDROOT
BRANCH   1   2
ATOM      2  C   UNL     1     -14.196 -26.058 -12.723  1.00  0.00     0.233 C 
BRANCH   2   3
ATOM      3  N   UNL     1     -14.769 -24.711 -12.844  1.00  0.00    -0.350 N 
ATOM      4  H   UNL     1     -14.721 -24.388 -13.837  1.00  0.00     0.345 HD
ATOM      5  H   UNL     1     -15.777 -24.726 -12.562  1.00  0.00     0.345 HD
ATOM      6  H   UNL     1     -14.254 -24.032 -12.237  1.00  0.00     0.345 HD
ENDBRANCH   2   3
BRANCH   2   7
ATOM      7  C   UNL     1     -13.210 -26.307 -13.833  1.00  0.00     0.099 C 
ATOM      8  O   UNL     1     -12.008 -25.952 -13.712  1.00  0.00    -0.544 OA
ATOM      9  O   UNL     1     -13.631 -26.914 -15.010  1.00  0.00    -0.544 OA
ENDBRANCH   2   7
ENDBRANCH   1   2
BRANCH   1  10
ATOM     10  C   UNL     1     -14.747 -28.488 -12.370  1.00  0.00     0.041 A 
ATOM     11  C   UNL     1     -14.349 -28.891 -11.115  1.00  0.00     0.134 A 
ATOM     12  N   UNL     1     -14.511 -29.484 -13.237  1.00  0.00    -0.348 N 
ATOM     13  N   UNL     1     -13.869 -30.149 -11.188  1.00  0.00    -0.245 NA
ATOM     14  C   UNL     1     -13.986 -30.476 -12.493  1.00  0.00     0.196 A 
ATOM     15  H   UNL     1     -14.688 -29.490 -14.265  1.00  0.00     0.167 HD
ENDBRANCH   1  10
TORSDOF 4
ENDMDL
MODEL 4
REMARK VINA RESULT:    -4.671      3.064      4.663
REMARK INTER + INTRA:          -5.760
REMARK INTER:                  -5.624
REMARK INTRA:                  -0.137
REMARK UNBOUND:                -0.133
REMARK SMILES [NH3+][C@@H](Cc1cnc[nH]1)C(=O)[O-]
REMARK SMILES IDX 3 1 2 2 1 3 9 7 10 8 11 9 4 10 5 11 8 12 6 13 7 14
REMARK H PARENT 1 4 1 5 1 6 8 15
REMARK Flexibility Score: inf
ROOT
ATOM      1  C   UNL     1     -15.112 -27.926 -12.544  1.00  0.00     0.127 C 
ENDROOT
BRANCH   1   2
ATOM      2  C   UNL     1     -14.029 -29.024 -12.589  1.00  0.00     0.233 C 
BRANCH   2   3
ATOM      3  N   UNL     1     -14.518 -30.234 -13.263  1.00  0.00    -0.350 N 
ATOM      4  H   UNL     1     -15.387 -30.018 -13.802  1.00  0.00     0.345 HD
ATOM      5  H   UNL     1     -13.799 -30.580 -13.940  1.00  0.00     0.345 HD
ATOM      6  H   UNL     1     -14.725 -30.988 -12.567  1.00  0.00     0.345 HD
ENDBRANCH   2   3
BRANCH   2   7
ATOM      7  C   UNL     1     -13.576 -29.352 -11.191  1.00  0.00     0.099 C 
ATOM      8  O   UNL     1     -14.418 -29.633 -10.297  1.00  0.00    -0.544 OA
ATOM      9  O   UNL     1     -12.223 -29.325 -10.876  1.00  0.00    -0.544 OA
ENDBRANCH   2   7
ENDBRANCH   1   2
BRANCH   1  10
ATOM     10  C   UNL     1     -14.663 -26.677 -13.243  1.00  0.00     0.041 A 
ATOM     11  C   UNL     1     -13.841 -26.604 -14.345  1.00  0.00     0.134 A 
ATOM     12  N   UNL     1     -14.957 -25.431 -12.842  1.00  0.00    -0.348 N 
ATOM     13  N   UNL     1     -13.626 -25.308 -14.648  1.00  0.00    -0.245 NA
ATOM     14  C   UNL     1     -14.321 -24.625 -13.714  1.00  0.00     0.196 A 
ATOM     15  H   UNL     1     -15.545 -25.144 -12.029  1.00  0.00     0.167 HD
ENDBRANCH   1  10
TORSDOF 4
ENDMDL
MODEL 5
REMARK VINA RESULT:    -4.635      3.288      4.689
REMARK INTER + INTRA:          -5.716
REMARK INTER:                  -5.570
REMARK INTRA:                  -0.146
REMARK UNBOUND:                -0.133
REMARK SMILES [NH3+][C@@H](Cc1cnc[nH]1)C(=O)[O-]
REMARK SMILES IDX 3 1 2 2 1 3 9 7 10 8 11 9 4 10 5 11 8 12 6 13 7 14
REMARK H PARENT 1 4 1 5 1 6 8 15
REMARK Flexibility Score: inf
ROOT
ATOM      1  C   UNL     1     -15.093 -28.179 -12.586  1.00  0.00     0.127 C 
ENDROOT
BRANCH   1   2
ATOM      2  C   UNL     1     -14.011 -29.273 -12.690  1.00  0.00     0.233 C 
BRANCH   2   3
ATOM      3  N   UNL     1     -14.391 -30.316 -13.652  1.00  0.00    -0.350 N 
ATOM      4  H   UNL     1     -15.406 -30.233 -13.889  1.00  0.00     0.345 HD
ATOM      5  H   UNL     1     -13.845 -30.200 -14.537  1.00  0.00     0.345 HD
ATOM      6  H   UNL     1     -14.208 -31.269 -13.258  1.00  0.00     0.345 HD
ENDBRANCH   2   3
BRANCH   2   7
ATOM      7  C   UNL     1     -13.766 -29.878 -11.333  1.00  0.00     0.099 C 
ATOM      8  O   UNL     1     -14.448 -29.515 -10.339  1.00  0.00    -0.544 OA
ATOM      9  O   UNL     1     -12.767 -30.831 -11.169  1.00  0.00    -0.544 OA
ENDBRANCH   2   7
ENDBRANCH   1   2
BRANCH   1  10
ATOM     10  C   UNL     1     -14.633 -26.886 -13.191  1.00  0.00     0.041 A 
ATOM     11  C   UNL     1     -14.834 -25.623 -12.680  1.00  0.00     0.134 A 
ATOM     12  N   UNL     1     -14.002 -26.778 -14.369  1.00  0.00    -0.348 N 
ATOM     13  N   UNL     1     -14.319 -24.716 -13.534  1.00  0.00    -0.245 NA
ATOM     14  C   UNL     1     -13.820 -25.455 -14.548  1.00  0.00     0.196 A 
ATOM     15  H   UNL     1     -13.718 -27.548 -15.014  1.00  0.00     0.167 HD
ENDBRANCH   1  10
TORSDOF 4
ENDMDL
MODEL 6
REMARK VINA RESULT:    -4.313      3.310      4.562
REMARK INTER + INTRA:          -5.329
REMARK INTER:                  -5.132
REMARK INTRA:                  -0.197
REMARK UNBOUND:                -0.133
REMARK SMILES [NH3+][C@@H](Cc1cnc[nH]1)C(=O)[O-]
REMARK SMILES IDX 3 1 2 2 1 3 9 7 10 8 11 9 4 10 5 11 8 12 6 13 7 14
REMARK H PARENT 1 4 1 5 1 6 8 15
REMARK Flexibility Score: inf
ROOT
ATOM      1  C   UNL     1     -14.562 -28.743 -11.300  1.00  0.00     0.127 C 
ENDROOT
BRANCH   1   2
ATOM      2  C   UNL     1     -13.217 -29.482 -11.456  1.00  0.00     0.233 C 
BRANCH   2   3
ATOM      3  N   UNL     1     -12.109 -28.543 -11.674  1.00  0.00    -0.350 N 
ATOM      4  H   UNL     1     -12.448 -27.559 -11.580  1.00  0.00     0.345 HD
ATOM      5  H   UNL     1     -11.366 -28.696 -10.953  1.00  0.00     0.345 HD
ATOM      6  H   UNL     1     -11.693 -28.672 -12.626  1.00  0.00     0.345 HD
ENDBRANCH   2   3
BRANCH   2   7
ATOM      7  C   UNL     1     -13.303 -30.461 -12.598  1.00  0.00     0.099 C 
ATOM      8  O   UNL     1     -13.283 -30.055 -13.790  1.00  0.00    -0.544 OA
ATOM      9  O   UNL     1     -13.426 -31.820 -12.338  1.00  0.00    -0.544 OA
ENDBRANCH   2   7
ENDBRANCH   1   2
BRANCH   1  10
ATOM     10  C   UNL     1     -14.562 -27.435 -12.034  1.00  0.00     0.041 A 
ATOM     11  C   UNL     1     -14.562 -26.178 -11.472  1.00  0.00     0.134 A 
ATOM     12  N   UNL     1     -14.626 -27.310 -13.368  1.00  0.00    -0.348 N 
ATOM     13  N   UNL     1     -14.616 -25.257 -12.455  1.00  0.00    -0.245 NA
ATOM     14  C   UNL     1     -14.651 -25.982 -13.593  1.00  0.00     0.196 A 
ATOM     15  H   UNL     1     -14.656 -28.073 -14.080  1.00  0.00     0.167 HD
ENDBRANCH   1  10
TORSDOF 4
ENDMDL
MODEL 7
REMARK VINA RESULT:    -4.055      2.717      3.513
REMARK INTER + INTRA:          -5.018
REMARK INTER:                  -5.087
REMARK INTRA:                   0.068
REMARK UNBOUND:                -0.133
REMARK SMILES [NH3+][C@@H](Cc1cnc[nH]1)C(=O)[O-]
REMARK SMILES IDX 3 1 2 2 1 3 9 7 10 8 11 9 4 10 5 11 8 12 6 13 7 14
REMARK H PARENT 1 4 1 5 1 6 8 15
REMARK Flexibility Score: inf
ROOT
ATOM      1  C   UNL     1     -13.379 -28.766 -13.260  1.00  0.00     0.127 C 
ENDROOT
BRANCH   1   2
ATOM      2  C   UNL     1     -13.775 -28.210 -11.877  1.00  0.00     0.233 C 
BRANCH   2   3
ATOM      3  N   UNL     1     -14.349 -29.257 -11.021  1.00  0.00    -0.350 N 
ATOM      4  H   UNL     1     -13.590 -29.753 -10.502  1.00  0.00     0.345 HD
ATOM      5  H   UNL     1     -14.990 -28.826 -10.314  1.00  0.00     0.345 HD
ATOM      6  H   UNL     1     -14.885 -29.951 -11.591  1.00  0.00     0.345 HD
ENDBRANCH   2   3
BRANCH   2   7
ATOM      7  C   UNL     1     -14.754 -27.078 -12.044  1.00  0.00     0.099 C 
ATOM      8  O   UNL     1     -15.658 -27.139 -12.919  1.00  0.00    -0.544 OA
ATOM      9  O   UNL     1     -14.650 -25.947 -11.243  1.00  0.00    -0.544 OA
ENDBRANCH   2   7
ENDBRANCH   1   2
BRANCH   1  10
ATOM     10  C   UNL     1     -13.659 -30.235 -13.366  1.00  0.00     0.041 A 
ATOM     11  C   UNL     1     -12.782 -31.260 -13.089  1.00  0.00     0.134 A 
ATOM     12  N   UNL     1     -14.809 -30.762 -13.814  1.00  0.00    -0.348 N 
ATOM     13  N   UNL     1     -13.384 -32.437 -13.353  1.00  0.00    -0.245 NA
ATOM     14  C   UNL     1     -14.615 -32.094 -13.790  1.00  0.00     0.196 A 
ATOM     15  H   UNL     1     -15.667 -30.253 -14.122  1.00  0.00     0.167 HD
ENDBRANCH   1  10
TORSDOF 4
ENDMDL
MODEL 8
REMARK VINA RESULT:    -3.954      7.870      8.945
REMARK INTER + INTRA:          -4.896
REMARK INTER:                  -4.763
REMARK INTRA:                  -0.134
REMARK UNBOUND:                -0.133
REMARK SMILES [NH3+][C@@H](Cc1cnc[nH]1)C(=O)[O-]
REMARK SMILES IDX 3 1 2 2 1 3 9 7 10 8 11 9 4 10 5 11 8 12 6 13 7 14
REMARK H PARENT 1 4 1 5 1 6 8 15
REMARK Flexibility Score: inf
ROOT
ATOM      1  C   UNL     1     -15.969 -35.447 -13.709  1.00  0.00     0.127 C 
ENDROOT
BRANCH   1   2
ATOM      2  C   UNL     1     -15.327 -34.160 -13.151  1.00  0.00     0.233 C 
BRANCH   2   3
ATOM      3  N   UNL     1     -15.262 -33.105 -14.171  1.00  0.00    -0.350 N 
ATOM      4  H   UNL     1     -14.275 -32.976 -14.492  1.00  0.00     0.345 HD
ATOM      5  H   UNL     1     -15.835 -33.378 -15.003  1.00  0.00     0.345 HD
ATOM      6  H   UNL     1     -15.620 -32.198 -13.791  1.00  0.00     0.345 HD
ENDBRANCH   2   3
BRANCH   2   7
ATOM      7  C   UNL     1     -13.948 -34.465 -12.627  1.00  0.00     0.099 C 
ATOM      8  O   UNL     1     -13.006 -34.724 -13.421  1.00  0.00    -0.544 OA
ATOM      9  O   UNL     1     -13.715 -34.481 -11.257  1.00  0.00    -0.544 OA
ENDBRANCH   2   7
ENDBRANCH   1   2
BRANCH   1  10
ATOM     10  C   UNL     1     -17.148 -35.877 -12.888  1.00  0.00     0.041 A 
ATOM     11  C   UNL     1     -17.227 -36.996 -12.089  1.00  0.00     0.134 A 
ATOM     12  N   UNL     1     -18.333 -35.249 -12.867  1.00  0.00    -0.348 N 
ATOM     13  N   UNL     1     -18.462 -37.069 -11.554  1.00  0.00    -0.245 NA
ATOM     14  C   UNL     1     -19.105 -35.989 -12.049  1.00  0.00     0.196 A 
ATOM     15  H   UNL     1     -18.604 -34.380 -13.378  1.00  0.00     0.167 HD
ENDBRANCH   1  10
TORSDOF 4
ENDMDL
MODEL 9
REMARK VINA RESULT:    -3.844      1.965      2.432
REMARK INTER + INTRA:          -4.764
REMARK INTER:                  -4.635
REMARK INTRA:                  -0.130
REMARK UNBOUND:                -0.133
REMARK SMILES [NH3+][C@@H](Cc1cnc[nH]1)C(=O)[O-]
REMARK SMILES IDX 3 1 2 2 1 3 9 7 10 8 11 9 4 10 5 11 8 12 6 13 7 14
REMARK H PARENT 1 4 1 5 1 6 8 15
REMARK Flexibility Score: inf
ROOT
ATOM      1  C   UNL     1     -13.605 -28.450 -12.817  1.00  0.00     0.127 C 
ENDROOT
BRANCH   1   2
ATOM      2  C   UNL     1     -14.889 -27.795 -12.265  1.00  0.00     0.233 C 
BRANCH   2   3
ATOM      3  N   UNL     1     -16.066 -28.165 -13.061  1.00  0.00    -0.350 N 
ATOM      4  H   UNL     1     -16.897 -28.287 -12.439  1.00  0.00     0.345 HD
ATOM      5  H   UNL     1     -16.288 -27.402 -13.744  1.00  0.00     0.345 HD
ATOM      6  H   UNL     1     -15.896 -29.054 -13.585  1.00  0.00     0.345 HD
ENDBRANCH   2   3
BRANCH   2   7
ATOM      7  C   UNL     1     -14.726 -26.298 -12.238  1.00  0.00     0.099 C 
ATOM      8  O   UNL     1     -14.648 -25.684 -11.141  1.00  0.00    -0.544 OA
ATOM      9  O   UNL     1     -14.682 -25.584 -13.429  1.00  0.00    -0.544 OA
ENDBRANCH   2   7
ENDBRANCH   1   2
BRANCH   1  10
ATOM     10  C   UNL     1     -12.970 -29.358 -11.806  1.00  0.00     0.041 A 
ATOM     11  C   UNL     1     -11.836 -29.098 -11.068  1.00  0.00     0.134 A 
ATOM     12  N   UNL     1     -13.394 -30.598 -11.522  1.00  0.00    -0.348 N 
ATOM     13  N   UNL     1     -11.551 -30.175 -10.309  1.00  0.00    -0.245 NA
ATOM     14  C   UNL     1     -12.520 -31.065 -10.610  1.00  0.00     0.196 A 
ATOM     15  H   UNL     1     -14.217 -31.099 -11.924  1.00  0.00     0.167 HD
ENDBRANCH   1  10
TORSDOF 4
ENDMDL
