MODEL 1
REMARK VINA RESULT:    -5.806      0.000      0.000
REMARK INTER + INTRA:          -5.806
REMARK INTER:                  -5.806
REMARK INTRA:                   0.000
REMARK UNBOUND:                 0.000
REMARK SMILES CC1=CC(=O)[C@H]2C[C@@H]1C2(C)C
REMARK SMILES IDX 1 1 2 2 3 3 4 4 5 5 6 6 7 7 8 8 9 9 10 10 11 11
REMARK H PARENT
REMARK Flexibility Score: inf
ROOT
ATOM      1  C   UNL     1     135.729 134.349 111.432  1.00  0.00     0.040 C 
ATOM      2  C   UNL     1     134.812 134.480 112.607  1.00  0.00    -0.066 C 
ATOM      3  C   UNL     1     133.586 135.069 112.511  1.00  0.00     0.047 C 
ATOM      4  C   UNL     1     132.781 135.128 113.773  1.00  0.00     0.159 C 
ATOM      5  O   UNL     1     131.651 135.683 113.825  1.00  0.00    -0.295 OA
ATOM      6  C   UNL     1     133.424 134.467 114.993  1.00  0.00     0.067 C 
ATOM      7  C   UNL     1     133.951 133.118 114.456  1.00  0.00     0.021 C 
ATOM      8  C   UNL     1     135.200 133.895 113.980  1.00  0.00     0.022 C 
ATOM      9  C   UNL     1     134.901 134.943 115.092  1.00  0.00    -0.019 C 
ATOM     10  C   UNL     1     135.552 134.567 116.447  1.00  0.00     0.012 C 
ATOM     11  C   UNL     1     135.217 136.437 114.797  1.00  0.00     0.012 C 
ENDROOT
TORSDOF 0
ENDMDL
MODEL 2
REMARK VINA RESULT:    -5.785      9.446     10.984
REMARK INTER + INTRA:          -5.785
REMARK INTER:                  -5.785
REMARK INTRA:                   0.000
REMARK UNBOUND:                 0.000
REMARK SMILES CC1=CC(=O)[C@H]2C[C@@H]1C2(C)C
REMARK SMILES IDX 1 1 2 2 3 3 4 4 5 5 6 6 7 7 8 8 9 9 10 10 11 11
REMARK H PARENT
REMARK Flexibility Score: inf
ROOT
ATOM      1  C   UNL     1     140.796 142.126 111.371  1.00  0.00     0.040 C 
ATOM      2  C   UNL     1     141.679 141.983 112.571  1.00  0.00    -0.066 C 
ATOM      3  C   UNL     1     142.889 141.357 112.514  1.00  0.00     0.047 C 
ATOM      4  C   UNL     1     143.660 141.290 113.797  1.00  0.00     0.159 C 
ATOM      5  O   UNL     1     144.770 140.702 113.884  1.00  0.00    -0.295 OA
ATOM      6  C   UNL     1     143.006 141.986 114.992  1.00  0.00     0.067 C 
ATOM      7  C   UNL     1     142.533 143.342 114.425  1.00  0.00     0.021 C 
ATOM      8  C   UNL     1     141.274 142.597 113.927  1.00  0.00     0.022 C 
ATOM      9  C   UNL     1     141.513 141.555 115.058  1.00  0.00    -0.019 C 
ATOM     10  C   UNL     1     140.839 141.968 116.391  1.00  0.00     0.012 C 
ATOM     11  C   UNL     1     141.160 140.068 114.774  1.00  0.00     0.012 C 
ENDROOT
TORSDOF 0
ENDMDL
MODEL 3
REMARK VINA RESULT:    -5.777      2.268      3.827
REMARK INTER + INTRA:          -5.777
REMARK INTER:                  -5.777
REMARK INTRA:                   0.000
REMARK UNBOUND:                 0.000
REMARK SMILES CC1=CC(=O)[C@H]2C[C@@H]1C2(C)C
REMARK SMILES IDX 1 1 2 2 3 3 4 4 5 5 6 6 7 7 8 8 9 9 10 10 11 11
REMARK H PARENT
REMARK Flexibility Score: inf
ROOT
ATOM      1  C   UNL     1     134.271 136.565 116.834  1.00  0.00     0.040 C 
ATOM      2  C   UNL     1     134.734 135.405 116.009  1.00  0.00    -0.066 C 
ATOM      3  C   UNL     1     135.779 134.616 116.386  1.00  0.00     0.047 C 
ATOM      4  C   UNL     1     136.128 133.493 115.457  1.00  0.00     0.159 C 
ATOM      5  O   UNL     1     137.098 132.719 115.672  1.00  0.00    -0.295 OA
ATOM      6  C   UNL     1     135.223 133.350 114.233  1.00  0.00     0.067 C 
ATOM      7  C   UNL     1     133.794 133.489 114.802  1.00  0.00     0.021 C 
ATOM      8  C   UNL     1     133.999 135.018 114.710  1.00  0.00     0.022 C 
ATOM      9  C   UNL     1     135.042 134.752 113.585  1.00  0.00    -0.019 C 
ATOM     10  C   UNL     1     134.390 134.675 112.182  1.00  0.00     0.012 C 
ATOM     11  C   UNL     1     136.280 135.689 113.496  1.00  0.00     0.012 C 
ENDROOT
TORSDOF 0
ENDMDL
MODEL 4
REMARK VINA RESULT:    -5.755      9.025     10.681
REMARK INTER + INTRA:          -5.755
REMARK INTER:                  -5.755
REMARK INTRA:                   0.000
REMARK UNBOUND:                 0.000
REMARK SMILES CC1=CC(=O)[C@H]2C[C@@H]1C2(C)C
REMARK SMILES IDX 1 1 2 2 3 3 4 4 5 5 6 6 7 7 8 8 9 9 10 10 11 11
REMARK H PARENT
REMARK Flexibility Score: inf
ROOT
ATOM      1  C   UNL     1     142.124 139.873 116.937  1.00  0.00     0.040 C 
ATOM      2  C   UNL     1     141.765 141.034 116.063  1.00  0.00    -0.066 C 
ATOM      3  C   UNL     1     140.703 141.845 116.331  1.00  0.00     0.047 C 
ATOM      4  C   UNL     1     140.467 142.966 115.365  1.00  0.00     0.159 C 
ATOM      5  O   UNL     1     139.494 143.758 115.478  1.00  0.00    -0.295 OA
ATOM      6  C   UNL     1     141.488 143.082 114.233  1.00  0.00     0.067 C 
ATOM      7  C   UNL     1     142.853 142.923 114.939  1.00  0.00     0.021 C 
ATOM      8  C   UNL     1     142.629 141.397 114.838  1.00  0.00     0.022 C 
ATOM      9  C   UNL     1     141.706 141.671 113.616  1.00  0.00    -0.019 C 
ATOM     10  C   UNL     1     142.493 141.725 112.283  1.00  0.00     0.012 C 
ATOM     11  C   UNL     1     140.466 140.755 113.413  1.00  0.00     0.012 C 
ENDROOT
TORSDOF 0
ENDMDL
MODEL 5
REMARK VINA RESULT:    -5.753      2.299      3.766
REMARK INTER + INTRA:          -5.753
REMARK INTER:                  -5.753
REMARK INTRA:                   0.000
REMARK UNBOUND:                 0.000
REMARK SMILES CC1=CC(=O)[C@H]2C[C@@H]1C2(C)C
REMARK SMILES IDX 1 1 2 2 3 3 4 4 5 5 6 6 7 7 8 8 9 9 10 10 11 11
REMARK H PARENT
REMARK Flexibility Score: inf
ROOT
ATOM      1  C   UNL     1     137.632 136.874 114.362  1.00  0.00     0.040 C 
ATOM      2  C   UNL     1     136.589 136.139 115.144  1.00  0.00    -0.066 C 
ATOM      3  C   UNL     1     136.886 135.445 116.279  1.00  0.00     0.047 C 
ATOM      4  C   UNL     1     135.737 134.758 116.953  1.00  0.00     0.159 C 
ATOM      5  O   UNL     1     135.887 134.051 117.984  1.00  0.00    -0.295 OA
ATOM      6  C   UNL     1     134.370 134.974 116.301  1.00  0.00     0.067 C 
ATOM      7  C   UNL     1     134.325 136.491 116.017  1.00  0.00     0.021 C 
ATOM      8  C   UNL     1     135.107 136.184 114.720  1.00  0.00     0.022 C 
ATOM      9  C   UNL     1     134.511 134.747 114.769  1.00  0.00    -0.019 C 
ATOM     10  C   UNL     1     133.137 134.654 114.059  1.00  0.00     0.012 C 
ATOM     11  C   UNL     1     135.396 133.567 114.276  1.00  0.00     0.012 C 
ENDROOT
TORSDOF 0
ENDMDL
MODEL 6
REMARK VINA RESULT:    -5.744      1.491      2.234
REMARK INTER + INTRA:          -5.744
REMARK INTER:                  -5.744
REMARK INTRA:                   0.000
REMARK UNBOUND:                 0.000
REMARK SMILES CC1=CC(=O)[C@H]2C[C@@H]1C2(C)C
REMARK SMILES IDX 1 1 2 2 3 3 4 4 5 5 6 6 7 7 8 8 9 9 10 10 11 11
REMARK H PARENT
REMARK Flexibility Score: inf
ROOT
ATOM      1  C   UNL     1     136.859 132.518 115.008  1.00  0.00     0.040 C 
ATOM      2  C   UNL     1     135.775 133.471 114.613  1.00  0.00    -0.066 C 
ATOM      3  C   UNL     1     135.441 133.693 113.310  1.00  0.00     0.047 C 
ATOM      4  C   UNL     1     134.336 134.676 113.070  1.00  0.00     0.159 C 
ATOM      5  O   UNL     1     133.963 134.998 111.910  1.00  0.00    -0.295 OA
ATOM      6  C   UNL     1     133.693 135.261 114.328  1.00  0.00     0.067 C 
ATOM      7  C   UNL     1     133.474 134.036 115.242  1.00  0.00     0.021 C 
ATOM      8  C   UNL     1     134.945 134.210 115.682  1.00  0.00     0.022 C 
ATOM      9  C   UNL     1     134.823 135.713 115.297  1.00  0.00    -0.019 C 
ATOM     10  C   UNL     1     134.287 136.579 116.464  1.00  0.00     0.012 C 
ATOM     11  C   UNL     1     136.071 136.420 114.697  1.00  0.00     0.012 C 
ENDROOT
TORSDOF 0
ENDMDL
MODEL 7
REMARK VINA RESULT:    -5.726      2.361      3.989
REMARK INTER + INTRA:          -5.726
REMARK INTER:                  -5.726
REMARK INTRA:                   0.000
REMARK UNBOUND:                 0.000
REMARK SMILES CC1=CC(=O)[C@H]2C[C@@H]1C2(C)C
REMARK SMILES IDX 1 1 2 2 3 3 4 4 5 5 6 6 7 7 8 8 9 9 10 10 11 11
REMARK H PARENT
REMARK Flexibility Score: inf
ROOT
ATOM      1  C   UNL     1     136.862 135.548 118.308  1.00  0.00     0.040 C 
ATOM      2  C   UNL     1     136.599 135.330 116.851  1.00  0.00    -0.066 C 
ATOM      3  C   UNL     1     137.171 136.102 115.886  1.00  0.00     0.047 C 
ATOM      4  C   UNL     1     136.812 135.765 114.470  1.00  0.00     0.159 C 
ATOM      5  O   UNL     1     137.242 136.430 113.491  1.00  0.00    -0.295 OA
ATOM      6  C   UNL     1     135.889 134.558 114.298  1.00  0.00     0.067 C 
ATOM      7  C   UNL     1     136.490 133.488 115.236  1.00  0.00     0.021 C 
ATOM      8  C   UNL     1     135.701 134.170 116.376  1.00  0.00     0.022 C 
ATOM      9  C   UNL     1     134.706 134.692 115.299  1.00  0.00    -0.019 C 
ATOM     10  C   UNL     1     133.569 133.682 115.006  1.00  0.00     0.012 C 
ATOM     11  C   UNL     1     134.070 136.096 115.506  1.00  0.00     0.012 C 
ENDROOT
TORSDOF 0
ENDMDL
MODEL 8
REMARK VINA RESULT:    -5.713      8.175      9.836
REMARK INTER + INTRA:          -5.713
REMARK INTER:                  -5.713
REMARK INTRA:                   0.000
REMARK UNBOUND:                 0.000
REMARK SMILES CC1=CC(=O)[C@H]2C[C@@H]1C2(C)C
REMARK SMILES IDX 1 1 2 2 3 3 4 4 5 5 6 6 7 7 8 8 9 9 10 10 11 11
REMARK H PARENT
REMARK Flexibility Score: inf
ROOT
ATOM      1  C   UNL     1     138.758 139.502 114.581  1.00  0.00     0.040 C 
ATOM      2  C   UNL     1     139.835 140.264 115.287  1.00  0.00    -0.066 C 
ATOM      3  C   UNL     1     139.594 140.988 116.416  1.00  0.00     0.047 C 
ATOM      4  C   UNL     1     140.771 141.700 117.010  1.00  0.00     0.159 C 
ATOM      5  O   UNL     1     140.670 142.434 118.028  1.00  0.00    -0.295 OA
ATOM      6  C   UNL     1     142.104 141.471 116.295  1.00  0.00     0.067 C 
ATOM      7  C   UNL     1     142.144 139.946 116.052  1.00  0.00     0.021 C 
ATOM      8  C   UNL     1     141.294 140.213 114.789  1.00  0.00     0.022 C 
ATOM      9  C   UNL     1     141.884 141.654 114.766  1.00  0.00    -0.019 C 
ATOM     10  C   UNL     1     143.218 141.732 113.984  1.00  0.00     0.012 C 
ATOM     11  C   UNL     1     140.968 142.814 114.286  1.00  0.00     0.012 C 
ENDROOT
TORSDOF 0
ENDMDL
MODEL 9
REMARK VINA RESULT:    -5.695      8.930     10.653
REMARK INTER + INTRA:          -5.695
REMARK INTER:                  -5.695
REMARK INTRA:                   0.000
REMARK UNBOUND:                 0.000
REMARK SMILES CC1=CC(=O)[C@H]2C[C@@H]1C2(C)C
REMARK SMILES IDX 1 1 2 2 3 3 4 4 5 5 6 6 7 7 8 8 9 9 10 10 11 11
REMARK H PARENT
REMARK Flexibility Score: inf
ROOT
ATOM      1  C   UNL     1     139.516 143.959 115.206  1.00  0.00     0.040 C 
ATOM      2  C   UNL     1     140.613 143.059 114.730  1.00  0.00    -0.066 C 
ATOM      3  C   UNL     1     140.917 142.918 113.409  1.00  0.00     0.047 C 
ATOM      4  C   UNL     1     142.040 141.980 113.085  1.00  0.00     0.159 C 
ATOM      5  O   UNL     1     142.389 141.733 111.900  1.00  0.00    -0.295 OA
ATOM      6  C   UNL     1     142.732 141.345 114.291  1.00  0.00     0.067 C 
ATOM      7  C   UNL     1     142.945 142.523 115.266  1.00  0.00     0.021 C 
ATOM      8  C   UNL     1     141.492 142.286 115.734  1.00  0.00     0.022 C 
ATOM      9  C   UNL     1     141.642 140.810 115.263  1.00  0.00    -0.019 C 
ATOM     10  C   UNL     1     142.231 139.896 116.365  1.00  0.00     0.012 C 
ATOM     11  C   UNL     1     140.396 140.103 114.658  1.00  0.00     0.012 C 
ENDROOT
TORSDOF 0
ENDMDL
