MODEL 1
REMARK VINA RESULT:    -3.552      0.000      0.000
REMARK INTER + INTRA:          -5.882
REMARK INTER:                  -5.213
REMARK INTRA:                  -0.669
REMARK UNBOUND:                -0.669
REMARK SMILES CCCOC(=O)c1ccccc1C(=O)OCCC
REMARK SMILES IDX 7 1 8 2 9 3 10 4 11 5 12 6 5 7 6 8 4 9 3 10 2 11 1 12 13 13
REMARK SMILES IDX 14 14 15 15 16 16 17 17 18 18
REMARK H PARENT
REMARK Flexibility Score: inf
ROOT
ATOM      1  C   UNL     1      25.345  24.025  26.144  1.00  0.00     0.074 A 
ATOM      2  C   UNL     1      24.477  23.199  25.407  1.00  0.00     0.016 A 
ATOM      3  C   UNL     1      24.755  22.878  24.079  1.00  0.00     0.001 A 
ATOM      4  C   UNL     1      25.904  23.374  23.465  1.00  0.00     0.001 A 
ATOM      5  C   UNL     1      26.766  24.214  24.171  1.00  0.00     0.016 A 
ATOM      6  C   UNL     1      26.494  24.570  25.504  1.00  0.00     0.074 A 
ENDROOT
BRANCH   1   7
ATOM      7  C   UNL     1      25.049  24.235  27.579  1.00  0.00     0.339 C 
ATOM      8  O   UNL     1      25.556  23.476  28.450  1.00  0.00    -0.246 OA
BRANCH   7   9
ATOM      9  O   UNL     1      24.153  25.242  27.958  1.00  0.00    -0.462 OA
BRANCH   9  10
ATOM     10  C   UNL     1      22.736  25.083  27.936  1.00  0.00     0.233 C 
BRANCH  10  11
ATOM     11  C   UNL     1      22.044  26.449  27.894  1.00  0.00     0.038 C 
ATOM     12  C   UNL     1      23.004  27.567  28.284  1.00  0.00     0.007 C 
ENDBRANCH  10  11
ENDBRANCH   9  10
ENDBRANCH   7   9
ENDBRANCH   1   7
BRANCH   6  13
ATOM     13  C   UNL     1      27.389  25.554  26.154  1.00  0.00     0.339 C 
ATOM     14  O   UNL     1      28.536  25.209  26.550  1.00  0.00    -0.246 OA
BRANCH  13  15
ATOM     15  O   UNL     1      26.932  26.857  26.377  1.00  0.00    -0.462 OA
BRANCH  15  16
ATOM     16  C   UNL     1      27.740  28.006  26.141  1.00  0.00     0.233 C 
BRANCH  16  17
ATOM     17  C   UNL     1      27.388  28.603  24.781  1.00  0.00     0.038 C 
ATOM     18  C   UNL     1      28.100  29.934  24.558  1.00  0.00     0.007 C 
ENDBRANCH  16  17
ENDBRANCH  15  16
ENDBRANCH  13  15
ENDBRANCH   6  13
TORSDOF 8
ENDMDL
MODEL 2
REMARK VINA RESULT:    -3.368      0.659      4.444
REMARK INTER + INTRA:          -5.612
REMARK INTER:                  -5.171
REMARK INTRA:                  -0.440
REMARK UNBOUND:                -0.669
REMARK SMILES CCCOC(=O)c1ccccc1C(=O)OCCC
REMARK SMILES IDX 7 1 8 2 9 3 10 4 11 5 12 6 5 7 6 8 4 9 3 10 2 11 1 12 13 13
REMARK SMILES IDX 14 14 15 15 16 16 17 17 18 18
REMARK H PARENT
REMARK Flexibility Score: inf
ROOT
ATOM      1  C   UNL     1      26.527  24.360  25.420  1.00  0.00     0.074 A 
ATOM      2  C   UNL     1      26.716  23.955  24.086  1.00  0.00     0.016 A 
ATOM      3  C   UNL     1      25.737  23.218  23.419  1.00  0.00     0.001 A 
ATOM      4  C   UNL     1      24.555  22.875  24.072  1.00  0.00     0.001 A 
ATOM      5  C   UNL     1      24.357  23.247  25.402  1.00  0.00     0.016 A 
ATOM      6  C   UNL     1      25.341  23.970  26.101  1.00  0.00     0.074 A 
ENDROOT
BRANCH   1   7
ATOM      7  C   UNL     1      27.555  25.232  26.030  1.00  0.00     0.339 C 
ATOM      8  O   UNL     1      28.574  24.727  26.577  1.00  0.00    -0.246 OA
BRANCH   7   9
ATOM      9  O   UNL     1      27.358  26.619  26.052  1.00  0.00    -0.462 OA
BRANCH   9  10
ATOM     10  C   UNL     1      28.371  27.562  25.712  1.00  0.00     0.233 C 
BRANCH  10  11
ATOM     11  C   UNL     1      27.965  28.969  26.161  1.00  0.00     0.038 C 
ATOM     12  C   UNL     1      28.985  29.556  27.131  1.00  0.00     0.007 C 
ENDBRANCH  10  11
ENDBRANCH   9  10
ENDBRANCH   7   9
ENDBRANCH   1   7
BRANCH   6  13
ATOM     13  C   UNL     1      25.115  24.231  27.541  1.00  0.00     0.339 C 
ATOM     14  O   UNL     1      25.737  23.567  28.416  1.00  0.00    -0.246 OA
BRANCH  13  15
ATOM     15  O   UNL     1      24.164  25.181  27.927  1.00  0.00    -0.462 OA
BRANCH  15  16
ATOM     16  C   UNL     1      22.762  24.955  27.819  1.00  0.00     0.233 C 
BRANCH  16  17
ATOM     17  C   UNL     1      22.021  26.282  27.970  1.00  0.00     0.038 C 
ATOM     18  C   UNL     1      22.976  27.410  28.350  1.00  0.00     0.007 C 
ENDBRANCH  16  17
ENDBRANCH  15  16
ENDBRANCH  13  15
ENDBRANCH   6  13
TORSDOF 8
ENDMDL
MODEL 3
REMARK VINA RESULT:    -0.803      2.263      5.711
REMARK INTER + INTRA:          -1.848
REMARK INTER:                  -1.336
REMARK INTRA:                  -0.512
REMARK UNBOUND:                -0.669
REMARK SMILES CCCOC(=O)c1ccccc1C(=O)OCCC
REMARK SMILES IDX 7 1 8 2 9 3 10 4 11 5 12 6 5 7 6 8 4 9 3 10 2 11 1 12 13 13
REMARK SMILES IDX 14 14 15 15 16 16 17 17 18 18
REMARK H PARENT
REMARK Flexibility Score: inf
ROOT
ATOM      1  C   UNL     1      28.422  28.416  25.385  1.00  0.00     0.074 A 
ATOM      2  C   UNL     1      28.589  28.734  24.025  1.00  0.00     0.016 A 
ATOM      3  C   UNL     1      28.919  30.030  23.631  1.00  0.00     0.001 A 
ATOM      4  C   UNL     1      29.090  31.029  24.587  1.00  0.00     0.001 A 
ATOM      5  C   UNL     1      28.906  30.741  25.940  1.00  0.00     0.016 A 
ATOM      6  C   UNL     1      28.550  29.446  26.359  1.00  0.00     0.074 A 
ENDROOT
BRANCH   1   7
ATOM      7  C   UNL     1      28.182  27.000  25.741  1.00  0.00     0.339 C 
ATOM      8  O   UNL     1      29.124  26.287  26.185  1.00  0.00    -0.246 OA
BRANCH   7   9
ATOM      9  O   UNL     1      26.917  26.439  25.521  1.00  0.00    -0.462 OA
BRANCH   9  10
ATOM     10  C   UNL     1      26.585  25.093  25.854  1.00  0.00     0.233 C 
BRANCH  10  11
ATOM     11  C   UNL     1      26.896  24.158  24.681  1.00  0.00     0.038 C 
ATOM     12  C   UNL     1      25.737  23.204  24.413  1.00  0.00     0.007 C 
ENDBRANCH  10  11
ENDBRANCH   9  10
ENDBRANCH   7   9
ENDBRANCH   1   7
BRANCH   6  13
ATOM     13  C   UNL     1      28.260  29.239  27.795  1.00  0.00     0.339 C 
ATOM     14  O   UNL     1      29.124  28.718  28.553  1.00  0.00    -0.246 OA
BRANCH  13  15
ATOM     15  O   UNL     1      26.998  29.573  28.298  1.00  0.00    -0.462 OA
BRANCH  15  16
ATOM     16  C   UNL     1      26.704  29.587  29.691  1.00  0.00     0.233 C 
BRANCH  16  17
ATOM     17  C   UNL     1      25.221  29.894  29.893  1.00  0.00     0.038 C 
ATOM     18  C   UNL     1      24.343  28.937  29.093  1.00  0.00     0.007 C 
ENDBRANCH  16  17
ENDBRANCH  15  16
ENDBRANCH  13  15
ENDBRANCH   6  13
TORSDOF 8
ENDMDL
