MODEL 1
REMARK VINA RESULT:    -4.884      0.000      0.000
REMARK INTER + INTRA:          -5.733
REMARK INTER:                  -5.741
REMARK INTRA:                   0.008
REMARK UNBOUND:                 0.008
REMARK SMILES COc1cc2ccc(=O)oc2c(OC)c1OC
REMARK SMILES IDX 3 1 15 2 12 3 11 4 5 5 4 6 6 7 7 8 8 9 9 10 10 11 2 12 1 13
REMARK SMILES IDX 16 14 17 15 13 16 14 17
REMARK H PARENT
REMARK Flexibility Score: inf
ROOT
ATOM      1  C   UNL     1      12.320 -16.098   7.965  1.00  0.00     0.165 A 
ATOM      2  C   UNL     1      12.446 -17.243   7.135  1.00  0.00     0.207 A 
ATOM      3  C   UNL     1      11.309 -18.003   6.800  1.00  0.00     0.208 A 
ATOM      4  C   UNL     1      10.038 -17.625   7.294  1.00  0.00     0.184 A 
ATOM      5  C   UNL     1       9.919 -16.486   8.118  1.00  0.00     0.025 A 
ATOM      6  C   UNL     1      11.049 -15.735   8.447  1.00  0.00     0.062 A 
ATOM      7  C   UNL     1       8.653 -16.128   8.596  1.00  0.00     0.020 A 
ATOM      8  C   UNL     1       7.546 -16.898   8.250  1.00  0.00     0.094 A 
ATOM      9  C   UNL     1       7.733 -18.012   7.430  1.00  0.00     0.336 A 
ATOM     10  O   UNL     1       6.747 -18.724   7.104  1.00  0.00    -0.246 OA
ATOM     11  O   UNL     1       8.947 -18.328   6.992  1.00  0.00    -0.419 OA
ENDROOT
BRANCH   1  12
ATOM     12  O   UNL     1      13.455 -15.342   8.296  1.00  0.00    -0.493 OA
ATOM     13  C   UNL     1      14.124 -14.439   7.420  1.00  0.00     0.278 C 
ENDBRANCH   1  12
BRANCH   2  14
ATOM     14  O   UNL     1      13.674 -17.685   6.604  1.00  0.00    -0.490 OA
ATOM     15  C   UNL     1      14.503 -18.719   7.121  1.00  0.00     0.278 C 
ENDBRANCH   2  14
BRANCH   3  16
ATOM     16  O   UNL     1      11.517 -19.125   5.973  1.00  0.00    -0.490 OA
ATOM     17  C   UNL     1      11.663 -19.117   4.558  1.00  0.00     0.278 C 
ENDBRANCH   3  16
TORSDOF 3
ENDMDL
MODEL 2
REMARK VINA RESULT:    -3.667      1.507      3.086
REMARK INTER + INTRA:          -4.302
REMARK INTER:                  -5.169
REMARK INTRA:                   0.867
REMARK UNBOUND:                 0.008
REMARK SMILES COc1cc2ccc(=O)oc2c(OC)c1OC
REMARK SMILES IDX 3 1 15 2 12 3 11 4 5 5 4 6 6 7 7 8 8 9 9 10 10 11 2 12 1 13
REMARK SMILES IDX 16 14 17 15 13 16 14 17
REMARK H PARENT
REMARK Flexibility Score: inf
ROOT
ATOM      1  C   UNL     1      12.265 -18.389   6.673  1.00  0.00     0.165 A 
ATOM      2  C   UNL     1      12.442 -17.040   7.077  1.00  0.00     0.207 A 
ATOM      3  C   UNL     1      11.350 -16.299   7.569  1.00  0.00     0.208 A 
ATOM      4  C   UNL     1      10.073 -16.902   7.660  1.00  0.00     0.184 A 
ATOM      5  C   UNL     1       9.904 -18.243   7.257  1.00  0.00     0.025 A 
ATOM      6  C   UNL     1      10.989 -18.974   6.771  1.00  0.00     0.062 A 
ATOM      7  C   UNL     1       8.633 -18.821   7.355  1.00  0.00     0.020 A 
ATOM      8  C   UNL     1       7.571 -18.066   7.844  1.00  0.00     0.094 A 
ATOM      9  C   UNL     1       7.807 -16.744   8.226  1.00  0.00     0.336 A 
ATOM     10  O   UNL     1       6.863 -16.041   8.672  1.00  0.00    -0.246 OA
ATOM     11  O   UNL     1       9.025 -16.222   8.122  1.00  0.00    -0.419 OA
ENDROOT
BRANCH   1  12
ATOM     12  O   UNL     1      13.356 -19.125   6.184  1.00  0.00    -0.493 OA
ATOM     13  C   UNL     1      14.664 -19.125   6.747  1.00  0.00     0.278 C 
ENDBRANCH   1  12
BRANCH   2  14
ATOM     14  O   UNL     1      13.679 -16.368   7.018  1.00  0.00    -0.490 OA
ATOM     15  C   UNL     1      14.597 -16.176   8.088  1.00  0.00     0.278 C 
ENDBRANCH   2  14
BRANCH   3  16
ATOM     16  O   UNL     1      11.607 -14.967   7.949  1.00  0.00    -0.490 OA
ATOM     17  C   UNL     1      12.003 -13.903   7.089  1.00  0.00     0.278 C 
ENDBRANCH   3  16
TORSDOF 3
ENDMDL
MODEL 3
REMARK VINA RESULT:    -3.494      1.542      4.874
REMARK INTER + INTRA:          -4.099
REMARK INTER:                  -4.740
REMARK INTRA:                   0.641
REMARK UNBOUND:                 0.008
REMARK SMILES COc1cc2ccc(=O)oc2c(OC)c1OC
REMARK SMILES IDX 3 1 15 2 12 3 11 4 5 5 4 6 6 7 7 8 8 9 9 10 10 11 2 12 1 13
REMARK SMILES IDX 16 14 17 15 13 16 14 17
REMARK H PARENT
REMARK Flexibility Score: inf
ROOT
ATOM      1  C   UNL     1       8.640 -16.566   8.613  1.00  0.00     0.165 A 
ATOM      2  C   UNL     1       8.521 -17.597   7.644  1.00  0.00     0.207 A 
ATOM      3  C   UNL     1       9.666 -18.093   6.993  1.00  0.00     0.208 A 
ATOM      4  C   UNL     1      10.940 -17.561   7.304  1.00  0.00     0.184 A 
ATOM      5  C   UNL     1      11.052 -16.538   8.269  1.00  0.00     0.025 A 
ATOM      6  C   UNL     1       9.914 -16.049   8.913  1.00  0.00     0.062 A 
ATOM      7  C   UNL     1      12.321 -16.026   8.564  1.00  0.00     0.020 A 
ATOM      8  C   UNL     1      13.437 -16.533   7.904  1.00  0.00     0.094 A 
ATOM      9  C   UNL     1      13.256 -17.547   6.962  1.00  0.00     0.336 A 
ATOM     10  O   UNL     1      14.249 -18.023   6.352  1.00  0.00    -0.246 OA
ATOM     11  O   UNL     1      12.038 -18.014   6.702  1.00  0.00    -0.419 OA
ENDROOT
BRANCH   1  12
ATOM     12  O   UNL     1       7.496 -16.075   9.261  1.00  0.00    -0.493 OA
ATOM     13  C   UNL     1       6.300 -15.657   8.610  1.00  0.00     0.278 C 
ENDBRANCH   1  12
BRANCH   2  14
ATOM     14  O   UNL     1       7.290 -18.178   7.277  1.00  0.00    -0.490 OA
ATOM     15  C   UNL     1       6.531 -19.114   8.033  1.00  0.00     0.278 C 
ENDBRANCH   2  14
BRANCH   3  16
ATOM     16  O   UNL     1       9.464 -19.115   6.044  1.00  0.00    -0.490 OA
ATOM     17  C   UNL     1       8.574 -19.075   4.934  1.00  0.00     0.278 C 
ENDBRANCH   3  16
TORSDOF 3
ENDMDL
MODEL 4
REMARK VINA RESULT:    -3.411      1.378      4.800
REMARK INTER + INTRA:          -4.001
REMARK INTER:                  -4.322
REMARK INTRA:                   0.321
REMARK UNBOUND:                 0.008
REMARK SMILES COc1cc2ccc(=O)oc2c(OC)c1OC
REMARK SMILES IDX 3 1 15 2 12 3 11 4 5 5 4 6 6 7 7 8 8 9 9 10 10 11 2 12 1 13
REMARK SMILES IDX 16 14 17 15 13 16 14 17
REMARK H PARENT
REMARK Flexibility Score: inf
ROOT
ATOM      1  C   UNL     1       8.879 -16.968   7.920  1.00  0.00     0.165 A 
ATOM      2  C   UNL     1       9.216 -17.905   6.908  1.00  0.00     0.207 A 
ATOM      3  C   UNL     1      10.566 -18.183   6.621  1.00  0.00     0.208 A 
ATOM      4  C   UNL     1      11.589 -17.525   7.344  1.00  0.00     0.184 A 
ATOM      5  C   UNL     1      11.248 -16.596   8.349  1.00  0.00     0.025 A 
ATOM      6  C   UNL     1       9.908 -16.324   8.630  1.00  0.00     0.062 A 
ATOM      7  C   UNL     1      12.275 -15.957   9.053  1.00  0.00     0.020 A 
ATOM      8  C   UNL     1      13.601 -16.249   8.749  1.00  0.00     0.094 A 
ATOM      9  C   UNL     1      13.870 -17.179   7.744  1.00  0.00     0.336 A 
ATOM     10  O   UNL     1      15.061 -17.461   7.451  1.00  0.00    -0.246 OA
ATOM     11  O   UNL     1      12.874 -17.771   7.092  1.00  0.00    -0.419 OA
ENDROOT
BRANCH   1  12
ATOM     12  O   UNL     1       7.531 -16.694   8.203  1.00  0.00    -0.493 OA
ATOM     13  C   UNL     1       6.652 -17.556   8.919  1.00  0.00     0.278 C 
ENDBRANCH   1  12
BRANCH   2  14
ATOM     14  O   UNL     1       8.257 -18.600   6.144  1.00  0.00    -0.490 OA
ATOM     15  C   UNL     1       7.832 -18.291   4.822  1.00  0.00     0.278 C 
ENDBRANCH   2  14
BRANCH   3  16
ATOM     16  O   UNL     1      10.818 -19.124   5.603  1.00  0.00    -0.490 OA
ATOM     17  C   UNL     1      11.919 -19.121   4.702  1.00  0.00     0.278 C 
ENDBRANCH   3  16
TORSDOF 3
ENDMDL
MODEL 5
REMARK VINA RESULT:    -2.373      1.662      5.602
REMARK INTER + INTRA:          -2.781
REMARK INTER:                  -3.363
REMARK INTRA:                   0.581
REMARK UNBOUND:                 0.008
REMARK SMILES COc1cc2ccc(=O)oc2c(OC)c1OC
REMARK SMILES IDX 3 1 15 2 12 3 11 4 5 5 4 6 6 7 7 8 8 9 9 10 10 11 2 12 1 13
REMARK SMILES IDX 16 14 17 15 13 16 14 17
REMARK H PARENT
REMARK Flexibility Score: inf
ROOT
ATOM      1  C   UNL     1       8.498 -18.088   6.820  1.00  0.00     0.165 A 
ATOM      2  C   UNL     1       9.050 -17.448   7.960  1.00  0.00     0.207 A 
ATOM      3  C   UNL     1      10.446 -17.372   8.124  1.00  0.00     0.208 A 
ATOM      4  C   UNL     1      11.302 -17.938   7.148  1.00  0.00     0.184 A 
ATOM      5  C   UNL     1      10.747 -18.572   6.017  1.00  0.00     0.025 A 
ATOM      6  C   UNL     1       9.362 -18.644   5.859  1.00  0.00     0.062 A 
ATOM      7  C   UNL     1      11.610 -19.125   5.063  1.00  0.00     0.020 A 
ATOM      8  C   UNL     1      12.986 -19.037   5.250  1.00  0.00     0.094 A 
ATOM      9  C   UNL     1      13.469 -18.395   6.391  1.00  0.00     0.336 A 
ATOM     10  O   UNL     1      14.710 -18.302   6.583  1.00  0.00    -0.246 OA
ATOM     11  O   UNL     1      12.626 -17.880   7.280  1.00  0.00    -0.419 OA
ENDROOT
BRANCH   1  12
ATOM     12  O   UNL     1       7.106 -18.161   6.660  1.00  0.00    -0.493 OA
ATOM     13  C   UNL     1       6.256 -19.121   7.282  1.00  0.00     0.278 C 
ENDBRANCH   1  12
BRANCH   2  14
ATOM     14  O   UNL     1       8.268 -16.861   8.975  1.00  0.00    -0.490 OA
ATOM     15  C   UNL     1       7.210 -15.925   8.803  1.00  0.00     0.278 C 
ENDBRANCH   2  14
BRANCH   3  16
ATOM     16  O   UNL     1      10.915 -16.722   9.282  1.00  0.00    -0.490 OA
ATOM     17  C   UNL     1      12.274 -16.460   9.615  1.00  0.00     0.278 C 
ENDBRANCH   3  16
TORSDOF 3
ENDMDL
MODEL 6
REMARK VINA RESULT:    -2.261      1.690      5.521
REMARK INTER + INTRA:          -2.649
REMARK INTER:                  -3.449
REMARK INTRA:                   0.800
REMARK UNBOUND:                 0.008
REMARK SMILES COc1cc2ccc(=O)oc2c(OC)c1OC
REMARK SMILES IDX 3 1 15 2 12 3 11 4 5 5 4 6 6 7 7 8 8 9 9 10 10 11 2 12 1 13
REMARK SMILES IDX 16 14 17 15 13 16 14 17
REMARK H PARENT
REMARK Flexibility Score: inf
ROOT
ATOM      1  C   UNL     1       9.634 -18.467   6.088  1.00  0.00     0.165 A 
ATOM      2  C   UNL     1       8.995 -17.810   7.172  1.00  0.00     0.207 A 
ATOM      3  C   UNL     1       9.761 -17.148   8.150  1.00  0.00     0.208 A 
ATOM      4  C   UNL     1      11.173 -17.139   8.052  1.00  0.00     0.184 A 
ATOM      5  C   UNL     1      11.802 -17.792   6.972  1.00  0.00     0.025 A 
ATOM      6  C   UNL     1      11.038 -18.447   6.004  1.00  0.00     0.062 A 
ATOM      7  C   UNL     1      13.199 -17.771   6.892  1.00  0.00     0.020 A 
ATOM      8  C   UNL     1      13.933 -17.110   7.873  1.00  0.00     0.094 A 
ATOM      9  C   UNL     1      13.248 -16.482   8.915  1.00  0.00     0.336 A 
ATOM     10  O   UNL     1      13.888 -15.878   9.814  1.00  0.00    -0.246 OA
ATOM     11  O   UNL     1      11.920 -16.519   8.965  1.00  0.00    -0.419 OA
ENDROOT
BRANCH   1  12
ATOM     12  O   UNL     1       8.867 -19.125   5.114  1.00  0.00    -0.493 OA
ATOM     13  C   UNL     1       7.865 -18.513   4.306  1.00  0.00     0.278 C 
ENDBRANCH   1  12
BRANCH   2  14
ATOM     14  O   UNL     1       7.596 -17.774   7.341  1.00  0.00    -0.490 OA
ATOM     15  C   UNL     1       6.764 -18.837   7.790  1.00  0.00     0.278 C 
ENDBRANCH   2  14
BRANCH   3  16
ATOM     16  O   UNL     1       9.052 -16.522   9.194  1.00  0.00    -0.490 OA
ATOM     17  C   UNL     1       7.846 -15.777   9.071  1.00  0.00     0.278 C 
ENDBRANCH   3  16
TORSDOF 3
ENDMDL
