MODEL 1
REMARK VINA RESULT:    -6.487      0.000      0.000
REMARK INTER + INTRA:          -8.302
REMARK INTER:                  -8.004
REMARK INTRA:                  -0.297
REMARK UNBOUND:                -0.297
REMARK SMILES O=c1c(O)c(-c2cc(O)c(O)c(O)c2)oc2cc(O)cc(O)c12
REMARK SMILES IDX 5 1 3 2 2 3 1 4 23 5 21 6 20 7 18 8 17 9 16 10 15 11 6 12
REMARK SMILES IDX 7 13 8 14 14 15 10 16 12 17 9 18 11 20 13 22 4 24 22 26
REMARK SMILES IDX 19 28
REMARK H PARENT 9 19 11 21 13 23 4 25 22 27 19 29
REMARK Flexibility Score: inf
ROOT
ATOM      1  C   UNL     1     181.576 178.759 175.221  1.00  0.00     0.180 A 
ATOM      2  C   UNL     1     182.785 179.231 174.674  1.00  0.00     0.208 A 
ATOM      3  C   UNL     1     183.331 178.570 173.563  1.00  0.00     0.238 A 
ATOM      4  O   UNL     1     184.408 178.990 173.058  1.00  0.00    -0.285 OA
ATOM      5  C   UNL     1     182.673 177.442 173.032  1.00  0.00     0.111 A 
ATOM      6  C   UNL     1     183.159 176.715 171.917  1.00  0.00     0.134 A 
ATOM      7  C   UNL     1     182.452 175.597 171.453  1.00  0.00     0.093 A 
ATOM      8  C   UNL     1     181.272 175.189 172.081  1.00  0.00     0.123 A 
ATOM      9  C   UNL     1     180.787 175.902 173.182  1.00  0.00     0.094 A 
ATOM     10  C   UNL     1     181.477 177.020 173.658  1.00  0.00     0.146 A 
ATOM     11  O   UNL     1     180.992 177.683 174.703  1.00  0.00    -0.452 OA
ENDROOT
BRANCH   1  12
ATOM     12  C   UNL     1     180.929 179.414 176.380  1.00  0.00     0.029 A 
ATOM     13  C   UNL     1     179.826 180.253 176.171  1.00  0.00     0.062 A 
ATOM     14  C   UNL     1     179.201 180.905 177.242  1.00  0.00     0.162 A 
ATOM     15  C   UNL     1     181.431 179.259 177.682  1.00  0.00     0.062 A 
ATOM     16  C   UNL     1     179.700 180.726 178.554  1.00  0.00     0.200 A 
ATOM     17  C   UNL     1     180.818 179.906 178.762  1.00  0.00     0.162 A 
BRANCH  14  18
ATOM     18  O   UNL     1     178.100 181.715 176.956  1.00  0.00    -0.504 OA
ATOM     19  H   UNL     1     177.679 181.795 176.042  1.00  0.00     0.293 HD
ENDBRANCH  14  18
BRANCH  16  20
ATOM     20  O   UNL     1     179.121 181.342 179.667  1.00  0.00    -0.502 OA
ATOM     21  H   UNL     1     178.395 180.925 180.230  1.00  0.00     0.293 HD
ENDBRANCH  16  20
BRANCH  17  22
ATOM     22  O   UNL     1     181.319 179.740 180.053  1.00  0.00    -0.504 OA
ATOM     23  H   UNL     1     180.727 179.838 180.869  1.00  0.00     0.293 HD
ENDBRANCH  17  22
ENDBRANCH   1  12
BRANCH   2  24
ATOM     24  O   UNL     1     183.442 180.322 175.250  1.00  0.00    -0.502 OA
ATOM     25  H   UNL     1     182.963 181.187 175.473  1.00  0.00     0.293 HD
ENDBRANCH   2  24
BRANCH   6  26
ATOM     26  O   UNL     1     184.335 177.097 171.269  1.00  0.00    -0.507 OA
ATOM     27  H   UNL     1     184.915 177.851 171.617  1.00  0.00     0.293 HD
ENDBRANCH   6  26
BRANCH   8  28
ATOM     28  O   UNL     1     180.589 174.074 171.601  1.00  0.00    -0.508 OA
ATOM     29  H   UNL     1     180.611 173.188 172.091  1.00  0.00     0.293 HD
ENDBRANCH   8  28
TORSDOF 7
ENDMDL
MODEL 2
REMARK VINA RESULT:    -6.487      0.089      1.761
REMARK INTER + INTRA:          -8.301
REMARK INTER:                  -7.989
REMARK INTRA:                  -0.312
REMARK UNBOUND:                -0.297
REMARK SMILES O=c1c(O)c(-c2cc(O)c(O)c(O)c2)oc2cc(O)cc(O)c12
REMARK SMILES IDX 5 1 3 2 2 3 1 4 23 5 21 6 20 7 18 8 17 9 16 10 15 11 6 12
REMARK SMILES IDX 7 13 8 14 14 15 10 16 12 17 9 18 11 20 13 22 4 24 22 26
REMARK SMILES IDX 19 28
REMARK H PARENT 9 19 11 21 13 23 4 25 22 27 19 29
REMARK Flexibility Score: inf
ROOT
ATOM      1  C   UNL     1     181.639 178.803 175.162  1.00  0.00     0.180 A 
ATOM      2  C   UNL     1     182.849 179.261 174.606  1.00  0.00     0.208 A 
ATOM      3  C   UNL     1     183.394 178.575 173.509  1.00  0.00     0.238 A 
ATOM      4  O   UNL     1     184.473 178.982 172.997  1.00  0.00    -0.285 OA
ATOM      5  C   UNL     1     182.734 177.438 173.000  1.00  0.00     0.111 A 
ATOM      6  C   UNL     1     183.219 176.689 171.901  1.00  0.00     0.134 A 
ATOM      7  C   UNL     1     182.509 175.563 171.459  1.00  0.00     0.093 A 
ATOM      8  C   UNL     1     181.328 175.171 172.093  1.00  0.00     0.123 A 
ATOM      9  C   UNL     1     180.844 175.907 173.180  1.00  0.00     0.094 A 
ATOM     10  C   UNL     1     181.536 177.033 173.633  1.00  0.00     0.146 A 
ATOM     11  O   UNL     1     181.053 177.717 174.664  1.00  0.00    -0.452 OA
ENDROOT
BRANCH   1  12
ATOM     12  C   UNL     1     180.992 179.482 176.307  1.00  0.00     0.029 A 
ATOM     13  C   UNL     1     181.476 179.262 177.603  1.00  0.00     0.062 A 
ATOM     14  C   UNL     1     180.875 179.872 178.712  1.00  0.00     0.162 A 
ATOM     15  C   UNL     1     179.865 180.300 176.129  1.00  0.00     0.062 A 
ATOM     16  C   UNL     1     179.753 180.713 178.522  1.00  0.00     0.200 A 
ATOM     17  C   UNL     1     179.253 180.916 177.228  1.00  0.00     0.162 A 
BRANCH  14  18
ATOM     18  O   UNL     1     181.421 179.613 179.971  1.00  0.00    -0.504 OA
ATOM     19  H   UNL     1     182.172 180.149 180.382  1.00  0.00     0.293 HD
ENDBRANCH  14  18
BRANCH  16  20
ATOM     20  O   UNL     1     179.110 181.357 179.583  1.00  0.00    -0.502 OA
ATOM     21  H   UNL     1     178.747 180.882 180.395  1.00  0.00     0.293 HD
ENDBRANCH  16  20
BRANCH  17  22
ATOM     22  O   UNL     1     178.138 181.733 177.042  1.00  0.00    -0.504 OA
ATOM     23  H   UNL     1     177.228 181.482 177.409  1.00  0.00     0.293 HD
ENDBRANCH  17  22
ENDBRANCH   1  12
BRANCH   2  24
ATOM     24  O   UNL     1     183.508 180.361 175.160  1.00  0.00    -0.502 OA
ATOM     25  H   UNL     1     183.635 181.229 174.653  1.00  0.00     0.293 HD
ENDBRANCH   2  24
BRANCH   6  26
ATOM     26  O   UNL     1     184.397 177.054 171.246  1.00  0.00    -0.507 OA
ATOM     27  H   UNL     1     185.208 176.447 171.231  1.00  0.00     0.293 HD
ENDBRANCH   6  26
BRANCH   8  28
ATOM     28  O   UNL     1     180.642 174.049 171.635  1.00  0.00    -0.508 OA
ATOM     29  H   UNL     1     180.581 173.202 172.189  1.00  0.00     0.293 HD
ENDBRANCH   8  28
TORSDOF 7
ENDMDL
MODEL 3
REMARK VINA RESULT:    -6.451      4.080      6.785
REMARK INTER + INTRA:          -8.256
REMARK INTER:                  -7.932
REMARK INTRA:                  -0.325
REMARK UNBOUND:                -0.297
REMARK SMILES O=c1c(O)c(-c2cc(O)c(O)c(O)c2)oc2cc(O)cc(O)c12
REMARK SMILES IDX 5 1 3 2 2 3 1 4 23 5 21 6 20 7 18 8 17 9 16 10 15 11 6 12
REMARK SMILES IDX 7 13 8 14 14 15 10 16 12 17 9 18 11 20 13 22 4 24 22 26
REMARK SMILES IDX 19 28
REMARK H PARENT 9 19 11 21 13 23 4 25 22 27 19 29
REMARK Flexibility Score: inf
ROOT
ATOM      1  C   UNL     1     179.018 181.947 175.087  1.00  0.00     0.180 A 
ATOM      2  C   UNL     1     177.819 181.486 174.510  1.00  0.00     0.208 A 
ATOM      3  C   UNL     1     177.287 182.175 173.410  1.00  0.00     0.238 A 
ATOM      4  O   UNL     1     176.219 181.765 172.879  1.00  0.00    -0.285 OA
ATOM      5  C   UNL     1     177.947 183.320 172.919  1.00  0.00     0.111 A 
ATOM      6  C   UNL     1     177.474 184.074 171.818  1.00  0.00     0.134 A 
ATOM      7  C   UNL     1     178.183 185.208 171.395  1.00  0.00     0.093 A 
ATOM      8  C   UNL     1     179.353 185.603 172.050  1.00  0.00     0.123 A 
ATOM      9  C   UNL     1     179.825 184.862 173.138  1.00  0.00     0.094 A 
ATOM     10  C   UNL     1     179.133 183.728 173.573  1.00  0.00     0.146 A 
ATOM     11  O   UNL     1     179.605 183.040 174.607  1.00  0.00    -0.452 OA
ENDROOT
BRANCH   1  12
ATOM     12  C   UNL     1     179.652 181.263 176.237  1.00  0.00     0.029 A 
ATOM     13  C   UNL     1     179.166 181.495 177.531  1.00  0.00     0.062 A 
ATOM     14  C   UNL     1     179.754 180.881 178.644  1.00  0.00     0.162 A 
ATOM     15  C   UNL     1     180.770 180.431 176.067  1.00  0.00     0.062 A 
ATOM     16  C   UNL     1     180.867 180.025 178.462  1.00  0.00     0.200 A 
ATOM     17  C   UNL     1     181.370 179.811 177.171  1.00  0.00     0.162 A 
BRANCH  14  18
ATOM     18  O   UNL     1     179.207 181.150 179.900  1.00  0.00    -0.504 OA
ATOM     19  H   UNL     1     179.454 181.950 180.465  1.00  0.00     0.293 HD
ENDBRANCH  14  18
BRANCH  16  20
ATOM     20  O   UNL     1     181.497 179.377 179.527  1.00  0.00    -0.502 OA
ATOM     21  H   UNL     1     181.279 179.541 180.498  1.00  0.00     0.293 HD
ENDBRANCH  16  20
BRANCH  17  22
ATOM     22  O   UNL     1     182.474 178.980 176.992  1.00  0.00    -0.504 OA
ATOM     23  H   UNL     1     183.398 179.355 176.813  1.00  0.00     0.293 HD
ENDBRANCH  17  22
ENDBRANCH   1  12
BRANCH   2  24
ATOM     24  O   UNL     1     177.159 180.377 175.047  1.00  0.00    -0.502 OA
ATOM     25  H   UNL     1     176.187 180.174 174.845  1.00  0.00     0.293 HD
ENDBRANCH   2  24
BRANCH   6  26
ATOM     26  O   UNL     1     176.309 183.707 171.143  1.00  0.00    -0.507 OA
ATOM     27  H   UNL     1     175.900 184.295 170.426  1.00  0.00     0.293 HD
ENDBRANCH   6  26
BRANCH   8  28
ATOM     28  O   UNL     1     180.038 186.732 171.610  1.00  0.00    -0.508 OA
ATOM     29  H   UNL     1     179.708 187.668 171.821  1.00  0.00     0.293 HD
ENDBRANCH   8  28
TORSDOF 7
ENDMDL
MODEL 4
REMARK VINA RESULT:    -6.413      3.920      6.606
REMARK INTER + INTRA:          -8.209
REMARK INTER:                  -7.969
REMARK INTRA:                  -0.240
REMARK UNBOUND:                -0.297
REMARK SMILES O=c1c(O)c(-c2cc(O)c(O)c(O)c2)oc2cc(O)cc(O)c12
REMARK SMILES IDX 5 1 3 2 2 3 1 4 23 5 21 6 20 7 18 8 17 9 16 10 15 11 6 12
REMARK SMILES IDX 7 13 8 14 14 15 10 16 12 17 9 18 11 20 13 22 4 24 22 26
REMARK SMILES IDX 19 28
REMARK H PARENT 9 19 11 21 13 23 4 25 22 27 19 29
REMARK Flexibility Score: inf
ROOT
ATOM      1  C   UNL     1     180.060 182.272 174.575  1.00  0.00     0.180 A 
ATOM      2  C   UNL     1     181.163 181.533 174.103  1.00  0.00     0.208 A 
ATOM      3  C   UNL     1     181.796 180.630 174.970  1.00  0.00     0.238 A 
ATOM      4  O   UNL     1     182.778 179.956 174.554  1.00  0.00    -0.285 OA
ATOM      5  C   UNL     1     181.332 180.493 176.294  1.00  0.00     0.111 A 
ATOM      6  C   UNL     1     181.917 179.609 177.232  1.00  0.00     0.134 A 
ATOM      7  C   UNL     1     181.404 179.537 178.535  1.00  0.00     0.093 A 
ATOM      8  C   UNL     1     180.320 180.330 178.919  1.00  0.00     0.123 A 
ATOM      9  C   UNL     1     179.737 181.206 177.997  1.00  0.00     0.094 A 
ATOM     10  C   UNL     1     180.234 181.291 176.693  1.00  0.00     0.146 A 
ATOM     11  O   UNL     1     179.660 182.127 175.836  1.00  0.00    -0.452 OA
ENDROOT
BRANCH   1  12
ATOM     12  C   UNL     1     179.328 183.230 173.717  1.00  0.00     0.029 A 
ATOM     13  C   UNL     1     178.034 182.915 173.279  1.00  0.00     0.062 A 
ATOM     14  C   UNL     1     177.320 183.788 172.449  1.00  0.00     0.162 A 
ATOM     15  C   UNL     1     179.923 184.424 173.282  1.00  0.00     0.062 A 
ATOM     16  C   UNL     1     177.919 185.002 172.033  1.00  0.00     0.200 A 
ATOM     17  C   UNL     1     179.222 185.307 172.451  1.00  0.00     0.162 A 
BRANCH  14  18
ATOM     18  O   UNL     1     176.032 183.412 172.064  1.00  0.00    -0.504 OA
ATOM     19  H   UNL     1     175.795 183.068 171.144  1.00  0.00     0.293 HD
ENDBRANCH  14  18
BRANCH  16  20
ATOM     20  O   UNL     1     177.262 185.920 171.211  1.00  0.00    -0.502 OA
ATOM     21  H   UNL     1     177.345 186.921 171.301  1.00  0.00     0.293 HD
ENDBRANCH  16  20
BRANCH  17  22
ATOM     22  O   UNL     1     179.819 186.495 172.030  1.00  0.00    -0.504 OA
ATOM     23  H   UNL     1     180.517 186.967 172.592  1.00  0.00     0.293 HD
ENDBRANCH  17  22
ENDBRANCH   1  12
BRANCH   2  24
ATOM     24  O   UNL     1     181.632 181.724 172.801  1.00  0.00    -0.502 OA
ATOM     25  H   UNL     1     181.198 182.375 172.157  1.00  0.00     0.293 HD
ENDBRANCH   2  24
BRANCH   6  26
ATOM     26  O   UNL     1     183.002 178.803 176.880  1.00  0.00    -0.507 OA
ATOM     27  H   UNL     1     183.008 177.807 177.068  1.00  0.00     0.293 HD
ENDBRANCH   6  26
BRANCH   8  28
ATOM     28  O   UNL     1     179.829 180.240 180.219  1.00  0.00    -0.508 OA
ATOM     29  H   UNL     1     178.865 179.989 180.406  1.00  0.00     0.293 HD
ENDBRANCH   8  28
TORSDOF 7
ENDMDL
MODEL 5
REMARK VINA RESULT:    -6.407      1.270      7.252
REMARK INTER + INTRA:          -8.203
REMARK INTER:                  -7.959
REMARK INTRA:                  -0.243
REMARK UNBOUND:                -0.297
REMARK SMILES O=c1c(O)c(-c2cc(O)c(O)c(O)c2)oc2cc(O)cc(O)c12
REMARK SMILES IDX 5 1 3 2 2 3 1 4 23 5 21 6 20 7 18 8 17 9 16 10 15 11 6 12
REMARK SMILES IDX 7 13 8 14 14 15 10 16 12 17 9 18 11 20 13 22 4 24 22 26
REMARK SMILES IDX 19 28
REMARK H PARENT 9 19 11 21 13 23 4 25 22 27 19 29
REMARK Flexibility Score: inf
ROOT
ATOM      1  C   UNL     1     180.700 178.437 174.586  1.00  0.00     0.180 A 
ATOM      2  C   UNL     1     179.595 179.180 174.125  1.00  0.00     0.208 A 
ATOM      3  C   UNL     1     178.966 180.075 175.003  1.00  0.00     0.238 A 
ATOM      4  O   UNL     1     177.982 180.753 174.598  1.00  0.00    -0.285 OA
ATOM      5  C   UNL     1     179.436 180.201 176.326  1.00  0.00     0.111 A 
ATOM      6  C   UNL     1     178.855 181.077 177.275  1.00  0.00     0.134 A 
ATOM      7  C   UNL     1     179.375 181.137 178.576  1.00  0.00     0.093 A 
ATOM      8  C   UNL     1     180.461 180.340 178.948  1.00  0.00     0.123 A 
ATOM      9  C   UNL     1     181.039 179.473 178.016  1.00  0.00     0.094 A 
ATOM     10  C   UNL     1     180.536 179.400 176.714  1.00  0.00     0.146 A 
ATOM     11  O   UNL     1     181.106 178.571 175.846  1.00  0.00    -0.452 OA
ENDROOT
BRANCH   1  12
ATOM     12  C   UNL     1     181.428 177.487 173.716  1.00  0.00     0.029 A 
ATOM     13  C   UNL     1     182.716 177.808 173.269  1.00  0.00     0.062 A 
ATOM     14  C   UNL     1     183.426 176.942 172.428  1.00  0.00     0.162 A 
ATOM     15  C   UNL     1     180.832 176.293 173.279  1.00  0.00     0.062 A 
ATOM     16  C   UNL     1     182.828 175.729 172.010  1.00  0.00     0.200 A 
ATOM     17  C   UNL     1     181.529 175.418 172.436  1.00  0.00     0.162 A 
BRANCH  14  18
ATOM     18  O   UNL     1     184.710 177.325 172.035  1.00  0.00    -0.504 OA
ATOM     19  H   UNL     1     185.118 177.097 171.139  1.00  0.00     0.293 HD
ENDBRANCH  14  18
BRANCH  16  20
ATOM     20  O   UNL     1     183.481 174.818 171.176  1.00  0.00    -0.502 OA
ATOM     21  H   UNL     1     183.269 173.833 171.139  1.00  0.00     0.293 HD
ENDBRANCH  16  20
BRANCH  17  22
ATOM     22  O   UNL     1     180.932 174.230 172.013  1.00  0.00    -0.504 OA
ATOM     23  H   UNL     1     179.989 173.983 172.287  1.00  0.00     0.293 HD
ENDBRANCH  17  22
ENDBRANCH   1  12
BRANCH   2  24
ATOM     24  O   UNL     1     179.119 179.001 172.824  1.00  0.00    -0.502 OA
ATOM     25  H   UNL     1     179.734 178.801 172.044  1.00  0.00     0.293 HD
ENDBRANCH   2  24
BRANCH   6  26
ATOM     26  O   UNL     1     177.769 181.886 176.935  1.00  0.00    -0.507 OA
ATOM     27  H   UNL     1     177.703 182.847 177.248  1.00  0.00     0.293 HD
ENDBRANCH   6  26
BRANCH   8  28
ATOM     28  O   UNL     1     180.957 180.419 180.246  1.00  0.00    -0.508 OA
ATOM     29  H   UNL     1     181.288 181.294 180.636  1.00  0.00     0.293 HD
ENDBRANCH   8  28
TORSDOF 7
ENDMDL
MODEL 6
REMARK VINA RESULT:    -6.259      1.726      7.023
REMARK INTER + INTRA:          -8.020
REMARK INTER:                  -7.666
REMARK INTRA:                  -0.354
REMARK UNBOUND:                -0.297
REMARK SMILES O=c1c(O)c(-c2cc(O)c(O)c(O)c2)oc2cc(O)cc(O)c12
REMARK SMILES IDX 5 1 3 2 2 3 1 4 23 5 21 6 20 7 18 8 17 9 16 10 15 11 6 12
REMARK SMILES IDX 7 13 8 14 14 15 10 16 12 17 9 18 11 20 13 22 4 24 22 26
REMARK SMILES IDX 19 28
REMARK H PARENT 9 19 11 21 13 23 4 25 22 27 19 29
REMARK Flexibility Score: inf
ROOT
ATOM      1  C   UNL     1     182.244 179.299 174.707  1.00  0.00     0.180 A 
ATOM      2  C   UNL     1     182.605 179.112 176.055  1.00  0.00     0.208 A 
ATOM      3  C   UNL     1     181.743 179.581 177.059  1.00  0.00     0.238 A 
ATOM      4  O   UNL     1     182.051 179.410 178.270  1.00  0.00    -0.285 OA
ATOM      5  C   UNL     1     180.551 180.243 176.701  1.00  0.00     0.111 A 
ATOM      6  C   UNL     1     179.632 180.750 177.651  1.00  0.00     0.134 A 
ATOM      7  C   UNL     1     178.471 181.405 177.215  1.00  0.00     0.093 A 
ATOM      8  C   UNL     1     178.213 181.566 175.852  1.00  0.00     0.123 A 
ATOM      9  C   UNL     1     179.117 181.067 174.908  1.00  0.00     0.094 A 
ATOM     10  C   UNL     1     180.278 180.409 175.323  1.00  0.00     0.146 A 
ATOM     11  O   UNL     1     181.118 179.941 174.407  1.00  0.00    -0.452 OA
ENDROOT
BRANCH   1  12
ATOM     12  C   UNL     1     183.090 178.816 173.592  1.00  0.00     0.029 A 
ATOM     13  C   UNL     1     182.870 177.537 173.062  1.00  0.00     0.062 A 
ATOM     14  C   UNL     1     183.664 177.040 172.021  1.00  0.00     0.162 A 
ATOM     15  C   UNL     1     184.147 179.590 173.089  1.00  0.00     0.062 A 
ATOM     16  C   UNL     1     184.714 177.836 171.504  1.00  0.00     0.200 A 
ATOM     17  C   UNL     1     184.951 179.106 172.049  1.00  0.00     0.162 A 
BRANCH  14  18
ATOM     18  O   UNL     1     183.377 175.762 171.538  1.00  0.00    -0.504 OA
ATOM     19  H   UNL     1     183.185 175.554 170.568  1.00  0.00     0.293 HD
ENDBRANCH  14  18
BRANCH  16  20
ATOM     20  O   UNL     1     185.540 177.403 170.463  1.00  0.00    -0.502 OA
ATOM     21  H   UNL     1     186.449 176.988 170.599  1.00  0.00     0.293 HD
ENDBRANCH  16  20
BRANCH  17  22
ATOM     22  O   UNL     1     185.995 179.884 171.551  1.00  0.00    -0.504 OA
ATOM     23  H   UNL     1     185.822 180.698 170.973  1.00  0.00     0.293 HD
ENDBRANCH  17  22
ENDBRANCH   1  12
BRANCH   2  24
ATOM     24  O   UNL     1     183.815 178.495 176.382  1.00  0.00    -0.502 OA
ATOM     25  H   UNL     1     183.861 177.558 176.764  1.00  0.00     0.293 HD
ENDBRANCH   2  24
BRANCH   6  26
ATOM     26  O   UNL     1     179.861 180.606 179.021  1.00  0.00    -0.507 OA
ATOM     27  H   UNL     1     180.782 180.393 179.387  1.00  0.00     0.293 HD
ENDBRANCH   6  26
BRANCH   8  28
ATOM     28  O   UNL     1     177.053 182.222 175.445  1.00  0.00    -0.508 OA
ATOM     29  H   UNL     1     177.080 182.977 174.770  1.00  0.00     0.293 HD
ENDBRANCH   8  28
TORSDOF 7
ENDMDL
MODEL 7
REMARK VINA RESULT:    -6.149      3.827      6.802
REMARK INTER + INTRA:          -7.884
REMARK INTER:                  -7.526
REMARK INTRA:                  -0.358
REMARK UNBOUND:                -0.297
REMARK SMILES O=c1c(O)c(-c2cc(O)c(O)c(O)c2)oc2cc(O)cc(O)c12
REMARK SMILES IDX 5 1 3 2 2 3 1 4 23 5 21 6 20 7 18 8 17 9 16 10 15 11 6 12
REMARK SMILES IDX 7 13 8 14 14 15 10 16 12 17 9 18 11 20 13 22 4 24 22 26
REMARK SMILES IDX 19 28
REMARK H PARENT 9 19 11 21 13 23 4 25 22 27 19 29
REMARK Flexibility Score: inf
ROOT
ATOM      1  C   UNL     1     178.494 181.463 174.759  1.00  0.00     0.180 A 
ATOM      2  C   UNL     1     178.128 181.639 176.108  1.00  0.00     0.208 A 
ATOM      3  C   UNL     1     178.986 181.162 177.111  1.00  0.00     0.238 A 
ATOM      4  O   UNL     1     178.674 181.322 178.322  1.00  0.00    -0.285 OA
ATOM      5  C   UNL     1     180.180 180.505 176.752  1.00  0.00     0.111 A 
ATOM      6  C   UNL     1     181.097 179.991 177.701  1.00  0.00     0.134 A 
ATOM      7  C   UNL     1     182.260 179.341 177.264  1.00  0.00     0.093 A 
ATOM      8  C   UNL     1     182.524 179.192 175.900  1.00  0.00     0.123 A 
ATOM      9  C   UNL     1     181.622 179.697 174.957  1.00  0.00     0.094 A 
ATOM     10  C   UNL     1     180.459 180.350 175.373  1.00  0.00     0.146 A 
ATOM     11  O   UNL     1     179.621 180.825 174.458  1.00  0.00    -0.452 OA
ENDROOT
BRANCH   1  12
ATOM     12  C   UNL     1     177.652 181.954 173.645  1.00  0.00     0.029 A 
ATOM     13  C   UNL     1     176.642 181.131 173.129  1.00  0.00     0.062 A 
ATOM     14  C   UNL     1     175.840 181.554 172.062  1.00  0.00     0.162 A 
ATOM     15  C   UNL     1     177.879 183.206 173.054  1.00  0.00     0.062 A 
ATOM     16  C   UNL     1     176.060 182.828 171.486  1.00  0.00     0.200 A 
ATOM     17  C   UNL     1     177.086 183.643 171.985  1.00  0.00     0.162 A 
BRANCH  14  18
ATOM     18  O   UNL     1     174.846 180.683 171.610  1.00  0.00    -0.504 OA
ATOM     19  H   UNL     1     175.028 179.763 171.237  1.00  0.00     0.293 HD
ENDBRANCH  14  18
BRANCH  16  20
ATOM     20  O   UNL     1     175.294 183.314 170.424  1.00  0.00    -0.502 OA
ATOM     21  H   UNL     1     174.319 183.562 170.497  1.00  0.00     0.293 HD
ENDBRANCH  16  20
BRANCH  17  22
ATOM     22  O   UNL     1     177.314 184.892 171.409  1.00  0.00    -0.504 OA
ATOM     23  H   UNL     1     177.339 185.017 170.404  1.00  0.00     0.293 HD
ENDBRANCH  17  22
ENDBRANCH   1  12
BRANCH   2  24
ATOM     24  O   UNL     1     176.915 182.250 176.436  1.00  0.00    -0.502 OA
ATOM     25  H   UNL     1     176.295 181.879 177.146  1.00  0.00     0.293 HD
ENDBRANCH   2  24
BRANCH   6  26
ATOM     26  O   UNL     1     180.862 180.123 179.071  1.00  0.00    -0.507 OA
ATOM     27  H   UNL     1     181.583 179.928 179.756  1.00  0.00     0.293 HD
ENDBRANCH   6  26
BRANCH   8  28
ATOM     28  O   UNL     1     183.686 178.542 175.492  1.00  0.00    -0.508 OA
ATOM     29  H   UNL     1     183.715 177.536 175.370  1.00  0.00     0.293 HD
ENDBRANCH   8  28
TORSDOF 7
ENDMDL
MODEL 8
REMARK VINA RESULT:    -6.048      4.082      6.052
REMARK INTER + INTRA:          -7.760
REMARK INTER:                  -7.418
REMARK INTRA:                  -0.341
REMARK UNBOUND:                -0.297
REMARK SMILES O=c1c(O)c(-c2cc(O)c(O)c(O)c2)oc2cc(O)cc(O)c12
REMARK SMILES IDX 5 1 3 2 2 3 1 4 23 5 21 6 20 7 18 8 17 9 16 10 15 11 6 12
REMARK SMILES IDX 7 13 8 14 14 15 10 16 12 17 9 18 11 20 13 22 4 24 22 26
REMARK SMILES IDX 19 28
REMARK H PARENT 9 19 11 21 13 23 4 25 22 27 19 29
REMARK Flexibility Score: inf
ROOT
ATOM      1  C   UNL     1     179.046 181.925 174.909  1.00  0.00     0.180 A 
ATOM      2  C   UNL     1     179.552 183.121 174.363  1.00  0.00     0.208 A 
ATOM      3  C   UNL     1     178.882 183.707 173.278  1.00  0.00     0.238 A 
ATOM      4  O   UNL     1     179.319 184.783 172.786  1.00  0.00    -0.285 OA
ATOM      5  C   UNL     1     177.735 183.082 172.747  1.00  0.00     0.111 A 
ATOM      6  C   UNL     1     177.005 183.604 171.652  1.00  0.00     0.134 A 
ATOM      7  C   UNL     1     175.879 182.918 171.175  1.00  0.00     0.093 A 
ATOM      8  C   UNL     1     175.470 181.721 171.768  1.00  0.00     0.123 A 
ATOM      9  C   UNL     1     176.187 181.200 172.850  1.00  0.00     0.094 A 
ATOM     10  C   UNL     1     177.310 181.870 173.341  1.00  0.00     0.146 A 
ATOM     11  O   UNL     1     177.971 181.356 174.372  1.00  0.00    -0.452 OA
ENDROOT
BRANCH   1  12
ATOM     12  C   UNL     1     179.686 181.257 176.066  1.00  0.00     0.029 A 
ATOM     13  C   UNL     1     179.210 181.511 177.359  1.00  0.00     0.062 A 
ATOM     14  C   UNL     1     179.804 180.913 178.477  1.00  0.00     0.162 A 
ATOM     15  C   UNL     1     180.798 180.416 175.900  1.00  0.00     0.062 A 
ATOM     16  C   UNL     1     180.910 180.048 178.301  1.00  0.00     0.200 A 
ATOM     17  C   UNL     1     181.403 179.811 177.009  1.00  0.00     0.162 A 
BRANCH  14  18
ATOM     18  O   UNL     1     179.267 181.205 179.733  1.00  0.00    -0.504 OA
ATOM     19  H   UNL     1     179.773 181.677 180.468  1.00  0.00     0.293 HD
ENDBRANCH  14  18
BRANCH  16  20
ATOM     20  O   UNL     1     181.546 179.414 179.372  1.00  0.00    -0.502 OA
ATOM     21  H   UNL     1     182.456 178.983 179.314  1.00  0.00     0.293 HD
ENDBRANCH  16  20
BRANCH  17  22
ATOM     22  O   UNL     1     182.502 178.972 176.835  1.00  0.00    -0.504 OA
ATOM     23  H   UNL     1     183.381 179.143 177.308  1.00  0.00     0.293 HD
ENDBRANCH  17  22
ENDBRANCH   1  12
BRANCH   2  24
ATOM     24  O   UNL     1     180.718 183.694 174.877  1.00  0.00    -0.502 OA
ATOM     25  H   UNL     1     181.591 183.184 174.939  1.00  0.00     0.293 HD
ENDBRANCH   2  24
BRANCH   6  26
ATOM     26  O   UNL     1     177.389 184.797 171.036  1.00  0.00    -0.507 OA
ATOM     27  H   UNL     1     176.725 185.542 170.858  1.00  0.00     0.293 HD
ENDBRANCH   6  26
BRANCH   8  28
ATOM     28  O   UNL     1     174.349 181.059 171.275  1.00  0.00    -0.508 OA
ATOM     29  H   UNL     1     173.868 180.352 171.820  1.00  0.00     0.293 HD
ENDBRANCH   8  28
TORSDOF 7
ENDMDL
MODEL 9
REMARK VINA RESULT:    -5.996      1.293      2.976
REMARK INTER + INTRA:          -7.695
REMARK INTER:                  -7.365
REMARK INTRA:                  -0.331
REMARK UNBOUND:                -0.297
REMARK SMILES O=c1c(O)c(-c2cc(O)c(O)c(O)c2)oc2cc(O)cc(O)c12
REMARK SMILES IDX 5 1 3 2 2 3 1 4 23 5 21 6 20 7 18 8 17 9 16 10 15 11 6 12
REMARK SMILES IDX 7 13 8 14 14 15 10 16 12 17 9 18 11 20 13 22 4 24 22 26
REMARK SMILES IDX 19 28
REMARK H PARENT 9 19 11 21 13 23 4 25 22 27 19 29
REMARK Flexibility Score: inf
ROOT
ATOM      1  C   UNL     1     181.683 178.701 174.811  1.00  0.00     0.180 A 
ATOM      2  C   UNL     1     181.190 177.505 174.254  1.00  0.00     0.208 A 
ATOM      3  C   UNL     1     181.865 176.936 173.163  1.00  0.00     0.238 A 
ATOM      4  O   UNL     1     181.438 175.859 172.662  1.00  0.00    -0.285 OA
ATOM      5  C   UNL     1     183.005 177.577 172.637  1.00  0.00     0.111 A 
ATOM      6  C   UNL     1     183.739 177.072 171.537  1.00  0.00     0.134 A 
ATOM      7  C   UNL     1     184.858 177.775 171.065  1.00  0.00     0.093 A 
ATOM      8  C   UNL     1     185.255 178.970 171.669  1.00  0.00     0.123 A 
ATOM      9  C   UNL     1     184.534 179.475 172.756  1.00  0.00     0.094 A 
ATOM     10  C   UNL     1     183.418 178.788 173.242  1.00  0.00     0.146 A 
ATOM     11  O   UNL     1     182.752 179.286 174.278  1.00  0.00    -0.452 OA
ENDROOT
BRANCH   1  12
ATOM     12  C   UNL     1     181.038 179.352 175.973  1.00  0.00     0.029 A 
ATOM     13  C   UNL     1     179.918 180.169 175.772  1.00  0.00     0.062 A 
ATOM     14  C   UNL     1     179.294 180.818 176.845  1.00  0.00     0.162 A 
ATOM     15  C   UNL     1     181.559 179.217 177.269  1.00  0.00     0.062 A 
ATOM     16  C   UNL     1     179.812 180.657 178.153  1.00  0.00     0.200 A 
ATOM     17  C   UNL     1     180.948 179.860 178.353  1.00  0.00     0.162 A 
BRANCH  14  18
ATOM     18  O   UNL     1     178.175 181.605 176.568  1.00  0.00    -0.504 OA
ATOM     19  H   UNL     1     177.287 181.237 176.260  1.00  0.00     0.293 HD
ENDBRANCH  14  18
BRANCH  16  20
ATOM     20  O   UNL     1     179.237 181.271 179.269  1.00  0.00    -0.502 OA
ATOM     21  H   UNL     1     179.020 182.254 179.324  1.00  0.00     0.293 HD
ENDBRANCH  16  20
BRANCH  17  22
ATOM     22  O   UNL     1     181.468 179.713 179.638  1.00  0.00    -0.504 OA
ATOM     23  H   UNL     1     182.453 179.851 179.831  1.00  0.00     0.293 HD
ENDBRANCH  17  22
ENDBRANCH   1  12
BRANCH   2  24
ATOM     24  O   UNL     1     180.030 176.916 174.763  1.00  0.00    -0.502 OA
ATOM     25  H   UNL     1     179.364 176.430 174.174  1.00  0.00     0.293 HD
ENDBRANCH   2  24
BRANCH   6  26
ATOM     26  O   UNL     1     183.368 175.881 170.911  1.00  0.00    -0.507 OA
ATOM     27  H   UNL     1     184.017 175.110 170.805  1.00  0.00     0.293 HD
ENDBRANCH   6  26
BRANCH   8  28
ATOM     28  O   UNL     1     186.369 179.649 171.181  1.00  0.00    -0.508 OA
ATOM     29  H   UNL     1     187.306 179.280 171.294  1.00  0.00     0.293 HD
ENDBRANCH   8  28
TORSDOF 7
ENDMDL
