MODEL 1
REMARK VINA RESULT:    -4.736      0.000      0.000
REMARK INTER + INTRA:         -14.055
REMARK INTER:                 -10.827
REMARK INTRA:                  -3.229
REMARK UNBOUND:                -3.229
REMARK SMILES CCCCCCCCCCCCCCCCCCCCCCCC(=O)[O-]
REMARK SMILES IDX 13 1 14 2 15 3 16 4 17 5 18 6 19 7 20 8 21 9 22 10 23 11
REMARK SMILES IDX 24 12 25 13 26 14 12 15 11 16 10 17 9 18 8 19 7 20 6 21 5 22
REMARK SMILES IDX 4 23 3 24 2 25 1 26
REMARK H PARENT
REMARK Flexibility Score: inf
ROOT
ATOM      1  C   UNL     1       3.142  -5.166   7.678  1.00  0.00     0.000 C 
ENDROOT
BRANCH   1   2
ATOM      2  C   UNL     1       4.012  -6.408   7.410  1.00  0.00     0.000 C 
BRANCH   2   3
ATOM      3  C   UNL     1       3.647  -7.121   6.097  1.00  0.00     0.000 C 
BRANCH   3   4
ATOM      4  C   UNL     1       4.501  -8.376   5.850  1.00  0.00     0.000 C 
BRANCH   4   5
ATOM      5  C   UNL     1       3.657  -9.654   5.696  1.00  0.00     0.000 C 
BRANCH   5   6
ATOM      6  C   UNL     1       3.826 -10.625   6.885  1.00  0.00     0.000 C 
BRANCH   6   7
ATOM      7  C   UNL     1       5.295 -10.957   7.214  1.00  0.00     0.000 C 
BRANCH   7   8
ATOM      8  C   UNL     1       5.843 -12.229   6.544  1.00  0.00     0.000 C 
BRANCH   8   9
ATOM      9  C   UNL     1       4.873 -13.429   6.526  1.00  0.00     0.000 C 
BRANCH   9  10
ATOM     10  C   UNL     1       4.537 -13.976   5.125  1.00  0.00     0.006 C 
BRANCH  10  11
ATOM     11  C   UNL     1       4.863 -13.015   3.971  1.00  0.00     0.053 C 
BRANCH  11  12
ATOM     12  C   UNL     1       3.627 -12.415   3.374  1.00  0.00     0.041 C 
ATOM     13  O   UNL     1       2.517 -12.543   3.955  1.00  0.00    -0.550 OA
ATOM     14  O   UNL     1       3.709 -11.677   2.199  1.00  0.00    -0.550 OA
ENDBRANCH  11  12
ENDBRANCH  10  11
ENDBRANCH   9  10
ENDBRANCH   8   9
ENDBRANCH   7   8
ENDBRANCH   6   7
ENDBRANCH   5   6
ENDBRANCH   4   5
ENDBRANCH   3   4
ENDBRANCH   2   3
ENDBRANCH   1   2
BRANCH   1  15
ATOM     15  C   UNL     1       2.267  -4.707   6.492  1.00  0.00     0.000 C 
BRANCH  15  16
ATOM     16  C   UNL     1       0.936  -4.033   6.876  1.00  0.00     0.000 C 
BRANCH  16  17
ATOM     17  C   UNL     1      -0.325  -4.887   6.634  1.00  0.00     0.000 C 
BRANCH  17  18
ATOM     18  C   UNL     1      -0.027  -6.361   6.285  1.00  0.00    -0.000 C 
BRANCH  18  19
ATOM     19  C   UNL     1      -0.897  -7.352   7.079  1.00  0.00    -0.000 C 
BRANCH  19  20
ATOM     20  C   UNL     1      -0.087  -8.525   7.652  1.00  0.00    -0.000 C 
BRANCH  20  21
ATOM     21  C   UNL     1       1.047  -8.066   8.582  1.00  0.00    -0.000 C 
BRANCH  21  22
ATOM     22  C   UNL     1       0.485  -7.411   9.852  1.00  0.00    -0.000 C 
BRANCH  22  23
ATOM     23  C   UNL     1       1.018  -5.982  10.074  1.00  0.00    -0.000 C 
BRANCH  23  24
ATOM     24  C   UNL     1       1.028  -5.512  11.542  1.00  0.00    -0.000 C 
BRANCH  24  25
ATOM     25  C   UNL     1       1.868  -6.379  12.496  1.00  0.00    -0.003 C 
ATOM     26  C   UNL     1       3.260  -5.806  12.753  1.00  0.00     0.004 C 
ENDBRANCH  24  25
ENDBRANCH  23  24
ENDBRANCH  22  23
ENDBRANCH  21  22
ENDBRANCH  20  21
ENDBRANCH  19  20
ENDBRANCH  18  19
ENDBRANCH  17  18
ENDBRANCH  16  17
ENDBRANCH  15  16
ENDBRANCH   1  15
TORSDOF 22
ENDMDL
MODEL 2
REMARK VINA RESULT:    -4.681      3.176      6.889
REMARK INTER + INTRA:         -13.930
REMARK INTER:                 -10.478
REMARK INTRA:                  -3.451
REMARK UNBOUND:                -3.229
REMARK SMILES CCCCCCCCCCCCCCCCCCCCCCCC(=O)[O-]
REMARK SMILES IDX 13 1 14 2 15 3 16 4 17 5 18 6 19 7 20 8 21 9 22 10 23 11
REMARK SMILES IDX 24 12 25 13 26 14 12 15 11 16 10 17 9 18 8 19 7 20 6 21 5 22
REMARK SMILES IDX 4 23 3 24 2 25 1 26
REMARK H PARENT
REMARK Flexibility Score: inf
ROOT
ATOM      1  C   UNL     1       2.995 -11.606   3.470  1.00  0.00     0.000 C 
ENDROOT
BRANCH   1   2
ATOM      2  C   UNL     1       2.040 -10.490   3.010  1.00  0.00     0.000 C 
BRANCH   2   3
ATOM      3  C   UNL     1       2.535  -9.761   1.749  1.00  0.00     0.000 C 
BRANCH   3   4
ATOM      4  C   UNL     1       1.589  -9.946   0.551  1.00  0.00     0.000 C 
BRANCH   4   5
ATOM      5  C   UNL     1       1.187 -11.414   0.326  1.00  0.00     0.000 C 
BRANCH   5   6
ATOM      6  C   UNL     1       2.273 -12.220  -0.419  1.00  0.00     0.000 C 
BRANCH   6   7
ATOM      7  C   UNL     1       2.726 -13.492   0.326  1.00  0.00     0.000 C 
BRANCH   7   8
ATOM      8  C   UNL     1       4.248 -13.711   0.378  1.00  0.00     0.000 C 
BRANCH   8   9
ATOM      9  C   UNL     1       5.083 -12.443   0.659  1.00  0.00     0.000 C 
BRANCH   9  10
ATOM     10  C   UNL     1       6.456 -12.398  -0.041  1.00  0.00     0.006 C 
BRANCH  10  11
ATOM     11  C   UNL     1       7.634 -12.835   0.843  1.00  0.00     0.053 C 
BRANCH  11  12
ATOM     12  C   UNL     1       8.248 -14.116   0.366  1.00  0.00     0.041 C 
ATOM     13  O   UNL     1       9.485 -14.313   0.498  1.00  0.00    -0.550 OA
ATOM     14  O   UNL     1       7.447 -15.109  -0.186  1.00  0.00    -0.550 OA
ENDBRANCH  11  12
ENDBRANCH  10  11
ENDBRANCH   9  10
ENDBRANCH   8   9
ENDBRANCH   7   8
ENDBRANCH   6   7
ENDBRANCH   5   6
ENDBRANCH   4   5
ENDBRANCH   3   4
ENDBRANCH   2   3
ENDBRANCH   1   2
BRANCH   1  15
ATOM     15  C   UNL     1       2.309 -12.892   3.978  1.00  0.00     0.000 C 
BRANCH  15  16
ATOM     16  C   UNL     1       3.208 -14.141   4.038  1.00  0.00     0.000 C 
BRANCH  16  17
ATOM     17  C   UNL     1       4.697 -13.863   4.326  1.00  0.00     0.000 C 
BRANCH  17  18
ATOM     18  C   UNL     1       5.014 -13.622   5.818  1.00  0.00    -0.000 C 
BRANCH  18  19
ATOM     19  C   UNL     1       5.708 -12.272   6.073  1.00  0.00    -0.000 C 
BRANCH  19  20
ATOM     20  C   UNL     1       5.077 -11.490   7.235  1.00  0.00    -0.000 C 
BRANCH  20  21
ATOM     21  C   UNL     1       4.580 -10.098   6.815  1.00  0.00    -0.000 C 
BRANCH  21  22
ATOM     22  C   UNL     1       3.053 -10.085   6.654  1.00  0.00    -0.000 C 
BRANCH  22  23
ATOM     23  C   UNL     1       2.492  -8.675   6.389  1.00  0.00    -0.000 C 
BRANCH  23  24
ATOM     24  C   UNL     1       3.555  -7.586   6.146  1.00  0.00    -0.000 C 
BRANCH  24  25
ATOM     25  C   UNL     1       3.629  -6.497   7.230  1.00  0.00    -0.003 C 
ATOM     26  C   UNL     1       2.841  -5.240   6.868  1.00  0.00     0.004 C 
ENDBRANCH  24  25
ENDBRANCH  23  24
ENDBRANCH  22  23
ENDBRANCH  21  22
ENDBRANCH  20  21
ENDBRANCH  19  20
ENDBRANCH  18  19
ENDBRANCH  17  18
ENDBRANCH  16  17
ENDBRANCH  15  16
ENDBRANCH   1  15
TORSDOF 22
ENDMDL
MODEL 3
REMARK VINA RESULT:    -4.672      3.547      8.805
REMARK INTER + INTRA:         -13.909
REMARK INTER:                 -10.832
REMARK INTRA:                  -3.077
REMARK UNBOUND:                -3.229
REMARK SMILES CCCCCCCCCCCCCCCCCCCCCCCC(=O)[O-]
REMARK SMILES IDX 13 1 14 2 15 3 16 4 17 5 18 6 19 7 20 8 21 9 22 10 23 11
REMARK SMILES IDX 24 12 25 13 26 14 12 15 11 16 10 17 9 18 8 19 7 20 6 21 5 22
REMARK SMILES IDX 4 23 3 24 2 25 1 26
REMARK H PARENT
REMARK Flexibility Score: inf
ROOT
ATOM      1  C   UNL     1       2.739 -11.643   4.100  1.00  0.00     0.000 C 
ENDROOT
BRANCH   1   2
ATOM      2  C   UNL     1       2.420 -13.136   3.905  1.00  0.00     0.000 C 
BRANCH   2   3
ATOM      3  C   UNL     1       3.533 -14.059   4.431  1.00  0.00     0.000 C 
BRANCH   3   4
ATOM      4  C   UNL     1       4.819 -13.291   4.780  1.00  0.00     0.000 C 
BRANCH   4   5
ATOM      5  C   UNL     1       5.224 -13.441   6.257  1.00  0.00     0.000 C 
BRANCH   5   6
ATOM      6  C   UNL     1       5.681 -12.108   6.887  1.00  0.00     0.000 C 
BRANCH   6   7
ATOM      7  C   UNL     1       4.530 -11.117   7.151  1.00  0.00     0.000 C 
BRANCH   7   8
ATOM      8  C   UNL     1       4.759  -9.692   6.618  1.00  0.00     0.000 C 
BRANCH   8   9
ATOM      9  C   UNL     1       3.484  -8.836   6.467  1.00  0.00     0.000 C 
BRANCH   9  10
ATOM     10  C   UNL     1       3.711  -7.419   5.906  1.00  0.00     0.006 C 
BRANCH  10  11
ATOM     11  C   UNL     1       3.526  -6.291   6.933  1.00  0.00     0.053 C 
BRANCH  11  12
ATOM     12  C   UNL     1       2.126  -5.758   6.934  1.00  0.00     0.041 C 
ATOM     13  O   UNL     1       1.842  -4.721   6.276  1.00  0.00    -0.550 OA
ATOM     14  O   UNL     1       1.125  -6.430   7.626  1.00  0.00    -0.550 OA
ENDBRANCH  11  12
ENDBRANCH  10  11
ENDBRANCH   9  10
ENDBRANCH   8   9
ENDBRANCH   7   8
ENDBRANCH   6   7
ENDBRANCH   5   6
ENDBRANCH   4   5
ENDBRANCH   3   4
ENDBRANCH   2   3
ENDBRANCH   1   2
BRANCH   1  15
ATOM     15  C   UNL     1       1.612 -10.669   3.690  1.00  0.00     0.000 C 
BRANCH  15  16
ATOM     16  C   UNL     1       2.074  -9.399   2.952  1.00  0.00     0.000 C 
BRANCH  16  17
ATOM     17  C   UNL     1       1.569  -9.263   1.501  1.00  0.00     0.000 C 
BRANCH  17  18
ATOM     18  C   UNL     1       1.045 -10.582   0.894  1.00  0.00    -0.000 C 
BRANCH  18  19
ATOM     19  C   UNL     1       1.960 -11.139  -0.211  1.00  0.00    -0.000 C 
BRANCH  19  20
ATOM     20  C   UNL     1       2.967 -12.172   0.317  1.00  0.00    -0.000 C 
BRANCH  20  21
ATOM     21  C   UNL     1       4.288 -11.534   0.776  1.00  0.00    -0.000 C 
BRANCH  21  22
ATOM     22  C   UNL     1       5.313 -12.610   1.162  1.00  0.00    -0.000 C 
BRANCH  22  23
ATOM     23  C   UNL     1       6.470 -12.725   0.152  1.00  0.00    -0.000 C 
BRANCH  23  24
ATOM     24  C   UNL     1       7.867 -12.900   0.779  1.00  0.00    -0.000 C 
BRANCH  24  25
ATOM     25  C   UNL     1       8.567 -14.229   0.445  1.00  0.00    -0.003 C 
ATOM     26  C   UNL     1       8.056 -14.864  -0.847  1.00  0.00     0.004 C 
ENDBRANCH  24  25
ENDBRANCH  23  24
ENDBRANCH  22  23
ENDBRANCH  21  22
ENDBRANCH  20  21
ENDBRANCH  19  20
ENDBRANCH  18  19
ENDBRANCH  17  18
ENDBRANCH  16  17
ENDBRANCH  15  16
ENDBRANCH   1  15
TORSDOF 22
ENDMDL
MODEL 4
REMARK VINA RESULT:    -4.663      3.421      9.318
REMARK INTER + INTRA:         -13.889
REMARK INTER:                 -10.723
REMARK INTRA:                  -3.166
REMARK UNBOUND:                -3.229
REMARK SMILES CCCCCCCCCCCCCCCCCCCCCCCC(=O)[O-]
REMARK SMILES IDX 13 1 14 2 15 3 16 4 17 5 18 6 19 7 20 8 21 9 22 10 23 11
REMARK SMILES IDX 24 12 25 13 26 14 12 15 11 16 10 17 9 18 8 19 7 20 6 21 5 22
REMARK SMILES IDX 4 23 3 24 2 25 1 26
REMARK H PARENT
REMARK Flexibility Score: inf
ROOT
ATOM      1  C   UNL     1       4.864 -13.412   6.297  1.00  0.00     0.000 C 
ENDROOT
BRANCH   1   2
ATOM      2  C   UNL     1       5.886 -12.262   6.246  1.00  0.00     0.000 C 
BRANCH   2   3
ATOM      3  C   UNL     1       5.606 -11.168   7.292  1.00  0.00     0.000 C 
BRANCH   3   4
ATOM      4  C   UNL     1       4.239 -10.495   7.090  1.00  0.00     0.000 C 
BRANCH   4   5
ATOM      5  C   UNL     1       4.330  -9.173   6.307  1.00  0.00     0.000 C 
BRANCH   5   6
ATOM      6  C   UNL     1       3.446  -9.169   5.041  1.00  0.00     0.000 C 
BRANCH   6   7
ATOM      7  C   UNL     1       2.216 -10.094   5.138  1.00  0.00     0.000 C 
BRANCH   7   8
ATOM      8  C   UNL     1       0.907  -9.399   5.555  1.00  0.00     0.000 C 
BRANCH   8   9
ATOM      9  C   UNL     1       0.958  -7.857   5.557  1.00  0.00     0.000 C 
BRANCH   9  10
ATOM     10  C   UNL     1       0.693  -7.197   6.925  1.00  0.00     0.006 C 
BRANCH  10  11
ATOM     11  C   UNL     1       1.940  -6.601   7.596  1.00  0.00     0.053 C 
BRANCH  11  12
ATOM     12  C   UNL     1       2.530  -5.484   6.791  1.00  0.00     0.041 C 
ATOM     13  O   UNL     1       3.669  -5.614   6.268  1.00  0.00    -0.550 OA
ATOM     14  O   UNL     1       1.805  -4.317   6.584  1.00  0.00    -0.550 OA
ENDBRANCH  11  12
ENDBRANCH  10  11
ENDBRANCH   9  10
ENDBRANCH   8   9
ENDBRANCH   7   8
ENDBRANCH   6   7
ENDBRANCH   5   6
ENDBRANCH   4   5
ENDBRANCH   3   4
ENDBRANCH   2   3
ENDBRANCH   1   2
BRANCH   1  15
ATOM     15  C   UNL     1       4.558 -14.081   4.939  1.00  0.00     0.000 C 
BRANCH  15  16
ATOM     16  C   UNL     1       3.677 -13.257   3.981  1.00  0.00     0.000 C 
BRANCH  16  17
ATOM     17  C   UNL     1       4.398 -12.718   2.729  1.00  0.00     0.000 C 
BRANCH  17  18
ATOM     18  C   UNL     1       3.753 -11.449   2.133  1.00  0.00    -0.000 C 
BRANCH  18  19
ATOM     19  C   UNL     1       3.438 -11.585   0.632  1.00  0.00    -0.000 C 
BRANCH  19  20
ATOM     20  C   UNL     1       2.913 -12.981   0.261  1.00  0.00    -0.000 C 
BRANCH  20  21
ATOM     21  C   UNL     1       3.690 -13.619  -0.900  1.00  0.00    -0.000 C 
BRANCH  21  22
ATOM     22  C   UNL     1       4.999 -14.250  -0.404  1.00  0.00    -0.000 C 
BRANCH  22  23
ATOM     23  C   UNL     1       6.252 -13.559  -0.975  1.00  0.00    -0.000 C 
BRANCH  23  24
ATOM     24  C   UNL     1       6.844 -12.447  -0.087  1.00  0.00    -0.000 C 
BRANCH  24  25
ATOM     25  C   UNL     1       7.816 -12.934   1.002  1.00  0.00    -0.003 C 
ATOM     26  C   UNL     1       8.705 -14.085   0.536  1.00  0.00     0.004 C 
ENDBRANCH  24  25
ENDBRANCH  23  24
ENDBRANCH  22  23
ENDBRANCH  21  22
ENDBRANCH  20  21
ENDBRANCH  19  20
ENDBRANCH  18  19
ENDBRANCH  17  18
ENDBRANCH  16  17
ENDBRANCH  15  16
ENDBRANCH   1  15
TORSDOF 22
ENDMDL
MODEL 5
REMARK VINA RESULT:    -4.649      2.294      5.323
REMARK INTER + INTRA:         -13.856
REMARK INTER:                 -10.775
REMARK INTRA:                  -3.081
REMARK UNBOUND:                -3.229
REMARK SMILES CCCCCCCCCCCCCCCCCCCCCCCC(=O)[O-]
REMARK SMILES IDX 13 1 14 2 15 3 16 4 17 5 18 6 19 7 20 8 21 9 22 10 23 11
REMARK SMILES IDX 24 12 25 13 26 14 12 15 11 16 10 17 9 18 8 19 7 20 6 21 5 22
REMARK SMILES IDX 4 23 3 24 2 25 1 26
REMARK H PARENT
REMARK Flexibility Score: inf
ROOT
ATOM      1  C   UNL     1       5.996 -12.384   6.931  1.00  0.00     0.000 C 
ENDROOT
BRANCH   1   2
ATOM      2  C   UNL     1       4.816 -13.276   6.503  1.00  0.00     0.000 C 
BRANCH   2   3
ATOM      3  C   UNL     1       5.016 -13.907   5.115  1.00  0.00     0.000 C 
BRANCH   3   4
ATOM      4  C   UNL     1       4.470 -13.024   3.981  1.00  0.00     0.000 C 
BRANCH   4   5
ATOM      5  C   UNL     1       2.995 -12.633   4.184  1.00  0.00     0.000 C 
BRANCH   5   6
ATOM      6  C   UNL     1       2.412 -11.865   2.977  1.00  0.00     0.000 C 
BRANCH   6   7
ATOM      7  C   UNL     1       3.361 -10.793   2.404  1.00  0.00     0.000 C 
BRANCH   7   8
ATOM      8  C   UNL     1       3.817 -11.033   0.954  1.00  0.00     0.000 C 
BRANCH   8   9
ATOM      9  C   UNL     1       3.571 -12.458   0.418  1.00  0.00     0.000 C 
BRANCH   9  10
ATOM     10  C   UNL     1       4.840 -13.310   0.219  1.00  0.00     0.006 C 
BRANCH  10  11
ATOM     11  C   UNL     1       6.158 -12.538   0.397  1.00  0.00     0.053 C 
BRANCH  11  12
ATOM     12  C   UNL     1       7.354 -13.422   0.218  1.00  0.00     0.041 C 
ATOM     13  O   UNL     1       8.394 -13.226   0.901  1.00  0.00    -0.550 OA
ATOM     14  O   UNL     1       7.305 -14.489  -0.672  1.00  0.00    -0.550 OA
ENDBRANCH  11  12
ENDBRANCH  10  11
ENDBRANCH   9  10
ENDBRANCH   8   9
ENDBRANCH   7   8
ENDBRANCH   6   7
ENDBRANCH   5   6
ENDBRANCH   4   5
ENDBRANCH   3   4
ENDBRANCH   2   3
ENDBRANCH   1   2
BRANCH   1  15
ATOM     15  C   UNL     1       5.629 -10.923   7.269  1.00  0.00     0.000 C 
BRANCH  15  16
ATOM     16  C   UNL     1       4.206 -10.491   6.869  1.00  0.00     0.000 C 
BRANCH  16  17
ATOM     17  C   UNL     1       4.134  -9.361   5.822  1.00  0.00     0.000 C 
BRANCH  17  18
ATOM     18  C   UNL     1       2.702  -8.858   5.540  1.00  0.00    -0.000 C 
BRANCH  18  19
ATOM     19  C   UNL     1       2.377  -7.539   6.264  1.00  0.00    -0.000 C 
BRANCH  19  20
ATOM     20  C   UNL     1       3.615  -6.895   6.908  1.00  0.00    -0.000 C 
BRANCH  20  21
ATOM     21  C   UNL     1       3.256  -5.784   7.907  1.00  0.00    -0.000 C 
BRANCH  21  22
ATOM     22  C   UNL     1       1.734  -5.610   8.011  1.00  0.00    -0.000 C 
BRANCH  22  23
ATOM     23  C   UNL     1       1.186  -5.958   9.407  1.00  0.00    -0.000 C 
BRANCH  23  24
ATOM     24  C   UNL     1       0.684  -7.407   9.567  1.00  0.00    -0.000 C 
BRANCH  24  25
ATOM     25  C   UNL     1      -0.504  -7.786   8.665  1.00  0.00    -0.003 C 
ATOM     26  C   UNL     1      -0.409  -9.209   8.120  1.00  0.00     0.004 C 
ENDBRANCH  24  25
ENDBRANCH  23  24
ENDBRANCH  22  23
ENDBRANCH  21  22
ENDBRANCH  20  21
ENDBRANCH  19  20
ENDBRANCH  18  19
ENDBRANCH  17  18
ENDBRANCH  16  17
ENDBRANCH  15  16
ENDBRANCH   1  15
TORSDOF 22
ENDMDL
MODEL 6
REMARK VINA RESULT:    -4.635      2.973      6.307
REMARK INTER + INTRA:         -13.826
REMARK INTER:                 -11.064
REMARK INTRA:                  -2.762
REMARK UNBOUND:                -3.229
REMARK SMILES CCCCCCCCCCCCCCCCCCCCCCCC(=O)[O-]
REMARK SMILES IDX 13 1 14 2 15 3 16 4 17 5 18 6 19 7 20 8 21 9 22 10 23 11
REMARK SMILES IDX 24 12 25 13 26 14 12 15 11 16 10 17 9 18 8 19 7 20 6 21 5 22
REMARK SMILES IDX 4 23 3 24 2 25 1 26
REMARK H PARENT
REMARK Flexibility Score: inf
ROOT
ATOM      1  C   UNL     1       4.870 -13.781   5.040  1.00  0.00     0.000 C 
ENDROOT
BRANCH   1   2
ATOM      2  C   UNL     1       3.610 -13.450   4.220  1.00  0.00     0.000 C 
BRANCH   2   3
ATOM      3  C   UNL     1       3.547 -11.974   3.791  1.00  0.00     0.000 C 
BRANCH   3   4
ATOM      4  C   UNL     1       2.299 -11.657   2.950  1.00  0.00     0.000 C 
BRANCH   4   5
ATOM      5  C   UNL     1       2.599 -10.733   1.756  1.00  0.00     0.000 C 
BRANCH   5   6
ATOM      6  C   UNL     1       3.873 -11.149   0.989  1.00  0.00     0.000 C 
BRANCH   6   7
ATOM      7  C   UNL     1       3.783 -12.546   0.343  1.00  0.00     0.000 C 
BRANCH   7   8
ATOM      8  C   UNL     1       5.087 -13.057  -0.294  1.00  0.00     0.000 C 
BRANCH   8   9
ATOM      9  C   UNL     1       6.375 -12.382   0.222  1.00  0.00     0.000 C 
BRANCH   9  10
ATOM     10  C   UNL     1       7.193 -13.220   1.226  1.00  0.00     0.006 C 
BRANCH  10  11
ATOM     11  C   UNL     1       8.480 -13.828   0.647  1.00  0.00     0.053 C 
BRANCH  11  12
ATOM     12  C   UNL     1       8.220 -15.127  -0.053  1.00  0.00     0.041 C 
ATOM     13  O   UNL     1       8.374 -16.218   0.558  1.00  0.00    -0.550 OA
ATOM     14  O   UNL     1       7.768 -15.131  -1.367  1.00  0.00    -0.550 OA
ENDBRANCH  11  12
ENDBRANCH  10  11
ENDBRANCH   9  10
ENDBRANCH   8   9
ENDBRANCH   7   8
ENDBRANCH   6   7
ENDBRANCH   5   6
ENDBRANCH   4   5
ENDBRANCH   3   4
ENDBRANCH   2   3
ENDBRANCH   1   2
BRANCH   1  15
ATOM     15  C   UNL     1       4.871 -13.250   6.490  1.00  0.00     0.000 C 
BRANCH  15  16
ATOM     16  C   UNL     1       6.099 -12.407   6.883  1.00  0.00     0.000 C 
BRANCH  16  17
ATOM     17  C   UNL     1       5.789 -10.959   7.312  1.00  0.00     0.000 C 
BRANCH  17  18
ATOM     18  C   UNL     1       4.391 -10.463   6.884  1.00  0.00    -0.000 C 
BRANCH  18  19
ATOM     19  C   UNL     1       4.412  -9.035   6.310  1.00  0.00    -0.000 C 
BRANCH  19  20
ATOM     20  C   UNL     1       3.271  -8.779   5.313  1.00  0.00    -0.000 C 
BRANCH  20  21
ATOM     21  C   UNL     1       1.906  -9.249   5.839  1.00  0.00    -0.000 C 
BRANCH  21  22
ATOM     22  C   UNL     1       1.303  -8.217   6.804  1.00  0.00    -0.000 C 
BRANCH  22  23
ATOM     23  C   UNL     1       1.024  -6.860   6.130  1.00  0.00    -0.000 C 
BRANCH  23  24
ATOM     24  C   UNL     1       1.510  -5.629   6.920  1.00  0.00    -0.000 C 
BRANCH  24  25
ATOM     25  C   UNL     1       3.002  -5.295   6.749  1.00  0.00    -0.003 C 
ATOM     26  C   UNL     1       3.818  -5.537   8.017  1.00  0.00     0.004 C 
ENDBRANCH  24  25
ENDBRANCH  23  24
ENDBRANCH  22  23
ENDBRANCH  21  22
ENDBRANCH  20  21
ENDBRANCH  19  20
ENDBRANCH  18  19
ENDBRANCH  17  18
ENDBRANCH  16  17
ENDBRANCH  15  16
ENDBRANCH   1  15
TORSDOF 22
ENDMDL
MODEL 7
REMARK VINA RESULT:    -4.625      2.501      5.202
REMARK INTER + INTRA:         -13.801
REMARK INTER:                 -10.591
REMARK INTRA:                  -3.210
REMARK UNBOUND:                -3.229
REMARK SMILES CCCCCCCCCCCCCCCCCCCCCCCC(=O)[O-]
REMARK SMILES IDX 13 1 14 2 15 3 16 4 17 5 18 6 19 7 20 8 21 9 22 10 23 11
REMARK SMILES IDX 24 12 25 13 26 14 12 15 11 16 10 17 9 18 8 19 7 20 6 21 5 22
REMARK SMILES IDX 4 23 3 24 2 25 1 26
REMARK H PARENT
REMARK Flexibility Score: inf
ROOT
ATOM      1  C   UNL     1       5.902 -12.209   6.469  1.00  0.00     0.000 C 
ENDROOT
BRANCH   1   2
ATOM      2  C   UNL     1       5.030 -13.476   6.412  1.00  0.00     0.000 C 
BRANCH   2   3
ATOM      3  C   UNL     1       4.787 -13.971   4.976  1.00  0.00     0.000 C 
BRANCH   3   4
ATOM      4  C   UNL     1       4.457 -12.825   4.005  1.00  0.00     0.000 C 
BRANCH   4   5
ATOM      5  C   UNL     1       2.957 -12.485   3.968  1.00  0.00     0.000 C 
BRANCH   5   6
ATOM      6  C   UNL     1       2.640 -11.294   3.037  1.00  0.00     0.000 C 
BRANCH   6   7
ATOM      7  C   UNL     1       3.672 -11.094   1.909  1.00  0.00     0.000 C 
BRANCH   7   8
ATOM      8  C   UNL     1       3.393 -11.891   0.621  1.00  0.00     0.000 C 
BRANCH   8   9
ATOM      9  C   UNL     1       4.510 -12.869   0.203  1.00  0.00     0.000 C 
BRANCH   9  10
ATOM     10  C   UNL     1       5.946 -12.336   0.383  1.00  0.00     0.006 C 
BRANCH  10  11
ATOM     11  C   UNL     1       6.862 -13.246   1.215  1.00  0.00     0.053 C 
BRANCH  11  12
ATOM     12  C   UNL     1       7.880 -13.946   0.367  1.00  0.00     0.041 C 
ATOM     13  O   UNL     1       9.107 -13.830   0.625  1.00  0.00    -0.550 OA
ATOM     14  O   UNL     1       7.469 -14.759  -0.683  1.00  0.00    -0.550 OA
ENDBRANCH  11  12
ENDBRANCH  10  11
ENDBRANCH   9  10
ENDBRANCH   8   9
ENDBRANCH   7   8
ENDBRANCH   6   7
ENDBRANCH   5   6
ENDBRANCH   4   5
ENDBRANCH   3   4
ENDBRANCH   2   3
ENDBRANCH   1   2
BRANCH   1  15
ATOM     15  C   UNL     1       5.302 -11.031   7.267  1.00  0.00     0.000 C 
BRANCH  15  16
ATOM     16  C   UNL     1       4.477 -10.027   6.440  1.00  0.00     0.000 C 
BRANCH  16  17
ATOM     17  C   UNL     1       3.013  -9.852   6.892  1.00  0.00     0.000 C 
BRANCH  17  18
ATOM     18  C   UNL     1       2.162  -8.983   5.942  1.00  0.00    -0.000 C 
BRANCH  18  19
ATOM     19  C   UNL     1       0.760  -9.566   5.691  1.00  0.00    -0.000 C 
BRANCH  19  20
ATOM     20  C   UNL     1      -0.355  -8.730   6.339  1.00  0.00    -0.000 C 
BRANCH  20  21
ATOM     21  C   UNL     1      -0.567  -9.070   7.822  1.00  0.00    -0.000 C 
BRANCH  21  22
ATOM     22  C   UNL     1      -0.630  -7.795   8.675  1.00  0.00    -0.000 C 
BRANCH  22  23
ATOM     23  C   UNL     1       0.621  -7.599   9.552  1.00  0.00    -0.000 C 
BRANCH  23  24
ATOM     24  C   UNL     1       1.380  -6.278   9.317  1.00  0.00    -0.000 C 
BRANCH  24  25
ATOM     25  C   UNL     1       1.546  -5.878   7.840  1.00  0.00    -0.003 C 
ATOM     26  C   UNL     1       2.996  -5.581   7.462  1.00  0.00     0.004 C 
ENDBRANCH  24  25
ENDBRANCH  23  24
ENDBRANCH  22  23
ENDBRANCH  21  22
ENDBRANCH  20  21
ENDBRANCH  19  20
ENDBRANCH  18  19
ENDBRANCH  17  18
ENDBRANCH  16  17
ENDBRANCH  15  16
ENDBRANCH   1  15
TORSDOF 22
ENDMDL
MODEL 8
REMARK VINA RESULT:    -4.588      3.061      8.552
REMARK INTER + INTRA:         -13.717
REMARK INTER:                  -9.862
REMARK INTRA:                  -3.855
REMARK UNBOUND:                -3.229
REMARK SMILES CCCCCCCCCCCCCCCCCCCCCCCC(=O)[O-]
REMARK SMILES IDX 13 1 14 2 15 3 16 4 17 5 18 6 19 7 20 8 21 9 22 10 23 11
REMARK SMILES IDX 24 12 25 13 26 14 12 15 11 16 10 17 9 18 8 19 7 20 6 21 5 22
REMARK SMILES IDX 4 23 3 24 2 25 1 26
REMARK H PARENT
REMARK Flexibility Score: inf
ROOT
ATOM      1  C   UNL     1       4.113 -10.926   6.924  1.00  0.00     0.000 C 
ENDROOT
BRANCH   1   2
ATOM      2  C   UNL     1       4.393  -9.416   6.813  1.00  0.00     0.000 C 
BRANCH   2   3
ATOM      3  C   UNL     1       4.134  -8.863   5.401  1.00  0.00     0.000 C 
BRANCH   3   4
ATOM      4  C   UNL     1       3.258  -9.799   4.552  1.00  0.00     0.000 C 
BRANCH   4   5
ATOM      5  C   UNL     1       2.227  -9.043   3.695  1.00  0.00     0.000 C 
BRANCH   5   6
ATOM      6  C   UNL     1       0.862  -9.762   3.633  1.00  0.00     0.000 C 
BRANCH   6   7
ATOM      7  C   UNL     1       0.339 -10.225   5.008  1.00  0.00     0.000 C 
BRANCH   7   8
ATOM      8  C   UNL     1      -0.114  -9.094   5.948  1.00  0.00     0.000 C 
BRANCH   8   9
ATOM      9  C   UNL     1       0.323  -9.251   7.419  1.00  0.00     0.000 C 
BRANCH   9  10
ATOM     10  C   UNL     1       1.228  -8.124   7.955  1.00  0.00     0.006 C 
BRANCH  10  11
ATOM     11  C   UNL     1       1.458  -6.970   6.967  1.00  0.00     0.053 C 
BRANCH  11  12
ATOM     12  C   UNL     1       2.513  -6.021   7.449  1.00  0.00     0.041 C 
ATOM     13  O   UNL     1       2.671  -5.823   8.683  1.00  0.00    -0.550 OA
ATOM     14  O   UNL     1       3.350  -5.388   6.536  1.00  0.00    -0.550 OA
ENDBRANCH  11  12
ENDBRANCH  10  11
ENDBRANCH   9  10
ENDBRANCH   8   9
ENDBRANCH   7   8
ENDBRANCH   6   7
ENDBRANCH   5   6
ENDBRANCH   4   5
ENDBRANCH   3   4
ENDBRANCH   2   3
ENDBRANCH   1   2
BRANCH   1  15
ATOM     15  C   UNL     1       5.367 -11.821   7.038  1.00  0.00     0.000 C 
BRANCH  15  16
ATOM     16  C   UNL     1       5.256 -13.201   6.361  1.00  0.00     0.000 C 
BRANCH  16  17
ATOM     17  C   UNL     1       4.860 -13.170   4.871  1.00  0.00     0.000 C 
BRANCH  17  18
ATOM     18  C   UNL     1       4.253 -14.492   4.356  1.00  0.00    -0.000 C 
BRANCH  18  19
ATOM     19  C   UNL     1       2.733 -14.406   4.129  1.00  0.00    -0.000 C 
BRANCH  19  20
ATOM     20  C   UNL     1       2.309 -13.096   3.447  1.00  0.00    -0.000 C 
BRANCH  20  21
ATOM     21  C   UNL     1       2.653 -13.067   1.950  1.00  0.00    -0.000 C 
BRANCH  21  22
ATOM     22  C   UNL     1       3.531 -11.853   1.612  1.00  0.00    -0.000 C 
BRANCH  22  23
ATOM     23  C   UNL     1       4.727 -12.213   0.710  1.00  0.00    -0.000 C 
BRANCH  23  24
ATOM     24  C   UNL     1       5.493 -13.486   1.121  1.00  0.00    -0.000 C 
BRANCH  24  25
ATOM     25  C   UNL     1       6.758 -13.778   0.295  1.00  0.00    -0.003 C 
ATOM     26  C   UNL     1       7.974 -12.980   0.762  1.00  0.00     0.004 C 
ENDBRANCH  24  25
ENDBRANCH  23  24
ENDBRANCH  22  23
ENDBRANCH  21  22
ENDBRANCH  20  21
ENDBRANCH  19  20
ENDBRANCH  18  19
ENDBRANCH  17  18
ENDBRANCH  16  17
ENDBRANCH  15  16
ENDBRANCH   1  15
TORSDOF 22
ENDMDL
MODEL 9
REMARK VINA RESULT:    -4.578      3.121      6.515
REMARK INTER + INTRA:         -13.694
REMARK INTER:                 -10.214
REMARK INTRA:                  -3.479
REMARK UNBOUND:                -3.229
REMARK SMILES CCCCCCCCCCCCCCCCCCCCCCCC(=O)[O-]
REMARK SMILES IDX 13 1 14 2 15 3 16 4 17 5 18 6 19 7 20 8 21 9 22 10 23 11
REMARK SMILES IDX 24 12 25 13 26 14 12 15 11 16 10 17 9 18 8 19 7 20 6 21 5 22
REMARK SMILES IDX 4 23 3 24 2 25 1 26
REMARK H PARENT
REMARK Flexibility Score: inf
ROOT
ATOM      1  C   UNL     1       5.988 -12.398   6.576  1.00  0.00     0.000 C 
ENDROOT
BRANCH   1   2
ATOM      2  C   UNL     1       4.923 -13.487   6.351  1.00  0.00     0.000 C 
BRANCH   2   3
ATOM      3  C   UNL     1       4.862 -13.969   4.891  1.00  0.00     0.000 C 
BRANCH   3   4
ATOM      4  C   UNL     1       3.423 -14.039   4.353  1.00  0.00     0.000 C 
BRANCH   4   5
ATOM      5  C   UNL     1       3.279 -13.430   2.947  1.00  0.00     0.000 C 
BRANCH   5   6
ATOM      6  C   UNL     1       4.434 -12.468   2.594  1.00  0.00     0.000 C 
BRANCH   6   7
ATOM      7  C   UNL     1       4.447 -12.026   1.117  1.00  0.00     0.000 C 
BRANCH   7   8
ATOM      8  C   UNL     1       4.531 -13.172   0.093  1.00  0.00     0.000 C 
BRANCH   8   9
ATOM      9  C   UNL     1       5.923 -13.384  -0.539  1.00  0.00     0.000 C 
BRANCH   9  10
ATOM     10  C   UNL     1       7.068 -12.592   0.124  1.00  0.00     0.006 C 
BRANCH  10  11
ATOM     11  C   UNL     1       8.031 -13.448   0.961  1.00  0.00     0.053 C 
BRANCH  11  12
ATOM     12  C   UNL     1       8.433 -14.702   0.247  1.00  0.00     0.041 C 
ATOM     13  O   UNL     1       7.989 -15.818   0.627  1.00  0.00    -0.550 OA
ATOM     14  O   UNL     1       9.265 -14.633  -0.864  1.00  0.00    -0.550 OA
ENDBRANCH  11  12
ENDBRANCH  10  11
ENDBRANCH   9  10
ENDBRANCH   8   9
ENDBRANCH   7   8
ENDBRANCH   6   7
ENDBRANCH   5   6
ENDBRANCH   4   5
ENDBRANCH   3   4
ENDBRANCH   2   3
ENDBRANCH   1   2
BRANCH   1  15
ATOM     15  C   UNL     1       5.485 -11.123   7.289  1.00  0.00     0.000 C 
BRANCH  15  16
ATOM     16  C   UNL     1       4.070 -10.660   6.891  1.00  0.00     0.000 C 
BRANCH  16  17
ATOM     17  C   UNL     1       3.948 -10.070   5.472  1.00  0.00     0.000 C 
BRANCH  17  18
ATOM     18  C   UNL     1       4.137  -8.539   5.411  1.00  0.00    -0.000 C 
BRANCH  18  19
ATOM     19  C   UNL     1       3.649  -7.824   6.683  1.00  0.00    -0.000 C 
BRANCH  19  20
ATOM     20  C   UNL     1       2.176  -7.395   6.595  1.00  0.00    -0.000 C 
BRANCH  20  21
ATOM     21  C   UNL     1       1.283  -8.125   7.610  1.00  0.00    -0.000 C 
BRANCH  21  22
ATOM     22  C   UNL     1       0.482  -9.246   6.932  1.00  0.00    -0.000 C 
BRANCH  22  23
ATOM     23  C   UNL     1       0.361  -9.058   5.408  1.00  0.00    -0.000 C 
BRANCH  23  24
ATOM     24  C   UNL     1       0.132 -10.356   4.608  1.00  0.00    -0.000 C 
BRANCH  24  25
ATOM     25  C   UNL     1       0.993 -10.498   3.340  1.00  0.00    -0.003 C 
ATOM     26  C   UNL     1       1.548  -9.165   2.843  1.00  0.00     0.004 C 
ENDBRANCH  24  25
ENDBRANCH  23  24
ENDBRANCH  22  23
ENDBRANCH  21  22
ENDBRANCH  20  21
ENDBRANCH  19  20
ENDBRANCH  18  19
ENDBRANCH  17  18
ENDBRANCH  16  17
ENDBRANCH  15  16
ENDBRANCH   1  15
TORSDOF 22
ENDMDL
