MODEL 1
REMARK VINA RESULT:    -3.430      0.000      0.000
REMARK INTER + INTRA:          -4.428
REMARK INTER:                  -4.232
REMARK INTRA:                  -0.197
REMARK UNBOUND:                -0.197
REMARK SMILES CCCCCC(=O)[O-]
REMARK SMILES IDX 4 1 5 2 6 3 7 4 8 5 3 6 2 7 1 8
REMARK H PARENT
REMARK Flexibility Score: inf
ROOT
ATOM      1  C   UNL     1      -6.546  37.545  22.433  1.00  0.00     0.006 C 
ENDROOT
BRANCH   1   2
ATOM      2  C   UNL     1      -5.026  37.754  22.455  1.00  0.00     0.053 C 
BRANCH   2   3
ATOM      3  C   UNL     1      -4.332  36.604  21.796  1.00  0.00     0.041 C 
ATOM      4  O   UNL     1      -4.132  35.536  22.432  1.00  0.00    -0.550 OA
ATOM      5  O   UNL     1      -3.862  36.729  20.494  1.00  0.00    -0.550 OA
ENDBRANCH   2   3
ENDBRANCH   1   2
BRANCH   1   6
ATOM      6  C   UNL     1      -7.305  38.781  21.928  1.00  0.00     0.000 C 
BRANCH   6   7
ATOM      7  C   UNL     1      -6.764  39.300  20.587  1.00  0.00    -0.003 C 
ATOM      8  C   UNL     1      -7.045  38.309  19.461  1.00  0.00     0.004 C 
ENDBRANCH   6   7
ENDBRANCH   1   6
TORSDOF 4
ENDMDL
MODEL 2
REMARK VINA RESULT:    -3.393      1.967      2.888
REMARK INTER + INTRA:          -4.382
REMARK INTER:                  -4.138
REMARK INTRA:                  -0.245
REMARK UNBOUND:                -0.197
REMARK SMILES CCCCCC(=O)[O-]
REMARK SMILES IDX 4 1 5 2 6 3 7 4 8 5 3 6 2 7 1 8
REMARK H PARENT
REMARK Flexibility Score: inf
ROOT
ATOM      1  C   UNL     1      -7.043  39.600  20.670  1.00  0.00     0.006 C 
ENDROOT
BRANCH   1   2
ATOM      2  C   UNL     1      -7.582  39.066  22.004  1.00  0.00     0.053 C 
BRANCH   2   3
ATOM      3  C   UNL     1      -6.538  38.254  22.702  1.00  0.00     0.041 C 
ATOM      4  O   UNL     1      -5.639  38.823  23.377  1.00  0.00    -0.550 OA
ATOM      5  O   UNL     1      -6.527  36.871  22.568  1.00  0.00    -0.550 OA
ENDBRANCH   2   3
ENDBRANCH   1   2
BRANCH   1   6
ATOM      6  C   UNL     1      -7.135  38.565  19.539  1.00  0.00     0.000 C 
BRANCH   6   7
ATOM      7  C   UNL     1      -5.757  38.141  19.010  1.00  0.00    -0.003 C 
ATOM      8  C   UNL     1      -4.668  39.099  19.486  1.00  0.00     0.004 C 
ENDBRANCH   6   7
ENDBRANCH   1   6
TORSDOF 4
ENDMDL
MODEL 3
REMARK VINA RESULT:    -3.357      2.409      3.538
REMARK INTER + INTRA:          -4.339
REMARK INTER:                  -4.061
REMARK INTRA:                  -0.278
REMARK UNBOUND:                -0.197
REMARK SMILES CCCCCC(=O)[O-]
REMARK SMILES IDX 4 1 5 2 6 3 7 4 8 5 3 6 2 7 1 8
REMARK H PARENT
REMARK Flexibility Score: inf
ROOT
ATOM      1  C   UNL     1      -6.772  38.437  22.785  1.00  0.00     0.006 C 
ENDROOT
BRANCH   1   2
ATOM      2  C   UNL     1      -7.623  39.147  21.724  1.00  0.00     0.053 C 
BRANCH   2   3
ATOM      3  C   UNL     1      -6.818  39.388  20.486  1.00  0.00     0.041 C 
ATOM      4  O   UNL     1      -7.164  38.865  19.394  1.00  0.00    -0.550 OA
ATOM      5  O   UNL     1      -5.659  40.151  20.547  1.00  0.00    -0.550 OA
ENDBRANCH   2   3
ENDBRANCH   1   2
BRANCH   1   6
ATOM      6  C   UNL     1      -6.309  37.042  22.336  1.00  0.00     0.000 C 
BRANCH   6   7
ATOM      7  C   UNL     1      -4.781  36.890  22.358  1.00  0.00    -0.003 C 
ATOM      8  C   UNL     1      -4.229  36.682  20.951  1.00  0.00     0.004 C 
ENDBRANCH   6   7
ENDBRANCH   1   6
TORSDOF 4
ENDMDL
MODEL 4
REMARK VINA RESULT:    -3.284      1.185      2.011
REMARK INTER + INTRA:          -4.248
REMARK INTER:                  -4.007
REMARK INTRA:                  -0.241
REMARK UNBOUND:                -0.197
REMARK SMILES CCCCCC(=O)[O-]
REMARK SMILES IDX 4 1 5 2 6 3 7 4 8 5 3 6 2 7 1 8
REMARK H PARENT
REMARK Flexibility Score: inf
ROOT
ATOM      1  C   UNL     1      -6.327  37.375  20.323  1.00  0.00     0.006 C 
ENDROOT
BRANCH   1   2
ATOM      2  C   UNL     1      -4.810  37.216  20.487  1.00  0.00     0.053 C 
BRANCH   2   3
ATOM      3  C   UNL     1      -4.467  36.928  21.914  1.00  0.00     0.041 C 
ATOM      4  O   UNL     1      -4.420  37.864  22.756  1.00  0.00    -0.550 OA
ATOM      5  O   UNL     1      -4.153  35.633  22.307  1.00  0.00    -0.550 OA
ENDBRANCH   2   3
ENDBRANCH   1   2
BRANCH   1   6
ATOM      6  C   UNL     1      -6.718  38.740  19.736  1.00  0.00     0.000 C 
BRANCH   6   7
ATOM      7  C   UNL     1      -6.950  39.805  20.818  1.00  0.00    -0.003 C 
ATOM      8  C   UNL     1      -7.633  39.203  22.043  1.00  0.00     0.004 C 
ENDBRANCH   6   7
ENDBRANCH   1   6
TORSDOF 4
ENDMDL
MODEL 5
REMARK VINA RESULT:    -3.253      1.277      2.378
REMARK INTER + INTRA:          -4.210
REMARK INTER:                  -4.037
REMARK INTRA:                  -0.173
REMARK UNBOUND:                -0.197
REMARK SMILES CCCCCC(=O)[O-]
REMARK SMILES IDX 4 1 5 2 6 3 7 4 8 5 3 6 2 7 1 8
REMARK H PARENT
REMARK Flexibility Score: inf
ROOT
ATOM      1  C   UNL     1      -6.401  37.547  20.078  1.00  0.00     0.006 C 
ENDROOT
BRANCH   1   2
ATOM      2  C   UNL     1      -5.042  37.777  19.403  1.00  0.00     0.053 C 
BRANCH   2   3
ATOM      3  C   UNL     1      -3.940  37.228  20.252  1.00  0.00     0.041 C 
ATOM      4  O   UNL     1      -2.768  37.673  20.134  1.00  0.00    -0.550 OA
ATOM      5  O   UNL     1      -4.196  36.190  21.139  1.00  0.00    -0.550 OA
ENDBRANCH   2   3
ENDBRANCH   1   2
BRANCH   1   6
ATOM      6  C   UNL     1      -7.219  38.841  20.215  1.00  0.00     0.000 C 
BRANCH   6   7
ATOM      7  C   UNL     1      -7.600  39.148  21.670  1.00  0.00    -0.003 C 
ATOM      8  C   UNL     1      -6.963  38.145  22.628  1.00  0.00     0.004 C 
ENDBRANCH   6   7
ENDBRANCH   1   6
TORSDOF 4
ENDMDL
MODEL 6
REMARK VINA RESULT:    -3.198      2.058      3.242
REMARK INTER + INTRA:          -4.142
REMARK INTER:                  -3.927
REMARK INTRA:                  -0.215
REMARK UNBOUND:                -0.197
REMARK SMILES CCCCCC(=O)[O-]
REMARK SMILES IDX 4 1 5 2 6 3 7 4 8 5 3 6 2 7 1 8
REMARK H PARENT
REMARK Flexibility Score: inf
ROOT
ATOM      1  C   UNL     1      -7.051  39.529  20.565  1.00  0.00     0.006 C 
ENDROOT
BRANCH   1   2
ATOM      2  C   UNL     1      -7.072  38.304  19.640  1.00  0.00     0.053 C 
BRANCH   2   3
ATOM      3  C   UNL     1      -5.748  38.138  18.964  1.00  0.00     0.041 C 
ATOM      4  O   UNL     1      -4.703  38.599  19.495  1.00  0.00    -0.550 OA
ATOM      5  O   UNL     1      -5.672  37.517  17.723  1.00  0.00    -0.550 OA
ENDBRANCH   2   3
ENDBRANCH   1   2
BRANCH   1   6
ATOM      6  C   UNL     1      -7.722  39.257  21.920  1.00  0.00     0.000 C 
BRANCH   6   7
ATOM      7  C   UNL     1      -6.951  38.234  22.767  1.00  0.00    -0.003 C 
ATOM      8  C   UNL     1      -5.532  38.718  23.055  1.00  0.00     0.004 C 
ENDBRANCH   6   7
ENDBRANCH   1   6
TORSDOF 4
ENDMDL
MODEL 7
REMARK VINA RESULT:    -3.145      1.135      1.486
REMARK INTER + INTRA:          -4.077
REMARK INTER:                  -3.864
REMARK INTRA:                  -0.213
REMARK UNBOUND:                -0.197
REMARK SMILES CCCCCC(=O)[O-]
REMARK SMILES IDX 4 1 5 2 6 3 7 4 8 5 3 6 2 7 1 8
REMARK H PARENT
REMARK Flexibility Score: inf
ROOT
ATOM      1  C   UNL     1      -6.129  36.975  22.243  1.00  0.00     0.006 C 
ENDROOT
BRANCH   1   2
ATOM      2  C   UNL     1      -4.637  36.678  22.443  1.00  0.00     0.053 C 
BRANCH   2   3
ATOM      3  C   UNL     1      -3.835  37.259  21.322  1.00  0.00     0.041 C 
ATOM      4  O   UNL     1      -3.769  36.663  20.215  1.00  0.00    -0.550 OA
ATOM      5  O   UNL     1      -3.119  38.434  21.515  1.00  0.00    -0.550 OA
ENDBRANCH   2   3
ENDBRANCH   1   2
BRANCH   1   6
ATOM      6  C   UNL     1      -6.506  38.408  22.650  1.00  0.00     0.000 C 
BRANCH   6   7
ATOM      7  C   UNL     1      -7.536  39.040  21.702  1.00  0.00    -0.003 C 
ATOM      8  C   UNL     1      -7.136  38.841  20.243  1.00  0.00     0.004 C 
ENDBRANCH   6   7
ENDBRANCH   1   6
TORSDOF 4
ENDMDL
MODEL 8
REMARK VINA RESULT:    -3.018     10.683     12.129
REMARK INTER + INTRA:          -3.920
REMARK INTER:                  -3.829
REMARK INTRA:                  -0.091
REMARK UNBOUND:                -0.197
REMARK SMILES CCCCCC(=O)[O-]
REMARK SMILES IDX 4 1 5 2 6 3 7 4 8 5 3 6 2 7 1 8
REMARK H PARENT
REMARK Flexibility Score: inf
ROOT
ATOM      1  C   UNL     1      -0.048  28.491  17.069  1.00  0.00     0.006 C 
ENDROOT
BRANCH   1   2
ATOM      2  C   UNL     1       0.286  27.100  16.513  1.00  0.00     0.053 C 
BRANCH   2   3
ATOM      3  C   UNL     1       0.334  26.094  17.619  1.00  0.00     0.041 C 
ATOM      4  O   UNL     1       0.959  25.012  17.464  1.00  0.00    -0.550 OA
ATOM      5  O   UNL     1      -0.351  26.330  18.805  1.00  0.00    -0.550 OA
ENDBRANCH   2   3
ENDBRANCH   1   2
BRANCH   1   6
ATOM      6  C   UNL     1       0.987  29.552  16.666  1.00  0.00     0.000 C 
BRANCH   6   7
ATOM      7  C   UNL     1       0.491  30.985  16.910  1.00  0.00    -0.003 C 
ATOM      8  C   UNL     1      -0.806  30.987  17.714  1.00  0.00     0.004 C 
ENDBRANCH   6   7
ENDBRANCH   1   6
TORSDOF 4
ENDMDL
MODEL 9
REMARK VINA RESULT:    -2.986     17.385     18.604
REMARK INTER + INTRA:          -3.881
REMARK INTER:                  -3.667
REMARK INTRA:                  -0.214
REMARK UNBOUND:                -0.197
REMARK SMILES CCCCCC(=O)[O-]
REMARK SMILES IDX 4 1 5 2 6 3 7 4 8 5 3 6 2 7 1 8
REMARK H PARENT
REMARK Flexibility Score: inf
ROOT
ATOM      1  C   UNL     1      -8.203  21.389  30.568  1.00  0.00     0.006 C 
ENDROOT
BRANCH   1   2
ATOM      2  C   UNL     1      -6.681  21.197  30.571  1.00  0.00     0.053 C 
BRANCH   2   3
ATOM      3  C   UNL     1      -6.002  22.406  30.007  1.00  0.00     0.041 C 
ATOM      4  O   UNL     1      -5.213  22.292  29.033  1.00  0.00    -0.550 OA
ATOM      5  O   UNL     1      -6.203  23.652  30.589  1.00  0.00    -0.550 OA
ENDBRANCH   2   3
ENDBRANCH   1   2
BRANCH   1   6
ATOM      6  C   UNL     1      -8.778  21.573  31.981  1.00  0.00     0.000 C 
BRANCH   6   7
ATOM      7  C   UNL     1      -7.707  21.454  33.075  1.00  0.00    -0.003 C 
ATOM      8  C   UNL     1      -7.618  22.735  33.899  1.00  0.00     0.004 C 
ENDBRANCH   6   7
ENDBRANCH   1   6
TORSDOF 4
ENDMDL
