MODEL 1
REMARK VINA RESULT:     0.031      0.000      0.000
REMARK INTER + INTRA:          -0.501
REMARK INTER:                   0.082
REMARK INTRA:                  -0.583
REMARK UNBOUND:                -0.583
REMARK SMILES CCCCCCCCCCCCCCCCCCCCCCCCCCCCCC(=O)[O-]
REMARK SMILES IDX 16 1 17 2 18 3 19 4 20 5 21 6 22 7 23 8 24 9 25 10 26 11
REMARK SMILES IDX 27 12 28 13 29 14 30 15 31 16 32 17 15 18 14 19 13 20 12 21
REMARK SMILES IDX 11 22 10 23 9 24 8 25 7 26 6 27 5 28 4 29 3 30 2 31 1 32
REMARK H PARENT
REMARK Flexibility Score: inf
ROOT
ATOM      1  C   UNL     1      23.757  23.583  -9.912  1.00  0.00     0.000 C 
ENDROOT
BRANCH   1   2
ATOM      2  C   UNL     1      22.819  22.671  -9.095  1.00  0.00     0.000 C 
BRANCH   2   3
ATOM      3  C   UNL     1      22.598  21.298  -9.750  1.00  0.00     0.000 C 
BRANCH   3   4
ATOM      4  C   UNL     1      21.650  21.364 -10.962  1.00  0.00     0.000 C 
BRANCH   4   5
ATOM      5  C   UNL     1      20.699  20.154 -11.074  1.00  0.00     0.000 C 
BRANCH   5   6
ATOM      6  C   UNL     1      21.371  18.830 -10.663  1.00  0.00     0.000 C 
BRANCH   6   7
ATOM      7  C   UNL     1      20.557  17.612 -11.125  1.00  0.00     0.000 C 
BRANCH   7   8
ATOM      8  C   UNL     1      19.585  17.093 -10.042  1.00  0.00     0.000 C 
BRANCH   8   9
ATOM      9  C   UNL     1      18.135  16.998 -10.549  1.00  0.00     0.000 C 
BRANCH   9  10
ATOM     10  C   UNL     1      17.535  18.362 -10.953  1.00  0.00     0.000 C 
BRANCH  10  11
ATOM     11  C   UNL     1      17.388  19.381  -9.801  1.00  0.00     0.000 C 
BRANCH  11  12
ATOM     12  C   UNL     1      15.942  19.795  -9.458  1.00  0.00     0.000 C 
BRANCH  12  13
ATOM     13  C   UNL     1      14.835  19.035 -10.218  1.00  0.00     0.006 C 
BRANCH  13  14
ATOM     14  C   UNL     1      14.676  17.565  -9.790  1.00  0.00     0.053 C 
BRANCH  14  15
ATOM     15  C   UNL     1      14.565  17.406  -8.305  1.00  0.00     0.041 C 
ATOM     16  O   UNL     1      13.436  17.443  -7.745  1.00  0.00    -0.550 OA
ATOM     17  O   UNL     1      15.704  17.184  -7.540  1.00  0.00    -0.550 OA
ENDBRANCH  14  15
ENDBRANCH  13  14
ENDBRANCH  12  13
ENDBRANCH  11  12
ENDBRANCH  10  11
ENDBRANCH   9  10
ENDBRANCH   8   9
ENDBRANCH   7   8
ENDBRANCH   6   7
ENDBRANCH   5   6
ENDBRANCH   4   5
ENDBRANCH   3   4
ENDBRANCH   2   3
ENDBRANCH   1   2
BRANCH   1  18
ATOM     18  C   UNL     1      25.230  23.120  -9.930  1.00  0.00     0.000 C 
BRANCH  18  19
ATOM     19  C   UNL     1      25.636  22.233 -11.125  1.00  0.00     0.000 C 
BRANCH  19  20
ATOM     20  C   UNL     1      26.405  20.947 -10.759  1.00  0.00     0.000 C 
BRANCH  20  21
ATOM     21  C   UNL     1      27.927  21.105 -10.900  1.00  0.00     0.000 C 
BRANCH  21  22
ATOM     22  C   UNL     1      28.326  22.577 -11.074  1.00  0.00     0.000 C 
BRANCH  22  23
ATOM     23  C   UNL     1      28.068  23.364  -9.782  1.00  0.00     0.000 C 
BRANCH  23  24
ATOM     24  C   UNL     1      29.030  24.555  -9.651  1.00  0.00    -0.000 C 
BRANCH  24  25
ATOM     25  C   UNL     1      29.005  25.465 -10.899  1.00  0.00    -0.000 C 
BRANCH  25  26
ATOM     26  C   UNL     1      27.680  26.219 -11.095  1.00  0.00    -0.000 C 
BRANCH  26  27
ATOM     27  C   UNL     1      27.365  27.197  -9.950  1.00  0.00    -0.000 C 
BRANCH  27  28
ATOM     28  C   UNL     1      26.934  28.582 -10.458  1.00  0.00    -0.000 C 
BRANCH  28  29
ATOM     29  C   UNL     1      28.060  29.621 -10.383  1.00  0.00    -0.000 C 
BRANCH  29  30
ATOM     30  C   UNL     1      27.652  30.928 -11.081  1.00  0.00    -0.000 C 
BRANCH  30  31
ATOM     31  C   UNL     1      26.877  31.874 -10.151  1.00  0.00    -0.003 C 
ATOM     32  C   UNL     1      26.847  33.314 -10.663  1.00  0.00     0.004 C 
ENDBRANCH  30  31
ENDBRANCH  29  30
ENDBRANCH  28  29
ENDBRANCH  27  28
ENDBRANCH  26  27
ENDBRANCH  25  26
ENDBRANCH  24  25
ENDBRANCH  23  24
ENDBRANCH  22  23
ENDBRANCH  21  22
ENDBRANCH  20  21
ENDBRANCH  19  20
ENDBRANCH  18  19
ENDBRANCH   1  18
TORSDOF 28
ENDMDL
MODEL 2
REMARK VINA RESULT:     2.536      4.177      6.270
REMARK INTER + INTRA:           6.105
REMARK INTER:                   4.553
REMARK INTRA:                   1.552
REMARK UNBOUND:                -0.583
REMARK SMILES CCCCCCCCCCCCCCCCCCCCCCCCCCCCCC(=O)[O-]
REMARK SMILES IDX 16 1 17 2 18 3 19 4 20 5 21 6 22 7 23 8 24 9 25 10 26 11
REMARK SMILES IDX 27 12 28 13 29 14 30 15 31 16 32 17 15 18 14 19 13 20 12 21
REMARK SMILES IDX 11 22 10 23 9 24 8 25 7 26 6 27 5 28 4 29 3 30 2 31 1 32
REMARK H PARENT
REMARK Flexibility Score: inf
ROOT
ATOM      1  C   UNL     1      24.404  26.523 -10.048  1.00  0.00     0.000 C 
ENDROOT
BRANCH   1   2
ATOM      2  C   UNL     1      24.289  25.395 -11.093  1.00  0.00     0.000 C 
BRANCH   2   3
ATOM      3  C   UNL     1      25.455  24.397 -11.028  1.00  0.00     0.000 C 
BRANCH   3   4
ATOM      4  C   UNL     1      24.990  22.931 -11.123  1.00  0.00     0.000 C 
BRANCH   4   5
ATOM      5  C   UNL     1      25.207  22.125  -9.825  1.00  0.00     0.000 C 
BRANCH   5   6
ATOM      6  C   UNL     1      24.267  20.909  -9.718  1.00  0.00     0.000 C 
BRANCH   6   7
ATOM      7  C   UNL     1      22.856  21.235 -10.231  1.00  0.00     0.000 C 
BRANCH   7   8
ATOM      8  C   UNL     1      22.392  22.660  -9.851  1.00  0.00     0.000 C 
BRANCH   8   9
ATOM      9  C   UNL     1      20.874  22.848 -10.018  1.00  0.00     0.000 C 
BRANCH   9  10
ATOM     10  C   UNL     1      20.239  21.860 -11.019  1.00  0.00     0.000 C 
BRANCH  10  11
ATOM     11  C   UNL     1      18.913  21.218 -10.555  1.00  0.00     0.000 C 
BRANCH  11  12
ATOM     12  C   UNL     1      18.667  19.773 -11.033  1.00  0.00     0.000 C 
BRANCH  12  13
ATOM     13  C   UNL     1      17.880  18.874 -10.056  1.00  0.00     0.006 C 
BRANCH  13  14
ATOM     14  C   UNL     1      16.705  19.583  -9.360  1.00  0.00     0.053 C 
BRANCH  14  15
ATOM     15  C   UNL     1      15.376  19.004  -9.741  1.00  0.00     0.041 C 
ATOM     16  O   UNL     1      14.868  19.268 -10.864  1.00  0.00    -0.550 OA
ATOM     17  O   UNL     1      14.713  18.147  -8.871  1.00  0.00    -0.550 OA
ENDBRANCH  14  15
ENDBRANCH  13  14
ENDBRANCH  12  13
ENDBRANCH  11  12
ENDBRANCH  10  11
ENDBRANCH   9  10
ENDBRANCH   8   9
ENDBRANCH   7   8
ENDBRANCH   6   7
ENDBRANCH   5   6
ENDBRANCH   4   5
ENDBRANCH   3   4
ENDBRANCH   2   3
ENDBRANCH   1   2
BRANCH   1  18
ATOM     18  C   UNL     1      25.710  27.340 -10.141  1.00  0.00     0.000 C 
BRANCH  18  19
ATOM     19  C   UNL     1      27.011  26.513 -10.207  1.00  0.00     0.000 C 
BRANCH  19  20
ATOM     20  C   UNL     1      28.169  27.169 -10.986  1.00  0.00     0.000 C 
BRANCH  20  21
ATOM     21  C   UNL     1      28.375  28.645 -10.612  1.00  0.00     0.000 C 
BRANCH  21  22
ATOM     22  C   UNL     1      27.712  28.983  -9.270  1.00  0.00     0.000 C 
BRANCH  22  23
ATOM     23  C   UNL     1      28.758  29.040  -8.148  1.00  0.00     0.000 C 
BRANCH  23  24
ATOM     24  C   UNL     1      28.109  28.861  -6.767  1.00  0.00    -0.000 C 
BRANCH  24  25
ATOM     25  C   UNL     1      29.113  29.090  -5.616  1.00  0.00    -0.000 C 
BRANCH  25  26
ATOM     26  C   UNL     1      28.628  28.574  -4.252  1.00  0.00    -0.000 C 
BRANCH  26  27
ATOM     27  C   UNL     1      28.863  27.066  -4.056  1.00  0.00    -0.000 C 
BRANCH  27  28
ATOM     28  C   UNL     1      28.937  26.668  -2.574  1.00  0.00    -0.000 C 
BRANCH  28  29
ATOM     29  C   UNL     1      27.734  25.830  -2.121  1.00  0.00    -0.000 C 
BRANCH  29  30
ATOM     30  C   UNL     1      28.185  24.636  -1.267  1.00  0.00    -0.000 C 
BRANCH  30  31
ATOM     31  C   UNL     1      29.004  25.067  -0.039  1.00  0.00    -0.003 C 
ATOM     32  C   UNL     1      29.090  26.586   0.111  1.00  0.00     0.004 C 
ENDBRANCH  30  31
ENDBRANCH  29  30
ENDBRANCH  28  29
ENDBRANCH  27  28
ENDBRANCH  26  27
ENDBRANCH  25  26
ENDBRANCH  24  25
ENDBRANCH  23  24
ENDBRANCH  22  23
ENDBRANCH  21  22
ENDBRANCH  20  21
ENDBRANCH  19  20
ENDBRANCH  18  19
ENDBRANCH   1  18
TORSDOF 28
ENDMDL
