MODEL 1
REMARK VINA RESULT:    -6.455      0.000      0.000
REMARK INTER + INTRA:         -19.263
REMARK INTER:                 -17.022
REMARK INTRA:                  -2.240
REMARK UNBOUND:                -2.240
REMARK SMILES CCCCCCCCCCCCCCCCCCCCCCCCCCCCCC(=O)[O-]
REMARK SMILES IDX 16 1 17 2 18 3 19 4 20 5 21 6 22 7 23 8 24 9 25 10 26 11
REMARK SMILES IDX 27 12 28 13 29 14 30 15 31 16 32 17 15 18 14 19 13 20 12 21
REMARK SMILES IDX 11 22 10 23 9 24 8 25 7 26 6 27 5 28 4 29 3 30 2 31 1 32
REMARK H PARENT
REMARK Flexibility Score: inf
ROOT
ATOM      1  C   UNL     1      28.732  18.433   6.849  1.00  0.00     0.000 C 
ENDROOT
BRANCH   1   2
ATOM      2  C   UNL     1      27.237  18.782   6.908  1.00  0.00     0.000 C 
BRANCH   2   3
ATOM      3  C   UNL     1      26.389  17.901   5.974  1.00  0.00     0.000 C 
BRANCH   3   4
ATOM      4  C   UNL     1      24.984  18.477   5.740  1.00  0.00     0.000 C 
BRANCH   4   5
ATOM      5  C   UNL     1      23.954  17.389   5.385  1.00  0.00     0.000 C 
BRANCH   5   6
ATOM      6  C   UNL     1      22.525  17.943   5.282  1.00  0.00     0.000 C 
BRANCH   6   7
ATOM      7  C   UNL     1      22.317  19.203   6.141  1.00  0.00     0.000 C 
BRANCH   7   8
ATOM      8  C   UNL     1      20.872  19.351   6.648  1.00  0.00     0.000 C 
BRANCH   8   9
ATOM      9  C   UNL     1      20.413  20.799   6.917  1.00  0.00     0.000 C 
BRANCH   9  10
ATOM     10  C   UNL     1      18.925  20.956   7.282  1.00  0.00     0.000 C 
BRANCH  10  11
ATOM     11  C   UNL     1      18.419  19.984   8.365  1.00  0.00     0.000 C 
BRANCH  11  12
ATOM     12  C   UNL     1      17.837  20.688   9.609  1.00  0.00     0.000 C 
BRANCH  12  13
ATOM     13  C   UNL     1      17.559  19.714  10.763  1.00  0.00     0.006 C 
BRANCH  13  14
ATOM     14  C   UNL     1      17.634  20.430  12.119  1.00  0.00     0.053 C 
BRANCH  14  15
ATOM     15  C   UNL     1      17.755  19.483  13.279  1.00  0.00     0.041 C 
ATOM     16  O   UNL     1      16.774  19.234  14.028  1.00  0.00    -0.550 OA
ATOM     17  O   UNL     1      18.980  18.881  13.538  1.00  0.00    -0.550 OA
ENDBRANCH  14  15
ENDBRANCH  13  14
ENDBRANCH  12  13
ENDBRANCH  11  12
ENDBRANCH  10  11
ENDBRANCH   9  10
ENDBRANCH   8   9
ENDBRANCH   7   8
ENDBRANCH   6   7
ENDBRANCH   5   6
ENDBRANCH   4   5
ENDBRANCH   3   4
ENDBRANCH   2   3
ENDBRANCH   1   2
BRANCH   1  18
ATOM     18  C   UNL     1      29.049  17.361   5.791  1.00  0.00     0.000 C 
BRANCH  18  19
ATOM     19  C   UNL     1      30.310  16.544   6.142  1.00  0.00     0.000 C 
BRANCH  19  20
ATOM     20  C   UNL     1      31.558  17.409   6.408  1.00  0.00     0.000 C 
BRANCH  20  21
ATOM     21  C   UNL     1      32.381  16.999   7.642  1.00  0.00     0.000 C 
BRANCH  21  22
ATOM     22  C   UNL     1      33.800  17.600   7.708  1.00  0.00     0.000 C 
BRANCH  22  23
ATOM     23  C   UNL     1      33.886  18.910   8.518  1.00  0.00     0.000 C 
BRANCH  23  24
ATOM     24  C   UNL     1      33.410  18.736   9.969  1.00  0.00    -0.000 C 
BRANCH  24  25
ATOM     25  C   UNL     1      34.101  19.738  10.900  1.00  0.00    -0.000 C 
BRANCH  25  26
ATOM     26  C   UNL     1      34.122  21.143  10.281  1.00  0.00    -0.000 C 
BRANCH  26  27
ATOM     27  C   UNL     1      32.787  21.894  10.472  1.00  0.00    -0.000 C 
BRANCH  27  28
ATOM     28  C   UNL     1      31.971  22.037   9.174  1.00  0.00    -0.000 C 
BRANCH  28  29
ATOM     29  C   UNL     1      31.067  20.834   8.844  1.00  0.00    -0.000 C 
BRANCH  29  30
ATOM     30  C   UNL     1      29.603  20.969   9.314  1.00  0.00    -0.000 C 
BRANCH  30  31
ATOM     31  C   UNL     1      29.106  19.837  10.231  1.00  0.00    -0.003 C 
ATOM     32  C   UNL     1      29.951  19.677  11.494  1.00  0.00     0.004 C 
ENDBRANCH  30  31
ENDBRANCH  29  30
ENDBRANCH  28  29
ENDBRANCH  27  28
ENDBRANCH  26  27
ENDBRANCH  25  26
ENDBRANCH  24  25
ENDBRANCH  23  24
ENDBRANCH  22  23
ENDBRANCH  21  22
ENDBRANCH  20  21
ENDBRANCH  19  20
ENDBRANCH  18  19
ENDBRANCH   1  18
TORSDOF 28
ENDMDL
MODEL 2
REMARK VINA RESULT:    -6.294      3.118     12.527
REMARK INTER + INTRA:         -18.836
REMARK INTER:                 -16.898
REMARK INTRA:                  -1.938
REMARK UNBOUND:                -2.240
REMARK SMILES CCCCCCCCCCCCCCCCCCCCCCCCCCCCCC(=O)[O-]
REMARK SMILES IDX 16 1 17 2 18 3 19 4 20 5 21 6 22 7 23 8 24 9 25 10 26 11
REMARK SMILES IDX 27 12 28 13 29 14 30 15 31 16 32 17 15 18 14 19 13 20 12 21
REMARK SMILES IDX 11 22 10 23 9 24 8 25 7 26 6 27 5 28 4 29 3 30 2 31 1 32
REMARK H PARENT
REMARK Flexibility Score: inf
ROOT
ATOM      1  C   UNL     1      24.439  18.542   5.374  1.00  0.00     0.000 C 
ENDROOT
BRANCH   1   2
ATOM      2  C   UNL     1      25.590  17.755   6.021  1.00  0.00     0.000 C 
BRANCH   2   3
ATOM      3  C   UNL     1      26.959  18.420   5.796  1.00  0.00     0.000 C 
BRANCH   3   4
ATOM      4  C   UNL     1      28.111  17.403   5.786  1.00  0.00     0.000 C 
BRANCH   4   5
ATOM      5  C   UNL     1      29.392  17.960   6.433  1.00  0.00     0.000 C 
BRANCH   5   6
ATOM      6  C   UNL     1      30.591  17.012   6.276  1.00  0.00     0.000 C 
BRANCH   6   7
ATOM      7  C   UNL     1      31.888  17.757   5.917  1.00  0.00     0.000 C 
BRANCH   7   8
ATOM      8  C   UNL     1      33.148  16.897   6.124  1.00  0.00     0.000 C 
BRANCH   8   9
ATOM      9  C   UNL     1      33.984  17.244   7.375  1.00  0.00     0.000 C 
BRANCH   9  10
ATOM     10  C   UNL     1      33.235  17.120   8.715  1.00  0.00     0.000 C 
BRANCH  10  11
ATOM     11  C   UNL     1      33.179  18.414   9.548  1.00  0.00     0.000 C 
BRANCH  11  12
ATOM     12  C   UNL     1      31.767  18.760  10.066  1.00  0.00     0.000 C 
BRANCH  12  13
ATOM     13  C   UNL     1      31.100  19.881   9.256  1.00  0.00     0.006 C 
BRANCH  13  14
ATOM     14  C   UNL     1      29.581  19.895   9.482  1.00  0.00     0.053 C 
BRANCH  14  15
ATOM     15  C   UNL     1      29.194  20.396  10.845  1.00  0.00     0.041 C 
ATOM     16  O   UNL     1      28.989  19.602  11.802  1.00  0.00    -0.550 OA
ATOM     17  O   UNL     1      29.045  21.761  11.049  1.00  0.00    -0.550 OA
ENDBRANCH  14  15
ENDBRANCH  13  14
ENDBRANCH  12  13
ENDBRANCH  11  12
ENDBRANCH  10  11
ENDBRANCH   9  10
ENDBRANCH   8   9
ENDBRANCH   7   8
ENDBRANCH   6   7
ENDBRANCH   5   6
ENDBRANCH   4   5
ENDBRANCH   3   4
ENDBRANCH   2   3
ENDBRANCH   1   2
BRANCH   1  18
ATOM     18  C   UNL     1      23.119  17.752   5.352  1.00  0.00     0.000 C 
BRANCH  18  19
ATOM     19  C   UNL     1      22.155  18.189   6.475  1.00  0.00     0.000 C 
BRANCH  19  20
ATOM     20  C   UNL     1      21.303  19.423   6.119  1.00  0.00     0.000 C 
BRANCH  20  21
ATOM     21  C   UNL     1      20.597  20.091   7.311  1.00  0.00     0.000 C 
BRANCH  21  22
ATOM     22  C   UNL     1      19.231  20.728   6.986  1.00  0.00     0.000 C 
BRANCH  22  23
ATOM     23  C   UNL     1      18.383  21.059   8.232  1.00  0.00     0.000 C 
BRANCH  23  24
ATOM     24  C   UNL     1      17.813  19.801   8.906  1.00  0.00    -0.000 C 
BRANCH  24  25
ATOM     25  C   UNL     1      17.722  19.981  10.425  1.00  0.00    -0.000 C 
BRANCH  25  26
ATOM     26  C   UNL     1      17.270  21.404  10.785  1.00  0.00    -0.000 C 
BRANCH  26  27
ATOM     27  C   UNL     1      15.821  21.447  11.317  1.00  0.00    -0.000 C 
BRANCH  27  28
ATOM     28  C   UNL     1      15.704  22.049  12.730  1.00  0.00    -0.000 C 
BRANCH  28  29
ATOM     29  C   UNL     1      15.181  21.077  13.804  1.00  0.00    -0.000 C 
BRANCH  29  30
ATOM     30  C   UNL     1      16.161  19.951  14.199  1.00  0.00    -0.000 C 
BRANCH  30  31
ATOM     31  C   UNL     1      17.140  20.307  15.332  1.00  0.00    -0.003 C 
ATOM     32  C   UNL     1      16.479  21.084  16.470  1.00  0.00     0.004 C 
ENDBRANCH  30  31
ENDBRANCH  29  30
ENDBRANCH  28  29
ENDBRANCH  27  28
ENDBRANCH  26  27
ENDBRANCH  25  26
ENDBRANCH  24  25
ENDBRANCH  23  24
ENDBRANCH  22  23
ENDBRANCH  21  22
ENDBRANCH  20  21
ENDBRANCH  19  20
ENDBRANCH  18  19
ENDBRANCH   1  18
TORSDOF 28
ENDMDL
MODEL 3
REMARK VINA RESULT:    -6.132      7.501     11.241
REMARK INTER + INTRA:         -18.409
REMARK INTER:                 -14.629
REMARK INTRA:                  -3.781
REMARK UNBOUND:                -2.240
REMARK SMILES CCCCCCCCCCCCCCCCCCCCCCCCCCCCCC(=O)[O-]
REMARK SMILES IDX 16 1 17 2 18 3 19 4 20 5 21 6 22 7 23 8 24 9 25 10 26 11
REMARK SMILES IDX 27 12 28 13 29 14 30 15 31 16 32 17 15 18 14 19 13 20 12 21
REMARK SMILES IDX 11 22 10 23 9 24 8 25 7 26 6 27 5 28 4 29 3 30 2 31 1 32
REMARK H PARENT
REMARK Flexibility Score: inf
ROOT
ATOM      1  C   UNL     1      18.135  20.187  16.156  1.00  0.00     0.000 C 
ENDROOT
BRANCH   1   2
ATOM      2  C   UNL     1      16.937  19.243  15.963  1.00  0.00     0.000 C 
BRANCH   2   3
ATOM      3  C   UNL     1      16.092  19.094  17.240  1.00  0.00     0.000 C 
BRANCH   3   4
ATOM      4  C   UNL     1      16.901  19.379  18.515  1.00  0.00     0.000 C 
BRANCH   4   5
ATOM      5  C   UNL     1      16.158  20.315  19.485  1.00  0.00     0.000 C 
BRANCH   5   6
ATOM      6  C   UNL     1      14.689  20.529  19.088  1.00  0.00     0.000 C 
BRANCH   6   7
ATOM      7  C   UNL     1      14.286  22.014  19.096  1.00  0.00     0.000 C 
BRANCH   7   8
ATOM      8  C   UNL     1      14.134  22.600  17.681  1.00  0.00     0.000 C 
BRANCH   8   9
ATOM      9  C   UNL     1      15.457  22.867  16.934  1.00  0.00     0.000 C 
BRANCH   9  10
ATOM     10  C   UNL     1      15.414  22.604  15.417  1.00  0.00     0.000 C 
BRANCH  10  11
ATOM     11  C   UNL     1      14.329  21.609  14.963  1.00  0.00     0.000 C 
BRANCH  11  12
ATOM     12  C   UNL     1      14.595  20.989  13.575  1.00  0.00     0.000 C 
BRANCH  12  13
ATOM     13  C   UNL     1      15.607  21.797  12.751  1.00  0.00     0.006 C 
BRANCH  13  14
ATOM     14  C   UNL     1      15.757  21.216  11.338  1.00  0.00     0.053 C 
BRANCH  14  15
ATOM     15  C   UNL     1      17.132  20.673  11.069  1.00  0.00     0.041 C 
ATOM     16  O   UNL     1      17.748  20.945  10.004  1.00  0.00    -0.550 OA
ATOM     17  O   UNL     1      17.728  19.840  12.007  1.00  0.00    -0.550 OA
ENDBRANCH  14  15
ENDBRANCH  13  14
ENDBRANCH  12  13
ENDBRANCH  11  12
ENDBRANCH  10  11
ENDBRANCH   9  10
ENDBRANCH   8   9
ENDBRANCH   7   8
ENDBRANCH   6   7
ENDBRANCH   5   6
ENDBRANCH   4   5
ENDBRANCH   3   4
ENDBRANCH   2   3
ENDBRANCH   1   2
BRANCH   1  18
ATOM     18  C   UNL     1      19.425  19.644  15.516  1.00  0.00     0.000 C 
BRANCH  18  19
ATOM     19  C   UNL     1      19.213  18.274  14.839  1.00  0.00     0.000 C 
BRANCH  19  20
ATOM     20  C   UNL     1      20.331  17.254  15.136  1.00  0.00     0.000 C 
BRANCH  20  21
ATOM     21  C   UNL     1      21.481  17.786  16.008  1.00  0.00     0.000 C 
BRANCH  21  22
ATOM     22  C   UNL     1      22.575  16.754  16.346  1.00  0.00     0.000 C 
BRANCH  22  23
ATOM     23  C   UNL     1      23.848  17.371  16.960  1.00  0.00     0.000 C 
BRANCH  23  24
ATOM     24  C   UNL     1      24.846  16.305  17.439  1.00  0.00    -0.000 C 
BRANCH  24  25
ATOM     25  C   UNL     1      26.194  16.450  16.724  1.00  0.00    -0.000 C 
BRANCH  25  26
ATOM     26  C   UNL     1      26.194  17.668  15.787  1.00  0.00    -0.000 C 
BRANCH  26  27
ATOM     27  C   UNL     1      27.266  18.709  16.173  1.00  0.00    -0.000 C 
BRANCH  27  28
ATOM     28  C   UNL     1      27.020  20.100  15.557  1.00  0.00    -0.000 C 
BRANCH  28  29
ATOM     29  C   UNL     1      25.666  20.258  14.839  1.00  0.00    -0.000 C 
BRANCH  29  30
ATOM     30  C   UNL     1      25.149  21.709  14.731  1.00  0.00    -0.000 C 
BRANCH  30  31
ATOM     31  C   UNL     1      24.123  22.116  15.804  1.00  0.00    -0.003 C 
ATOM     32  C   UNL     1      23.225  20.959  16.241  1.00  0.00     0.004 C 
ENDBRANCH  30  31
ENDBRANCH  29  30
ENDBRANCH  28  29
ENDBRANCH  27  28
ENDBRANCH  26  27
ENDBRANCH  25  26
ENDBRANCH  24  25
ENDBRANCH  23  24
ENDBRANCH  22  23
ENDBRANCH  21  22
ENDBRANCH  20  21
ENDBRANCH  19  20
ENDBRANCH  18  19
ENDBRANCH   1  18
TORSDOF 28
ENDMDL
MODEL 4
REMARK VINA RESULT:    -6.131      7.563     10.869
REMARK INTER + INTRA:         -18.408
REMARK INTER:                 -14.964
REMARK INTRA:                  -3.444
REMARK UNBOUND:                -2.240
REMARK SMILES CCCCCCCCCCCCCCCCCCCCCCCCCCCCCC(=O)[O-]
REMARK SMILES IDX 16 1 17 2 18 3 19 4 20 5 21 6 22 7 23 8 24 9 25 10 26 11
REMARK SMILES IDX 27 12 28 13 29 14 30 15 31 16 32 17 15 18 14 19 13 20 12 21
REMARK SMILES IDX 11 22 10 23 9 24 8 25 7 26 6 27 5 28 4 29 3 30 2 31 1 32
REMARK H PARENT
REMARK Flexibility Score: inf
ROOT
ATOM      1  C   UNL     1      17.340  19.002  13.864  1.00  0.00     0.000 C 
ENDROOT
BRANCH   1   2
ATOM      2  C   UNL     1      18.376  19.706  12.974  1.00  0.00     0.000 C 
BRANCH   2   3
ATOM      3  C   UNL     1      17.844  19.985  11.557  1.00  0.00     0.000 C 
BRANCH   3   4
ATOM      4  C   UNL     1      17.447  21.456  11.360  1.00  0.00     0.000 C 
BRANCH   4   5
ATOM      5  C   UNL     1      15.923  21.667  11.425  1.00  0.00     0.000 C 
BRANCH   5   6
ATOM      6  C   UNL     1      15.458  22.176  12.799  1.00  0.00     0.000 C 
BRANCH   6   7
ATOM      7  C   UNL     1      14.582  21.152  13.541  1.00  0.00     0.000 C 
BRANCH   7   8
ATOM      8  C   UNL     1      14.649  21.305  15.071  1.00  0.00     0.000 C 
BRANCH   8   9
ATOM      9  C   UNL     1      15.705  22.305  15.587  1.00  0.00     0.000 C 
BRANCH   9  10
ATOM     10  C   UNL     1      15.358  22.989  16.922  1.00  0.00     0.000 C 
BRANCH  10  11
ATOM     11  C   UNL     1      14.121  22.418  17.640  1.00  0.00     0.000 C 
BRANCH  11  12
ATOM     12  C   UNL     1      14.319  22.218  19.158  1.00  0.00     0.000 C 
BRANCH  12  13
ATOM     13  C   UNL     1      14.236  20.742  19.574  1.00  0.00     0.006 C 
BRANCH  13  14
ATOM     14  C   UNL     1      14.135  19.827  18.345  1.00  0.00     0.053 C 
BRANCH  14  15
ATOM     15  C   UNL     1      15.091  18.669  18.394  1.00  0.00     0.041 C 
ATOM     16  O   UNL     1      14.825  17.575  17.830  1.00  0.00    -0.550 OA
ATOM     17  O   UNL     1      16.285  18.804  19.089  1.00  0.00    -0.550 OA
ENDBRANCH  14  15
ENDBRANCH  13  14
ENDBRANCH  12  13
ENDBRANCH  11  12
ENDBRANCH  10  11
ENDBRANCH   9  10
ENDBRANCH   8   9
ENDBRANCH   7   8
ENDBRANCH   6   7
ENDBRANCH   5   6
ENDBRANCH   4   5
ENDBRANCH   3   4
ENDBRANCH   2   3
ENDBRANCH   1   2
BRANCH   1  18
ATOM     18  C   UNL     1      17.714  19.045  15.356  1.00  0.00     0.000 C 
BRANCH  18  19
ATOM     19  C   UNL     1      18.878  20.017  15.641  1.00  0.00     0.000 C 
BRANCH  19  20
ATOM     20  C   UNL     1      20.231  19.317  15.873  1.00  0.00     0.000 C 
BRANCH  20  21
ATOM     21  C   UNL     1      20.148  17.793  16.072  1.00  0.00     0.000 C 
BRANCH  21  22
ATOM     22  C   UNL     1      21.230  16.979  15.334  1.00  0.00     0.000 C 
BRANCH  22  23
ATOM     23  C   UNL     1      22.377  16.494  16.245  1.00  0.00     0.000 C 
BRANCH  23  24
ATOM     24  C   UNL     1      23.376  17.613  16.577  1.00  0.00    -0.000 C 
BRANCH  24  25
ATOM     25  C   UNL     1      24.677  17.039  17.150  1.00  0.00    -0.000 C 
BRANCH  25  26
ATOM     26  C   UNL     1      25.897  17.563  16.378  1.00  0.00    -0.000 C 
BRANCH  26  27
ATOM     27  C   UNL     1      25.506  18.269  15.062  1.00  0.00    -0.000 C 
BRANCH  27  28
ATOM     28  C   UNL     1      26.142  19.663  14.900  1.00  0.00    -0.000 C 
BRANCH  28  29
ATOM     29  C   UNL     1      25.145  20.797  14.597  1.00  0.00    -0.000 C 
BRANCH  29  30
ATOM     30  C   UNL     1      25.314  22.065  15.461  1.00  0.00    -0.000 C 
BRANCH  30  31
ATOM     31  C   UNL     1      24.350  22.173  16.656  1.00  0.00    -0.003 C 
ATOM     32  C   UNL     1      22.902  21.855  16.285  1.00  0.00     0.004 C 
ENDBRANCH  30  31
ENDBRANCH  29  30
ENDBRANCH  28  29
ENDBRANCH  27  28
ENDBRANCH  26  27
ENDBRANCH  25  26
ENDBRANCH  24  25
ENDBRANCH  23  24
ENDBRANCH  22  23
ENDBRANCH  21  22
ENDBRANCH  20  21
ENDBRANCH  19  20
ENDBRANCH  18  19
ENDBRANCH   1  18
TORSDOF 28
ENDMDL
MODEL 5
REMARK VINA RESULT:    -6.105      7.710     14.725
REMARK INTER + INTRA:         -18.340
REMARK INTER:                 -14.495
REMARK INTRA:                  -3.844
REMARK UNBOUND:                -2.240
REMARK SMILES CCCCCCCCCCCCCCCCCCCCCCCCCCCCCC(=O)[O-]
REMARK SMILES IDX 16 1 17 2 18 3 19 4 20 5 21 6 22 7 23 8 24 9 25 10 26 11
REMARK SMILES IDX 27 12 28 13 29 14 30 15 31 16 32 17 15 18 14 19 13 20 12 21
REMARK SMILES IDX 11 22 10 23 9 24 8 25 7 26 6 27 5 28 4 29 3 30 2 31 1 32
REMARK H PARENT
REMARK Flexibility Score: inf
ROOT
ATOM      1  C   UNL     1      19.258  18.447  14.820  1.00  0.00     0.000 C 
ENDROOT
BRANCH   1   2
ATOM      2  C   UNL     1      19.689  17.376  15.835  1.00  0.00     0.000 C 
BRANCH   2   3
ATOM      3  C   UNL     1      21.209  17.138  15.832  1.00  0.00     0.000 C 
BRANCH   3   4
ATOM      4  C   UNL     1      21.998  18.378  16.280  1.00  0.00     0.000 C 
BRANCH   4   5
ATOM      5  C   UNL     1      23.501  18.090  16.446  1.00  0.00     0.000 C 
BRANCH   5   6
ATOM      6  C   UNL     1      23.860  16.632  16.119  1.00  0.00     0.000 C 
BRANCH   6   7
ATOM      7  C   UNL     1      24.662  15.956  17.244  1.00  0.00     0.000 C 
BRANCH   7   8
ATOM      8  C   UNL     1      25.799  16.841  17.785  1.00  0.00     0.000 C 
BRANCH   8   9
ATOM      9  C   UNL     1      27.211  16.484  17.275  1.00  0.00     0.000 C 
BRANCH   9  10
ATOM     10  C   UNL     1      27.732  17.368  16.126  1.00  0.00     0.000 C 
BRANCH  10  11
ATOM     11  C   UNL     1      27.416  18.869  16.269  1.00  0.00     0.000 C 
BRANCH  11  12
ATOM     12  C   UNL     1      26.524  19.427  15.140  1.00  0.00     0.000 C 
BRANCH  12  13
ATOM     13  C   UNL     1      26.238  20.927  15.301  1.00  0.00     0.006 C 
BRANCH  13  14
ATOM     14  C   UNL     1      24.761  21.240  15.023  1.00  0.00     0.053 C 
BRANCH  14  15
ATOM     15  C   UNL     1      24.060  21.862  16.198  1.00  0.00     0.041 C 
ATOM     16  O   UNL     1      24.678  22.134  17.261  1.00  0.00    -0.550 OA
ATOM     17  O   UNL     1      22.700  22.127  16.113  1.00  0.00    -0.550 OA
ENDBRANCH  14  15
ENDBRANCH  13  14
ENDBRANCH  12  13
ENDBRANCH  11  12
ENDBRANCH  10  11
ENDBRANCH   9  10
ENDBRANCH   8   9
ENDBRANCH   7   8
ENDBRANCH   6   7
ENDBRANCH   5   6
ENDBRANCH   4   5
ENDBRANCH   3   4
ENDBRANCH   2   3
ENDBRANCH   1   2
BRANCH   1  18
ATOM     18  C   UNL     1      18.298  19.485  15.427  1.00  0.00     0.000 C 
BRANCH  18  19
ATOM     19  C   UNL     1      18.991  20.386  16.470  1.00  0.00     0.000 C 
BRANCH  19  20
ATOM     20  C   UNL     1      18.239  20.475  17.813  1.00  0.00     0.000 C 
BRANCH  20  21
ATOM     21  C   UNL     1      17.494  19.195  18.226  1.00  0.00     0.000 C 
BRANCH  21  22
ATOM     22  C   UNL     1      16.066  19.416  18.765  1.00  0.00     0.000 C 
BRANCH  22  23
ATOM     23  C   UNL     1      16.001  20.331  20.005  1.00  0.00     0.000 C 
BRANCH  23  24
ATOM     24  C   UNL     1      14.664  21.080  20.113  1.00  0.00    -0.000 C 
BRANCH  24  25
ATOM     25  C   UNL     1      14.003  21.230  18.738  1.00  0.00    -0.000 C 
BRANCH  25  26
ATOM     26  C   UNL     1      14.131  22.669  18.218  1.00  0.00    -0.000 C 
BRANCH  26  27
ATOM     27  C   UNL     1      15.179  22.799  17.092  1.00  0.00    -0.000 C 
BRANCH  27  28
ATOM     28  C   UNL     1      15.039  21.725  15.996  1.00  0.00    -0.000 C 
BRANCH  28  29
ATOM     29  C   UNL     1      15.757  22.055  14.673  1.00  0.00    -0.000 C 
BRANCH  29  30
ATOM     30  C   UNL     1      15.360  21.167  13.475  1.00  0.00    -0.000 C 
BRANCH  30  31
ATOM     31  C   UNL     1      15.702  21.748  12.092  1.00  0.00    -0.003 C 
ATOM     32  C   UNL     1      16.657  20.863  11.292  1.00  0.00     0.004 C 
ENDBRANCH  30  31
ENDBRANCH  29  30
ENDBRANCH  28  29
ENDBRANCH  27  28
ENDBRANCH  26  27
ENDBRANCH  25  26
ENDBRANCH  24  25
ENDBRANCH  23  24
ENDBRANCH  22  23
ENDBRANCH  21  22
ENDBRANCH  20  21
ENDBRANCH  19  20
ENDBRANCH  18  19
ENDBRANCH   1  18
TORSDOF 28
ENDMDL
MODEL 6
REMARK VINA RESULT:    -6.086      5.014      8.472
REMARK INTER + INTRA:         -18.289
REMARK INTER:                 -14.091
REMARK INTRA:                  -4.198
REMARK UNBOUND:                -2.240
REMARK SMILES CCCCCCCCCCCCCCCCCCCCCCCCCCCCCC(=O)[O-]
REMARK SMILES IDX 16 1 17 2 18 3 19 4 20 5 21 6 22 7 23 8 24 9 25 10 26 11
REMARK SMILES IDX 27 12 28 13 29 14 30 15 31 16 32 17 15 18 14 19 13 20 12 21
REMARK SMILES IDX 11 22 10 23 9 24 8 25 7 26 6 27 5 28 4 29 3 30 2 31 1 32
REMARK H PARENT
REMARK Flexibility Score: inf
ROOT
ATOM      1  C   UNL     1      28.879  20.345  12.128  1.00  0.00     0.000 C 
ENDROOT
BRANCH   1   2
ATOM      2  C   UNL     1      28.155  21.013  13.307  1.00  0.00     0.000 C 
BRANCH   2   3
ATOM      3  C   UNL     1      27.761  22.470  13.008  1.00  0.00     0.000 C 
BRANCH   3   4
ATOM      4  C   UNL     1      27.007  23.126  14.175  1.00  0.00     0.000 C 
BRANCH   4   5
ATOM      5  C   UNL     1      27.402  22.531  15.539  1.00  0.00     0.000 C 
BRANCH   5   6
ATOM      6  C   UNL     1      26.511  23.039  16.683  1.00  0.00     0.000 C 
BRANCH   6   7
ATOM      7  C   UNL     1      25.739  21.904  17.377  1.00  0.00     0.000 C 
BRANCH   7   8
ATOM      8  C   UNL     1      24.451  21.512  16.631  1.00  0.00     0.000 C 
BRANCH   8   9
ATOM      9  C   UNL     1      24.357  20.030  16.213  1.00  0.00     0.000 C 
BRANCH   9  10
ATOM     10  C   UNL     1      25.169  19.652  14.960  1.00  0.00     0.000 C 
BRANCH  10  11
ATOM     11  C   UNL     1      26.146  18.477  15.152  1.00  0.00     0.000 C 
BRANCH  11  12
ATOM     12  C   UNL     1      27.376  18.825  16.018  1.00  0.00     0.000 C 
BRANCH  12  13
ATOM     13  C   UNL     1      27.417  18.030  17.331  1.00  0.00     0.006 C 
BRANCH  13  14
ATOM     14  C   UNL     1      27.471  16.520  17.059  1.00  0.00     0.053 C 
BRANCH  14  15
ATOM     15  C   UNL     1      26.271  15.785  17.584  1.00  0.00     0.041 C 
ATOM     16  O   UNL     1      26.271  14.531  17.706  1.00  0.00    -0.550 OA
ATOM     17  O   UNL     1      25.133  16.502  17.928  1.00  0.00    -0.550 OA
ENDBRANCH  14  15
ENDBRANCH  13  14
ENDBRANCH  12  13
ENDBRANCH  11  12
ENDBRANCH  10  11
ENDBRANCH   9  10
ENDBRANCH   8   9
ENDBRANCH   7   8
ENDBRANCH   6   7
ENDBRANCH   5   6
ENDBRANCH   4   5
ENDBRANCH   3   4
ENDBRANCH   2   3
ENDBRANCH   1   2
BRANCH   1  18
ATOM     18  C   UNL     1      29.757  21.330  11.337  1.00  0.00     0.000 C 
BRANCH  18  19
ATOM     19  C   UNL     1      29.460  21.297   9.823  1.00  0.00     0.000 C 
BRANCH  19  20
ATOM     20  C   UNL     1      29.069  19.902   9.296  1.00  0.00     0.000 C 
BRANCH  20  21
ATOM     21  C   UNL     1      28.133  19.908   8.075  1.00  0.00     0.000 C 
BRANCH  21  22
ATOM     22  C   UNL     1      27.645  18.518   7.621  1.00  0.00     0.000 C 
BRANCH  22  23
ATOM     23  C   UNL     1      27.521  18.368   6.090  1.00  0.00     0.000 C 
BRANCH  23  24
ATOM     24  C   UNL     1      28.456  17.285   5.529  1.00  0.00    -0.000 C 
BRANCH  24  25
ATOM     25  C   UNL     1      29.926  17.639   5.784  1.00  0.00    -0.000 C 
BRANCH  25  26
ATOM     26  C   UNL     1      30.622  16.545   6.606  1.00  0.00    -0.000 C 
BRANCH  26  27
ATOM     27  C   UNL     1      31.583  17.125   7.666  1.00  0.00    -0.000 C 
BRANCH  27  28
ATOM     28  C   UNL     1      31.900  18.617   7.457  1.00  0.00    -0.000 C 
BRANCH  28  29
ATOM     29  C   UNL     1      32.775  19.252   8.555  1.00  0.00    -0.000 C 
BRANCH  29  30
ATOM     30  C   UNL     1      32.484  18.759   9.988  1.00  0.00    -0.000 C 
BRANCH  30  31
ATOM     31  C   UNL     1      33.045  19.650  11.110  1.00  0.00    -0.003 C 
ATOM     32  C   UNL     1      33.395  21.059  10.634  1.00  0.00     0.004 C 
ENDBRANCH  30  31
ENDBRANCH  29  30
ENDBRANCH  28  29
ENDBRANCH  27  28
ENDBRANCH  26  27
ENDBRANCH  25  26
ENDBRANCH  24  25
ENDBRANCH  23  24
ENDBRANCH  22  23
ENDBRANCH  21  22
ENDBRANCH  20  21
ENDBRANCH  19  20
ENDBRANCH  18  19
ENDBRANCH   1  18
TORSDOF 28
ENDMDL
MODEL 7
REMARK VINA RESULT:    -6.035      5.036      8.297
REMARK INTER + INTRA:         -18.155
REMARK INTER:                 -14.229
REMARK INTRA:                  -3.925
REMARK UNBOUND:                -2.240
REMARK SMILES CCCCCCCCCCCCCCCCCCCCCCCCCCCCCC(=O)[O-]
REMARK SMILES IDX 16 1 17 2 18 3 19 4 20 5 21 6 22 7 23 8 24 9 25 10 26 11
REMARK SMILES IDX 27 12 28 13 29 14 30 15 31 16 32 17 15 18 14 19 13 20 12 21
REMARK SMILES IDX 11 22 10 23 9 24 8 25 7 26 6 27 5 28 4 29 3 30 2 31 1 32
REMARK H PARENT
REMARK Flexibility Score: inf
ROOT
ATOM      1  C   UNL     1      29.097  19.976   9.823  1.00  0.00     0.000 C 
ENDROOT
BRANCH   1   2
ATOM      2  C   UNL     1      29.777  19.621  11.155  1.00  0.00     0.000 C 
BRANCH   2   3
ATOM      3  C   UNL     1      28.940  20.042  12.375  1.00  0.00     0.000 C 
BRANCH   3   4
ATOM      4  C   UNL     1      28.536  18.847  13.251  1.00  0.00     0.000 C 
BRANCH   4   5
ATOM      5  C   UNL     1      27.779  19.277  14.520  1.00  0.00     0.000 C 
BRANCH   5   6
ATOM      6  C   UNL     1      27.055  20.621  14.347  1.00  0.00     0.000 C 
BRANCH   6   7
ATOM      7  C   UNL     1      25.523  20.476  14.387  1.00  0.00     0.000 C 
BRANCH   7   8
ATOM      8  C   UNL     1      24.895  21.112  15.640  1.00  0.00     0.000 C 
BRANCH   8   9
ATOM      9  C   UNL     1      24.856  20.207  16.889  1.00  0.00     0.000 C 
BRANCH   9  10
ATOM     10  C   UNL     1      24.621  18.712  16.605  1.00  0.00     0.000 C 
BRANCH  10  11
ATOM     11  C   UNL     1      25.691  17.767  17.184  1.00  0.00     0.000 C 
BRANCH  11  12
ATOM     12  C   UNL     1      26.859  18.499  17.877  1.00  0.00     0.000 C 
BRANCH  12  13
ATOM     13  C   UNL     1      28.105  17.614  18.027  1.00  0.00     0.006 C 
BRANCH  13  14
ATOM     14  C   UNL     1      28.104  16.481  16.990  1.00  0.00     0.053 C 
BRANCH  14  15
ATOM     15  C   UNL     1      28.304  15.124  17.602  1.00  0.00     0.041 C 
ATOM     16  O   UNL     1      29.442  14.734  17.976  1.00  0.00    -0.550 OA
ATOM     17  O   UNL     1      27.213  14.277  17.745  1.00  0.00    -0.550 OA
ENDBRANCH  14  15
ENDBRANCH  13  14
ENDBRANCH  12  13
ENDBRANCH  11  12
ENDBRANCH  10  11
ENDBRANCH   9  10
ENDBRANCH   8   9
ENDBRANCH   7   8
ENDBRANCH   6   7
ENDBRANCH   5   6
ENDBRANCH   4   5
ENDBRANCH   3   4
ENDBRANCH   2   3
ENDBRANCH   1   2
BRANCH   1  18
ATOM     18  C   UNL     1      30.031  20.738   8.866  1.00  0.00     0.000 C 
BRANCH  18  19
ATOM     19  C   UNL     1      30.879  21.801   9.596  1.00  0.00     0.000 C 
BRANCH  19  20
ATOM     20  C   UNL     1      32.177  22.178   8.855  1.00  0.00     0.000 C 
BRANCH  20  21
ATOM     21  C   UNL     1      33.475  21.851   9.613  1.00  0.00     0.000 C 
BRANCH  21  22
ATOM     22  C   UNL     1      33.280  21.377  11.067  1.00  0.00     0.000 C 
BRANCH  22  23
ATOM     23  C   UNL     1      33.596  19.883  11.285  1.00  0.00     0.000 C 
BRANCH  23  24
ATOM     24  C   UNL     1      33.827  19.133   9.964  1.00  0.00    -0.000 C 
BRANCH  24  25
ATOM     25  C   UNL     1      32.675  18.166   9.670  1.00  0.00    -0.000 C 
BRANCH  25  26
ATOM     26  C   UNL     1      32.400  18.078   8.161  1.00  0.00    -0.000 C 
BRANCH  26  27
ATOM     27  C   UNL     1      32.046  16.646   7.708  1.00  0.00    -0.000 C 
BRANCH  27  28
ATOM     28  C   UNL     1      30.855  16.587   6.733  1.00  0.00    -0.000 C 
BRANCH  28  29
ATOM     29  C   UNL     1      30.371  17.957   6.221  1.00  0.00    -0.000 C 
BRANCH  29  30
ATOM     30  C   UNL     1      28.955  17.961   5.606  1.00  0.00    -0.000 C 
BRANCH  30  31
ATOM     31  C   UNL     1      27.806  17.780   6.613  1.00  0.00    -0.003 C 
ATOM     32  C   UNL     1      26.485  18.372   6.124  1.00  0.00     0.004 C 
ENDBRANCH  30  31
ENDBRANCH  29  30
ENDBRANCH  28  29
ENDBRANCH  27  28
ENDBRANCH  26  27
ENDBRANCH  25  26
ENDBRANCH  24  25
ENDBRANCH  23  24
ENDBRANCH  22  23
ENDBRANCH  21  22
ENDBRANCH  20  21
ENDBRANCH  19  20
ENDBRANCH  18  19
ENDBRANCH   1  18
TORSDOF 28
ENDMDL
MODEL 8
REMARK VINA RESULT:    -6.024      7.223      9.891
REMARK INTER + INTRA:         -18.126
REMARK INTER:                 -14.354
REMARK INTRA:                  -3.772
REMARK UNBOUND:                -2.240
REMARK SMILES CCCCCCCCCCCCCCCCCCCCCCCCCCCCCC(=O)[O-]
REMARK SMILES IDX 16 1 17 2 18 3 19 4 20 5 21 6 22 7 23 8 24 9 25 10 26 11
REMARK SMILES IDX 27 12 28 13 29 14 30 15 31 16 32 17 15 18 14 19 13 20 12 21
REMARK SMILES IDX 11 22 10 23 9 24 8 25 7 26 6 27 5 28 4 29 3 30 2 31 1 32
REMARK H PARENT
REMARK Flexibility Score: inf
ROOT
ATOM      1  C   UNL     1      19.860  19.299  16.155  1.00  0.00     0.000 C 
ENDROOT
BRANCH   1   2
ATOM      2  C   UNL     1      18.548  20.051  15.882  1.00  0.00     0.000 C 
BRANCH   2   3
ATOM      3  C   UNL     1      17.366  19.101  15.624  1.00  0.00     0.000 C 
BRANCH   3   4
ATOM      4  C   UNL     1      16.933  19.089  14.150  1.00  0.00     0.000 C 
BRANCH   4   5
ATOM      5  C   UNL     1      18.079  19.470  13.197  1.00  0.00     0.000 C 
BRANCH   5   6
ATOM      6  C   UNL     1      17.598  19.687  11.754  1.00  0.00     0.000 C 
BRANCH   6   7
ATOM      7  C   UNL     1      17.465  21.177  11.394  1.00  0.00     0.000 C 
BRANCH   7   8
ATOM      8  C   UNL     1      16.005  21.665  11.398  1.00  0.00     0.000 C 
BRANCH   8   9
ATOM      9  C   UNL     1      15.514  22.264  12.733  1.00  0.00     0.000 C 
BRANCH   9  10
ATOM     10  C   UNL     1      14.536  21.376  13.525  1.00  0.00     0.000 C 
BRANCH  10  11
ATOM     11  C   UNL     1      14.258  21.846  14.965  1.00  0.00     0.000 C 
BRANCH  11  12
ATOM     12  C   UNL     1      15.520  22.304  15.726  1.00  0.00     0.000 C 
BRANCH  12  13
ATOM     13  C   UNL     1      15.188  23.053  17.024  1.00  0.00     0.006 C 
BRANCH  13  14
ATOM     14  C   UNL     1      13.875  22.542  17.635  1.00  0.00     0.053 C 
BRANCH  14  15
ATOM     15  C   UNL     1      14.087  21.508  18.703  1.00  0.00     0.041 C 
ATOM     16  O   UNL     1      13.876  20.285  18.484  1.00  0.00    -0.550 OA
ATOM     17  O   UNL     1      14.509  21.910  19.963  1.00  0.00    -0.550 OA
ENDBRANCH  14  15
ENDBRANCH  13  14
ENDBRANCH  12  13
ENDBRANCH  11  12
ENDBRANCH  10  11
ENDBRANCH   9  10
ENDBRANCH   8   9
ENDBRANCH   7   8
ENDBRANCH   6   7
ENDBRANCH   5   6
ENDBRANCH   4   5
ENDBRANCH   3   4
ENDBRANCH   2   3
ENDBRANCH   1   2
BRANCH   1  18
ATOM     18  C   UNL     1      19.658  17.777  16.263  1.00  0.00     0.000 C 
BRANCH  18  19
ATOM     19  C   UNL     1      20.753  16.985  15.518  1.00  0.00     0.000 C 
BRANCH  19  20
ATOM     20  C   UNL     1      22.127  17.014  16.217  1.00  0.00     0.000 C 
BRANCH  20  21
ATOM     21  C   UNL     1      23.317  16.615  15.327  1.00  0.00     0.000 C 
BRANCH  21  22
ATOM     22  C   UNL     1      24.566  16.129  16.089  1.00  0.00     0.000 C 
BRANCH  22  23
ATOM     23  C   UNL     1      24.655  16.646  17.540  1.00  0.00     0.000 C 
BRANCH  23  24
ATOM     24  C   UNL     1      26.014  16.343  18.189  1.00  0.00    -0.000 C 
BRANCH  24  25
ATOM     25  C   UNL     1      26.714  17.633  18.632  1.00  0.00    -0.000 C 
BRANCH  25  26
ATOM     26  C   UNL     1      27.931  17.933  17.744  1.00  0.00    -0.000 C 
BRANCH  26  27
ATOM     27  C   UNL     1      28.069  16.935  16.575  1.00  0.00    -0.000 C 
BRANCH  27  28
ATOM     28  C   UNL     1      27.972  17.598  15.188  1.00  0.00    -0.000 C 
BRANCH  28  29
ATOM     29  C   UNL     1      27.356  19.010  15.188  1.00  0.00    -0.000 C 
BRANCH  29  30
ATOM     30  C   UNL     1      25.897  19.086  14.689  1.00  0.00    -0.000 C 
BRANCH  30  31
ATOM     31  C   UNL     1      25.130  20.353  15.109  1.00  0.00    -0.003 C 
ATOM     32  C   UNL     1      24.407  20.198  16.446  1.00  0.00     0.004 C 
ENDBRANCH  30  31
ENDBRANCH  29  30
ENDBRANCH  28  29
ENDBRANCH  27  28
ENDBRANCH  26  27
ENDBRANCH  25  26
ENDBRANCH  24  25
ENDBRANCH  23  24
ENDBRANCH  22  23
ENDBRANCH  21  22
ENDBRANCH  20  21
ENDBRANCH  19  20
ENDBRANCH  18  19
ENDBRANCH   1  18
TORSDOF 28
ENDMDL
MODEL 9
REMARK VINA RESULT:    -5.938      4.991      7.910
REMARK INTER + INTRA:         -17.899
REMARK INTER:                 -14.085
REMARK INTRA:                  -3.814
REMARK UNBOUND:                -2.240
REMARK SMILES CCCCCCCCCCCCCCCCCCCCCCCCCCCCCC(=O)[O-]
REMARK SMILES IDX 16 1 17 2 18 3 19 4 20 5 21 6 22 7 23 8 24 9 25 10 26 11
REMARK SMILES IDX 27 12 28 13 29 14 30 15 31 16 32 17 15 18 14 19 13 20 12 21
REMARK SMILES IDX 11 22 10 23 9 24 8 25 7 26 6 27 5 28 4 29 3 30 2 31 1 32
REMARK H PARENT
REMARK Flexibility Score: inf
ROOT
ATOM      1  C   UNL     1      29.340  19.960  10.979  1.00  0.00     0.000 C 
ENDROOT
BRANCH   1   2
ATOM      2  C   UNL     1      28.875  20.474  12.350  1.00  0.00     0.000 C 
BRANCH   2   3
ATOM      3  C   UNL     1      28.463  19.334  13.298  1.00  0.00     0.000 C 
BRANCH   3   4
ATOM      4  C   UNL     1      27.460  19.794  14.368  1.00  0.00     0.000 C 
BRANCH   4   5
ATOM      5  C   UNL     1      27.519  21.312  14.615  1.00  0.00     0.000 C 
BRANCH   5   6
ATOM      6  C   UNL     1      27.314  21.675  16.094  1.00  0.00     0.000 C 
BRANCH   6   7
ATOM      7  C   UNL     1      26.200  22.717  16.297  1.00  0.00     0.000 C 
BRANCH   7   8
ATOM      8  C   UNL     1      25.016  22.176  17.119  1.00  0.00     0.000 C 
BRANCH   8   9
ATOM      9  C   UNL     1      23.679  22.072  16.356  1.00  0.00     0.000 C 
BRANCH   9  10
ATOM     10  C   UNL     1      23.126  20.643  16.202  1.00  0.00     0.000 C 
BRANCH  10  11
ATOM     11  C   UNL     1      24.197  19.549  16.028  1.00  0.00     0.000 C 
BRANCH  11  12
ATOM     12  C   UNL     1      23.661  18.116  16.229  1.00  0.00     0.000 C 
BRANCH  12  13
ATOM     13  C   UNL     1      24.505  17.304  17.223  1.00  0.00     0.006 C 
BRANCH  13  14
ATOM     14  C   UNL     1      25.994  17.657  17.098  1.00  0.00     0.053 C 
BRANCH  14  15
ATOM     15  C   UNL     1      26.614  18.061  18.406  1.00  0.00     0.041 C 
ATOM     16  O   UNL     1      27.147  19.193  18.557  1.00  0.00    -0.550 OA
ATOM     17  O   UNL     1      26.613  17.162  19.463  1.00  0.00    -0.550 OA
ENDBRANCH  14  15
ENDBRANCH  13  14
ENDBRANCH  12  13
ENDBRANCH  11  12
ENDBRANCH  10  11
ENDBRANCH   9  10
ENDBRANCH   8   9
ENDBRANCH   7   8
ENDBRANCH   6   7
ENDBRANCH   5   6
ENDBRANCH   4   5
ENDBRANCH   3   4
ENDBRANCH   2   3
ENDBRANCH   1   2
BRANCH   1  18
ATOM     18  C   UNL     1      29.047  20.956   9.843  1.00  0.00     0.000 C 
BRANCH  18  19
ATOM     19  C   UNL     1      29.363  20.369   8.451  1.00  0.00     0.000 C 
BRANCH  19  20
ATOM     20  C   UNL     1      28.111  20.042   7.614  1.00  0.00     0.000 C 
BRANCH  20  21
ATOM     21  C   UNL     1      27.765  18.546   7.521  1.00  0.00     0.000 C 
BRANCH  21  22
ATOM     22  C   UNL     1      27.385  18.051   6.111  1.00  0.00     0.000 C 
BRANCH  22  23
ATOM     23  C   UNL     1      28.545  17.370   5.354  1.00  0.00     0.000 C 
BRANCH  23  24
ATOM     24  C   UNL     1      29.792  17.187   6.232  1.00  0.00    -0.000 C 
BRANCH  24  25
ATOM     25  C   UNL     1      30.955  18.046   5.725  1.00  0.00    -0.000 C 
BRANCH  25  26
ATOM     26  C   UNL     1      31.831  18.533   6.889  1.00  0.00    -0.000 C 
BRANCH  26  27
ATOM     27  C   UNL     1      31.905  17.508   8.041  1.00  0.00    -0.000 C 
BRANCH  27  28
ATOM     28  C   UNL     1      32.197  18.145   9.412  1.00  0.00    -0.000 C 
BRANCH  28  29
ATOM     29  C   UNL     1      32.999  19.460   9.356  1.00  0.00    -0.000 C 
BRANCH  29  30
ATOM     30  C   UNL     1      33.262  20.124  10.724  1.00  0.00    -0.000 C 
BRANCH  30  31
ATOM     31  C   UNL     1      32.682  21.540  10.884  1.00  0.00    -0.003 C 
ATOM     32  C   UNL     1      32.514  22.269   9.552  1.00  0.00     0.004 C 
ENDBRANCH  30  31
ENDBRANCH  29  30
ENDBRANCH  28  29
ENDBRANCH  27  28
ENDBRANCH  26  27
ENDBRANCH  25  26
ENDBRANCH  24  25
ENDBRANCH  23  24
ENDBRANCH  22  23
ENDBRANCH  21  22
ENDBRANCH  20  21
ENDBRANCH  19  20
ENDBRANCH  18  19
ENDBRANCH   1  18
TORSDOF 28
ENDMDL
