MODEL 1
REMARK VINA RESULT:    -4.093      0.000      0.000
REMARK INTER + INTRA:          -8.754
REMARK INTER:                  -7.443
REMARK INTRA:                  -1.311
REMARK UNBOUND:                -1.311
REMARK SMILES CCCCCCCCCCCCCCCC(=O)[O-]
REMARK SMILES IDX 9 1 10 2 11 3 12 4 13 5 14 6 15 7 16 8 17 9 18 10 8 11 7 12
REMARK SMILES IDX 6 13 5 14 4 15 3 16 2 17 1 18
REMARK H PARENT
REMARK Flexibility Score: inf
ROOT
ATOM      1  C   UNL     1      -1.245  14.511 -17.874  1.00  0.00     0.000 C 
ENDROOT
BRANCH   1   2
ATOM      2  C   UNL     1      -0.592  15.809 -18.374  1.00  0.00     0.000 C 
BRANCH   2   3
ATOM      3  C   UNL     1       0.892  15.628 -18.740  1.00  0.00     0.000 C 
BRANCH   3   4
ATOM      4  C   UNL     1       1.617  16.979 -18.917  1.00  0.00     0.000 C 
BRANCH   4   5
ATOM      5  C   UNL     1       1.051  17.835 -20.061  1.00  0.00     0.000 C 
BRANCH   5   6
ATOM      6  C   UNL     1       0.722  19.271 -19.630  1.00  0.00     0.006 C 
BRANCH   6   7
ATOM      7  C   UNL     1       0.753  19.407 -18.105  1.00  0.00     0.053 C 
BRANCH   7   8
ATOM      8  C   UNL     1      -0.627  19.608 -17.567  1.00  0.00     0.041 C 
ATOM      9  O   UNL     1      -0.795  20.076 -16.410  1.00  0.00    -0.550 OA
ATOM     10  O   UNL     1      -1.729  19.239 -18.328  1.00  0.00    -0.550 OA
ENDBRANCH   7   8
ENDBRANCH   6   7
ENDBRANCH   5   6
ENDBRANCH   4   5
ENDBRANCH   3   4
ENDBRANCH   2   3
ENDBRANCH   1   2
BRANCH   1  11
ATOM     11  C   UNL     1      -2.334  13.991 -18.826  1.00  0.00     0.000 C 
BRANCH  11  12
ATOM     12  C   UNL     1      -2.163  12.498 -19.154  1.00  0.00    -0.000 C 
BRANCH  12  13
ATOM     13  C   UNL     1      -3.498  11.738 -19.161  1.00  0.00    -0.000 C 
BRANCH  13  14
ATOM     14  C   UNL     1      -3.405  10.460 -18.319  1.00  0.00    -0.000 C 
BRANCH  14  15
ATOM     15  C   UNL     1      -3.474  10.782 -16.818  1.00  0.00    -0.000 C 
BRANCH  15  16
ATOM     16  C   UNL     1      -4.446  11.930 -16.501  1.00  0.00    -0.000 C 
BRANCH  16  17
ATOM     17  C   UNL     1      -4.232  12.517 -15.097  1.00  0.00    -0.003 C 
ATOM     18  C   UNL     1      -2.797  13.001 -14.916  1.00  0.00     0.004 C 
ENDBRANCH  16  17
ENDBRANCH  15  16
ENDBRANCH  14  15
ENDBRANCH  13  14
ENDBRANCH  12  13
ENDBRANCH  11  12
ENDBRANCH   1  11
TORSDOF 14
ENDMDL
MODEL 2
REMARK VINA RESULT:    -4.089      1.230      3.167
REMARK INTER + INTRA:          -8.748
REMARK INTER:                  -7.600
REMARK INTRA:                  -1.148
REMARK UNBOUND:                -1.311
REMARK SMILES CCCCCCCCCCCCCCCC(=O)[O-]
REMARK SMILES IDX 9 1 10 2 11 3 12 4 13 5 14 6 15 7 16 8 17 9 18 10 8 11 7 12
REMARK SMILES IDX 6 13 5 14 4 15 3 16 2 17 1 18
REMARK H PARENT
REMARK Flexibility Score: inf
ROOT
ATOM      1  C   UNL     1      -2.092  14.122 -16.118  1.00  0.00     0.000 C 
ENDROOT
BRANCH   1   2
ATOM      2  C   UNL     1      -2.458  13.682 -17.545  1.00  0.00     0.000 C 
BRANCH   2   3
ATOM      3  C   UNL     1      -1.605  14.377 -18.621  1.00  0.00     0.000 C 
BRANCH   3   4
ATOM      4  C   UNL     1      -0.670  15.448 -18.021  1.00  0.00     0.000 C 
BRANCH   4   5
ATOM      5  C   UNL     1       0.653  15.607 -18.787  1.00  0.00     0.000 C 
BRANCH   5   6
ATOM      6  C   UNL     1       1.074  17.073 -18.957  1.00  0.00     0.006 C 
BRANCH   6   7
ATOM      7  C   UNL     1      -0.106  17.934 -19.418  1.00  0.00     0.053 C 
BRANCH   7   8
ATOM      8  C   UNL     1      -0.293  19.102 -18.504  1.00  0.00     0.041 C 
ATOM      9  O   UNL     1       0.687  19.832 -18.199  1.00  0.00    -0.550 OA
ATOM     10  O   UNL     1      -1.542  19.360 -17.954  1.00  0.00    -0.550 OA
ENDBRANCH   7   8
ENDBRANCH   6   7
ENDBRANCH   5   6
ENDBRANCH   4   5
ENDBRANCH   3   4
ENDBRANCH   2   3
ENDBRANCH   1   2
BRANCH   1  11
ATOM     11  C   UNL     1      -2.384  13.037 -15.070  1.00  0.00     0.000 C 
BRANCH  11  12
ATOM     12  C   UNL     1      -3.820  12.494 -15.172  1.00  0.00    -0.000 C 
BRANCH  12  13
ATOM     13  C   UNL     1      -3.861  10.984 -15.454  1.00  0.00    -0.000 C 
BRANCH  13  14
ATOM     14  C   UNL     1      -4.313  10.708 -16.893  1.00  0.00    -0.000 C 
BRANCH  14  15
ATOM     15  C   UNL     1      -3.117  10.338 -17.785  1.00  0.00    -0.000 C 
BRANCH  15  16
ATOM     16  C   UNL     1      -3.470  10.336 -19.280  1.00  0.00    -0.000 C 
BRANCH  16  17
ATOM     17  C   UNL     1      -4.406  11.490 -19.671  1.00  0.00    -0.003 C 
ATOM     18  C   UNL     1      -5.616  10.979 -20.447  1.00  0.00     0.004 C 
ENDBRANCH  16  17
ENDBRANCH  15  16
ENDBRANCH  14  15
ENDBRANCH  13  14
ENDBRANCH  12  13
ENDBRANCH  11  12
ENDBRANCH   1  11
TORSDOF 14
ENDMDL
MODEL 3
REMARK VINA RESULT:    -3.974      0.818      2.324
REMARK INTER + INTRA:          -8.537
REMARK INTER:                  -7.401
REMARK INTRA:                  -1.137
REMARK UNBOUND:                -1.311
REMARK SMILES CCCCCCCCCCCCCCCC(=O)[O-]
REMARK SMILES IDX 9 1 10 2 11 3 12 4 13 5 14 6 15 7 16 8 17 9 18 10 8 11 7 12
REMARK SMILES IDX 6 13 5 14 4 15 3 16 2 17 1 18
REMARK H PARENT
REMARK Flexibility Score: inf
ROOT
ATOM      1  C   UNL     1      -1.667  14.315 -18.063  1.00  0.00     0.000 C 
ENDROOT
BRANCH   1   2
ATOM      2  C   UNL     1      -0.883  15.602 -18.369  1.00  0.00     0.000 C 
BRANCH   2   3
ATOM      3  C   UNL     1       0.583  15.332 -18.752  1.00  0.00     0.000 C 
BRANCH   3   4
ATOM      4  C   UNL     1       1.432  16.620 -18.749  1.00  0.00     0.000 C 
BRANCH   4   5
ATOM      5  C   UNL     1       1.310  17.439 -20.045  1.00  0.00     0.000 C 
BRANCH   5   6
ATOM      6  C   UNL     1       0.714  18.835 -19.817  1.00  0.00     0.006 C 
BRANCH   6   7
ATOM      7  C   UNL     1       0.820  19.244 -18.345  1.00  0.00     0.053 C 
BRANCH   7   8
ATOM      8  C   UNL     1      -0.538  19.487 -17.767  1.00  0.00     0.041 C 
ATOM      9  O   UNL     1      -0.661  20.090 -16.668  1.00  0.00    -0.550 OA
ATOM     10  O   UNL     1      -1.665  19.010 -18.422  1.00  0.00    -0.550 OA
ENDBRANCH   7   8
ENDBRANCH   6   7
ENDBRANCH   5   6
ENDBRANCH   4   5
ENDBRANCH   3   4
ENDBRANCH   2   3
ENDBRANCH   1   2
BRANCH   1  11
ATOM     11  C   UNL     1      -1.916  14.116 -16.559  1.00  0.00     0.000 C 
BRANCH  11  12
ATOM     12  C   UNL     1      -3.231  13.371 -16.276  1.00  0.00    -0.000 C 
BRANCH  12  13
ATOM     13  C   UNL     1      -3.131  12.439 -15.059  1.00  0.00    -0.000 C 
BRANCH  13  14
ATOM     14  C   UNL     1      -3.803  11.090 -15.347  1.00  0.00    -0.000 C 
BRANCH  14  15
ATOM     15  C   UNL     1      -4.134  10.946 -16.840  1.00  0.00    -0.000 C 
BRANCH  15  16
ATOM     16  C   UNL     1      -2.994  10.299 -17.642  1.00  0.00    -0.000 C 
BRANCH  16  17
ATOM     17  C   UNL     1      -3.152  10.490 -19.158  1.00  0.00    -0.003 C 
ATOM     18  C   UNL     1      -4.244  11.509 -19.473  1.00  0.00     0.004 C 
ENDBRANCH  16  17
ENDBRANCH  15  16
ENDBRANCH  14  15
ENDBRANCH  13  14
ENDBRANCH  12  13
ENDBRANCH  11  12
ENDBRANCH   1  11
TORSDOF 14
ENDMDL
MODEL 4
REMARK VINA RESULT:    -3.970      3.240      7.639
REMARK INTER + INTRA:          -8.530
REMARK INTER:                  -7.488
REMARK INTRA:                  -1.043
REMARK UNBOUND:                -1.311
REMARK SMILES CCCCCCCCCCCCCCCC(=O)[O-]
REMARK SMILES IDX 9 1 10 2 11 3 12 4 13 5 14 6 15 7 16 8 17 9 18 10 8 11 7 12
REMARK SMILES IDX 6 13 5 14 4 15 3 16 2 17 1 18
REMARK H PARENT
REMARK Flexibility Score: inf
ROOT
ATOM      1  C   UNL     1      -1.641  14.491 -18.008  1.00  0.00     0.000 C 
ENDROOT
BRANCH   1   2
ATOM      2  C   UNL     1      -1.699  13.447 -19.136  1.00  0.00     0.000 C 
BRANCH   2   3
ATOM      3  C   UNL     1      -3.002  12.626 -19.123  1.00  0.00     0.000 C 
BRANCH   3   4
ATOM      4  C   UNL     1      -2.770  11.175 -18.650  1.00  0.00     0.000 C 
BRANCH   4   5
ATOM      5  C   UNL     1      -3.473  10.842 -17.324  1.00  0.00     0.000 C 
BRANCH   5   6
ATOM      6  C   UNL     1      -4.437  11.945 -16.864  1.00  0.00     0.006 C 
BRANCH   6   7
ATOM      7  C   UNL     1      -3.994  12.535 -15.522  1.00  0.00     0.053 C 
BRANCH   7   8
ATOM      8  C   UNL     1      -3.478  11.460 -14.619  1.00  0.00     0.041 C 
ATOM      9  O   UNL     1      -2.352  11.581 -14.069  1.00  0.00    -0.550 OA
ATOM     10  O   UNL     1      -4.223  10.306 -14.419  1.00  0.00    -0.550 OA
ENDBRANCH   7   8
ENDBRANCH   6   7
ENDBRANCH   5   6
ENDBRANCH   4   5
ENDBRANCH   3   4
ENDBRANCH   2   3
ENDBRANCH   1   2
BRANCH   1  11
ATOM     11  C   UNL     1      -0.776  15.708 -18.372  1.00  0.00     0.000 C 
BRANCH  11  12
ATOM     12  C   UNL     1       0.670  15.316 -18.720  1.00  0.00    -0.000 C 
BRANCH  12  13
ATOM     13  C   UNL     1       1.606  16.532 -18.806  1.00  0.00    -0.000 C 
BRANCH  13  14
ATOM     14  C   UNL     1       1.807  16.966 -20.263  1.00  0.00    -0.000 C 
BRANCH  14  15
ATOM     15  C   UNL     1       1.354  18.419 -20.474  1.00  0.00    -0.000 C 
BRANCH  15  16
ATOM     16  C   UNL     1       0.869  19.083 -19.176  1.00  0.00    -0.000 C 
BRANCH  16  17
ATOM     17  C   UNL     1      -0.569  19.612 -19.282  1.00  0.00    -0.003 C 
ATOM     18  C   UNL     1      -1.325  19.416 -17.971  1.00  0.00     0.004 C 
ENDBRANCH  16  17
ENDBRANCH  15  16
ENDBRANCH  14  15
ENDBRANCH  13  14
ENDBRANCH  12  13
ENDBRANCH  11  12
ENDBRANCH   1  11
TORSDOF 14
ENDMDL
MODEL 5
REMARK VINA RESULT:    -3.886      3.046      7.692
REMARK INTER + INTRA:          -8.379
REMARK INTER:                  -7.210
REMARK INTRA:                  -1.169
REMARK UNBOUND:                -1.311
REMARK SMILES CCCCCCCCCCCCCCCC(=O)[O-]
REMARK SMILES IDX 9 1 10 2 11 3 12 4 13 5 14 6 15 7 16 8 17 9 18 10 8 11 7 12
REMARK SMILES IDX 6 13 5 14 4 15 3 16 2 17 1 18
REMARK H PARENT
REMARK Flexibility Score: inf
ROOT
ATOM      1  C   UNL     1      -0.737  15.703 -18.403  1.00  0.00     0.000 C 
ENDROOT
BRANCH   1   2
ATOM      2  C   UNL     1      -1.626  14.507 -18.022  1.00  0.00     0.000 C 
BRANCH   2   3
ATOM      3  C   UNL     1      -1.834  13.524 -19.188  1.00  0.00     0.000 C 
BRANCH   3   4
ATOM      4  C   UNL     1      -3.057  12.609 -18.965  1.00  0.00     0.000 C 
BRANCH   4   5
ATOM      5  C   UNL     1      -2.689  11.128 -18.779  1.00  0.00     0.000 C 
BRANCH   5   6
ATOM      6  C   UNL     1      -3.358  10.494 -17.552  1.00  0.00     0.006 C 
BRANCH   6   7
ATOM      7  C   UNL     1      -3.996  11.564 -16.661  1.00  0.00     0.053 C 
BRANCH   7   8
ATOM      8  C   UNL     1      -3.494  11.446 -15.257  1.00  0.00     0.041 C 
ATOM      9  O   UNL     1      -3.755  10.421 -14.574  1.00  0.00    -0.550 OA
ATOM     10  O   UNL     1      -2.773  12.488 -14.689  1.00  0.00    -0.550 OA
ENDBRANCH   7   8
ENDBRANCH   6   7
ENDBRANCH   5   6
ENDBRANCH   4   5
ENDBRANCH   3   4
ENDBRANCH   2   3
ENDBRANCH   1   2
BRANCH   1  11
ATOM     11  C   UNL     1       0.695  15.282 -18.771  1.00  0.00     0.000 C 
BRANCH  11  12
ATOM     12  C   UNL     1       1.634  16.488 -18.945  1.00  0.00    -0.000 C 
BRANCH  12  13
ATOM     13  C   UNL     1       1.818  16.885 -20.418  1.00  0.00    -0.000 C 
BRANCH  13  14
ATOM     14  C   UNL     1       1.777  18.410 -20.583  1.00  0.00    -0.000 C 
BRANCH  14  15
ATOM     15  C   UNL     1       0.515  19.001 -19.936  1.00  0.00    -0.000 C 
BRANCH  15  16
ATOM     16  C   UNL     1       0.835  20.053 -18.862  1.00  0.00    -0.000 C 
BRANCH  16  17
ATOM     17  C   UNL     1      -0.027  19.893 -17.600  1.00  0.00    -0.003 C 
ATOM     18  C   UNL     1      -1.454  19.487 -17.957  1.00  0.00     0.004 C 
ENDBRANCH  16  17
ENDBRANCH  15  16
ENDBRANCH  14  15
ENDBRANCH  13  14
ENDBRANCH  12  13
ENDBRANCH  11  12
ENDBRANCH   1  11
TORSDOF 14
ENDMDL
MODEL 6
REMARK VINA RESULT:    -3.850      2.506      7.528
REMARK INTER + INTRA:          -8.313
REMARK INTER:                  -7.046
REMARK INTRA:                  -1.267
REMARK UNBOUND:                -1.311
REMARK SMILES CCCCCCCCCCCCCCCC(=O)[O-]
REMARK SMILES IDX 9 1 10 2 11 3 12 4 13 5 14 6 15 7 16 8 17 9 18 10 8 11 7 12
REMARK SMILES IDX 6 13 5 14 4 15 3 16 2 17 1 18
REMARK H PARENT
REMARK Flexibility Score: inf
ROOT
ATOM      1  C   UNL     1      -1.205  14.604 -17.879  1.00  0.00     0.000 C 
ENDROOT
BRANCH   1   2
ATOM      2  C   UNL     1      -2.298  14.093 -18.832  1.00  0.00     0.000 C 
BRANCH   2   3
ATOM      3  C   UNL     1      -2.186  12.584 -19.114  1.00  0.00     0.000 C 
BRANCH   3   4
ATOM      4  C   UNL     1      -3.565  11.935 -19.360  1.00  0.00     0.000 C 
BRANCH   4   5
ATOM      5  C   UNL     1      -3.790  10.648 -18.550  1.00  0.00     0.000 C 
BRANCH   5   6
ATOM      6  C   UNL     1      -3.037  10.642 -17.212  1.00  0.00     0.006 C 
BRANCH   6   7
ATOM      7  C   UNL     1      -3.991  10.913 -16.045  1.00  0.00     0.053 C 
BRANCH   7   8
ATOM      8  C   UNL     1      -4.210  12.383 -15.876  1.00  0.00     0.041 C 
ATOM      9  O   UNL     1      -3.292  13.112 -15.415  1.00  0.00    -0.550 OA
ATOM     10  O   UNL     1      -5.442  12.941 -16.189  1.00  0.00    -0.550 OA
ENDBRANCH   7   8
ENDBRANCH   6   7
ENDBRANCH   5   6
ENDBRANCH   4   5
ENDBRANCH   3   4
ENDBRANCH   2   3
ENDBRANCH   1   2
BRANCH   1  11
ATOM     11  C   UNL     1      -0.501  15.865 -18.407  1.00  0.00     0.000 C 
BRANCH  11  12
ATOM     12  C   UNL     1       0.989  15.625 -18.702  1.00  0.00    -0.000 C 
BRANCH  12  13
ATOM     13  C   UNL     1       1.758  16.930 -18.957  1.00  0.00    -0.000 C 
BRANCH  13  14
ATOM     14  C   UNL     1       1.017  17.813 -19.970  1.00  0.00    -0.000 C 
BRANCH  14  15
ATOM     15  C   UNL     1       1.460  19.279 -19.852  1.00  0.00    -0.000 C 
BRANCH  15  16
ATOM     16  C   UNL     1       0.558  20.098 -18.916  1.00  0.00    -0.000 C 
BRANCH  16  17
ATOM     17  C   UNL     1      -0.876  19.552 -18.845  1.00  0.00    -0.003 C 
ATOM     18  C   UNL     1      -1.481  19.772 -17.463  1.00  0.00     0.004 C 
ENDBRANCH  16  17
ENDBRANCH  15  16
ENDBRANCH  14  15
ENDBRANCH  13  14
ENDBRANCH  12  13
ENDBRANCH  11  12
ENDBRANCH   1  11
TORSDOF 14
ENDMDL
MODEL 7
REMARK VINA RESULT:    -3.608      3.068      7.705
REMARK INTER + INTRA:          -7.872
REMARK INTER:                  -6.994
REMARK INTRA:                  -0.877
REMARK UNBOUND:                -1.311
REMARK SMILES CCCCCCCCCCCCCCCC(=O)[O-]
REMARK SMILES IDX 9 1 10 2 11 3 12 4 13 5 14 6 15 7 16 8 17 9 18 10 8 11 7 12
REMARK SMILES IDX 6 13 5 14 4 15 3 16 2 17 1 18
REMARK H PARENT
REMARK Flexibility Score: inf
ROOT
ATOM      1  C   UNL     1      -3.309  13.300 -15.900  1.00  0.00     0.000 C 
ENDROOT
BRANCH   1   2
ATOM      2  C   UNL     1      -3.156  12.261 -14.777  1.00  0.00     0.000 C 
BRANCH   2   3
ATOM      3  C   UNL     1      -3.786  10.902 -15.131  1.00  0.00     0.000 C 
BRANCH   3   4
ATOM      4  C   UNL     1      -4.070  10.768 -16.642  1.00  0.00     0.000 C 
BRANCH   4   5
ATOM      5  C   UNL     1      -2.873  10.237 -17.447  1.00  0.00     0.000 C 
BRANCH   5   6
ATOM      6  C   UNL     1      -2.741  10.893 -18.829  1.00  0.00     0.006 C 
BRANCH   6   7
ATOM      7  C   UNL     1      -3.768  10.320 -19.809  1.00  0.00     0.053 C 
BRANCH   7   8
ATOM      8  C   UNL     1      -4.871  11.302 -20.048  1.00  0.00     0.041 C 
ATOM      9  O   UNL     1      -5.886  10.965 -20.714  1.00  0.00    -0.550 OA
ATOM     10  O   UNL     1      -4.759  12.600 -19.570  1.00  0.00    -0.550 OA
ENDBRANCH   7   8
ENDBRANCH   6   7
ENDBRANCH   5   6
ENDBRANCH   4   5
ENDBRANCH   3   4
ENDBRANCH   2   3
ENDBRANCH   1   2
BRANCH   1  11
ATOM     11  C   UNL     1      -1.977  13.968 -16.276  1.00  0.00     0.000 C 
BRANCH  11  12
ATOM     12  C   UNL     1      -1.906  14.337 -17.767  1.00  0.00    -0.000 C 
BRANCH  12  13
ATOM     13  C   UNL     1      -0.653  15.156 -18.113  1.00  0.00    -0.000 C 
BRANCH  13  14
ATOM     14  C   UNL     1      -1.035  16.491 -18.765  1.00  0.00    -0.000 C 
BRANCH  14  15
ATOM     15  C   UNL     1       0.146  17.474 -18.741  1.00  0.00    -0.000 C 
BRANCH  15  16
ATOM     16  C   UNL     1      -0.125  18.749 -19.555  1.00  0.00    -0.000 C 
BRANCH  16  17
ATOM     17  C   UNL     1      -0.354  19.981 -18.667  1.00  0.00    -0.003 C 
ATOM     18  C   UNL     1      -1.482  19.738 -17.669  1.00  0.00     0.004 C 
ENDBRANCH  16  17
ENDBRANCH  15  16
ENDBRANCH  14  15
ENDBRANCH  13  14
ENDBRANCH  12  13
ENDBRANCH  11  12
ENDBRANCH   1  11
TORSDOF 14
ENDMDL
MODEL 8
REMARK VINA RESULT:    -3.546      1.455      2.782
REMARK INTER + INTRA:          -7.760
REMARK INTER:                  -6.712
REMARK INTRA:                  -1.048
REMARK UNBOUND:                -1.311
REMARK SMILES CCCCCCCCCCCCCCCC(=O)[O-]
REMARK SMILES IDX 9 1 10 2 11 3 12 4 13 5 14 6 15 7 16 8 17 9 18 10 8 11 7 12
REMARK SMILES IDX 6 13 5 14 4 15 3 16 2 17 1 18
REMARK H PARENT
REMARK Flexibility Score: inf
ROOT
ATOM      1  C   UNL     1      -2.267  12.201 -19.127  1.00  0.00     0.000 C 
ENDROOT
BRANCH   1   2
ATOM      2  C   UNL     1      -2.365  13.735 -19.092  1.00  0.00     0.000 C 
BRANCH   2   3
ATOM      3  C   UNL     1      -1.549  14.358 -17.945  1.00  0.00     0.000 C 
BRANCH   3   4
ATOM      4  C   UNL     1      -0.885  15.688 -18.359  1.00  0.00     0.000 C 
BRANCH   4   5
ATOM      5  C   UNL     1       0.634  15.577 -18.568  1.00  0.00     0.000 C 
BRANCH   5   6
ATOM      6  C   UNL     1       1.278  16.900 -19.005  1.00  0.00     0.006 C 
BRANCH   6   7
ATOM      7  C   UNL     1       0.210  17.933 -19.376  1.00  0.00     0.053 C 
BRANCH   7   8
ATOM      8  C   UNL     1       0.222  19.072 -18.407  1.00  0.00     0.041 C 
ATOM      9  O   UNL     1      -0.747  19.246 -17.621  1.00  0.00    -0.550 OA
ATOM     10  O   UNL     1       1.284  19.966 -18.399  1.00  0.00    -0.550 OA
ENDBRANCH   7   8
ENDBRANCH   6   7
ENDBRANCH   5   6
ENDBRANCH   4   5
ENDBRANCH   3   4
ENDBRANCH   2   3
ENDBRANCH   1   2
BRANCH   1  11
ATOM     11  C   UNL     1      -3.631  11.516 -18.944  1.00  0.00     0.000 C 
BRANCH  11  12
ATOM     12  C   UNL     1      -3.987  11.304 -17.463  1.00  0.00    -0.000 C 
BRANCH  12  13
ATOM     13  C   UNL     1      -4.947  12.378 -16.928  1.00  0.00    -0.000 C 
BRANCH  13  14
ATOM     14  C   UNL     1      -4.688  12.650 -15.440  1.00  0.00    -0.000 C 
BRANCH  14  15
ATOM     15  C   UNL     1      -3.189  12.566 -15.117  1.00  0.00    -0.000 C 
BRANCH  15  16
ATOM     16  C   UNL     1      -2.835  11.346 -14.253  1.00  0.00    -0.000 C 
BRANCH  16  17
ATOM     17  C   UNL     1      -4.050  10.452 -13.963  1.00  0.00    -0.003 C 
ATOM     18  C   UNL     1      -3.620   9.124 -13.348  1.00  0.00     0.004 C 
ENDBRANCH  16  17
ENDBRANCH  15  16
ENDBRANCH  14  15
ENDBRANCH  13  14
ENDBRANCH  12  13
ENDBRANCH  11  12
ENDBRANCH   1  11
TORSDOF 14
ENDMDL
MODEL 9
REMARK VINA RESULT:    -3.513      3.415      7.859
REMARK INTER + INTRA:          -7.700
REMARK INTER:                  -6.538
REMARK INTRA:                  -1.162
REMARK UNBOUND:                -1.311
REMARK SMILES CCCCCCCCCCCCCCCC(=O)[O-]
REMARK SMILES IDX 9 1 10 2 11 3 12 4 13 5 14 6 15 7 16 8 17 9 18 10 8 11 7 12
REMARK SMILES IDX 6 13 5 14 4 15 3 16 2 17 1 18
REMARK H PARENT
REMARK Flexibility Score: inf
ROOT
ATOM      1  C   UNL     1      -1.381  15.201 -18.697  1.00  0.00     0.000 C 
ENDROOT
BRANCH   1   2
ATOM      2  C   UNL     1      -2.013  13.933 -18.101  1.00  0.00     0.000 C 
BRANCH   2   3
ATOM      3  C   UNL     1      -2.201  14.020 -16.576  1.00  0.00     0.000 C 
BRANCH   3   4
ATOM      4  C   UNL     1      -3.492  13.315 -16.108  1.00  0.00     0.000 C 
BRANCH   4   5
ATOM      5  C   UNL     1      -3.235  11.995 -15.363  1.00  0.00     0.000 C 
BRANCH   5   6
ATOM      6  C   UNL     1      -3.596  10.757 -16.195  1.00  0.00     0.006 C 
BRANCH   6   7
ATOM      7  C   UNL     1      -4.121  11.158 -17.577  1.00  0.00     0.053 C 
BRANCH   7   8
ATOM      8  C   UNL     1      -3.353  10.460 -18.654  1.00  0.00     0.041 C 
ATOM      9  O   UNL     1      -2.245   9.920 -18.393  1.00  0.00    -0.550 OA
ATOM     10  O   UNL     1      -3.841  10.441 -19.953  1.00  0.00    -0.550 OA
ENDBRANCH   7   8
ENDBRANCH   6   7
ENDBRANCH   5   6
ENDBRANCH   4   5
ENDBRANCH   3   4
ENDBRANCH   2   3
ENDBRANCH   1   2
BRANCH   1  11
ATOM     11  C   UNL     1       0.003  15.509 -18.103  1.00  0.00     0.000 C 
BRANCH  11  12
ATOM     12  C   UNL     1       1.118  15.468 -19.162  1.00  0.00    -0.000 C 
BRANCH  12  13
ATOM     13  C   UNL     1       1.936  16.768 -19.208  1.00  0.00    -0.000 C 
BRANCH  13  14
ATOM     14  C   UNL     1       1.928  17.371 -20.619  1.00  0.00    -0.000 C 
BRANCH  14  15
ATOM     15  C   UNL     1       1.319  18.781 -20.612  1.00  0.00    -0.000 C 
BRANCH  15  16
ATOM     16  C   UNL     1       0.808  19.202 -19.225  1.00  0.00    -0.000 C 
BRANCH  16  17
ATOM     17  C   UNL     1      -0.669  19.624 -19.240  1.00  0.00    -0.003 C 
ATOM     18  C   UNL     1      -1.334  19.342 -17.897  1.00  0.00     0.004 C 
ENDBRANCH  16  17
ENDBRANCH  15  16
ENDBRANCH  14  15
ENDBRANCH  13  14
ENDBRANCH  12  13
ENDBRANCH  11  12
ENDBRANCH   1  11
TORSDOF 14
ENDMDL
