MODEL 1
REMARK VINA RESULT:    -6.436      0.000      0.000
REMARK INTER + INTRA:          -6.436
REMARK INTER:                  -6.436
REMARK INTRA:                   0.000
REMARK UNBOUND:                 0.000
REMARK SMILES C=C1CCC[C@]2(C)CC(=O)C(=C(C)C)C[C@@H]12
REMARK SMILES IDX 13 1 12 2 11 3 15 4 16 5 2 6 1 7 3 8 4 9 5 10 6 11 8 12 9 13
REMARK SMILES IDX 10 14 7 15 14 16
REMARK H PARENT
REMARK Flexibility Score: inf
ROOT
ATOM      1  C   UNL     1      -9.777  73.995  23.880  1.00  0.00     0.039 C 
ATOM      2  C   UNL     1      -9.168  73.265  25.056  1.00  0.00    -0.070 C 
ATOM      3  C   UNL     1      -9.543  73.532  26.342  1.00  0.00    -0.006 C 
ATOM      4  C   UNL     1      -8.966  72.747  27.510  1.00  0.00     0.047 C 
ATOM      5  C   UNL     1      -9.953  72.624  28.698  1.00  0.00     0.025 C 
ATOM      6  C   UNL     1      -9.411  71.878  29.919  1.00  0.00    -0.073 C 
ATOM      7  C   UNL     1      -8.170  71.361  29.998  1.00  0.00     0.008 C 
ATOM      8  C   UNL     1     -10.374  71.692  31.068  1.00  0.00     0.031 C 
ATOM      9  C   UNL     1     -10.973  73.039  31.485  1.00  0.00     0.005 C 
ATOM     10  C   UNL     1     -11.566  73.793  30.282  1.00  0.00     0.008 C 
ATOM     11  C   UNL     1     -10.540  74.005  29.128  1.00  0.00    -0.018 C 
ATOM     12  C   UNL     1     -11.292  74.619  27.922  1.00  0.00     0.088 C 
ATOM     13  C   UNL     1     -10.436  74.677  26.690  1.00  0.00     0.159 C 
ATOM     14  O   UNL     1     -10.481  75.713  25.973  1.00  0.00    -0.295 OA
ATOM     15  C   UNL     1      -9.428  74.986  29.593  1.00  0.00     0.012 C 
ATOM     16  C   UNL     1      -8.147  72.195  24.743  1.00  0.00     0.039 C 
ENDROOT
TORSDOF 0
ENDMDL
MODEL 2
REMARK VINA RESULT:    -6.354      1.463      2.163
REMARK INTER + INTRA:          -6.354
REMARK INTER:                  -6.354
REMARK INTRA:                   0.000
REMARK UNBOUND:                 0.000
REMARK SMILES C=C1CCC[C@]2(C)CC(=O)C(=C(C)C)C[C@@H]12
REMARK SMILES IDX 13 1 12 2 11 3 15 4 16 5 2 6 1 7 3 8 4 9 5 10 6 11 8 12 9 13
REMARK SMILES IDX 10 14 7 15 14 16
REMARK H PARENT
REMARK Flexibility Score: inf
ROOT
ATOM      1  C   UNL     1      -7.455  72.464  22.968  1.00  0.00     0.039 C 
ATOM      2  C   UNL     1      -7.454  72.275  24.468  1.00  0.00    -0.070 C 
ATOM      3  C   UNL     1      -8.410  72.838  25.266  1.00  0.00    -0.006 C 
ATOM      4  C   UNL     1      -8.431  72.588  26.767  1.00  0.00     0.047 C 
ATOM      5  C   UNL     1      -9.861  72.630  27.363  1.00  0.00     0.025 C 
ATOM      6  C   UNL     1      -9.939  72.425  28.877  1.00  0.00    -0.073 C 
ATOM      7  C   UNL     1      -8.868  72.231  29.669  1.00  0.00     0.008 C 
ATOM      8  C   UNL     1     -11.326  72.402  29.475  1.00  0.00     0.031 C 
ATOM      9  C   UNL     1     -12.106  73.654  29.062  1.00  0.00     0.005 C 
ATOM     10  C   UNL     1     -12.080  73.862  27.538  1.00  0.00     0.008 C 
ATOM     11  C   UNL     1     -10.637  73.921  26.954  1.00  0.00    -0.018 C 
ATOM     12  C   UNL     1     -10.745  73.964  25.409  1.00  0.00     0.088 C 
ATOM     13  C   UNL     1      -9.406  73.820  24.744  1.00  0.00     0.159 C 
ATOM     14  O   UNL     1      -9.144  74.552  23.752  1.00  0.00    -0.295 OA
ATOM     15  C   UNL     1      -9.924  75.208  27.454  1.00  0.00     0.012 C 
ATOM     16  C   UNL     1      -6.366  71.400  25.047  1.00  0.00     0.039 C 
ENDROOT
TORSDOF 0
ENDMDL
MODEL 3
REMARK VINA RESULT:    -5.756      2.396      6.256
REMARK INTER + INTRA:          -5.756
REMARK INTER:                  -5.756
REMARK INTRA:                   0.000
REMARK UNBOUND:                 0.000
REMARK SMILES C=C1CCC[C@]2(C)CC(=O)C(=C(C)C)C[C@@H]12
REMARK SMILES IDX 13 1 12 2 11 3 15 4 16 5 2 6 1 7 3 8 4 9 5 10 6 11 8 12 9 13
REMARK SMILES IDX 10 14 7 15 14 16
REMARK H PARENT
REMARK Flexibility Score: inf
ROOT
ATOM      1  C   UNL     1     -10.499  75.000  26.431  1.00  0.00     0.039 C 
ATOM      2  C   UNL     1      -9.504  73.862  26.459  1.00  0.00    -0.070 C 
ATOM      3  C   UNL     1      -8.785  73.508  25.353  1.00  0.00    -0.006 C 
ATOM      4  C   UNL     1      -7.742  72.400  25.414  1.00  0.00     0.047 C 
ATOM      5  C   UNL     1      -6.577  72.616  24.415  1.00  0.00     0.025 C 
ATOM      6  C   UNL     1      -5.519  71.513  24.403  1.00  0.00    -0.073 C 
ATOM      7  C   UNL     1      -5.566  70.413  25.179  1.00  0.00     0.008 C 
ATOM      8  C   UNL     1      -4.342  71.728  23.481  1.00  0.00     0.031 C 
ATOM      9  C   UNL     1      -4.825  72.023  22.059  1.00  0.00     0.005 C 
ATOM     10  C   UNL     1      -5.860  73.161  22.036  1.00  0.00     0.008 C 
ATOM     11  C   UNL     1      -7.082  72.894  22.965  1.00  0.00    -0.018 C 
ATOM     12  C   UNL     1      -7.960  74.170  22.983  1.00  0.00     0.088 C 
ATOM     13  C   UNL     1      -9.057  74.088  24.005  1.00  0.00     0.159 C 
ATOM     14  O   UNL     1     -10.205  74.506  23.693  1.00  0.00    -0.295 OA
ATOM     15  C   UNL     1      -7.913  71.707  22.404  1.00  0.00     0.012 C 
ATOM     16  C   UNL     1      -9.311  73.155  27.781  1.00  0.00     0.039 C 
ENDROOT
TORSDOF 0
ENDMDL
MODEL 4
REMARK VINA RESULT:    -5.674      1.389      5.431
REMARK INTER + INTRA:          -5.674
REMARK INTER:                  -5.674
REMARK INTRA:                   0.000
REMARK UNBOUND:                 0.000
REMARK SMILES C=C1CCC[C@]2(C)CC(=O)C(=C(C)C)C[C@@H]12
REMARK SMILES IDX 13 1 12 2 11 3 15 4 16 5 2 6 1 7 3 8 4 9 5 10 6 11 8 12 9 13
REMARK SMILES IDX 10 14 7 15 14 16
REMARK H PARENT
REMARK Flexibility Score: inf
ROOT
ATOM      1  C   UNL     1     -10.321  73.842  29.575  1.00  0.00     0.039 C 
ATOM      2  C   UNL     1      -9.510  73.015  28.604  1.00  0.00    -0.070 C 
ATOM      3  C   UNL     1      -9.559  73.234  27.256  1.00  0.00    -0.006 C 
ATOM      4  C   UNL     1      -8.690  72.435  26.296  1.00  0.00     0.047 C 
ATOM      5  C   UNL     1      -8.303  73.236  25.027  1.00  0.00     0.025 C 
ATOM      6  C   UNL     1      -7.462  72.469  24.006  1.00  0.00    -0.073 C 
ATOM      7  C   UNL     1      -7.075  71.187  24.156  1.00  0.00     0.008 C 
ATOM      8  C   UNL     1      -7.020  73.245  22.788  1.00  0.00     0.031 C 
ATOM      9  C   UNL     1      -8.226  73.899  22.107  1.00  0.00     0.005 C 
ATOM     10  C   UNL     1      -9.067  74.715  23.103  1.00  0.00     0.008 C 
ATOM     11  C   UNL     1      -9.542  73.879  24.329  1.00  0.00    -0.018 C 
ATOM     12  C   UNL     1     -10.229  74.841  25.330  1.00  0.00     0.088 C 
ATOM     13  C   UNL     1     -10.544  74.169  26.636  1.00  0.00     0.159 C 
ATOM     14  O   UNL     1     -11.656  74.403  27.181  1.00  0.00    -0.295 OA
ATOM     15  C   UNL     1     -10.565  72.806  23.864  1.00  0.00     0.012 C 
ATOM     16  C   UNL     1      -8.607  71.956  29.194  1.00  0.00     0.039 C 
ENDROOT
TORSDOF 0
ENDMDL
MODEL 5
REMARK VINA RESULT:    -5.571      3.063      6.632
REMARK INTER + INTRA:          -5.571
REMARK INTER:                  -5.571
REMARK INTRA:                   0.000
REMARK UNBOUND:                 0.000
REMARK SMILES C=C1CCC[C@]2(C)CC(=O)C(=C(C)C)C[C@@H]12
REMARK SMILES IDX 13 1 12 2 11 3 15 4 16 5 2 6 1 7 3 8 4 9 5 10 6 11 8 12 9 13
REMARK SMILES IDX 10 14 7 15 14 16
REMARK H PARENT
REMARK Flexibility Score: inf
ROOT
ATOM      1  C   UNL     1     -10.135  74.606  24.760  1.00  0.00     0.039 C 
ATOM      2  C   UNL     1      -9.115  73.684  25.389  1.00  0.00    -0.070 C 
ATOM      3  C   UNL     1      -8.279  72.913  24.632  1.00  0.00    -0.006 C 
ATOM      4  C   UNL     1      -7.216  72.036  25.279  1.00  0.00     0.047 C 
ATOM      5  C   UNL     1      -5.964  71.851  24.384  1.00  0.00     0.025 C 
ATOM      6  C   UNL     1      -4.878  70.945  24.966  1.00  0.00    -0.073 C 
ATOM      7  C   UNL     1      -4.969  70.327  26.159  1.00  0.00     0.008 C 
ATOM      8  C   UNL     1      -3.621  70.796  24.141  1.00  0.00     0.031 C 
ATOM      9  C   UNL     1      -3.969  70.367  22.713  1.00  0.00     0.005 C 
ATOM     10  C   UNL     1      -5.029  71.288  22.086  1.00  0.00     0.008 C 
ATOM     11  C   UNL     1      -6.330  71.392  22.938  1.00  0.00    -0.018 C 
ATOM     12  C   UNL     1      -7.242  72.465  22.295  1.00  0.00     0.088 C 
ATOM     13  C   UNL     1      -8.432  72.785  23.153  1.00  0.00     0.159 C 
ATOM     14  O   UNL     1      -9.555  72.928  22.598  1.00  0.00    -0.295 OA
ATOM     15  C   UNL     1      -7.066  70.023  22.935  1.00  0.00     0.012 C 
ATOM     16  C   UNL     1      -9.034  73.681  26.898  1.00  0.00     0.039 C 
ENDROOT
TORSDOF 0
ENDMDL
MODEL 6
REMARK VINA RESULT:    -5.533      3.079      6.282
REMARK INTER + INTRA:          -5.533
REMARK INTER:                  -5.533
REMARK INTRA:                   0.000
REMARK UNBOUND:                 0.000
REMARK SMILES C=C1CCC[C@]2(C)CC(=O)C(=C(C)C)C[C@@H]12
REMARK SMILES IDX 13 1 12 2 11 3 15 4 16 5 2 6 1 7 3 8 4 9 5 10 6 11 8 12 9 13
REMARK SMILES IDX 10 14 7 15 14 16
REMARK H PARENT
REMARK Flexibility Score: inf
ROOT
ATOM      1  C   UNL     1     -10.933  72.614  36.103  1.00  0.00     0.039 C 
ATOM      2  C   UNL     1     -10.284  72.014  34.876  1.00  0.00    -0.070 C 
ATOM      3  C   UNL     1     -10.585  72.449  33.616  1.00  0.00    -0.006 C 
ATOM      4  C   UNL     1      -9.878  71.877  32.396  1.00  0.00     0.047 C 
ATOM      5  C   UNL     1      -9.756  72.901  31.238  1.00  0.00     0.025 C 
ATOM      6  C   UNL     1      -9.089  72.369  29.969  1.00  0.00    -0.073 C 
ATOM      7  C   UNL     1      -8.638  71.108  29.824  1.00  0.00     0.008 C 
ATOM      8  C   UNL     1      -8.904  73.363  28.847  1.00  0.00     0.031 C 
ATOM      9  C   UNL     1     -10.235  74.040  28.509  1.00  0.00     0.005 C 
ATOM     10  C   UNL     1     -10.909  74.624  29.763  1.00  0.00     0.008 C 
ATOM     11  C   UNL     1     -11.123  73.568  30.889  1.00  0.00    -0.018 C 
ATOM     12  C   UNL     1     -11.649  74.304  32.146  1.00  0.00     0.088 C 
ATOM     13  C   UNL     1     -11.698  73.407  33.349  1.00  0.00     0.159 C 
ATOM     14  O   UNL     1     -12.700  73.475  34.111  1.00  0.00    -0.295 OA
ATOM     15  C   UNL     1     -12.176  72.522  30.429  1.00  0.00     0.012 C 
ATOM     16  C   UNL     1      -9.253  70.933  35.107  1.00  0.00     0.039 C 
ENDROOT
TORSDOF 0
ENDMDL
MODEL 7
REMARK VINA RESULT:    -5.368      6.416      9.169
REMARK INTER + INTRA:          -5.368
REMARK INTER:                  -5.368
REMARK INTRA:                   0.000
REMARK UNBOUND:                 0.000
REMARK SMILES C=C1CCC[C@]2(C)CC(=O)C(=C(C)C)C[C@@H]12
REMARK SMILES IDX 13 1 12 2 11 3 15 4 16 5 2 6 1 7 3 8 4 9 5 10 6 11 8 12 9 13
REMARK SMILES IDX 10 14 7 15 14 16
REMARK H PARENT
REMARK Flexibility Score: inf
ROOT
ATOM      1  C   UNL     1     -11.623  73.125  34.801  1.00  0.00     0.039 C 
ATOM      2  C   UNL     1     -10.595  72.115  34.342  1.00  0.00    -0.070 C 
ATOM      3  C   UNL     1      -9.926  71.316  35.226  1.00  0.00    -0.006 C 
ATOM      4  C   UNL     1      -8.939  70.262  34.744  1.00  0.00     0.047 C 
ATOM      5  C   UNL     1      -8.861  69.036  35.689  1.00  0.00     0.025 C 
ATOM      6  C   UNL     1      -7.855  67.961  35.276  1.00  0.00    -0.073 C 
ATOM      7  C   UNL     1      -7.068  68.042  34.185  1.00  0.00     0.008 C 
ATOM      8  C   UNL     1      -7.802  66.728  36.146  1.00  0.00     0.031 C 
ATOM      9  C   UNL     1      -7.597  67.119  37.613  1.00  0.00     0.005 C 
ATOM     10  C   UNL     1      -8.625  68.169  38.069  1.00  0.00     0.008 C 
ATOM     11  C   UNL     1      -8.630  69.447  37.177  1.00  0.00    -0.018 C 
ATOM     12  C   UNL     1      -9.807  70.345  37.630  1.00  0.00     0.088 C 
ATOM     13  C   UNL     1     -10.023  71.507  36.703  1.00  0.00     0.159 C 
ATOM     14  O   UNL     1     -10.271  72.637  37.202  1.00  0.00    -0.295 OA
ATOM     15  C   UNL     1      -7.294  70.218  37.363  1.00  0.00     0.012 C 
ATOM     16  C   UNL     1     -10.366  72.000  32.853  1.00  0.00     0.039 C 
ENDROOT
TORSDOF 0
ENDMDL
MODEL 8
REMARK VINA RESULT:    -5.335      3.705      6.137
REMARK INTER + INTRA:          -5.335
REMARK INTER:                  -5.335
REMARK INTRA:                   0.000
REMARK UNBOUND:                 0.000
REMARK SMILES C=C1CCC[C@]2(C)CC(=O)C(=C(C)C)C[C@@H]12
REMARK SMILES IDX 13 1 12 2 11 3 15 4 16 5 2 6 1 7 3 8 4 9 5 10 6 11 8 12 9 13
REMARK SMILES IDX 10 14 7 15 14 16
REMARK H PARENT
REMARK Flexibility Score: inf
ROOT
ATOM      1  C   UNL     1      -4.434  69.230  23.957  1.00  0.00     0.039 C 
ATOM      2  C   UNL     1      -5.188  70.218  24.818  1.00  0.00    -0.070 C 
ATOM      3  C   UNL     1      -6.136  71.051  24.296  1.00  0.00    -0.006 C 
ATOM      4  C   UNL     1      -6.930  71.997  25.186  1.00  0.00     0.047 C 
ATOM      5  C   UNL     1      -8.355  72.276  24.646  1.00  0.00     0.025 C 
ATOM      6  C   UNL     1      -9.186  73.252  25.480  1.00  0.00    -0.073 C 
ATOM      7  C   UNL     1      -8.744  73.855  26.600  1.00  0.00     0.008 C 
ATOM      8  C   UNL     1     -10.600  73.495  25.008  1.00  0.00     0.031 C 
ATOM      9  C   UNL     1     -10.607  73.909  23.534  1.00  0.00     0.005 C 
ATOM     10  C   UNL     1      -9.814  72.919  22.663  1.00  0.00     0.008 C 
ATOM     11  C   UNL     1      -8.347  72.717  23.149  1.00  0.00    -0.018 C 
ATOM     12  C   UNL     1      -7.711  71.587  22.303  1.00  0.00     0.088 C 
ATOM     13  C   UNL     1      -6.364  71.177  22.826  1.00  0.00     0.159 C 
ATOM     14  O   UNL     1      -5.438  70.959  22.000  1.00  0.00    -0.295 OA
ATOM     15  C   UNL     1      -7.543  74.030  22.938  1.00  0.00     0.012 C 
ATOM     16  C   UNL     1      -4.872  70.216  26.296  1.00  0.00     0.039 C 
ENDROOT
TORSDOF 0
ENDMDL
MODEL 9
REMARK VINA RESULT:    -5.296      8.801     10.899
REMARK INTER + INTRA:          -5.296
REMARK INTER:                  -5.296
REMARK INTRA:                   0.000
REMARK UNBOUND:                 0.000
REMARK SMILES C=C1CCC[C@]2(C)CC(=O)C(=C(C)C)C[C@@H]12
REMARK SMILES IDX 13 1 12 2 11 3 15 4 16 5 2 6 1 7 3 8 4 9 5 10 6 11 8 12 9 13
REMARK SMILES IDX 10 14 7 15 14 16
REMARK H PARENT
REMARK Flexibility Score: inf
ROOT
ATOM      1  C   UNL     1     -11.141  73.134  36.792  1.00  0.00     0.039 C 
ATOM      2  C   UNL     1     -11.109  71.858  37.603  1.00  0.00    -0.070 C 
ATOM      3  C   UNL     1     -10.229  70.851  37.326  1.00  0.00    -0.006 C 
ATOM      4  C   UNL     1     -10.168  69.599  38.189  1.00  0.00     0.047 C 
ATOM      5  C   UNL     1      -8.752  68.971  38.237  1.00  0.00     0.025 C 
ATOM      6  C   UNL     1      -8.639  67.685  39.058  1.00  0.00    -0.073 C 
ATOM      7  C   UNL     1      -9.673  67.104  39.697  1.00  0.00     0.008 C 
ATOM      8  C   UNL     1      -7.258  67.086  39.171  1.00  0.00     0.031 C 
ATOM      9  C   UNL     1      -6.646  66.889  37.781  1.00  0.00     0.005 C 
ATOM     10  C   UNL     1      -6.706  68.181  36.947  1.00  0.00     0.008 C 
ATOM     11  C   UNL     1      -8.149  68.755  36.814  1.00  0.00    -0.018 C 
ATOM     12  C   UNL     1      -8.056  70.128  36.104  1.00  0.00     0.088 C 
ATOM     13  C   UNL     1      -9.369  70.857  36.106  1.00  0.00     0.159 C 
ATOM     14  O   UNL     1      -9.727  71.456  35.056  1.00  0.00    -0.295 OA
ATOM     15  C   UNL     1      -9.017  67.792  35.958  1.00  0.00     0.012 C 
ATOM     16  C   UNL     1     -12.074  71.760  38.762  1.00  0.00     0.039 C 
ENDROOT
TORSDOF 0
ENDMDL
