MODEL 1
REMARK VINA RESULT:    -3.915      0.000      0.000
REMARK INTER + INTRA:          -4.294
REMARK INTER:                  -4.258
REMARK INTRA:                  -0.035
REMARK UNBOUND:                -0.035
REMARK SMILES O=C([O-])c1ccc(O)cc1
REMARK SMILES IDX 7 1 6 2 9 3 5 4 10 5 4 6 8 7 2 9 1 10 3 11
REMARK H PARENT 8 8
REMARK Flexibility Score: inf
ROOT
ATOM      1  C   UNL     1      38.999 186.386  30.243  1.00  0.00     0.115 A 
ATOM      2  C   UNL     1      38.561 187.189  31.304  1.00  0.00     0.047 A 
ATOM      3  C   UNL     1      40.205 185.688  30.355  1.00  0.00     0.047 A 
ATOM      4  C   UNL     1      39.325 187.293  32.470  1.00  0.00     0.014 A 
ATOM      5  C   UNL     1      40.973 185.791  31.519  1.00  0.00     0.014 A 
ATOM      6  C   UNL     1      40.541 186.594  32.590  1.00  0.00    -0.003 A 
ENDROOT
BRANCH   1   7
ATOM      7  O   UNL     1      38.246 186.275  29.077  1.00  0.00    -0.508 OA
ATOM      8  H   UNL     1      37.389 186.802  28.947  1.00  0.00     0.293 HD
ENDBRANCH   1   7
BRANCH   6   9
ATOM      9  C   UNL     1      41.354 186.700  33.821  1.00  0.00     0.071 C 
ATOM     10  O   UNL     1      42.555 186.321  33.830  1.00  0.00    -0.545 OA
ATOM     11  O   UNL     1      40.803 187.222  34.986  1.00  0.00    -0.545 OA
ENDBRANCH   6   9
TORSDOF 2
ENDMDL
MODEL 2
REMARK VINA RESULT:    -3.899      0.089      1.841
REMARK INTER + INTRA:          -4.277
REMARK INTER:                  -4.241
REMARK INTRA:                  -0.036
REMARK UNBOUND:                -0.035
REMARK SMILES O=C([O-])c1ccc(O)cc1
REMARK SMILES IDX 7 1 6 2 9 3 5 4 10 5 4 6 8 7 2 9 1 10 3 11
REMARK H PARENT 8 8
REMARK Flexibility Score: inf
ROOT
ATOM      1  C   UNL     1      39.019 186.398  30.256  1.00  0.00     0.115 A 
ATOM      2  C   UNL     1      40.240 185.727  30.399  1.00  0.00     0.047 A 
ATOM      3  C   UNL     1      38.532 187.181  31.307  1.00  0.00     0.047 A 
ATOM      4  C   UNL     1      40.970 185.838  31.586  1.00  0.00     0.014 A 
ATOM      5  C   UNL     1      39.259 187.294  32.497  1.00  0.00     0.014 A 
ATOM      6  C   UNL     1      40.486 186.624  32.649  1.00  0.00    -0.003 A 
ENDROOT
BRANCH   1   7
ATOM      7  O   UNL     1      38.284 186.295  29.077  1.00  0.00    -0.508 OA
ATOM      8  H   UNL     1      37.619 185.544  28.932  1.00  0.00     0.293 HD
ENDBRANCH   1   7
BRANCH   6   9
ATOM      9  C   UNL     1      41.253 186.745  33.908  1.00  0.00     0.071 C 
ATOM     10  O   UNL     1      40.728 187.257  34.931  1.00  0.00    -0.545 OA
ATOM     11  O   UNL     1      42.566 186.293  33.978  1.00  0.00    -0.545 OA
ENDBRANCH   6   9
TORSDOF 2
ENDMDL
MODEL 3
REMARK VINA RESULT:    -3.874      2.081      4.709
REMARK INTER + INTRA:          -4.249
REMARK INTER:                  -4.221
REMARK INTRA:                  -0.027
REMARK UNBOUND:                -0.035
REMARK SMILES O=C([O-])c1ccc(O)cc1
REMARK SMILES IDX 7 1 6 2 9 3 5 4 10 5 4 6 8 7 2 9 1 10 3 11
REMARK H PARENT 8 8
REMARK Flexibility Score: inf
ROOT
ATOM      1  C   UNL     1      43.188 184.688  33.785  1.00  0.00     0.115 A 
ATOM      2  C   UNL     1      42.778 183.823  32.762  1.00  0.00     0.047 A 
ATOM      3  C   UNL     1      42.499 185.886  33.996  1.00  0.00     0.047 A 
ATOM      4  C   UNL     1      41.686 184.154  31.955  1.00  0.00     0.014 A 
ATOM      5  C   UNL     1      41.406 186.221  33.190  1.00  0.00     0.014 A 
ATOM      6  C   UNL     1      40.987 185.359  32.161  1.00  0.00    -0.003 A 
ENDROOT
BRANCH   1   7
ATOM      7  O   UNL     1      44.275 184.368  34.595  1.00  0.00    -0.508 OA
ATOM      8  H   UNL     1      45.105 184.949  34.622  1.00  0.00     0.293 HD
ENDBRANCH   1   7
BRANCH   6   9
ATOM      9  C   UNL     1      39.831 185.716  31.310  1.00  0.00     0.071 C 
ATOM     10  O   UNL     1      40.005 186.137  30.137  1.00  0.00    -0.545 OA
ATOM     11  O   UNL     1      38.534 185.590  31.796  1.00  0.00    -0.545 OA
ENDBRANCH   6   9
TORSDOF 2
ENDMDL
MODEL 4
REMARK VINA RESULT:    -3.827      2.149      4.549
REMARK INTER + INTRA:          -4.198
REMARK INTER:                  -4.171
REMARK INTRA:                  -0.028
REMARK UNBOUND:                -0.035
REMARK SMILES O=C([O-])c1ccc(O)cc1
REMARK SMILES IDX 7 1 6 2 9 3 5 4 10 5 4 6 8 7 2 9 1 10 3 11
REMARK H PARENT 8 8
REMARK Flexibility Score: inf
ROOT
ATOM      1  C   UNL     1      43.180 184.643  33.979  1.00  0.00     0.115 A 
ATOM      2  C   UNL     1      42.508 185.859  34.155  1.00  0.00     0.047 A 
ATOM      3  C   UNL     1      42.791 183.779  32.951  1.00  0.00     0.047 A 
ATOM      4  C   UNL     1      41.454 186.210  33.307  1.00  0.00     0.014 A 
ATOM      5  C   UNL     1      41.736 184.126  32.101  1.00  0.00     0.014 A 
ATOM      6  C   UNL     1      41.056 185.346  32.270  1.00  0.00    -0.003 A 
ENDROOT
BRANCH   1   7
ATOM      7  O   UNL     1      44.233 184.284  34.818  1.00  0.00    -0.508 OA
ATOM      8  H   UNL     1      44.648 184.948  35.460  1.00  0.00     0.293 HD
ENDBRANCH   1   7
BRANCH   6   9
ATOM      9  C   UNL     1      39.940 185.710  31.370  1.00  0.00     0.071 C 
ATOM     10  O   UNL     1      40.160 186.014  30.168  1.00  0.00    -0.545 OA
ATOM     11  O   UNL     1      38.632 185.722  31.839  1.00  0.00    -0.545 OA
ENDBRANCH   6   9
TORSDOF 2
ENDMDL
MODEL 5
REMARK VINA RESULT:    -3.792      2.303      3.187
REMARK INTER + INTRA:          -4.160
REMARK INTER:                  -4.132
REMARK INTRA:                  -0.028
REMARK UNBOUND:                -0.035
REMARK SMILES O=C([O-])c1ccc(O)cc1
REMARK SMILES IDX 7 1 6 2 9 3 5 4 10 5 4 6 8 7 2 9 1 10 3 11
REMARK H PARENT 8 8
REMARK Flexibility Score: inf
ROOT
ATOM      1  C   UNL     1      40.691 186.457  31.871  1.00  0.00     0.115 A 
ATOM      2  C   UNL     1      41.439 187.004  32.922  1.00  0.00     0.047 A 
ATOM      3  C   UNL     1      40.899 185.127  31.492  1.00  0.00     0.047 A 
ATOM      4  C   UNL     1      42.389 186.225  33.589  1.00  0.00     0.014 A 
ATOM      5  C   UNL     1      41.849 184.346  32.157  1.00  0.00     0.014 A 
ATOM      6  C   UNL     1      42.604 184.886  33.213  1.00  0.00    -0.003 A 
ENDROOT
BRANCH   1   7
ATOM      7  O   UNL     1      39.741 187.223  31.200  1.00  0.00    -0.508 OA
ATOM      8  H   UNL     1      39.672 187.214  30.189  1.00  0.00     0.293 HD
ENDBRANCH   1   7
BRANCH   6   9
ATOM      9  C   UNL     1      43.608 184.057  33.914  1.00  0.00     0.071 C 
ATOM     10  O   UNL     1      43.452 183.748  35.125  1.00  0.00    -0.545 OA
ATOM     11  O   UNL     1      44.741 183.606  33.245  1.00  0.00    -0.545 OA
ENDBRANCH   6   9
TORSDOF 2
ENDMDL
MODEL 6
REMARK VINA RESULT:    -3.746      0.938      1.238
REMARK INTER + INTRA:          -4.110
REMARK INTER:                  -4.077
REMARK INTRA:                  -0.033
REMARK UNBOUND:                -0.035
REMARK SMILES O=C([O-])c1ccc(O)cc1
REMARK SMILES IDX 7 1 6 2 9 3 5 4 10 5 4 6 8 7 2 9 1 10 3 11
REMARK H PARENT 8 8
REMARK Flexibility Score: inf
ROOT
ATOM      1  C   UNL     1      39.009 186.087  30.405  1.00  0.00     0.115 A 
ATOM      2  C   UNL     1      38.350 186.203  31.636  1.00  0.00     0.047 A 
ATOM      3  C   UNL     1      40.389 185.861  30.376  1.00  0.00     0.047 A 
ATOM      4  C   UNL     1      39.067 186.094  32.831  1.00  0.00     0.014 A 
ATOM      5  C   UNL     1      41.109 185.752  31.570  1.00  0.00     0.014 A 
ATOM      6  C   UNL     1      40.456 185.867  32.810  1.00  0.00    -0.003 A 
ENDROOT
BRANCH   1   7
ATOM      7  O   UNL     1      38.305 186.194  29.208  1.00  0.00    -0.508 OA
ATOM      8  H   UNL     1      37.326 186.456  29.192  1.00  0.00     0.293 HD
ENDBRANCH   1   7
BRANCH   6   9
ATOM      9  C   UNL     1      41.221 185.751  34.071  1.00  0.00     0.071 C 
ATOM     10  O   UNL     1      40.712 185.196  35.080  1.00  0.00    -0.545 OA
ATOM     11  O   UNL     1      42.514 186.254  34.159  1.00  0.00    -0.545 OA
ENDBRANCH   6   9
TORSDOF 2
ENDMDL
MODEL 7
REMARK VINA RESULT:    -3.698      1.094      4.099
REMARK INTER + INTRA:          -4.058
REMARK INTER:                  -4.029
REMARK INTRA:                  -0.029
REMARK UNBOUND:                -0.035
REMARK SMILES O=C([O-])c1ccc(O)cc1
REMARK SMILES IDX 7 1 6 2 9 3 5 4 10 5 4 6 8 7 2 9 1 10 3 11
REMARK H PARENT 8 8
REMARK Flexibility Score: inf
ROOT
ATOM      1  C   UNL     1      41.681 186.408  33.188  1.00  0.00     0.115 A 
ATOM      2  C   UNL     1      40.447 186.895  33.638  1.00  0.00     0.047 A 
ATOM      3  C   UNL     1      41.779 185.842  31.913  1.00  0.00     0.047 A 
ATOM      4  C   UNL     1      39.317 186.815  32.818  1.00  0.00     0.014 A 
ATOM      5  C   UNL     1      40.650 185.759  31.091  1.00  0.00     0.014 A 
ATOM      6  C   UNL     1      39.408 186.245  31.534  1.00  0.00    -0.003 A 
ENDROOT
BRANCH   1   7
ATOM      7  O   UNL     1      42.813 186.484  33.996  1.00  0.00    -0.508 OA
ATOM      8  H   UNL     1      43.351 185.658  34.232  1.00  0.00     0.293 HD
ENDBRANCH   1   7
BRANCH   6   9
ATOM      9  C   UNL     1      38.216 186.157  30.662  1.00  0.00     0.071 C 
ATOM     10  O   UNL     1      38.204 186.718  29.535  1.00  0.00    -0.545 OA
ATOM     11  O   UNL     1      37.092 185.450  31.076  1.00  0.00    -0.545 OA
ENDBRANCH   6   9
TORSDOF 2
ENDMDL
MODEL 8
REMARK VINA RESULT:    -3.691      2.905      4.139
REMARK INTER + INTRA:          -4.050
REMARK INTER:                  -4.019
REMARK INTRA:                  -0.031
REMARK UNBOUND:                -0.035
REMARK SMILES O=C([O-])c1ccc(O)cc1
REMARK SMILES IDX 7 1 6 2 9 3 5 4 10 5 4 6 8 7 2 9 1 10 3 11
REMARK H PARENT 8 8
REMARK Flexibility Score: inf
ROOT
ATOM      1  C   UNL     1      41.763 186.663  32.761  1.00  0.00     0.115 A 
ATOM      2  C   UNL     1      42.376 186.259  33.955  1.00  0.00     0.047 A 
ATOM      3  C   UNL     1      41.380 185.703  31.820  1.00  0.00     0.047 A 
ATOM      4  C   UNL     1      42.603 184.903  34.205  1.00  0.00     0.014 A 
ATOM      5  C   UNL     1      41.607 184.345  32.066  1.00  0.00     0.014 A 
ATOM      6  C   UNL     1      42.221 183.930  33.261  1.00  0.00    -0.003 A 
ENDROOT
BRANCH   1   7
ATOM      7  O   UNL     1      41.531 188.012  32.502  1.00  0.00    -0.508 OA
ATOM      8  H   UNL     1      42.259 188.614  32.134  1.00  0.00     0.293 HD
ENDBRANCH   1   7
BRANCH   6   9
ATOM      9  C   UNL     1      42.459 182.494  33.520  1.00  0.00     0.071 C 
ATOM     10  O   UNL     1      43.582 182.094  33.927  1.00  0.00    -0.545 OA
ATOM     11  O   UNL     1      41.446 181.564  33.317  1.00  0.00    -0.545 OA
ENDBRANCH   6   9
TORSDOF 2
ENDMDL
MODEL 9
REMARK VINA RESULT:    -3.401      7.222      8.355
REMARK INTER + INTRA:          -3.734
REMARK INTER:                  -3.705
REMARK INTRA:                  -0.029
REMARK UNBOUND:                -0.035
REMARK SMILES O=C([O-])c1ccc(O)cc1
REMARK SMILES IDX 7 1 6 2 9 3 5 4 10 5 4 6 8 7 2 9 1 10 3 11
REMARK H PARENT 8 8
REMARK Flexibility Score: inf
ROOT
ATOM      1  C   UNL     1      34.721 183.315  30.218  1.00  0.00     0.115 A 
ATOM      2  C   UNL     1      35.427 182.938  31.368  1.00  0.00     0.047 A 
ATOM      3  C   UNL     1      33.472 182.745  29.954  1.00  0.00     0.047 A 
ATOM      4  C   UNL     1      34.887 181.996  32.248  1.00  0.00     0.014 A 
ATOM      5  C   UNL     1      32.929 181.801  30.832  1.00  0.00     0.014 A 
ATOM      6  C   UNL     1      33.630 181.417  31.989  1.00  0.00    -0.003 A 
ENDROOT
BRANCH   1   7
ATOM      7  O   UNL     1      35.250 184.253  29.335  1.00  0.00    -0.508 OA
ATOM      8  H   UNL     1      34.656 184.909  28.841  1.00  0.00     0.293 HD
ENDBRANCH   1   7
BRANCH   6   9
ATOM      9  C   UNL     1      33.053 180.418  32.915  1.00  0.00     0.071 C 
ATOM     10  O   UNL     1      31.925 180.608  33.440  1.00  0.00    -0.545 OA
ATOM     11  O   UNL     1      33.750 179.255  33.220  1.00  0.00    -0.545 OA
ENDBRANCH   6   9
TORSDOF 2
ENDMDL
