MODEL 1
REMARK VINA RESULT:    -4.662      0.000      0.000
REMARK INTER + INTRA:          -6.799
REMARK INTER:                  -6.570
REMARK INTRA:                  -0.229
REMARK UNBOUND:                -0.229
REMARK SMILES CCCCCCCCC(=O)[O-]
REMARK SMILES IDX 6 1 7 2 8 3 9 4 10 5 11 6 5 7 4 8 3 9 2 10 1 11
REMARK H PARENT
REMARK Flexibility Score: inf
ROOT
ATOM      1  C   UNL     1       5.856  41.914  45.628  1.00  0.00     0.000 C 
ENDROOT
BRANCH   1   2
ATOM      2  C   UNL     1       4.806  42.174  46.721  1.00  0.00     0.006 C 
BRANCH   2   3
ATOM      3  C   UNL     1       5.399  42.118  48.135  1.00  0.00     0.053 C 
BRANCH   3   4
ATOM      4  C   UNL     1       6.219  40.878  48.307  1.00  0.00     0.041 C 
ATOM      5  O   UNL     1       5.689  39.744  48.174  1.00  0.00    -0.550 OA
ATOM      6  O   UNL     1       7.559  40.974  48.660  1.00  0.00    -0.550 OA
ENDBRANCH   3   4
ENDBRANCH   2   3
ENDBRANCH   1   2
BRANCH   1   7
ATOM      7  C   UNL     1       5.478  42.549  44.281  1.00  0.00     0.000 C 
BRANCH   7   8
ATOM      8  C   UNL     1       6.731  43.013  43.523  1.00  0.00    -0.000 C 
BRANCH   8   9
ATOM      9  C   UNL     1       6.974  44.525  43.647  1.00  0.00    -0.000 C 
BRANCH   9  10
ATOM     10  C   UNL     1       7.500  45.150  42.347  1.00  0.00    -0.003 C 
ATOM     11  C   UNL     1       7.763  44.079  41.291  1.00  0.00     0.004 C 
ENDBRANCH   9  10
ENDBRANCH   8   9
ENDBRANCH   7   8
ENDBRANCH   1   7
TORSDOF 7
ENDMDL
MODEL 2
REMARK VINA RESULT:    -4.545      9.970     11.488
REMARK INTER + INTRA:          -6.635
REMARK INTER:                  -5.974
REMARK INTRA:                  -0.661
REMARK UNBOUND:                -0.229
REMARK SMILES CCCCCCCCC(=O)[O-]
REMARK SMILES IDX 6 1 7 2 8 3 9 4 10 5 11 6 5 7 4 8 3 9 2 10 1 11
REMARK H PARENT
REMARK Flexibility Score: inf
ROOT
ATOM      1  C   UNL     1      10.571  33.503  43.387  1.00  0.00     0.000 C 
ENDROOT
BRANCH   1   2
ATOM      2  C   UNL     1      10.436  34.169  42.008  1.00  0.00     0.006 C 
BRANCH   2   3
ATOM      3  C   UNL     1      10.127  33.161  40.893  1.00  0.00     0.053 C 
BRANCH   3   4
ATOM      4  C   UNL     1       8.732  32.638  41.035  1.00  0.00     0.041 C 
ATOM      5  O   UNL     1       7.762  33.435  41.121  1.00  0.00    -0.550 OA
ATOM      6  O   UNL     1       8.508  31.270  41.120  1.00  0.00    -0.550 OA
ENDBRANCH   3   4
ENDBRANCH   2   3
ENDBRANCH   1   2
BRANCH   1   7
ATOM      7  C   UNL     1       9.971  34.352  44.517  1.00  0.00     0.000 C 
BRANCH   7   8
ATOM      8  C   UNL     1       9.019  33.516  45.386  1.00  0.00    -0.000 C 
BRANCH   8   9
ATOM      9  C   UNL     1       8.613  32.194  44.716  1.00  0.00    -0.000 C 
BRANCH   9  10
ATOM     10  C   UNL     1       7.107  32.114  44.427  1.00  0.00    -0.003 C 
ATOM     11  C   UNL     1       6.617  30.669  44.470  1.00  0.00     0.004 C 
ENDBRANCH   9  10
ENDBRANCH   8   9
ENDBRANCH   7   8
ENDBRANCH   1   7
TORSDOF 7
ENDMDL
MODEL 3
REMARK VINA RESULT:    -4.535      1.021      1.578
REMARK INTER + INTRA:          -6.621
REMARK INTER:                  -6.363
REMARK INTRA:                  -0.257
REMARK UNBOUND:                -0.229
REMARK SMILES CCCCCCCCC(=O)[O-]
REMARK SMILES IDX 6 1 7 2 8 3 9 4 10 5 11 6 5 7 4 8 3 9 2 10 1 11
REMARK H PARENT
REMARK Flexibility Score: inf
ROOT
ATOM      1  C   UNL     1       5.440  42.505  44.334  1.00  0.00     0.000 C 
ENDROOT
BRANCH   1   2
ATOM      2  C   UNL     1       5.960  42.125  45.730  1.00  0.00     0.006 C 
BRANCH   2   3
ATOM      3  C   UNL     1       4.861  42.161  46.800  1.00  0.00     0.053 C 
BRANCH   3   4
ATOM      4  C   UNL     1       5.405  41.712  48.120  1.00  0.00     0.041 C 
ATOM      5  O   UNL     1       5.893  40.558  48.245  1.00  0.00    -0.550 OA
ATOM      6  O   UNL     1       5.331  42.551  49.224  1.00  0.00    -0.550 OA
ENDBRANCH   3   4
ENDBRANCH   2   3
ENDBRANCH   1   2
BRANCH   1   7
ATOM      7  C   UNL     1       6.550  43.029  43.410  1.00  0.00     0.000 C 
BRANCH   7   8
ATOM      8  C   UNL     1       6.853  44.506  43.699  1.00  0.00    -0.000 C 
BRANCH   8   9
ATOM      9  C   UNL     1       7.393  45.253  42.469  1.00  0.00    -0.000 C 
BRANCH   9  10
ATOM     10  C   UNL     1       7.792  44.304  41.329  1.00  0.00    -0.003 C 
ATOM     11  C   UNL     1       9.164  44.668  40.768  1.00  0.00     0.004 C 
ENDBRANCH   9  10
ENDBRANCH   8   9
ENDBRANCH   7   8
ENDBRANCH   1   7
TORSDOF 7
ENDMDL
MODEL 4
REMARK VINA RESULT:    -4.530      3.412      6.057
REMARK INTER + INTRA:          -6.613
REMARK INTER:                  -6.356
REMARK INTRA:                  -0.257
REMARK UNBOUND:                -0.229
REMARK SMILES CCCCCCCCC(=O)[O-]
REMARK SMILES IDX 6 1 7 2 8 3 9 4 10 5 11 6 5 7 4 8 3 9 2 10 1 11
REMARK H PARENT
REMARK Flexibility Score: inf
ROOT
ATOM      1  C   UNL     1       5.263  42.531  44.891  1.00  0.00     0.000 C 
ENDROOT
BRANCH   1   2
ATOM      2  C   UNL     1       6.255  42.756  43.738  1.00  0.00     0.006 C 
BRANCH   2   3
ATOM      3  C   UNL     1       6.797  44.191  43.697  1.00  0.00     0.053 C 
BRANCH   3   4
ATOM      4  C   UNL     1       7.561  44.422  42.431  1.00  0.00     0.041 C 
ATOM      5  O   UNL     1       8.147  45.519  42.235  1.00  0.00    -0.550 OA
ATOM      6  O   UNL     1       7.585  43.444  41.445  1.00  0.00    -0.550 OA
ENDBRANCH   3   4
ENDBRANCH   2   3
ENDBRANCH   1   2
BRANCH   1   7
ATOM      7  C   UNL     1       5.898  41.806  46.087  1.00  0.00     0.000 C 
BRANCH   7   8
ATOM      8  C   UNL     1       5.200  42.196  47.398  1.00  0.00    -0.000 C 
BRANCH   8   9
ATOM      9  C   UNL     1       5.809  41.497  48.624  1.00  0.00    -0.000 C 
BRANCH   9  10
ATOM     10  C   UNL     1       6.791  40.380  48.243  1.00  0.00    -0.003 C 
ATOM     11  C   UNL     1       8.188  40.668  48.786  1.00  0.00     0.004 C 
ENDBRANCH   9  10
ENDBRANCH   8   9
ENDBRANCH   7   8
ENDBRANCH   1   7
TORSDOF 7
ENDMDL
MODEL 5
REMARK VINA RESULT:    -4.361      1.149      1.809
REMARK INTER + INTRA:          -6.375
REMARK INTER:                  -6.023
REMARK INTRA:                  -0.352
REMARK UNBOUND:                -0.229
REMARK SMILES CCCCCCCCC(=O)[O-]
REMARK SMILES IDX 6 1 7 2 8 3 9 4 10 5 11 6 5 7 4 8 3 9 2 10 1 11
REMARK H PARENT
REMARK Flexibility Score: inf
ROOT
ATOM      1  C   UNL     1       6.002  42.053  45.613  1.00  0.00     0.000 C 
ENDROOT
BRANCH   1   2
ATOM      2  C   UNL     1       4.841  42.158  46.615  1.00  0.00     0.006 C 
BRANCH   2   3
ATOM      3  C   UNL     1       5.315  42.123  48.074  1.00  0.00     0.053 C 
BRANCH   3   4
ATOM      4  C   UNL     1       6.161  40.913  48.318  1.00  0.00     0.041 C 
ATOM      5  O   UNL     1       7.338  41.038  48.748  1.00  0.00    -0.550 OA
ATOM      6  O   UNL     1       5.666  39.649  48.026  1.00  0.00    -0.550 OA
ENDBRANCH   3   4
ENDBRANCH   2   3
ENDBRANCH   1   2
BRANCH   1   7
ATOM      7  C   UNL     1       5.634  42.589  44.221  1.00  0.00     0.000 C 
BRANCH   7   8
ATOM      8  C   UNL     1       6.616  43.684  43.778  1.00  0.00    -0.000 C 
BRANCH   8   9
ATOM      9  C   UNL     1       7.403  43.298  42.515  1.00  0.00    -0.000 C 
BRANCH   9  10
ATOM     10  C   UNL     1       7.245  41.815  42.149  1.00  0.00    -0.003 C 
ATOM     11  C   UNL     1       8.571  41.072  42.288  1.00  0.00     0.004 C 
ENDBRANCH   9  10
ENDBRANCH   8   9
ENDBRANCH   7   8
ENDBRANCH   1   7
TORSDOF 7
ENDMDL
MODEL 6
REMARK VINA RESULT:    -4.344      9.844     10.697
REMARK INTER + INTRA:          -6.351
REMARK INTER:                  -5.766
REMARK INTRA:                  -0.585
REMARK UNBOUND:                -0.229
REMARK SMILES CCCCCCCCC(=O)[O-]
REMARK SMILES IDX 6 1 7 2 8 3 9 4 10 5 11 6 5 7 4 8 3 9 2 10 1 11
REMARK H PARENT
REMARK Flexibility Score: inf
ROOT
ATOM      1  C   UNL     1       9.349  33.805  45.217  1.00  0.00     0.000 C 
ENDROOT
BRANCH   1   2
ATOM      2  C   UNL     1       8.901  32.344  45.055  1.00  0.00     0.006 C 
BRANCH   2   3
ATOM      3  C   UNL     1       7.444  32.221  44.588  1.00  0.00     0.053 C 
BRANCH   3   4
ATOM      4  C   UNL     1       6.976  30.805  44.710  1.00  0.00     0.041 C 
ATOM      5  O   UNL     1       6.428  30.408  45.773  1.00  0.00    -0.550 OA
ATOM      6  O   UNL     1       7.186  29.911  43.669  1.00  0.00    -0.550 OA
ENDBRANCH   3   4
ENDBRANCH   2   3
ENDBRANCH   1   2
BRANCH   1   7
ATOM      7  C   UNL     1      10.489  34.185  44.259  1.00  0.00     0.000 C 
BRANCH   7   8
ATOM      8  C   UNL     1       9.962  34.373  42.828  1.00  0.00    -0.000 C 
BRANCH   8   9
ATOM      9  C   UNL     1      10.568  33.367  41.837  1.00  0.00    -0.000 C 
BRANCH   9  10
ATOM     10  C   UNL     1       9.597  32.989  40.708  1.00  0.00    -0.003 C 
ATOM     11  C   UNL     1       8.150  33.248  41.120  1.00  0.00     0.004 C 
ENDBRANCH   9  10
ENDBRANCH   8   9
ENDBRANCH   7   8
ENDBRANCH   1   7
TORSDOF 7
ENDMDL
MODEL 7
REMARK VINA RESULT:    -4.260      2.267      3.784
REMARK INTER + INTRA:          -6.232
REMARK INTER:                  -5.836
REMARK INTRA:                  -0.396
REMARK UNBOUND:                -0.229
REMARK SMILES CCCCCCCCC(=O)[O-]
REMARK SMILES IDX 6 1 7 2 8 3 9 4 10 5 11 6 5 7 4 8 3 9 2 10 1 11
REMARK H PARENT
REMARK Flexibility Score: inf
ROOT
ATOM      1  C   UNL     1       7.710  44.583  43.225  1.00  0.00     0.000 C 
ENDROOT
BRANCH   1   2
ATOM      2  C   UNL     1       6.461  44.149  44.009  1.00  0.00     0.006 C 
BRANCH   2   3
ATOM      3  C   UNL     1       6.030  42.712  43.686  1.00  0.00     0.053 C 
BRANCH   3   4
ATOM      4  C   UNL     1       6.005  41.883  44.932  1.00  0.00     0.041 C 
ATOM      5  O   UNL     1       5.453  42.323  45.975  1.00  0.00    -0.550 OA
ATOM      6  O   UNL     1       6.631  40.644  44.955  1.00  0.00    -0.550 OA
ENDBRANCH   3   4
ENDBRANCH   2   3
ENDBRANCH   1   2
BRANCH   1   7
ATOM      7  C   UNL     1       7.567  44.356  41.712  1.00  0.00     0.000 C 
BRANCH   7   8
ATOM      8  C   UNL     1       8.056  45.581  40.925  1.00  0.00    -0.000 C 
BRANCH   8   9
ATOM      9  C   UNL     1       7.205  46.833  41.190  1.00  0.00    -0.000 C 
BRANCH   9  10
ATOM     10  C   UNL     1       8.052  48.107  41.326  1.00  0.00    -0.003 C 
ATOM     11  C   UNL     1       9.531  47.810  41.092  1.00  0.00     0.004 C 
ENDBRANCH   9  10
ENDBRANCH   8   9
ENDBRANCH   7   8
ENDBRANCH   1   7
TORSDOF 7
ENDMDL
MODEL 8
REMARK VINA RESULT:    -4.254      3.452      5.912
REMARK INTER + INTRA:          -6.224
REMARK INTER:                  -5.979
REMARK INTRA:                  -0.245
REMARK UNBOUND:                -0.229
REMARK SMILES CCCCCCCCC(=O)[O-]
REMARK SMILES IDX 6 1 7 2 8 3 9 4 10 5 11 6 5 7 4 8 3 9 2 10 1 11
REMARK H PARENT
REMARK Flexibility Score: inf
ROOT
ATOM      1  C   UNL     1       6.179  40.918  48.344  1.00  0.00     0.000 C 
ENDROOT
BRANCH   1   2
ATOM      2  C   UNL     1       5.282  41.003  47.099  1.00  0.00     0.006 C 
BRANCH   2   3
ATOM      3  C   UNL     1       5.522  42.282  46.285  1.00  0.00     0.053 C 
BRANCH   3   4
ATOM      4  C   UNL     1       5.871  41.941  44.871  1.00  0.00     0.041 C 
ATOM      5  O   UNL     1       5.226  42.451  43.918  1.00  0.00    -0.550 OA
ATOM      6  O   UNL     1       6.879  41.023  44.606  1.00  0.00    -0.550 OA
ENDBRANCH   3   4
ENDBRANCH   2   3
ENDBRANCH   1   2
BRANCH   1   7
ATOM      7  C   UNL     1       7.473  40.129  48.089  1.00  0.00     0.000 C 
BRANCH   7   8
ATOM      8  C   UNL     1       8.604  40.619  49.005  1.00  0.00    -0.000 C 
BRANCH   8   9
ATOM      9  C   UNL     1       9.996  40.201  48.504  1.00  0.00    -0.000 C 
BRANCH   9  10
ATOM     10  C   UNL     1      11.088  40.380  49.569  1.00  0.00    -0.003 C 
ATOM     11  C   UNL     1      11.961  39.133  49.674  1.00  0.00     0.004 C 
ENDBRANCH   9  10
ENDBRANCH   8   9
ENDBRANCH   7   8
ENDBRANCH   1   7
TORSDOF 7
ENDMDL
MODEL 9
REMARK VINA RESULT:    -4.249      3.950      6.419
REMARK INTER + INTRA:          -6.217
REMARK INTER:                  -5.988
REMARK INTRA:                  -0.229
REMARK UNBOUND:                -0.229
REMARK SMILES CCCCCCCCC(=O)[O-]
REMARK SMILES IDX 6 1 7 2 8 3 9 4 10 5 11 6 5 7 4 8 3 9 2 10 1 11
REMARK H PARENT
REMARK Flexibility Score: inf
ROOT
ATOM      1  C   UNL     1       6.679  42.473  43.499  1.00  0.00     0.000 C 
ENDROOT
BRANCH   1   2
ATOM      2  C   UNL     1       7.048  43.950  43.281  1.00  0.00     0.006 C 
BRANCH   2   3
ATOM      3  C   UNL     1       7.476  44.245  41.838  1.00  0.00     0.053 C 
BRANCH   3   4
ATOM      4  C   UNL     1       7.885  45.678  41.699  1.00  0.00     0.041 C 
ATOM      5  O   UNL     1       7.044  46.546  41.346  1.00  0.00    -0.550 OA
ATOM      6  O   UNL     1       9.206  46.047  41.913  1.00  0.00    -0.550 OA
ENDBRANCH   3   4
ENDBRANCH   2   3
ENDBRANCH   1   2
BRANCH   1   7
ATOM      7  C   UNL     1       5.864  42.250  44.782  1.00  0.00     0.000 C 
BRANCH   7   8
ATOM      8  C   UNL     1       6.271  40.938  45.469  1.00  0.00    -0.000 C 
BRANCH   8   9
ATOM      9  C   UNL     1       6.002  40.952  46.982  1.00  0.00    -0.000 C 
BRANCH   9  10
ATOM     10  C   UNL     1       5.267  42.220  47.441  1.00  0.00    -0.003 C 
ATOM     11  C   UNL     1       5.305  42.356  48.961  1.00  0.00     0.004 C 
ENDBRANCH   9  10
ENDBRANCH   8   9
ENDBRANCH   7   8
ENDBRANCH   1   7
TORSDOF 7
ENDMDL
