MODEL 1
REMARK VINA RESULT:    -4.080      0.000      0.000
REMARK INTER + INTRA:          -6.135
REMARK INTER:                  -5.511
REMARK INTRA:                  -0.623
REMARK UNBOUND:                -0.623
REMARK SMILES O=C[C@@H](O)[C@H](O)[C@H](O)CO
REMARK SMILES IDX 7 1 9 2 10 3 5 5 3 6 2 7 1 8 4 9 6 11 8 13
REMARK H PARENT 10 4 4 10 6 12 8 14
REMARK Flexibility Score: inf
ROOT
ATOM      1  C   UNL     1      61.819  -6.399  -2.980  1.00  0.00     0.171 C 
ENDROOT
BRANCH   1   2
ATOM      2  C   UNL     1      63.285  -6.755  -3.289  1.00  0.00     0.190 C 
BRANCH   2   3
ATOM      3  O   UNL     1      64.124  -5.655  -3.061  1.00  0.00    -0.394 OA
ATOM      4  H   UNL     1      64.207  -5.187  -3.932  1.00  0.00     0.210 HD
ENDBRANCH   2   3
ENDBRANCH   1   2
BRANCH   1   5
ATOM      5  C   UNL     1      61.509  -6.282  -1.458  1.00  0.00     0.181 C 
BRANCH   5   6
ATOM      6  C   UNL     1      60.499  -5.185  -1.025  1.00  0.00     0.209 C 
BRANCH   6   7
ATOM      7  C   UNL     1      61.127  -4.103  -0.181  1.00  0.00     0.258 C 
ATOM      8  O   UNL     1      61.205  -4.217   1.032  1.00  0.00    -0.300 OA
ENDBRANCH   6   7
BRANCH   6   9
ATOM      9  O   UNL     1      59.863  -4.639  -2.153  1.00  0.00    -0.383 OA
ATOM     10  H   UNL     1      59.042  -4.183  -1.831  1.00  0.00     0.211 HD
ENDBRANCH   6   9
ENDBRANCH   5   6
BRANCH   5  11
ATOM     11  O   UNL     1      62.705  -6.158  -0.727  1.00  0.00    -0.387 OA
ATOM     12  H   UNL     1      63.461  -6.220  -1.367  1.00  0.00     0.211 HD
ENDBRANCH   5  11
ENDBRANCH   1   5
BRANCH   1  13
ATOM     13  O   UNL     1      60.945  -7.306  -3.603  1.00  0.00    -0.388 OA
ATOM     14  H   UNL     1      61.242  -7.390  -4.548  1.00  0.00     0.211 HD
ENDBRANCH   1  13
TORSDOF 8
ENDMDL
MODEL 2
REMARK VINA RESULT:    -3.937      1.142      3.545
REMARK INTER + INTRA:          -5.942
REMARK INTER:                  -5.226
REMARK INTRA:                  -0.715
REMARK UNBOUND:                -0.623
REMARK SMILES O=C[C@@H](O)[C@H](O)[C@H](O)CO
REMARK SMILES IDX 7 1 9 2 10 3 5 5 3 6 2 7 1 8 4 9 6 11 8 13
REMARK H PARENT 10 4 4 10 6 12 8 14
REMARK Flexibility Score: inf
ROOT
ATOM      1  C   UNL     1      60.645  -5.039  -1.076  1.00  0.00     0.171 C 
ENDROOT
BRANCH   1   2
ATOM      2  C   UNL     1      60.976  -4.010   0.021  1.00  0.00     0.190 C 
BRANCH   2   3
ATOM      3  O   UNL     1      61.234  -4.649   1.241  1.00  0.00    -0.394 OA
ATOM      4  H   UNL     1      61.720  -3.989   1.801  1.00  0.00     0.210 HD
ENDBRANCH   2   3
ENDBRANCH   1   2
BRANCH   1   5
ATOM      5  C   UNL     1      61.902  -5.666  -1.749  1.00  0.00     0.181 C 
BRANCH   5   6
ATOM      6  C   UNL     1      61.690  -6.970  -2.564  1.00  0.00     0.209 C 
BRANCH   6   7
ATOM      7  C   UNL     1      61.995  -8.219  -1.773  1.00  0.00     0.258 C 
ATOM      8  O   UNL     1      61.476  -8.416  -0.685  1.00  0.00    -0.300 OA
ENDBRANCH   6   7
BRANCH   6   9
ATOM      9  O   UNL     1      60.385  -7.009  -3.085  1.00  0.00    -0.383 OA
ATOM     10  H   UNL     1      60.144  -7.966  -3.193  1.00  0.00     0.211 HD
ENDBRANCH   6   9
ENDBRANCH   5   6
BRANCH   5  11
ATOM     11  O   UNL     1      62.922  -5.848  -0.796  1.00  0.00    -0.387 OA
ATOM     12  H   UNL     1      62.784  -5.185  -0.072  1.00  0.00     0.211 HD
ENDBRANCH   5  11
ENDBRANCH   1   5
BRANCH   1  13
ATOM     13  O   UNL     1      59.786  -4.480  -2.038  1.00  0.00    -0.388 OA
ATOM     14  H   UNL     1      60.361  -4.051  -2.724  1.00  0.00     0.211 HD
ENDBRANCH   1  13
TORSDOF 8
ENDMDL
MODEL 3
REMARK VINA RESULT:    -3.923      1.028      2.493
REMARK INTER + INTRA:          -5.923
REMARK INTER:                  -5.471
REMARK INTRA:                  -0.451
REMARK UNBOUND:                -0.623
REMARK SMILES O=C[C@@H](O)[C@H](O)[C@H](O)CO
REMARK SMILES IDX 7 1 9 2 10 3 5 5 3 6 2 7 1 8 4 9 6 11 8 13
REMARK H PARENT 10 4 4 10 6 12 8 14
REMARK Flexibility Score: inf
ROOT
ATOM      1  C   UNL     1      63.129  -6.701  -2.751  1.00  0.00     0.171 C 
ENDROOT
BRANCH   1   2
ATOM      2  C   UNL     1      62.505  -7.148  -4.086  1.00  0.00     0.190 C 
BRANCH   2   3
ATOM      3  O   UNL     1      61.181  -7.571  -3.900  1.00  0.00    -0.394 OA
ATOM      4  H   UNL     1      60.675  -7.246  -4.689  1.00  0.00     0.210 HD
ENDBRANCH   2   3
ENDBRANCH   1   2
BRANCH   1   5
ATOM      5  C   UNL     1      62.081  -6.386  -1.643  1.00  0.00     0.181 C 
BRANCH   5   6
ATOM      6  C   UNL     1      61.574  -4.921  -1.546  1.00  0.00     0.209 C 
BRANCH   6   7
ATOM      7  C   UNL     1      60.139  -4.763  -1.987  1.00  0.00     0.258 C 
ATOM      8  O   UNL     1      59.645  -5.523  -2.805  1.00  0.00    -0.300 OA
ENDBRANCH   6   7
BRANCH   6   9
ATOM      9  O   UNL     1      61.759  -4.430  -0.242  1.00  0.00    -0.383 OA
ATOM     10  H   UNL     1      61.246  -3.583  -0.176  1.00  0.00     0.211 HD
ENDBRANCH   6   9
ENDBRANCH   5   6
BRANCH   5  11
ATOM     11  O   UNL     1      62.554  -6.821  -0.390  1.00  0.00    -0.387 OA
ATOM     12  H   UNL     1      62.332  -6.123   0.279  1.00  0.00     0.211 HD
ENDBRANCH   5  11
ENDBRANCH   1   5
BRANCH   1  13
ATOM     13  O   UNL     1      63.996  -5.613  -2.948  1.00  0.00    -0.388 OA
ATOM     14  H   UNL     1      64.699  -5.916  -3.581  1.00  0.00     0.211 HD
ENDBRANCH   1  13
TORSDOF 8
ENDMDL
MODEL 4
REMARK VINA RESULT:    -3.911      1.123      4.415
REMARK INTER + INTRA:          -5.906
REMARK INTER:                  -5.225
REMARK INTRA:                  -0.681
REMARK UNBOUND:                -0.623
REMARK SMILES O=C[C@@H](O)[C@H](O)[C@H](O)CO
REMARK SMILES IDX 7 1 9 2 10 3 5 5 3 6 2 7 1 8 4 9 6 11 8 13
REMARK H PARENT 10 4 4 10 6 12 8 14
REMARK Flexibility Score: inf
ROOT
ATOM      1  C   UNL     1      61.825  -5.429  -1.752  1.00  0.00     0.171 C 
ENDROOT
BRANCH   1   2
ATOM      2  C   UNL     1      60.430  -5.012  -1.252  1.00  0.00     0.190 C 
BRANCH   2   3
ATOM      3  O   UNL     1      59.674  -4.452  -2.291  1.00  0.00    -0.394 OA
ATOM      4  H   UNL     1      58.745  -4.776  -2.162  1.00  0.00     0.210 HD
ENDBRANCH   2   3
ENDBRANCH   1   2
BRANCH   1   5
ATOM      5  C   UNL     1      61.832  -6.769  -2.546  1.00  0.00     0.181 C 
BRANCH   5   6
ATOM      6  C   UNL     1      63.120  -7.111  -3.343  1.00  0.00     0.209 C 
BRANCH   6   7
ATOM      7  C   UNL     1      62.835  -7.766  -4.672  1.00  0.00     0.258 C 
ATOM      8  O   UNL     1      62.534  -7.101  -5.651  1.00  0.00    -0.300 OA
ENDBRANCH   6   7
BRANCH   6   9
ATOM      9  O   UNL     1      63.908  -5.959  -3.508  1.00  0.00    -0.383 OA
ATOM     10  H   UNL     1      63.991  -5.801  -4.484  1.00  0.00     0.211 HD
ENDBRANCH   6   9
ENDBRANCH   5   6
BRANCH   5  11
ATOM     11  O   UNL     1      60.705  -6.842  -3.385  1.00  0.00    -0.387 OA
ATOM     12  H   UNL     1      61.006  -7.172  -4.271  1.00  0.00     0.211 HD
ENDBRANCH   5  11
ENDBRANCH   1   5
BRANCH   1  13
ATOM     13  O   UNL     1      62.743  -5.469  -0.689  1.00  0.00    -0.388 OA
ATOM     14  H   UNL     1      63.455  -6.111  -0.947  1.00  0.00     0.211 HD
ENDBRANCH   1  13
TORSDOF 8
ENDMDL
MODEL 5
REMARK VINA RESULT:    -3.890      1.742      2.300
REMARK INTER + INTRA:          -5.877
REMARK INTER:                  -5.208
REMARK INTRA:                  -0.669
REMARK UNBOUND:                -0.623
REMARK SMILES O=C[C@@H](O)[C@H](O)[C@H](O)CO
REMARK SMILES IDX 7 1 9 2 10 3 5 5 3 6 2 7 1 8 4 9 6 11 8 13
REMARK H PARENT 10 4 4 10 6 12 8 14
REMARK Flexibility Score: inf
ROOT
ATOM      1  C   UNL     1      62.157  -7.436  -4.581  1.00  0.00     0.171 C 
ENDROOT
BRANCH   1   2
ATOM      2  C   UNL     1      63.323  -8.024  -5.398  1.00  0.00     0.190 C 
BRANCH   2   3
ATOM      3  O   UNL     1      64.034  -7.009  -6.052  1.00  0.00    -0.394 OA
ATOM      4  H   UNL     1      64.624  -6.599  -5.368  1.00  0.00     0.210 HD
ENDBRANCH   2   3
ENDBRANCH   1   2
BRANCH   1   5
ATOM      5  C   UNL     1      62.575  -6.918  -3.173  1.00  0.00     0.181 C 
BRANCH   5   6
ATOM      6  C   UNL     1      61.436  -6.465  -2.220  1.00  0.00     0.209 C 
BRANCH   6   7
ATOM      7  C   UNL     1      61.809  -5.266  -1.382  1.00  0.00     0.258 C 
ATOM      8  O   UNL     1      61.583  -4.131  -1.773  1.00  0.00    -0.300 OA
ENDBRANCH   6   7
BRANCH   6   9
ATOM      9  O   UNL     1      60.260  -6.225  -2.950  1.00  0.00    -0.383 OA
ATOM     10  H   UNL     1      60.324  -6.758  -3.786  1.00  0.00     0.211 HD
ENDBRANCH   6   9
ENDBRANCH   5   6
BRANCH   5  11
ATOM     11  O   UNL     1      63.540  -5.901  -3.297  1.00  0.00    -0.387 OA
ATOM     12  H   UNL     1      63.591  -5.644  -4.254  1.00  0.00     0.211 HD
ENDBRANCH   5  11
ENDBRANCH   1   5
BRANCH   1  13
ATOM     13  O   UNL     1      61.102  -8.359  -4.485  1.00  0.00    -0.388 OA
ATOM     14  H   UNL     1      61.498  -9.218  -4.178  1.00  0.00     0.211 HD
ENDBRANCH   1  13
TORSDOF 8
ENDMDL
MODEL 6
REMARK VINA RESULT:    -3.827      1.339      4.138
REMARK INTER + INTRA:          -5.792
REMARK INTER:                  -5.093
REMARK INTRA:                  -0.699
REMARK UNBOUND:                -0.623
REMARK SMILES O=C[C@@H](O)[C@H](O)[C@H](O)CO
REMARK SMILES IDX 7 1 9 2 10 3 5 5 3 6 2 7 1 8 4 9 6 11 8 13
REMARK H PARENT 10 4 4 10 6 12 8 14
REMARK Flexibility Score: inf
ROOT
ATOM      1  C   UNL     1      61.863  -6.342  -1.022  1.00  0.00     0.171 C 
ENDROOT
BRANCH   1   2
ATOM      2  C   UNL     1      61.011  -5.068  -0.880  1.00  0.00     0.190 C 
BRANCH   2   3
ATOM      3  O   UNL     1      61.487  -4.053  -1.720  1.00  0.00    -0.394 OA
ATOM      4  H   UNL     1      61.790  -4.502  -2.551  1.00  0.00     0.210 HD
ENDBRANCH   2   3
ENDBRANCH   1   2
BRANCH   1   5
ATOM      5  C   UNL     1      61.760  -7.013  -2.423  1.00  0.00     0.181 C 
BRANCH   5   6
ATOM      6  C   UNL     1      63.026  -6.971  -3.322  1.00  0.00     0.209 C 
BRANCH   6   7
ATOM      7  C   UNL     1      62.729  -7.248  -4.775  1.00  0.00     0.258 C 
ATOM      8  O   UNL     1      61.792  -7.961  -5.100  1.00  0.00    -0.300 OA
ENDBRANCH   6   7
BRANCH   6   9
ATOM      9  O   UNL     1      63.688  -5.741  -3.168  1.00  0.00    -0.383 OA
ATOM     10  H   UNL     1      63.116  -5.175  -2.586  1.00  0.00     0.211 HD
ENDBRANCH   6   9
ENDBRANCH   5   6
BRANCH   5  11
ATOM     11  O   UNL     1      60.649  -6.507  -3.123  1.00  0.00    -0.387 OA
ATOM     12  H   UNL     1      60.087  -6.003  -2.479  1.00  0.00     0.211 HD
ENDBRANCH   5  11
ENDBRANCH   1   5
BRANCH   1  13
ATOM     13  O   UNL     1      61.560  -7.259  -0.001  1.00  0.00    -0.388 OA
ATOM     14  H   UNL     1      62.238  -7.984  -0.054  1.00  0.00     0.211 HD
ENDBRANCH   1  13
TORSDOF 8
ENDMDL
MODEL 7
REMARK VINA RESULT:    -3.784      1.384      2.309
REMARK INTER + INTRA:          -5.734
REMARK INTER:                  -5.056
REMARK INTRA:                  -0.678
REMARK UNBOUND:                -0.623
REMARK SMILES O=C[C@@H](O)[C@H](O)[C@H](O)CO
REMARK SMILES IDX 7 1 9 2 10 3 5 5 3 6 2 7 1 8 4 9 6 11 8 13
REMARK H PARENT 10 4 4 10 6 12 8 14
REMARK Flexibility Score: inf
ROOT
ATOM      1  C   UNL     1      63.904  -6.940  -2.588  1.00  0.00     0.171 C 
ENDROOT
BRANCH   1   2
ATOM      2  C   UNL     1      64.124  -7.935  -3.742  1.00  0.00     0.190 C 
BRANCH   2   3
ATOM      3  O   UNL     1      64.020  -7.290  -4.982  1.00  0.00    -0.394 OA
ATOM      4  H   UNL     1      64.376  -6.374  -4.847  1.00  0.00     0.210 HD
ENDBRANCH   2   3
ENDBRANCH   1   2
BRANCH   1   5
ATOM      5  C   UNL     1      62.642  -7.244  -1.728  1.00  0.00     0.181 C 
BRANCH   5   6
ATOM      6  C   UNL     1      61.270  -6.802  -2.305  1.00  0.00     0.209 C 
BRANCH   6   7
ATOM      7  C   UNL     1      60.772  -5.505  -1.717  1.00  0.00     0.258 C 
ATOM      8  O   UNL     1      61.515  -4.543  -1.597  1.00  0.00    -0.300 OA
ENDBRANCH   6   7
BRANCH   6   9
ATOM      9  O   UNL     1      61.335  -6.730  -3.707  1.00  0.00    -0.383 OA
ATOM     10  H   UNL     1      60.457  -6.388  -4.020  1.00  0.00     0.211 HD
ENDBRANCH   6   9
ENDBRANCH   5   6
BRANCH   5  11
ATOM     11  O   UNL     1      62.809  -6.738  -0.425  1.00  0.00    -0.387 OA
ATOM     12  H   UNL     1      62.746  -5.748  -0.473  1.00  0.00     0.211 HD
ENDBRANCH   5  11
ENDBRANCH   1   5
BRANCH   1  13
ATOM     13  O   UNL     1      63.880  -5.619  -3.068  1.00  0.00    -0.388 OA
ATOM     14  H   UNL     1      64.819  -5.295  -3.069  1.00  0.00     0.211 HD
ENDBRANCH   1  13
TORSDOF 8
ENDMDL
MODEL 8
REMARK VINA RESULT:    -3.745      1.496      2.762
REMARK INTER + INTRA:          -5.682
REMARK INTER:                  -4.956
REMARK INTRA:                  -0.726
REMARK UNBOUND:                -0.623
REMARK SMILES O=C[C@@H](O)[C@H](O)[C@H](O)CO
REMARK SMILES IDX 7 1 9 2 10 3 5 5 3 6 2 7 1 8 4 9 6 11 8 13
REMARK H PARENT 10 4 4 10 6 12 8 14
REMARK Flexibility Score: inf
ROOT
ATOM      1  C   UNL     1      63.152  -6.875  -3.342  1.00  0.00     0.171 C 
ENDROOT
BRANCH   1   2
ATOM      2  C   UNL     1      63.407  -7.598  -4.677  1.00  0.00     0.190 C 
BRANCH   2   3
ATOM      3  O   UNL     1      62.546  -7.120  -5.675  1.00  0.00    -0.394 OA
ATOM      4  H   UNL     1      62.789  -7.606  -6.505  1.00  0.00     0.210 HD
ENDBRANCH   2   3
ENDBRANCH   1   2
BRANCH   1   5
ATOM      5  C   UNL     1      61.653  -6.540  -3.086  1.00  0.00     0.181 C 
BRANCH   5   6
ATOM      6  C   UNL     1      61.268  -6.066  -1.659  1.00  0.00     0.209 C 
BRANCH   6   7
ATOM      7  C   UNL     1      61.807  -6.963  -0.572  1.00  0.00     0.258 C 
ATOM      8  O   UNL     1      61.540  -8.155  -0.550  1.00  0.00    -0.300 OA
ENDBRANCH   6   7
BRANCH   6   9
ATOM      9  O   UNL     1      61.677  -4.735  -1.464  1.00  0.00    -0.383 OA
ATOM     10  H   UNL     1      62.398  -4.751  -0.781  1.00  0.00     0.211 HD
ENDBRANCH   6   9
ENDBRANCH   5   6
BRANCH   5  11
ATOM     11  O   UNL     1      60.840  -7.621  -3.475  1.00  0.00    -0.387 OA
ATOM     12  H   UNL     1      61.075  -8.399  -2.906  1.00  0.00     0.211 HD
ENDBRANCH   5  11
ENDBRANCH   1   5
BRANCH   1  13
ATOM     13  O   UNL     1      63.950  -5.723  -3.239  1.00  0.00    -0.388 OA
ATOM     14  H   UNL     1      63.335  -4.960  -3.081  1.00  0.00     0.211 HD
ENDBRANCH   1  13
TORSDOF 8
ENDMDL
MODEL 9
REMARK VINA RESULT:    -3.727     13.465     14.585
REMARK INTER + INTRA:          -5.658
REMARK INTER:                  -5.327
REMARK INTRA:                  -0.331
REMARK UNBOUND:                -0.623
REMARK SMILES O=C[C@@H](O)[C@H](O)[C@H](O)CO
REMARK SMILES IDX 7 1 9 2 10 3 5 5 3 6 2 7 1 8 4 9 6 11 8 13
REMARK H PARENT 10 4 4 10 6 12 8 14
REMARK Flexibility Score: inf
ROOT
ATOM      1  C   UNL     1      48.160  -9.033  -1.670  1.00  0.00     0.171 C 
ENDROOT
BRANCH   1   2
ATOM      2  C   UNL     1      47.647  -9.848  -0.469  1.00  0.00     0.190 C 
BRANCH   2   3
ATOM      3  O   UNL     1      48.302  -9.464   0.709  1.00  0.00    -0.394 OA
ATOM      4  H   UNL     1      48.809  -8.640   0.488  1.00  0.00     0.210 HD
ENDBRANCH   2   3
ENDBRANCH   1   2
BRANCH   1   5
ATOM      5  C   UNL     1      47.618  -9.530  -3.043  1.00  0.00     0.181 C 
BRANCH   5   6
ATOM      6  C   UNL     1      47.725  -8.548  -4.242  1.00  0.00     0.209 C 
BRANCH   6   7
ATOM      7  C   UNL     1      46.958  -7.266  -4.027  1.00  0.00     0.258 C 
ATOM      8  O   UNL     1      47.540  -6.212  -3.823  1.00  0.00    -0.300 OA
ENDBRANCH   6   7
BRANCH   6   9
ATOM      9  O   UNL     1      49.074  -8.287  -4.535  1.00  0.00    -0.383 OA
ATOM     10  H   UNL     1      49.425  -9.080  -5.018  1.00  0.00     0.211 HD
ENDBRANCH   6   9
ENDBRANCH   5   6
BRANCH   5  11
ATOM     11  O   UNL     1      46.294  -9.987  -2.905  1.00  0.00    -0.387 OA
ATOM     12  H   UNL     1      46.215 -10.844  -3.398  1.00  0.00     0.211 HD
ENDBRANCH   5  11
ENDBRANCH   1   5
BRANCH   1  13
ATOM     13  O   UNL     1      49.565  -8.982  -1.673  1.00  0.00    -0.388 OA
ATOM     14  H   UNL     1      49.837  -8.507  -0.844  1.00  0.00     0.211 HD
ENDBRANCH   1  13
TORSDOF 8
ENDMDL
