MODEL 1
REMARK VINA RESULT:    -3.823      0.000      0.000
REMARK INTER + INTRA:          -4.406
REMARK INTER:                  -4.159
REMARK INTRA:                  -0.248
REMARK UNBOUND:                -0.248
REMARK SMILES O=C([O-])c1ccccc1O
REMARK SMILES IDX 4 1 9 2 5 3 8 4 6 5 7 6 2 7 1 8 3 9 10 10
REMARK H PARENT 10 11
REMARK Flexibility Score: inf
ROOT
ATOM      1  C   UNL     1      13.325  14.230  37.104  1.00  0.00     0.039 A 
ATOM      2  C   UNL     1      13.729  15.586  37.111  1.00  0.00     0.124 A 
ATOM      3  C   UNL     1      14.264  13.243  36.743  1.00  0.00     0.014 A 
ATOM      4  C   UNL     1      15.046  15.925  36.762  1.00  0.00     0.047 A 
ATOM      5  C   UNL     1      15.572  13.595  36.397  1.00  0.00     0.001 A 
ATOM      6  C   UNL     1      15.961  14.934  36.407  1.00  0.00     0.004 A 
ENDROOT
BRANCH   1   7
ATOM      7  C   UNL     1      11.942  13.826  37.466  1.00  0.00     0.075 C 
ATOM      8  O   UNL     1      11.371  14.333  38.468  1.00  0.00    -0.545 OA
ATOM      9  O   UNL     1      11.248  12.887  36.712  1.00  0.00    -0.545 OA
ENDBRANCH   1   7
BRANCH   2  10
ATOM     10  O   UNL     1      12.835  16.597  37.462  1.00  0.00    -0.507 OA
ATOM     11  H   UNL     1      11.860  16.567  37.185  1.00  0.00     0.293 HD
ENDBRANCH   2  10
TORSDOF 2
ENDMDL
MODEL 2
REMARK VINA RESULT:    -3.791     16.496     18.088
REMARK INTER + INTRA:          -4.371
REMARK INTER:                  -4.117
REMARK INTRA:                  -0.254
REMARK UNBOUND:                -0.248
REMARK SMILES O=C([O-])c1ccccc1O
REMARK SMILES IDX 4 1 9 2 5 3 8 4 6 5 7 6 2 7 1 8 3 9 10 10
REMARK H PARENT 10 11
REMARK Flexibility Score: inf
ROOT
ATOM      1  C   UNL     1      15.430  30.915  30.868  1.00  0.00     0.039 A 
ATOM      2  C   UNL     1      16.367  31.971  30.962  1.00  0.00     0.124 A 
ATOM      3  C   UNL     1      14.821  30.658  29.623  1.00  0.00     0.014 A 
ATOM      4  C   UNL     1      16.674  32.738  29.826  1.00  0.00     0.047 A 
ATOM      5  C   UNL     1      15.135  31.429  28.501  1.00  0.00     0.001 A 
ATOM      6  C   UNL     1      16.060  32.467  28.604  1.00  0.00     0.004 A 
ENDROOT
BRANCH   1   7
ATOM      7  C   UNL     1      15.074  30.079  32.043  1.00  0.00     0.075 C 
ATOM      8  O   UNL     1      14.969  28.829  31.927  1.00  0.00    -0.545 OA
ATOM      9  O   UNL     1      14.854  30.651  33.291  1.00  0.00    -0.545 OA
ENDBRANCH   1   7
BRANCH   2  10
ATOM     10  O   UNL     1      16.995  32.264  32.172  1.00  0.00    -0.507 OA
ATOM     11  H   UNL     1      16.725  31.810  33.037  1.00  0.00     0.293 HD
ENDBRANCH   2  10
TORSDOF 2
ENDMDL
MODEL 3
REMARK VINA RESULT:    -3.750     17.018     17.458
REMARK INTER + INTRA:          -4.326
REMARK INTER:                  -4.076
REMARK INTRA:                  -0.250
REMARK UNBOUND:                -0.248
REMARK SMILES O=C([O-])c1ccccc1O
REMARK SMILES IDX 4 1 9 2 5 3 8 4 6 5 7 6 2 7 1 8 3 9 10 10
REMARK H PARENT 10 11
REMARK Flexibility Score: inf
ROOT
ATOM      1  C   UNL     1       5.010  19.852  22.842  1.00  0.00     0.039 A 
ATOM      2  C   UNL     1       5.556  18.685  22.258  1.00  0.00     0.124 A 
ATOM      3  C   UNL     1       5.774  20.556  23.794  1.00  0.00     0.014 A 
ATOM      4  C   UNL     1       6.838  18.250  22.632  1.00  0.00     0.047 A 
ATOM      5  C   UNL     1       7.048  20.112  24.157  1.00  0.00     0.001 A 
ATOM      6  C   UNL     1       7.578  18.961  23.577  1.00  0.00     0.004 A 
ENDROOT
BRANCH   1   7
ATOM      7  C   UNL     1       3.658  20.348  22.477  1.00  0.00     0.075 C 
ATOM      8  O   UNL     1       3.495  21.543  22.113  1.00  0.00    -0.545 OA
ATOM      9  O   UNL     1       2.549  19.512  22.526  1.00  0.00    -0.545 OA
ENDBRANCH   1   7
BRANCH   2  10
ATOM     10  O   UNL     1       4.838  17.955  21.312  1.00  0.00    -0.507 OA
ATOM     11  H   UNL     1       5.296  17.491  20.536  1.00  0.00     0.293 HD
ENDBRANCH   2  10
TORSDOF 2
ENDMDL
MODEL 4
REMARK VINA RESULT:    -3.663     16.960     17.554
REMARK INTER + INTRA:          -4.232
REMARK INTER:                  -3.991
REMARK INTRA:                  -0.241
REMARK UNBOUND:                -0.248
REMARK SMILES O=C([O-])c1ccccc1O
REMARK SMILES IDX 4 1 9 2 5 3 8 4 6 5 7 6 2 7 1 8 3 9 10 10
REMARK H PARENT 10 11
REMARK Flexibility Score: inf
ROOT
ATOM      1  C   UNL     1       6.125  19.425  22.663  1.00  0.00     0.039 A 
ATOM      2  C   UNL     1       4.885  19.100  22.064  1.00  0.00     0.124 A 
ATOM      3  C   UNL     1       6.189  20.532  23.533  1.00  0.00     0.014 A 
ATOM      4  C   UNL     1       3.749  19.876  22.343  1.00  0.00     0.047 A 
ATOM      5  C   UNL     1       5.051  21.296  23.800  1.00  0.00     0.001 A 
ATOM      6  C   UNL     1       3.833  20.969  23.206  1.00  0.00     0.004 A 
ENDROOT
BRANCH   1   7
ATOM      7  C   UNL     1       7.352  18.631  22.396  1.00  0.00     0.075 C 
ATOM      8  O   UNL     1       7.386  17.401  22.664  1.00  0.00    -0.545 OA
ATOM      9  O   UNL     1       8.484  19.222  21.847  1.00  0.00    -0.545 OA
ENDBRANCH   1   7
BRANCH   2  10
ATOM     10  O   UNL     1       4.773  18.014  21.196  1.00  0.00    -0.507 OA
ATOM     11  H   UNL     1       5.239  17.999  20.297  1.00  0.00     0.293 HD
ENDBRANCH   2  10
TORSDOF 2
ENDMDL
MODEL 5
REMARK VINA RESULT:    -3.644     15.387     15.731
REMARK INTER + INTRA:          -4.211
REMARK INTER:                  -3.967
REMARK INTRA:                  -0.243
REMARK UNBOUND:                -0.248
REMARK SMILES O=C([O-])c1ccccc1O
REMARK SMILES IDX 4 1 9 2 5 3 8 4 6 5 7 6 2 7 1 8 3 9 10 10
REMARK H PARENT 10 11
REMARK Flexibility Score: inf
ROOT
ATOM      1  C   UNL     1       7.187  19.321  23.589  1.00  0.00     0.039 A 
ATOM      2  C   UNL     1       8.360  19.187  22.810  1.00  0.00     0.124 A 
ATOM      3  C   UNL     1       7.314  19.581  24.968  1.00  0.00     0.014 A 
ATOM      4  C   UNL     1       9.620  19.315  23.416  1.00  0.00     0.047 A 
ATOM      5  C   UNL     1       8.574  19.706  25.558  1.00  0.00     0.001 A 
ATOM      6  C   UNL     1       9.725  19.573  24.783  1.00  0.00     0.004 A 
ENDROOT
BRANCH   1   7
ATOM      7  C   UNL     1       5.833  19.192  22.990  1.00  0.00     0.075 C 
ATOM      8  O   UNL     1       4.992  20.123  23.111  1.00  0.00    -0.545 OA
ATOM      9  O   UNL     1       5.465  18.051  22.287  1.00  0.00    -0.545 OA
ENDBRANCH   1   7
BRANCH   2  10
ATOM     10  O   UNL     1       8.285  18.928  21.442  1.00  0.00    -0.507 OA
ATOM     11  H   UNL     1       8.294  17.983  21.076  1.00  0.00     0.293 HD
ENDBRANCH   2  10
TORSDOF 2
ENDMDL
MODEL 6
REMARK VINA RESULT:    -3.603      1.315      3.067
REMARK INTER + INTRA:          -4.166
REMARK INTER:                  -3.914
REMARK INTRA:                  -0.253
REMARK UNBOUND:                -0.248
REMARK SMILES O=C([O-])c1ccccc1O
REMARK SMILES IDX 4 1 9 2 5 3 8 4 6 5 7 6 2 7 1 8 3 9 10 10
REMARK H PARENT 10 11
REMARK Flexibility Score: inf
ROOT
ATOM      1  C   UNL     1      13.792  15.952  36.561  1.00  0.00     0.039 A 
ATOM      2  C   UNL     1      12.914  14.943  37.023  1.00  0.00     0.124 A 
ATOM      3  C   UNL     1      15.101  15.590  36.181  1.00  0.00     0.014 A 
ATOM      4  C   UNL     1      13.354  13.611  37.094  1.00  0.00     0.047 A 
ATOM      5  C   UNL     1      15.525  14.261  36.258  1.00  0.00     0.001 A 
ATOM      6  C   UNL     1      14.653  13.274  36.714  1.00  0.00     0.004 A 
ENDROOT
BRANCH   1   7
ATOM      7  C   UNL     1      13.370  17.373  36.470  1.00  0.00     0.075 C 
ATOM      8  O   UNL     1      14.152  18.294  36.830  1.00  0.00    -0.545 OA
ATOM      9  O   UNL     1      12.114  17.719  35.988  1.00  0.00    -0.545 OA
ENDBRANCH   1   7
BRANCH   2  10
ATOM     10  O   UNL     1      11.611  15.252  37.410  1.00  0.00    -0.507 OA
ATOM     11  H   UNL     1      10.823  14.673  37.143  1.00  0.00     0.293 HD
ENDBRANCH   2  10
TORSDOF 2
ENDMDL
MODEL 7
REMARK VINA RESULT:    -3.542     14.690     15.263
REMARK INTER + INTRA:          -4.100
REMARK INTER:                  -3.864
REMARK INTRA:                  -0.236
REMARK UNBOUND:                -0.248
REMARK SMILES O=C([O-])c1ccccc1O
REMARK SMILES IDX 4 1 9 2 5 3 8 4 6 5 7 6 2 7 1 8 3 9 10 10
REMARK H PARENT 10 11
REMARK Flexibility Score: inf
ROOT
ATOM      1  C   UNL     1       9.813  19.570  23.772  1.00  0.00     0.039 A 
ATOM      2  C   UNL     1       8.540  19.388  23.182  1.00  0.00     0.124 A 
ATOM      3  C   UNL     1       9.907  19.642  25.176  1.00  0.00     0.014 A 
ATOM      4  C   UNL     1       7.401  19.281  23.997  1.00  0.00     0.047 A 
ATOM      5  C   UNL     1       8.765  19.535  25.974  1.00  0.00     0.001 A 
ATOM      6  C   UNL     1       7.515  19.355  25.385  1.00  0.00     0.004 A 
ENDROOT
BRANCH   1   7
ATOM      7  C   UNL     1      11.044  19.688  22.949  1.00  0.00     0.075 C 
ATOM      8  O   UNL     1      11.169  20.630  22.121  1.00  0.00    -0.545 OA
ATOM      9  O   UNL     1      12.082  18.771  23.073  1.00  0.00    -0.545 OA
ENDBRANCH   1   7
BRANCH   2  10
ATOM     10  O   UNL     1       8.397  19.311  21.797  1.00  0.00    -0.507 OA
ATOM     11  H   UNL     1       9.031  18.765  21.225  1.00  0.00     0.293 HD
ENDBRANCH   2  10
TORSDOF 2
ENDMDL
MODEL 8
REMARK VINA RESULT:    -3.527     13.098     13.462
REMARK INTER + INTRA:          -4.084
REMARK INTER:                  -3.841
REMARK INTRA:                  -0.243
REMARK UNBOUND:                -0.248
REMARK SMILES O=C([O-])c1ccccc1O
REMARK SMILES IDX 4 1 9 2 5 3 8 4 6 5 7 6 2 7 1 8 3 9 10 10
REMARK H PARENT 10 11
REMARK Flexibility Score: inf
ROOT
ATOM      1  C   UNL     1       8.570  19.498  25.343  1.00  0.00     0.039 A 
ATOM      2  C   UNL     1       8.642  19.138  26.709  1.00  0.00     0.124 A 
ATOM      3  C   UNL     1       9.764  19.572  24.597  1.00  0.00     0.014 A 
ATOM      4  C   UNL     1       9.888  18.862  27.296  1.00  0.00     0.047 A 
ATOM      5  C   UNL     1      10.996  19.296  25.194  1.00  0.00     0.001 A 
ATOM      6  C   UNL     1      11.057  18.942  26.541  1.00  0.00     0.004 A 
ENDROOT
BRANCH   1   7
ATOM      7  C   UNL     1       7.274  19.798  24.682  1.00  0.00     0.075 C 
ATOM      8  O   UNL     1       6.531  20.714  25.124  1.00  0.00    -0.545 OA
ATOM      9  O   UNL     1       6.854  19.083  23.567  1.00  0.00    -0.545 OA
ENDBRANCH   1   7
BRANCH   2  10
ATOM     10  O   UNL     1       7.488  19.051  27.488  1.00  0.00    -0.507 OA
ATOM     11  H   UNL     1       7.332  18.281  28.128  1.00  0.00     0.293 HD
ENDBRANCH   2  10
TORSDOF 2
ENDMDL
MODEL 9
REMARK VINA RESULT:    -3.480      1.409      2.080
REMARK INTER + INTRA:          -4.033
REMARK INTER:                  -3.787
REMARK INTRA:                  -0.245
REMARK UNBOUND:                -0.248
REMARK SMILES O=C([O-])c1ccccc1O
REMARK SMILES IDX 4 1 9 2 5 3 8 4 6 5 7 6 2 7 1 8 3 9 10 10
REMARK H PARENT 10 11
REMARK Flexibility Score: inf
ROOT
ATOM      1  C   UNL     1      13.362  15.381  37.077  1.00  0.00     0.039 A 
ATOM      2  C   UNL     1      14.546  15.973  36.577  1.00  0.00     0.124 A 
ATOM      3  C   UNL     1      13.292  13.977  37.169  1.00  0.00     0.014 A 
ATOM      4  C   UNL     1      15.622  15.160  36.185  1.00  0.00     0.047 A 
ATOM      5  C   UNL     1      14.370  13.181  36.775  1.00  0.00     0.001 A 
ATOM      6  C   UNL     1      15.533  13.772  36.284  1.00  0.00     0.004 A 
ENDROOT
BRANCH   1   7
ATOM      7  C   UNL     1      12.199  16.202  37.502  1.00  0.00     0.075 C 
ATOM      8  O   UNL     1      11.838  17.197  36.819  1.00  0.00    -0.545 OA
ATOM      9  O   UNL     1      11.485  15.893  38.653  1.00  0.00    -0.545 OA
ENDBRANCH   1   7
BRANCH   2  10
ATOM     10  O   UNL     1      14.663  17.358  36.467  1.00  0.00    -0.507 OA
ATOM     11  H   UNL     1      15.350  17.789  35.860  1.00  0.00     0.293 HD
ENDBRANCH   2  10
TORSDOF 2
ENDMDL
