MODEL 1
REMARK VINA RESULT:    -2.999      0.000      0.000
REMARK INTER + INTRA:          -3.189
REMARK INTER:                  -3.174
REMARK INTRA:                  -0.014
REMARK UNBOUND:                -0.014
REMARK SMILES O=Cc1ccco1
REMARK SMILES IDX 5 1 6 2 7 3 3 4 4 5 2 6 1 7
REMARK H PARENT
REMARK Flexibility Score: inf
ROOT
ATOM      1  C   UNL     1     129.752 128.641 115.156  1.00  0.00     0.043 A 
ATOM      2  C   UNL     1     129.678 128.315 116.495  1.00  0.00     0.196 A 
ATOM      3  O   UNL     1     129.082 129.283 117.155  1.00  0.00    -0.462 OA
ATOM      4  C   UNL     1     128.761 130.230 116.304  1.00  0.00     0.166 A 
ATOM      5  C   UNL     1     129.160 129.879 115.029  1.00  0.00     0.054 A 
ENDROOT
BRANCH   4   6
ATOM      6  C   UNL     1     128.079 131.470 116.687  1.00  0.00     0.298 C 
ATOM      7  O   UNL     1     127.149 131.455 117.535  1.00  0.00    -0.294 OA
ENDBRANCH   4   6
TORSDOF 1
ENDMDL
MODEL 2
REMARK VINA RESULT:    -2.959     18.538     20.278
REMARK INTER + INTRA:          -3.146
REMARK INTER:                  -3.135
REMARK INTRA:                  -0.011
REMARK UNBOUND:                -0.014
REMARK SMILES O=Cc1ccco1
REMARK SMILES IDX 5 1 6 2 7 3 3 4 4 5 2 6 1 7
REMARK H PARENT
REMARK Flexibility Score: inf
ROOT
ATOM      1  C   UNL     1     127.660 145.847 130.502  1.00  0.00     0.043 A 
ATOM      2  C   UNL     1     127.648 147.003 129.746  1.00  0.00     0.196 A 
ATOM      3  O   UNL     1     128.012 146.730 128.513  1.00  0.00    -0.462 OA
ATOM      4  C   UNL     1     128.261 145.444 128.427  1.00  0.00     0.166 A 
ATOM      5  C   UNL     1     128.056 144.838 129.651  1.00  0.00     0.054 A 
ENDROOT
BRANCH   4   6
ATOM      6  C   UNL     1     128.694 144.780 127.194  1.00  0.00     0.298 C 
ATOM      7  O   UNL     1     129.882 144.883 126.793  1.00  0.00    -0.294 OA
ENDBRANCH   4   6
TORSDOF 1
ENDMDL
MODEL 3
REMARK VINA RESULT:    -2.958     16.816     17.234
REMARK INTER + INTRA:          -3.145
REMARK INTER:                  -3.129
REMARK INTRA:                  -0.016
REMARK UNBOUND:                -0.014
REMARK SMILES O=Cc1ccco1
REMARK SMILES IDX 5 1 6 2 7 3 3 4 4 5 2 6 1 7
REMARK H PARENT
REMARK Flexibility Score: inf
ROOT
ATOM      1  C   UNL     1     145.218 128.834 114.380  1.00  0.00     0.043 A 
ATOM      2  C   UNL     1     145.732 129.750 115.276  1.00  0.00     0.196 A 
ATOM      3  O   UNL     1     146.055 129.141 116.395  1.00  0.00    -0.462 OA
ATOM      4  C   UNL     1     145.775 127.865 116.271  1.00  0.00     0.166 A 
ATOM      5  C   UNL     1     145.244 127.614 115.021  1.00  0.00     0.054 A 
ENDROOT
BRANCH   4   6
ATOM      6  C   UNL     1     146.005 126.875 117.328  1.00  0.00     0.298 C 
ATOM      7  O   UNL     1     146.354 127.238 118.481  1.00  0.00    -0.294 OA
ENDBRANCH   4   6
TORSDOF 1
ENDMDL
MODEL 4
REMARK VINA RESULT:    -2.934     13.689     13.987
REMARK INTER + INTRA:          -3.119
REMARK INTER:                  -3.106
REMARK INTRA:                  -0.014
REMARK UNBOUND:                -0.014
REMARK SMILES O=Cc1ccco1
REMARK SMILES IDX 5 1 6 2 7 3 3 4 4 5 2 6 1 7
REMARK H PARENT
REMARK Flexibility Score: inf
ROOT
ATOM      1  C   UNL     1     129.166 143.354 114.058  1.00  0.00     0.043 A 
ATOM      2  C   UNL     1     127.830 143.321 114.404  1.00  0.00     0.196 A 
ATOM      3  O   UNL     1     127.702 143.544 115.693  1.00  0.00    -0.462 OA
ATOM      4  C   UNL     1     128.897 143.724 116.206  1.00  0.00     0.166 A 
ATOM      5  C   UNL     1     129.858 143.614 115.220  1.00  0.00     0.054 A 
ENDROOT
BRANCH   4   6
ATOM      6  C   UNL     1     129.140 143.998 117.625  1.00  0.00     0.298 C 
ATOM      7  O   UNL     1     128.424 144.822 118.252  1.00  0.00    -0.294 OA
ENDBRANCH   4   6
TORSDOF 1
ENDMDL
MODEL 5
REMARK VINA RESULT:    -2.899     15.815     16.794
REMARK INTER + INTRA:          -3.082
REMARK INTER:                  -3.071
REMARK INTRA:                  -0.011
REMARK UNBOUND:                -0.014
REMARK SMILES O=Cc1ccco1
REMARK SMILES IDX 5 1 6 2 7 3 3 4 4 5 2 6 1 7
REMARK H PARENT
REMARK Flexibility Score: inf
ROOT
ATOM      1  C   UNL     1     145.346 127.275 114.486  1.00  0.00     0.043 A 
ATOM      2  C   UNL     1     144.039 127.484 114.877  1.00  0.00     0.196 A 
ATOM      3  O   UNL     1     143.942 127.367 116.182  1.00  0.00    -0.462 OA
ATOM      4  C   UNL     1     145.131 127.091 116.665  1.00  0.00     0.166 A 
ATOM      5  C   UNL     1     146.055 127.021 115.641  1.00  0.00     0.054 A 
ENDROOT
BRANCH   4   6
ATOM      6  C   UNL     1     145.404 126.892 118.091  1.00  0.00     0.298 C 
ATOM      7  O   UNL     1     146.579 126.960 118.536  1.00  0.00    -0.294 OA
ENDBRANCH   4   6
TORSDOF 1
ENDMDL
MODEL 6
REMARK VINA RESULT:    -2.867     16.940     17.071
REMARK INTER + INTRA:          -3.049
REMARK INTER:                  -3.033
REMARK INTRA:                  -0.016
REMARK UNBOUND:                -0.014
REMARK SMILES O=Cc1ccco1
REMARK SMILES IDX 5 1 6 2 7 3 3 4 4 5 2 6 1 7
REMARK H PARENT
REMARK Flexibility Score: inf
ROOT
ATOM      1  C   UNL     1     145.637 127.901 114.367  1.00  0.00     0.043 A 
ATOM      2  C   UNL     1     145.944 126.888 115.253  1.00  0.00     0.196 A 
ATOM      3  O   UNL     1     145.945 127.360 116.480  1.00  0.00    -0.462 OA
ATOM      4  C   UNL     1     145.651 128.638 116.436  1.00  0.00     0.166 A 
ATOM      5  C   UNL     1     145.447 129.033 115.128  1.00  0.00     0.054 A 
ENDROOT
BRANCH   4   6
ATOM      6  C   UNL     1     145.562 129.494 117.622  1.00  0.00     0.298 C 
ATOM      7  O   UNL     1     146.088 129.141 118.710  1.00  0.00    -0.294 OA
ENDBRANCH   4   6
TORSDOF 1
ENDMDL
MODEL 7
REMARK VINA RESULT:    -2.852      1.928      2.299
REMARK INTER + INTRA:          -3.033
REMARK INTER:                  -3.017
REMARK INTRA:                  -0.016
REMARK UNBOUND:                -0.014
REMARK SMILES O=Cc1ccco1
REMARK SMILES IDX 5 1 6 2 7 3 3 4 4 5 2 6 1 7
REMARK H PARENT
REMARK Flexibility Score: inf
ROOT
ATOM      1  C   UNL     1     128.350 131.521 114.075  1.00  0.00     0.043 A 
ATOM      2  C   UNL     1     128.007 130.251 114.494  1.00  0.00     0.196 A 
ATOM      3  O   UNL     1     127.849 130.244 115.799  1.00  0.00    -0.462 OA
ATOM      4  C   UNL     1     128.072 131.455 116.253  1.00  0.00     0.166 A 
ATOM      5  C   UNL     1     128.393 132.301 115.210  1.00  0.00     0.054 A 
ENDROOT
BRANCH   4   6
ATOM      6  C   UNL     1     127.986 131.821 117.670  1.00  0.00     0.298 C 
ATOM      7  O   UNL     1     127.449 131.045 118.502  1.00  0.00    -0.294 OA
ENDBRANCH   4   6
TORSDOF 1
ENDMDL
MODEL 8
REMARK VINA RESULT:    -2.842     14.544     15.448
REMARK INTER + INTRA:          -3.022
REMARK INTER:                  -3.011
REMARK INTRA:                  -0.011
REMARK UNBOUND:                -0.014
REMARK SMILES O=Cc1ccco1
REMARK SMILES IDX 5 1 6 2 7 3 3 4 4 5 2 6 1 7
REMARK H PARENT
REMARK Flexibility Score: inf
ROOT
ATOM      1  C   UNL     1     145.240 129.023 114.376  1.00  0.00     0.043 A 
ATOM      2  C   UNL     1     145.625 127.698 114.387  1.00  0.00     0.196 A 
ATOM      3  O   UNL     1     144.640 126.955 114.838  1.00  0.00    -0.462 OA
ATOM      4  C   UNL     1     143.624 127.736 115.122  1.00  0.00     0.166 A 
ATOM      5  C   UNL     1     143.947 129.051 114.851  1.00  0.00     0.054 A 
ENDROOT
BRANCH   4   6
ATOM      6  C   UNL     1     142.346 127.250 115.651  1.00  0.00     0.298 C 
ATOM      7  O   UNL     1     142.219 126.977 116.873  1.00  0.00    -0.294 OA
ENDBRANCH   4   6
TORSDOF 1
ENDMDL
MODEL 9
REMARK VINA RESULT:    -2.795     16.388     17.757
REMARK INTER + INTRA:          -2.972
REMARK INTER:                  -2.956
REMARK INTRA:                  -0.016
REMARK UNBOUND:                -0.014
REMARK SMILES O=Cc1ccco1
REMARK SMILES IDX 5 1 6 2 7 3 3 4 4 5 2 6 1 7
REMARK H PARENT
REMARK Flexibility Score: inf
ROOT
ATOM      1  C   UNL     1     127.457 142.491 125.954  1.00  0.00     0.043 A 
ATOM      2  C   UNL     1     128.562 143.071 125.365  1.00  0.00     0.196 A 
ATOM      3  O   UNL     1     128.860 144.190 125.987  1.00  0.00    -0.462 OA
ATOM      4  C   UNL     1     127.997 144.368 126.960  1.00  0.00     0.166 A 
ATOM      5  C   UNL     1     127.089 143.327 126.986  1.00  0.00     0.054 A 
ENDROOT
BRANCH   4   6
ATOM      6  C   UNL     1     128.022 145.517 127.869  1.00  0.00     0.298 C 
ATOM      7  O   UNL     1     128.758 146.509 127.630  1.00  0.00    -0.294 OA
ENDBRANCH   4   6
TORSDOF 1
ENDMDL
