MODEL 1
REMARK VINA RESULT:    -3.641      0.000      0.000
REMARK INTER + INTRA:          -3.362
REMARK INTER:                  -4.492
REMARK INTRA:                   1.130
REMARK UNBOUND:                 1.130
REMARK SMILES C=C1CC[C@H]2[C@@H]1[C@@H]1[C@H](CC[C@H]2C)C1(C)C
REMARK SMILES IDX 6 1 5 2 4 3 3 4 2 5 1 6 11 7 12 8 10 9 7 11 8 12 13 13 14 14
REMARK SMILES IDX 15 15 9 16
REMARK H PARENT
REMARK Flexibility Score: 80.00
ROOT
ATOM      1  C   UNL     1      20.614  63.152  16.074  1.00  0.00     0.022 C 
ATOM      2  C   UNL     1      20.149  63.972  17.310  1.00  0.00    -0.000 C 
ATOM      3  C   UNL     1      19.067  64.965  16.825  1.00  0.00     0.009 C 
ATOM      4  C   UNL     1      18.700  64.590  15.389  1.00  0.00     0.031 C 
ATOM      5  C   UNL     1      19.647  63.508  14.998  1.00  0.00    -0.074 C 
ATOM      6  C   UNL     1      19.496  62.792  13.876  1.00  0.00     0.008 C 
ENDROOT
BRANCH   2   7
ATOM      7  C   UNL     1      21.271  64.598  18.199  1.00  0.00    -0.011 C 
ATOM      8  C   UNL     1      20.726  64.946  19.593  1.00  0.00     0.008 C 
BRANCH   7   9
ATOM      9  C   UNL     1      21.984  65.837  17.598  1.00  0.00     0.004 CG0
ATOM     10  G   UNL     1      22.281  65.720  16.104  1.00  0.00     0.000 G0
ENDBRANCH   7   9
ENDBRANCH   2   7
BRANCH   1  11
ATOM     11  C   UNL     1      22.141  63.126  15.721  1.00  0.00     0.006 C 
ATOM     12  C   UNL     1      23.000  64.402  15.789  1.00  0.00    -0.001 C 
ATOM     13  C   UNL     1      22.790  63.705  14.435  1.00  0.00    -0.029 C 
ATOM     14  C   UNL     1      22.075  64.519  13.338  1.00  0.00     0.012 C 
ATOM     15  C   UNL     1      24.030  62.945  13.945  1.00  0.00     0.012 C 
BRANCH  12  16
ATOM     16  C   UNL     1      22.275  65.714  16.107  1.00  0.00     0.005 CG0
ATOM     17  G   UNL     1      21.994  65.827  17.605  1.00  0.00     0.000 G0
ENDBRANCH  12  16
ENDBRANCH   1  11
TORSDOF 0
ENDMDL
MODEL 2
REMARK VINA RESULT:    -3.602      1.825      2.374
REMARK INTER + INTRA:          -3.314
REMARK INTER:                  -4.450
REMARK INTRA:                   1.137
REMARK UNBOUND:                 1.130
REMARK SMILES C=C1CC[C@H]2[C@@H]1[C@@H]1[C@H](CC[C@H]2C)C1(C)C
REMARK SMILES IDX 6 1 5 2 4 3 3 4 2 5 1 6 11 7 12 8 10 9 7 11 8 12 13 13 14 14
REMARK SMILES IDX 15 15 9 16
REMARK H PARENT
REMARK Flexibility Score: 80.00
ROOT
ATOM      1  C   UNL     1      20.966  63.291  17.887  1.00  0.00     0.022 C 
ATOM      2  C   UNL     1      20.625  64.407  18.914  1.00  0.00    -0.000 C 
ATOM      3  C   UNL     1      20.283  65.684  18.112  1.00  0.00     0.009 C 
ATOM      4  C   UNL     1      20.171  65.293  16.638  1.00  0.00     0.031 C 
ATOM      5  C   UNL     1      20.583  63.863  16.565  1.00  0.00    -0.074 C 
ATOM      6  C   UNL     1      20.417  63.123  15.462  1.00  0.00     0.008 C 
ENDROOT
BRANCH   2   7
ATOM      7  C   UNL     1      21.637  64.613  20.087  1.00  0.00    -0.011 C 
ATOM      8  C   UNL     1      20.974  65.375  21.245  1.00  0.00     0.008 C 
BRANCH   7   9
ATOM      9  C   UNL     1      22.967  65.311  19.704  1.00  0.00     0.004 CG0
ATOM     10  G   UNL     1      23.543  64.859  18.362  1.00  0.00     0.000 G0
ENDBRANCH   7   9
ENDBRANCH   2   7
BRANCH   1  11
ATOM     11  C   UNL     1      22.345  62.556  18.006  1.00  0.00     0.006 C 
ATOM     12  C   UNL     1      23.642  63.331  18.304  1.00  0.00    -0.001 C 
ATOM     13  C   UNL     1      23.493  62.596  16.962  1.00  0.00    -0.029 C 
ATOM     14  C   UNL     1      23.539  63.462  15.687  1.00  0.00     0.012 C 
ATOM     15  C   UNL     1      24.327  61.310  16.878  1.00  0.00     0.012 C 
BRANCH  12  16
ATOM     16  C   UNL     1      23.542  64.858  18.367  1.00  0.00     0.005 CG0
ATOM     17  G   UNL     1      22.964  65.307  19.709  1.00  0.00     0.000 G0
ENDBRANCH  12  16
ENDBRANCH   1  11
TORSDOF 0
ENDMDL
MODEL 3
REMARK VINA RESULT:    -3.436      1.529      3.306
REMARK INTER + INTRA:          -3.109
REMARK INTER:                  -4.237
REMARK INTRA:                   1.129
REMARK UNBOUND:                 1.130
REMARK SMILES C=C1CC[C@H]2[C@@H]1[C@@H]1[C@H](CC[C@H]2C)C1(C)C
REMARK SMILES IDX 6 1 5 2 4 3 3 4 2 5 1 6 11 7 12 8 10 9 7 11 8 12 13 13 14 14
REMARK SMILES IDX 15 15 9 16
REMARK H PARENT
REMARK Flexibility Score: 80.00
ROOT
ATOM      1  C   UNL     1      20.358  63.358  15.014  1.00  0.00     0.022 C 
ATOM      2  C   UNL     1      19.184  64.252  14.527  1.00  0.00    -0.000 C 
ATOM      3  C   UNL     1      19.769  65.279  13.529  1.00  0.00     0.009 C 
ATOM      4  C   UNL     1      21.209  64.863  13.223  1.00  0.00     0.031 C 
ATOM      5  C   UNL     1      21.501  63.717  14.129  1.00  0.00    -0.074 C 
ATOM      6  C   UNL     1      22.601  62.963  14.001  1.00  0.00     0.008 C 
ENDROOT
BRANCH   2   7
ATOM      7  C   UNL     1      18.258  64.856  15.631  1.00  0.00    -0.011 C 
ATOM      8  C   UNL     1      16.915  65.296  15.028  1.00  0.00     0.008 C 
BRANCH   7   9
ATOM      9  C   UNL     1      18.867  66.027  16.445  1.00  0.00     0.004 CG0
ATOM     10  G   UNL     1      20.338  65.831  16.811  1.00  0.00     0.000 G0
ENDBRANCH   7   9
ENDBRANCH   2   7
BRANCH   1  11
ATOM     11  C   UNL     1      20.622  63.237  16.555  1.00  0.00     0.006 C 
ATOM     12  C   UNL     1      20.553  64.468  17.478  1.00  0.00    -0.001 C 
ATOM     13  C   UNL     1      21.889  63.728  17.304  1.00  0.00    -0.029 C 
ATOM     14  C   UNL     1      23.056  64.533  16.697  1.00  0.00     0.012 C 
ATOM     15  C   UNL     1      22.278  62.884  18.526  1.00  0.00     0.012 C 
BRANCH  12  16
ATOM     16  C   UNL     1      20.327  65.828  16.808  1.00  0.00     0.005 CG0
ATOM     17  G   UNL     1      18.854  66.016  16.449  1.00  0.00     0.000 G0
ENDBRANCH  12  16
ENDBRANCH   1  11
TORSDOF 0
ENDMDL
MODEL 4
REMARK VINA RESULT:    -3.301      1.404      2.586
REMARK INTER + INTRA:          -2.943
REMARK INTER:                  -4.073
REMARK INTRA:                   1.130
REMARK UNBOUND:                 1.130
REMARK SMILES C=C1CC[C@H]2[C@@H]1[C@@H]1[C@H](CC[C@H]2C)C1(C)C
REMARK SMILES IDX 6 1 5 2 4 3 3 4 2 5 1 6 11 7 12 8 10 9 7 11 8 12 13 13 14 14
REMARK SMILES IDX 15 15 9 16
REMARK H PARENT
REMARK Flexibility Score: 80.00
ROOT
ATOM      1  C   UNL     1      19.853  63.777  17.788  1.00  0.00     0.022 C 
ATOM      2  C   UNL     1      20.919  64.103  18.871  1.00  0.00    -0.000 C 
ATOM      3  C   UNL     1      20.786  65.605  19.214  1.00  0.00     0.009 C 
ATOM      4  C   UNL     1      19.511  66.124  18.547  1.00  0.00     0.031 C 
ATOM      5  C   UNL     1      18.999  64.996  17.718  1.00  0.00    -0.074 C 
ATOM      6  C   UNL     1      17.788  65.016  17.148  1.00  0.00     0.008 C 
ENDROOT
BRANCH   2   7
ATOM      7  C   UNL     1      22.376  63.615  18.589  1.00  0.00    -0.011 C 
ATOM      8  C   UNL     1      23.188  63.555  19.893  1.00  0.00     0.008 C 
BRANCH   7   9
ATOM      9  C   UNL     1      23.160  64.433  17.531  1.00  0.00     0.004 CG0
ATOM     10  G   UNL     1      22.332  64.820  16.306  1.00  0.00     0.000 G0
ENDBRANCH   7   9
ENDBRANCH   2   7
BRANCH   1  11
ATOM     11  C   UNL     1      20.324  63.122  16.444  1.00  0.00     0.006 C 
ATOM     12  C   UNL     1      21.594  63.605  15.720  1.00  0.00    -0.001 C 
ATOM     13  C   UNL     1      20.228  63.765  15.034  1.00  0.00    -0.029 C 
ATOM     14  C   UNL     1      19.775  65.203  14.714  1.00  0.00     0.012 C 
ATOM     15  C   UNL     1      20.003  62.767  13.890  1.00  0.00     0.012 C 
BRANCH  12  16
ATOM     16  C   UNL     1      22.312  64.823  16.311  1.00  0.00     0.005 CG0
ATOM     17  G   UNL     1      23.150  64.420  17.524  1.00  0.00     0.000 G0
ENDBRANCH  12  16
ENDBRANCH   1  11
TORSDOF 0
ENDMDL
MODEL 5
REMARK VINA RESULT:    -3.281      1.917      3.442
REMARK INTER + INTRA:          -2.918
REMARK INTER:                  -4.054
REMARK INTRA:                   1.136
REMARK UNBOUND:                 1.130
REMARK SMILES C=C1CC[C@H]2[C@@H]1[C@@H]1[C@H](CC[C@H]2C)C1(C)C
REMARK SMILES IDX 6 1 5 2 4 3 3 4 2 5 1 6 11 7 12 8 10 9 7 11 8 12 13 13 14 14
REMARK SMILES IDX 15 15 9 16
REMARK H PARENT
REMARK Flexibility Score: 80.00
ROOT
ATOM      1  C   UNL     1      22.053  64.604  16.368  1.00  0.00     0.022 C 
ATOM      2  C   UNL     1      20.531  64.518  16.672  1.00  0.00    -0.000 C 
ATOM      3  C   UNL     1      20.306  63.268  17.555  1.00  0.00     0.009 C 
ATOM      4  C   UNL     1      21.679  62.750  17.988  1.00  0.00     0.031 C 
ATOM      5  C   UNL     1      22.675  63.582  17.257  1.00  0.00    -0.074 C 
ATOM      6  C   UNL     1      23.984  63.549  17.539  1.00  0.00     0.008 C 
ENDROOT
BRANCH   2   7
ATOM      7  C   UNL     1      19.565  64.648  15.452  1.00  0.00    -0.011 C 
ATOM      8  C   UNL     1      18.148  65.015  15.921  1.00  0.00     0.008 C 
BRANCH   7   9
ATOM      9  C   UNL     1      19.496  63.411  14.520  1.00  0.00     0.004 CG0
ATOM     10  G   UNL     1      20.849  62.749  14.265  1.00  0.00     0.000 G0
ENDBRANCH   7   9
ENDBRANCH   2   7
BRANCH   1  11
ATOM     11  C   UNL     1      22.519  64.669  14.873  1.00  0.00     0.006 C 
ATOM     12  C   UNL     1      21.874  63.779  13.794  1.00  0.00    -0.001 C 
ATOM     13  C   UNL     1      23.363  63.597  14.133  1.00  0.00    -0.029 C 
ATOM     14  C   UNL     1      23.787  62.223  14.689  1.00  0.00     0.012 C 
ATOM     15  C   UNL     1      24.302  64.154  13.054  1.00  0.00     0.012 C 
BRANCH  12  16
ATOM     16  C   UNL     1      20.841  62.750  14.266  1.00  0.00     0.005 CG0
ATOM     17  G   UNL     1      19.489  63.419  14.516  1.00  0.00     0.000 G0
ENDBRANCH  12  16
ENDBRANCH   1  11
TORSDOF 0
ENDMDL
MODEL 6
REMARK VINA RESULT:    -3.258      1.665      3.775
REMARK INTER + INTRA:          -2.889
REMARK INTER:                  -4.020
REMARK INTRA:                   1.131
REMARK UNBOUND:                 1.130
REMARK SMILES C=C1CC[C@H]2[C@@H]1[C@@H]1[C@H](CC[C@H]2C)C1(C)C
REMARK SMILES IDX 6 1 5 2 4 3 3 4 2 5 1 6 11 7 12 8 10 9 7 11 8 12 13 13 14 14
REMARK SMILES IDX 15 15 9 16
REMARK H PARENT
REMARK Flexibility Score: 80.00
ROOT
ATOM      1  C   UNL     1      21.650  62.914  17.520  1.00  0.00     0.022 C 
ATOM      2  C   UNL     1      20.627  63.558  16.543  1.00  0.00    -0.000 C 
ATOM      3  C   UNL     1      21.386  63.901  15.239  1.00  0.00     0.009 C 
ATOM      4  C   UNL     1      22.770  63.256  15.323  1.00  0.00     0.031 C 
ATOM      5  C   UNL     1      22.868  62.683  16.695  1.00  0.00    -0.074 C 
ATOM      6  C   UNL     1      23.864  61.866  17.062  1.00  0.00     0.008 C 
ENDROOT
BRANCH   2   7
ATOM      7  C   UNL     1      19.740  64.710  17.114  1.00  0.00    -0.011 C 
ATOM      8  C   UNL     1      18.492  64.916  16.242  1.00  0.00     0.008 C 
BRANCH   7   9
ATOM      9  C   UNL     1      20.459  66.068  17.315  1.00  0.00     0.004 CG0
ATOM     10  G   UNL     1      21.875  65.945  17.878  1.00  0.00     0.000 G0
ENDBRANCH   7   9
ENDBRANCH   2   7
BRANCH   1  11
ATOM     11  C   UNL     1      21.826  63.544  18.945  1.00  0.00     0.006 C 
ATOM     12  C   UNL     1      21.881  65.070  19.144  1.00  0.00    -0.001 C 
ATOM     13  C   UNL     1      23.113  64.218  19.491  1.00  0.00    -0.029 C 
ATOM     14  C   UNL     1      24.402  64.505  18.695  1.00  0.00     0.012 C 
ATOM     15  C   UNL     1      23.331  64.053  21.001  1.00  0.00     0.012 C 
BRANCH  12  16
ATOM     16  C   UNL     1      21.869  65.938  17.882  1.00  0.00     0.005 CG0
ATOM     17  G   UNL     1      20.451  66.061  17.324  1.00  0.00     0.000 G0
ENDBRANCH  12  16
ENDBRANCH   1  11
TORSDOF 0
ENDMDL
MODEL 7
REMARK VINA RESULT:    -3.226      1.660      3.510
REMARK INTER + INTRA:          -2.850
REMARK INTER:                  -3.990
REMARK INTRA:                   1.141
REMARK UNBOUND:                 1.130
REMARK SMILES C=C1CC[C@H]2[C@@H]1[C@@H]1[C@H](CC[C@H]2C)C1(C)C
REMARK SMILES IDX 6 1 5 2 4 3 3 4 2 5 1 6 11 7 12 8 10 9 7 11 8 12 13 13 14 14
REMARK SMILES IDX 15 15 9 16
REMARK H PARENT
REMARK Flexibility Score: 80.00
ROOT
ATOM      1  C   UNL     1      22.675  64.376  16.083  1.00  0.00     0.022 C 
ATOM      2  C   UNL     1      23.228  64.004  17.488  1.00  0.00    -0.000 C 
ATOM      3  C   UNL     1      23.667  62.522  17.434  1.00  0.00     0.009 C 
ATOM      4  C   UNL     1      23.620  62.074  15.973  1.00  0.00     0.031 C 
ATOM      5  C   UNL     1      23.027  63.214  15.218  1.00  0.00    -0.074 C 
ATOM      6  C   UNL     1      23.017  63.262  13.880  1.00  0.00     0.008 C 
ENDROOT
BRANCH   2   7
ATOM      7  C   UNL     1      22.340  64.388  18.714  1.00  0.00    -0.011 C 
ATOM      8  C   UNL     1      23.176  64.403  20.004  1.00  0.00     0.008 C 
BRANCH   7   9
ATOM      9  C   UNL     1      21.080  63.509  18.926  1.00  0.00     0.004 CG0
ATOM     10  G   UNL     1      20.358  63.134  17.632  1.00  0.00     0.000 G0
ENDBRANCH   7   9
ENDBRANCH   2   7
BRANCH   1  11
ATOM     11  C   UNL     1      21.227  64.967  15.978  1.00  0.00     0.006 C 
ATOM     12  C   UNL     1      20.063  64.386  16.802  1.00  0.00    -0.001 C 
ATOM     13  C   UNL     1      20.019  64.300  15.267  1.00  0.00    -0.029 C 
ATOM     14  C   UNL     1      19.987  62.887  14.651  1.00  0.00     0.012 C 
ATOM     15  C   UNL     1      19.026  65.284  14.633  1.00  0.00     0.012 C 
BRANCH  12  16
ATOM     16  C   UNL     1      20.358  63.138  17.640  1.00  0.00     0.005 CG0
ATOM     17  G   UNL     1      21.083  63.514  18.932  1.00  0.00     0.000 G0
ENDBRANCH  12  16
ENDBRANCH   1  11
TORSDOF 0
ENDMDL
MODEL 8
REMARK VINA RESULT:    -3.217      1.871      4.568
REMARK INTER + INTRA:          -2.839
REMARK INTER:                  -3.971
REMARK INTRA:                   1.132
REMARK UNBOUND:                 1.130
REMARK SMILES C=C1CC[C@H]2[C@@H]1[C@@H]1[C@H](CC[C@H]2C)C1(C)C
REMARK SMILES IDX 6 1 5 2 4 3 3 4 2 5 1 6 11 7 12 8 10 9 7 11 8 12 13 13 14 14
REMARK SMILES IDX 15 15 9 16
REMARK H PARENT
REMARK Flexibility Score: 80.00
ROOT
ATOM      1  C   UNL     1      22.184  62.765  18.278  1.00  0.00     0.022 C 
ATOM      2  C   UNL     1      23.534  62.355  17.626  1.00  0.00    -0.000 C 
ATOM      3  C   UNL     1      24.646  63.194  18.299  1.00  0.00     0.009 C 
ATOM      4  C   UNL     1      24.026  63.910  19.501  1.00  0.00     0.031 C 
ATOM      5  C   UNL     1      22.567  63.616  19.439  1.00  0.00    -0.074 C 
ATOM      6  C   UNL     1      21.732  63.912  20.444  1.00  0.00     0.008 C 
ENDROOT
BRANCH   2   7
ATOM      7  C   UNL     1      23.579  62.328  16.065  1.00  0.00    -0.011 C 
ATOM      8  C   UNL     1      24.758  61.475  15.572  1.00  0.00     0.008 C 
BRANCH   7   9
ATOM      9  C   UNL     1      23.624  63.716  15.375  1.00  0.00     0.004 CG0
ATOM     10  G   UNL     1      22.721  64.764  16.026  1.00  0.00     0.000 G0
ENDBRANCH   7   9
ENDBRANCH   2   7
BRANCH   1  11
ATOM     11  C   UNL     1      21.020  63.256  17.350  1.00  0.00     0.006 C 
ATOM     12  C   UNL     1      21.283  64.215  16.174  1.00  0.00    -0.001 C 
ATOM     13  C   UNL     1      20.397  64.678  17.342  1.00  0.00    -0.029 C 
ATOM     14  C   UNL     1      20.891  65.896  18.148  1.00  0.00     0.012 C 
ATOM     15  C   UNL     1      18.904  64.721  16.990  1.00  0.00     0.012 C 
BRANCH  12  16
ATOM     16  C   UNL     1      22.710  64.754  16.022  1.00  0.00     0.005 CG0
ATOM     17  G   UNL     1      23.616  63.709  15.372  1.00  0.00     0.000 G0
ENDBRANCH  12  16
ENDBRANCH   1  11
TORSDOF 0
ENDMDL
MODEL 9
REMARK VINA RESULT:    -3.142      1.540      3.957
REMARK INTER + INTRA:          -2.747
REMARK INTER:                  -3.890
REMARK INTRA:                   1.143
REMARK UNBOUND:                 1.130
REMARK SMILES C=C1CC[C@H]2[C@@H]1[C@@H]1[C@H](CC[C@H]2C)C1(C)C
REMARK SMILES IDX 6 1 5 2 4 3 3 4 2 5 1 6 11 7 12 8 10 9 7 11 8 12 13 13 14 14
REMARK SMILES IDX 15 15 9 16
REMARK H PARENT
REMARK Flexibility Score: 80.00
ROOT
ATOM      1  C   UNL     1      21.112  64.856  15.400  1.00  0.00     0.022 C 
ATOM      2  C   UNL     1      21.982  64.151  14.322  1.00  0.00    -0.000 C 
ATOM      3  C   UNL     1      21.222  62.880  13.875  1.00  0.00     0.009 C 
ATOM      4  C   UNL     1      19.816  62.942  14.476  1.00  0.00     0.031 C 
ATOM      5  C   UNL     1      19.809  64.135  15.367  1.00  0.00    -0.074 C 
ATOM      6  C   UNL     1      18.683  64.621  15.907  1.00  0.00     0.008 C 
ENDROOT
BRANCH   2   7
ATOM      7  C   UNL     1      23.489  63.933  14.670  1.00  0.00    -0.011 C 
ATOM      8  C   UNL     1      24.307  63.680  13.394  1.00  0.00     0.008 C 
BRANCH   7   9
ATOM      9  C   UNL     1      23.780  62.811  15.700  1.00  0.00     0.004 CG0
ATOM     10  G   UNL     1      22.780  62.752  16.854  1.00  0.00     0.000 G0
ENDBRANCH   7   9
ENDBRANCH   2   7
BRANCH   1  11
ATOM     11  C   UNL     1      21.753  65.167  16.797  1.00  0.00     0.006 C 
ATOM     12  C   UNL     1      22.646  64.139  17.515  1.00  0.00    -0.001 C 
ATOM     13  C   UNL     1      21.314  64.562  18.157  1.00  0.00    -0.029 C 
ATOM     14  C   UNL     1      20.262  63.455  18.367  1.00  0.00     0.012 C 
ATOM     15  C   UNL     1      21.492  65.497  19.361  1.00  0.00     0.012 C 
BRANCH  12  16
ATOM     16  C   UNL     1      22.787  62.761  16.859  1.00  0.00     0.005 CG0
ATOM     17  G   UNL     1      23.783  62.814  15.700  1.00  0.00     0.000 G0
ENDBRANCH  12  16
ENDBRANCH   1  11
TORSDOF 0
ENDMDL
