MODEL 1
REMARK VINA RESULT:    -2.875      0.000      0.000
REMARK INTER + INTRA:          -4.437
REMARK INTER:                  -3.884
REMARK INTRA:                  -0.553
REMARK UNBOUND:                -0.553
REMARK SMILES CCCCCCCC(=O)[O-]
REMARK SMILES IDX 5 1 6 2 7 3 8 4 9 5 10 6 4 7 3 8 2 9 1 10
REMARK H PARENT
REMARK Flexibility Score: inf
ROOT
ATOM      1  C   UNL     1      -6.567   4.225 -10.125  1.00  0.00     0.000 C 
ENDROOT
BRANCH   1   2
ATOM      2  C   UNL     1      -7.503   4.677  -8.994  1.00  0.00     0.006 C 
BRANCH   2   3
ATOM      3  C   UNL     1      -8.120   6.043  -9.308  1.00  0.00     0.053 C 
BRANCH   3   4
ATOM      4  C   UNL     1      -7.783   7.030  -8.235  1.00  0.00     0.041 C 
ATOM      5  O   UNL     1      -7.461   6.630  -7.085  1.00  0.00    -0.550 OA
ATOM      6  O   UNL     1      -7.875   8.392  -8.489  1.00  0.00    -0.550 OA
ENDBRANCH   3   4
ENDBRANCH   2   3
ENDBRANCH   1   2
BRANCH   1   7
ATOM      7  C   UNL     1      -5.117   4.032  -9.652  1.00  0.00     0.000 C 
BRANCH   7   8
ATOM      8  C   UNL     1      -4.185   5.158 -10.125  1.00  0.00    -0.000 C 
BRANCH   8   9
ATOM      9  C   UNL     1      -4.016   6.221  -9.033  1.00  0.00    -0.003 C 
ATOM     10  C   UNL     1      -4.455   7.596  -9.530  1.00  0.00     0.004 C 
ENDBRANCH   8   9
ENDBRANCH   7   8
ENDBRANCH   1   7
TORSDOF 6
ENDMDL
MODEL 2
REMARK VINA RESULT:    -2.868      1.644      2.429
REMARK INTER + INTRA:          -4.427
REMARK INTER:                  -3.942
REMARK INTRA:                  -0.485
REMARK UNBOUND:                -0.553
REMARK SMILES CCCCCCCC(=O)[O-]
REMARK SMILES IDX 5 1 6 2 7 3 8 4 9 5 10 6 4 7 3 8 2 9 1 10
REMARK H PARENT
REMARK Flexibility Score: inf
ROOT
ATOM      1  C   UNL     1      -7.086   6.041  -7.704  1.00  0.00     0.000 C 
ENDROOT
BRANCH   1   2
ATOM      2  C   UNL     1      -7.992   7.280  -7.779  1.00  0.00     0.006 C 
BRANCH   2   3
ATOM      3  C   UNL     1      -8.141   7.762  -9.225  1.00  0.00     0.053 C 
BRANCH   3   4
ATOM      4  C   UNL     1      -8.045   9.254  -9.294  1.00  0.00     0.041 C 
ATOM      5  O   UNL     1      -9.018   9.932  -9.719  1.00  0.00    -0.550 OA
ATOM      6  O   UNL     1      -6.865   9.892  -8.937  1.00  0.00    -0.550 OA
ENDBRANCH   3   4
ENDBRANCH   2   3
ENDBRANCH   1   2
BRANCH   1   7
ATOM      7  C   UNL     1      -7.007   5.284  -9.039  1.00  0.00     0.000 C 
BRANCH   7   8
ATOM      8  C   UNL     1      -5.566   5.133  -9.550  1.00  0.00    -0.000 C 
BRANCH   8   9
ATOM      9  C   UNL     1      -4.639   6.154  -8.880  1.00  0.00    -0.003 C 
ATOM     10  C   UNL     1      -4.477   7.402  -9.745  1.00  0.00     0.004 C 
ENDBRANCH   8   9
ENDBRANCH   7   8
ENDBRANCH   1   7
TORSDOF 6
ENDMDL
MODEL 3
REMARK VINA RESULT:    -2.867     21.330     22.106
REMARK INTER + INTRA:          -4.425
REMARK INTER:                  -3.964
REMARK INTRA:                  -0.461
REMARK UNBOUND:                -0.553
REMARK SMILES CCCCCCCC(=O)[O-]
REMARK SMILES IDX 5 1 6 2 7 3 8 4 9 5 10 6 4 7 3 8 2 9 1 10
REMARK H PARENT
REMARK Flexibility Score: inf
ROOT
ATOM      1  C   UNL     1       7.645   5.162   8.717  1.00  0.00     0.000 C 
ENDROOT
BRANCH   1   2
ATOM      2  C   UNL     1       6.471   4.477   9.433  1.00  0.00     0.006 C 
BRANCH   2   3
ATOM      3  C   UNL     1       5.574   5.509  10.125  1.00  0.00     0.053 C 
BRANCH   3   4
ATOM      4  C   UNL     1       4.181   5.440   9.584  1.00  0.00     0.041 C 
ATOM      5  O   UNL     1       3.699   6.415   8.950  1.00  0.00    -0.550 OA
ATOM      6  O   UNL     1       3.396   4.320   9.825  1.00  0.00    -0.550 OA
ENDBRANCH   3   4
ENDBRANCH   2   3
ENDBRANCH   1   2
BRANCH   1   7
ATOM      7  C   UNL     1       7.203   6.374   7.882  1.00  0.00     0.000 C 
BRANCH   7   8
ATOM      8  C   UNL     1       8.247   7.502   7.877  1.00  0.00    -0.000 C 
BRANCH   8   9
ATOM      9  C   UNL     1       8.075   8.412   9.098  1.00  0.00    -0.003 C 
ATOM     10  C   UNL     1       6.636   8.911   9.216  1.00  0.00     0.004 C 
ENDBRANCH   8   9
ENDBRANCH   7   8
ENDBRANCH   1   7
TORSDOF 6
ENDMDL
MODEL 4
REMARK VINA RESULT:    -2.860     21.284     22.149
REMARK INTER + INTRA:          -4.415
REMARK INTER:                  -4.194
REMARK INTRA:                  -0.221
REMARK UNBOUND:                -0.553
REMARK SMILES CCCCCCCC(=O)[O-]
REMARK SMILES IDX 5 1 6 2 7 3 8 4 9 5 10 6 4 7 3 8 2 9 1 10
REMARK H PARENT
REMARK Flexibility Score: inf
ROOT
ATOM      1  C   UNL     1       4.046   5.550   9.362  1.00  0.00     0.000 C 
ENDROOT
BRANCH   1   2
ATOM      2  C   UNL     1       5.569   5.722   9.456  1.00  0.00     0.006 C 
BRANCH   2   3
ATOM      3  C   UNL     1       6.103   6.533   8.271  1.00  0.00     0.053 C 
BRANCH   3   4
ATOM      4  C   UNL     1       7.579   6.741   8.399  1.00  0.00     0.041 C 
ATOM      5  O   UNL     1       8.212   7.354   7.500  1.00  0.00    -0.550 OA
ATOM      6  O   UNL     1       8.264   6.214   9.486  1.00  0.00    -0.550 OA
ENDBRANCH   3   4
ENDBRANCH   2   3
ENDBRANCH   1   2
BRANCH   1   7
ATOM      7  C   UNL     1       3.542   4.309  10.116  1.00  0.00     0.000 C 
BRANCH   7   8
ATOM      8  C   UNL     1       4.353   3.047   9.786  1.00  0.00    -0.000 C 
BRANCH   8   9
ATOM      9  C   UNL     1       3.548   1.781  10.104  1.00  0.00    -0.003 C 
ATOM     10  C   UNL     1       2.083   1.946   9.708  1.00  0.00     0.004 C 
ENDBRANCH   8   9
ENDBRANCH   7   8
ENDBRANCH   1   7
TORSDOF 6
ENDMDL
MODEL 5
REMARK VINA RESULT:    -2.839     17.228     18.763
REMARK INTER + INTRA:          -4.387
REMARK INTER:                  -4.044
REMARK INTRA:                  -0.343
REMARK UNBOUND:                -0.553
REMARK SMILES CCCCCCCC(=O)[O-]
REMARK SMILES IDX 5 1 6 2 7 3 8 4 9 5 10 6 4 7 3 8 2 9 1 10
REMARK H PARENT
REMARK Flexibility Score: inf
ROOT
ATOM      1  C   UNL     1       7.142  -6.415  -7.678  1.00  0.00     0.000 C 
ENDROOT
BRANCH   1   2
ATOM      2  C   UNL     1       6.923  -5.340  -8.754  1.00  0.00     0.006 C 
BRANCH   2   3
ATOM      3  C   UNL     1       6.074  -5.885  -9.906  1.00  0.00     0.053 C 
BRANCH   3   4
ATOM      4  C   UNL     1       4.780  -6.434  -9.392  1.00  0.00     0.041 C 
ATOM      5  O   UNL     1       4.461  -7.629  -9.628  1.00  0.00    -0.550 OA
ATOM      6  O   UNL     1       3.904  -5.612  -8.695  1.00  0.00    -0.550 OA
ENDBRANCH   3   4
ENDBRANCH   2   3
ENDBRANCH   1   2
BRANCH   1   7
ATOM      7  C   UNL     1       8.248  -7.413  -8.053  1.00  0.00     0.000 C 
BRANCH   7   8
ATOM      8  C   UNL     1       7.695  -8.703  -8.677  1.00  0.00    -0.000 C 
BRANCH   8   9
ATOM      9  C   UNL     1       8.711  -9.321  -9.646  1.00  0.00    -0.003 C 
ATOM     10  C   UNL     1      10.123  -8.818  -9.357  1.00  0.00     0.004 C 
ENDBRANCH   8   9
ENDBRANCH   7   8
ENDBRANCH   1   7
TORSDOF 6
ENDMDL
MODEL 6
REMARK VINA RESULT:    -2.827     21.723     22.895
REMARK INTER + INTRA:          -4.371
REMARK INTER:                  -4.082
REMARK INTRA:                  -0.289
REMARK UNBOUND:                -0.553
REMARK SMILES CCCCCCCC(=O)[O-]
REMARK SMILES IDX 5 1 6 2 7 3 8 4 9 5 10 6 4 7 3 8 2 9 1 10
REMARK H PARENT
REMARK Flexibility Score: inf
ROOT
ATOM      1  C   UNL     1      -7.901  -7.130   7.880  1.00  0.00     0.000 C 
ENDROOT
BRANCH   1   2
ATOM      2  C   UNL     1      -6.945  -5.927   7.897  1.00  0.00     0.006 C 
BRANCH   2   3
ATOM      3  C   UNL     1      -6.184  -5.851   9.224  1.00  0.00     0.053 C 
BRANCH   3   4
ATOM      4  C   UNL     1      -4.818  -6.444   9.081  1.00  0.00     0.041 C 
ATOM      5  O   UNL     1      -3.859  -5.735   8.677  1.00  0.00    -0.550 OA
ATOM      6  O   UNL     1      -4.614  -7.793   9.343  1.00  0.00    -0.550 OA
ENDBRANCH   3   4
ENDBRANCH   2   3
ENDBRANCH   1   2
BRANCH   1   7
ATOM      7  C   UNL     1      -8.404  -7.506   9.283  1.00  0.00     0.000 C 
BRANCH   7   8
ATOM      8  C   UNL     1      -9.899  -7.859   9.301  1.00  0.00    -0.000 C 
BRANCH   8   9
ATOM      9  C   UNL     1     -10.101  -9.378   9.348  1.00  0.00    -0.003 C 
ATOM     10  C   UNL     1      -8.823 -10.092   9.781  1.00  0.00     0.004 C 
ENDBRANCH   8   9
ENDBRANCH   7   8
ENDBRANCH   1   7
TORSDOF 6
ENDMDL
MODEL 7
REMARK VINA RESULT:    -2.816      2.054      4.342
REMARK INTER + INTRA:          -4.356
REMARK INTER:                  -3.709
REMARK INTRA:                  -0.647
REMARK UNBOUND:                -0.553
REMARK SMILES CCCCCCCC(=O)[O-]
REMARK SMILES IDX 5 1 6 2 7 3 8 4 9 5 10 6 4 7 3 8 2 9 1 10
REMARK H PARENT
REMARK Flexibility Score: inf
ROOT
ATOM      1  C   UNL     1      -5.892   8.923  -9.382  1.00  0.00     0.000 C 
ENDROOT
BRANCH   1   2
ATOM      2  C   UNL     1      -5.976   7.468  -9.867  1.00  0.00     0.006 C 
BRANCH   2   3
ATOM      3  C   UNL     1      -5.542   6.498  -8.764  1.00  0.00     0.053 C 
BRANCH   3   4
ATOM      4  C   UNL     1      -6.733   5.826  -8.157  1.00  0.00     0.041 C 
ATOM      5  O   UNL     1      -7.114   4.705  -8.586  1.00  0.00    -0.550 OA
ATOM      6  O   UNL     1      -7.453   6.460  -7.153  1.00  0.00    -0.550 OA
ENDBRANCH   3   4
ENDBRANCH   2   3
ENDBRANCH   1   2
BRANCH   1   7
ATOM      7  C   UNL     1      -7.265   9.504  -9.009  1.00  0.00     0.000 C 
BRANCH   7   8
ATOM      8  C   UNL     1      -8.377   9.061  -9.972  1.00  0.00    -0.000 C 
BRANCH   8   9
ATOM      9  C   UNL     1      -9.549   8.436  -9.206  1.00  0.00    -0.003 C 
ATOM     10  C   UNL     1      -9.872   7.042  -9.735  1.00  0.00     0.004 C 
ENDBRANCH   8   9
ENDBRANCH   7   8
ENDBRANCH   1   7
TORSDOF 6
ENDMDL
MODEL 8
REMARK VINA RESULT:    -2.793     21.438     22.444
REMARK INTER + INTRA:          -4.326
REMARK INTER:                  -3.818
REMARK INTRA:                  -0.508
REMARK UNBOUND:                -0.553
REMARK SMILES CCCCCCCC(=O)[O-]
REMARK SMILES IDX 5 1 6 2 7 3 8 4 9 5 10 6 4 7 3 8 2 9 1 10
REMARK H PARENT
REMARK Flexibility Score: inf
ROOT
ATOM      1  C   UNL     1      -7.230  -5.933   8.036  1.00  0.00     0.000 C 
ENDROOT
BRANCH   1   2
ATOM      2  C   UNL     1      -6.718  -4.809   8.949  1.00  0.00     0.006 C 
BRANCH   2   3
ATOM      3  C   UNL     1      -5.780  -5.362  10.026  1.00  0.00     0.053 C 
BRANCH   3   4
ATOM      4  C   UNL     1      -4.353  -5.226   9.598  1.00  0.00     0.041 C 
ATOM      5  O   UNL     1      -3.758  -6.196   9.058  1.00  0.00    -0.550 OA
ATOM      6  O   UNL     1      -3.663  -4.046   9.842  1.00  0.00    -0.550 OA
ENDBRANCH   3   4
ENDBRANCH   2   3
ENDBRANCH   1   2
BRANCH   1   7
ATOM      7  C   UNL     1      -8.202  -6.883   8.754  1.00  0.00     0.000 C 
BRANCH   7   8
ATOM      8  C   UNL     1      -7.793  -8.359   8.622  1.00  0.00    -0.000 C 
BRANCH   8   9
ATOM      9  C   UNL     1      -7.040  -8.831   9.871  1.00  0.00    -0.003 C 
ATOM     10  C   UNL     1      -5.597  -9.202   9.537  1.00  0.00     0.004 C 
ENDBRANCH   8   9
ENDBRANCH   7   8
ENDBRANCH   1   7
TORSDOF 6
ENDMDL
MODEL 9
REMARK VINA RESULT:    -0.495     17.673     19.345
REMARK INTER + INTRA:          -1.221
REMARK INTER:                  -0.714
REMARK INTRA:                  -0.507
REMARK UNBOUND:                -0.553
REMARK SMILES CCCCCCCC(=O)[O-]
REMARK SMILES IDX 5 1 6 2 7 3 8 4 9 5 10 6 4 7 3 8 2 9 1 10
REMARK H PARENT
REMARK Flexibility Score: inf
ROOT
ATOM      1  C   UNL     1       7.209  -5.651  -8.142  1.00  0.00     0.000 C 
ENDROOT
BRANCH   1   2
ATOM      2  C   UNL     1       7.836  -6.983  -7.705  1.00  0.00     0.006 C 
BRANCH   2   3
ATOM      3  C   UNL     1       8.040  -7.912  -8.906  1.00  0.00     0.053 C 
BRANCH   3   4
ATOM      4  C   UNL     1       9.489  -7.989  -9.270  1.00  0.00     0.041 C 
ATOM      5  O   UNL     1      10.125  -6.942  -9.562  1.00  0.00    -0.550 OA
ATOM      6  O   UNL     1      10.125  -9.222  -9.337  1.00  0.00    -0.550 OA
ENDBRANCH   3   4
ENDBRANCH   2   3
ENDBRANCH   1   2
BRANCH   1   7
ATOM      7  C   UNL     1       6.509  -5.745  -9.507  1.00  0.00     0.000 C 
BRANCH   7   8
ATOM      8  C   UNL     1       5.056  -5.248  -9.464  1.00  0.00    -0.000 C 
BRANCH   8   9
ATOM      9  C   UNL     1       4.108  -6.370  -9.024  1.00  0.00    -0.003 C 
ATOM     10  C   UNL     1       4.453  -7.686  -9.717  1.00  0.00     0.004 C 
ENDBRANCH   8   9
ENDBRANCH   7   8
ENDBRANCH   1   7
TORSDOF 6
ENDMDL
