MODEL 1
REMARK VINA RESULT:    -2.432      0.000      0.000
REMARK INTER + INTRA:          -5.798
REMARK INTER:                  -4.707
REMARK INTRA:                  -1.090
REMARK UNBOUND:                -1.090
REMARK SMILES CCCCCCCCCCCCCCCCCC(=O)[O-]
REMARK SMILES IDX 10 1 11 2 12 3 13 4 14 5 15 6 16 7 17 8 18 9 19 10 20 11
REMARK SMILES IDX 9 12 8 13 7 14 6 15 5 16 4 17 3 18 2 19 1 20
REMARK H PARENT
REMARK Flexibility Score: inf
ROOT
ATOM      1  C   UNL     1       2.413 -14.260 -18.378  1.00  0.00     0.000 C 
ENDROOT
BRANCH   1   2
ATOM      2  C   UNL     1       2.358 -12.787 -18.816  1.00  0.00     0.000 C 
BRANCH   2   3
ATOM      3  C   UNL     1       3.743 -12.220 -19.177  1.00  0.00     0.000 C 
BRANCH   3   4
ATOM      4  C   UNL     1       4.135 -10.921 -18.443  1.00  0.00     0.000 C 
BRANCH   4   5
ATOM      5  C   UNL     1       3.175  -9.736 -18.648  1.00  0.00     0.000 C 
BRANCH   5   6
ATOM      6  C   UNL     1       2.482  -9.297 -17.346  1.00  0.00     0.000 C 
BRANCH   6   7
ATOM      7  C   UNL     1       3.464  -9.166 -16.171  1.00  0.00     0.006 C 
BRANCH   7   8
ATOM      8  C   UNL     1       3.428  -7.776 -15.522  1.00  0.00     0.053 C 
BRANCH   8   9
ATOM      9  C   UNL     1       3.698  -7.880 -14.054  1.00  0.00     0.041 C 
ATOM     10  O   UNL     1       4.286  -8.891 -13.589  1.00  0.00    -0.550 OA
ATOM     11  O   UNL     1       3.259  -6.881 -13.194  1.00  0.00    -0.550 OA
ENDBRANCH   8   9
ENDBRANCH   7   8
ENDBRANCH   6   7
ENDBRANCH   5   6
ENDBRANCH   4   5
ENDBRANCH   3   4
ENDBRANCH   2   3
ENDBRANCH   1   2
BRANCH   1  12
ATOM     12  C   UNL     1       1.100 -14.740 -17.730  1.00  0.00     0.000 C 
BRANCH  12  13
ATOM     13  C   UNL     1       0.411 -15.922 -18.443  1.00  0.00    -0.000 C 
BRANCH  13  14
ATOM     14  C   UNL     1      -1.077 -15.708 -18.781  1.00  0.00    -0.000 C 
BRANCH  14  15
ATOM     15  C   UNL     1      -1.667 -16.730 -19.770  1.00  0.00    -0.000 C 
BRANCH  15  16
ATOM     16  C   UNL     1      -2.100 -18.038 -19.086  1.00  0.00    -0.000 C 
BRANCH  16  17
ATOM     17  C   UNL     1      -1.662 -19.285 -19.871  1.00  0.00    -0.000 C 
BRANCH  17  18
ATOM     18  C   UNL     1      -0.194 -19.662 -19.605  1.00  0.00    -0.000 C 
BRANCH  18  19
ATOM     19  C   UNL     1       0.072 -19.984 -18.126  1.00  0.00    -0.003 C 
ATOM     20  C   UNL     1       1.391 -19.396 -17.623  1.00  0.00     0.004 C 
ENDBRANCH  18  19
ENDBRANCH  17  18
ENDBRANCH  16  17
ENDBRANCH  15  16
ENDBRANCH  14  15
ENDBRANCH  13  14
ENDBRANCH  12  13
ENDBRANCH   1  12
TORSDOF 16
ENDMDL
MODEL 2
REMARK VINA RESULT:    -2.197      4.075      9.812
REMARK INTER + INTRA:          -5.342
REMARK INTER:                  -4.611
REMARK INTRA:                  -0.731
REMARK UNBOUND:                -1.090
REMARK SMILES CCCCCCCCCCCCCCCCCC(=O)[O-]
REMARK SMILES IDX 10 1 11 2 12 3 13 4 14 5 15 6 16 7 17 8 18 9 19 10 20 11
REMARK SMILES IDX 9 12 8 13 7 14 6 15 5 16 4 17 3 18 2 19 1 20
REMARK H PARENT
REMARK Flexibility Score: inf
ROOT
ATOM      1  C   UNL     1       1.443 -14.590 -17.806  1.00  0.00     0.000 C 
ENDROOT
BRANCH   1   2
ATOM      2  C   UNL     1       0.692 -15.812 -18.360  1.00  0.00     0.000 C 
BRANCH   2   3
ATOM      3  C   UNL     1      -0.831 -15.598 -18.426  1.00  0.00     0.000 C 
BRANCH   3   4
ATOM      4  C   UNL     1      -1.515 -16.116 -19.707  1.00  0.00     0.000 C 
BRANCH   4   5
ATOM      5  C   UNL     1      -1.534 -17.647 -19.868  1.00  0.00     0.000 C 
BRANCH   5   6
ATOM      6  C   UNL     1      -1.693 -18.387 -18.528  1.00  0.00     0.000 C 
BRANCH   6   7
ATOM      7  C   UNL     1      -1.009 -19.763 -18.531  1.00  0.00     0.006 C 
BRANCH   7   8
ATOM      8  C   UNL     1       0.502 -19.674 -18.280  1.00  0.00     0.053 C 
BRANCH   8   9
ATOM      9  C   UNL     1       0.806 -19.918 -16.836  1.00  0.00     0.041 C 
ATOM     10  O   UNL     1       2.001 -19.980 -16.442  1.00  0.00    -0.550 OA
ATOM     11  O   UNL     1      -0.229 -20.124 -15.932  1.00  0.00    -0.550 OA
ENDBRANCH   8   9
ENDBRANCH   7   8
ENDBRANCH   6   7
ENDBRANCH   5   6
ENDBRANCH   4   5
ENDBRANCH   3   4
ENDBRANCH   2   3
ENDBRANCH   1   2
BRANCH   1  12
ATOM     12  C   UNL     1       2.432 -13.987 -18.821  1.00  0.00     0.000 C 
BRANCH  12  13
ATOM     13  C   UNL     1       2.522 -12.446 -18.812  1.00  0.00    -0.000 C 
BRANCH  13  14
ATOM     14  C   UNL     1       3.921 -11.868 -19.099  1.00  0.00    -0.000 C 
BRANCH  14  15
ATOM     15  C   UNL     1       3.977 -10.333 -19.198  1.00  0.00    -0.000 C 
BRANCH  15  16
ATOM     16  C   UNL     1       2.905  -9.642 -18.338  1.00  0.00    -0.000 C 
BRANCH  16  17
ATOM     17  C   UNL     1       3.252  -9.659 -16.840  1.00  0.00    -0.000 C 
BRANCH  17  18
ATOM     18  C   UNL     1       3.198  -8.258 -16.207  1.00  0.00    -0.000 C 
BRANCH  18  19
ATOM     19  C   UNL     1       3.777  -8.232 -14.784  1.00  0.00    -0.003 C 
ATOM     20  C   UNL     1       3.408  -6.960 -14.021  1.00  0.00     0.004 C 
ENDBRANCH  18  19
ENDBRANCH  17  18
ENDBRANCH  16  17
ENDBRANCH  15  16
ENDBRANCH  14  15
ENDBRANCH  13  14
ENDBRANCH  12  13
ENDBRANCH   1  12
TORSDOF 16
ENDMDL
MODEL 3
REMARK VINA RESULT:    -2.081      4.101      9.686
REMARK INTER + INTRA:          -5.118
REMARK INTER:                  -4.729
REMARK INTRA:                  -0.389
REMARK UNBOUND:                -1.090
REMARK SMILES CCCCCCCCCCCCCCCCCC(=O)[O-]
REMARK SMILES IDX 10 1 11 2 12 3 13 4 14 5 15 6 16 7 17 8 18 9 19 10 20 11
REMARK SMILES IDX 9 12 8 13 7 14 6 15 5 16 4 17 3 18 2 19 1 20
REMARK H PARENT
REMARK Flexibility Score: inf
ROOT
ATOM      1  C   UNL     1       0.790 -15.790 -18.030  1.00  0.00     0.000 C 
ENDROOT
BRANCH   1   2
ATOM      2  C   UNL     1      -0.600 -15.437 -18.583  1.00  0.00     0.000 C 
BRANCH   2   3
ATOM      3  C   UNL     1      -1.521 -16.664 -18.713  1.00  0.00     0.000 C 
BRANCH   3   4
ATOM      4  C   UNL     1      -1.919 -17.040 -20.155  1.00  0.00     0.000 C 
BRANCH   4   5
ATOM      5  C   UNL     1      -1.823 -18.538 -20.493  1.00  0.00     0.000 C 
BRANCH   5   6
ATOM      6  C   UNL     1      -1.347 -19.390 -19.304  1.00  0.00     0.000 C 
BRANCH   6   7
ATOM      7  C   UNL     1       0.102 -19.873 -19.467  1.00  0.00     0.006 C 
BRANCH   7   8
ATOM      8  C   UNL     1       1.037 -19.319 -18.383  1.00  0.00     0.053 C 
BRANCH   8   9
ATOM      9  C   UNL     1       0.680 -19.890 -17.047  1.00  0.00     0.041 C 
ATOM     10  O   UNL     1      -0.524 -20.123 -16.759  1.00  0.00    -0.550 OA
ATOM     11  O   UNL     1       1.671 -20.119 -16.102  1.00  0.00    -0.550 OA
ENDBRANCH   8   9
ENDBRANCH   7   8
ENDBRANCH   6   7
ENDBRANCH   5   6
ENDBRANCH   4   5
ENDBRANCH   3   4
ENDBRANCH   2   3
ENDBRANCH   1   2
BRANCH   1  12
ATOM     12  C   UNL     1       1.656 -14.548 -17.755  1.00  0.00     0.000 C 
BRANCH  12  13
ATOM     13  C   UNL     1       2.283 -13.895 -19.005  1.00  0.00    -0.000 C 
BRANCH  13  14
ATOM     14  C   UNL     1       2.461 -12.366 -18.928  1.00  0.00    -0.000 C 
BRANCH  14  15
ATOM     15  C   UNL     1       3.920 -11.881 -19.009  1.00  0.00    -0.000 C 
BRANCH  15  16
ATOM     16  C   UNL     1       4.032 -10.351 -19.128  1.00  0.00    -0.000 C 
BRANCH  16  17
ATOM     17  C   UNL     1       2.874  -9.620 -18.430  1.00  0.00    -0.000 C 
BRANCH  17  18
ATOM     18  C   UNL     1       3.043  -9.575 -16.901  1.00  0.00    -0.000 C 
BRANCH  18  19
ATOM     19  C   UNL     1       3.120  -8.140 -16.359  1.00  0.00    -0.003 C 
ATOM     20  C   UNL     1       3.685  -8.075 -14.940  1.00  0.00     0.004 C 
ENDBRANCH  18  19
ENDBRANCH  17  18
ENDBRANCH  16  17
ENDBRANCH  15  16
ENDBRANCH  14  15
ENDBRANCH  13  14
ENDBRANCH  12  13
ENDBRANCH   1  12
TORSDOF 16
ENDMDL
MODEL 4
REMARK VINA RESULT:    -1.784      4.122     10.048
REMARK INTER + INTRA:          -4.543
REMARK INTER:                  -3.675
REMARK INTRA:                  -0.868
REMARK UNBOUND:                -1.090
REMARK SMILES CCCCCCCCCCCCCCCCCC(=O)[O-]
REMARK SMILES IDX 10 1 11 2 12 3 13 4 14 5 15 6 16 7 17 8 18 9 19 10 20 11
REMARK SMILES IDX 9 12 8 13 7 14 6 15 5 16 4 17 3 18 2 19 1 20
REMARK H PARENT
REMARK Flexibility Score: inf
ROOT
ATOM      1  C   UNL     1       3.275 -13.489 -19.144  1.00  0.00     0.000 C 
ENDROOT
BRANCH   1   2
ATOM      2  C   UNL     1       1.815 -13.653 -18.689  1.00  0.00     0.000 C 
BRANCH   2   3
ATOM      3  C   UNL     1       1.604 -14.885 -17.791  1.00  0.00     0.000 C 
BRANCH   3   4
ATOM      4  C   UNL     1       0.701 -15.986 -18.383  1.00  0.00     0.000 C 
BRANCH   4   5
ATOM      5  C   UNL     1      -0.775 -15.594 -18.573  1.00  0.00     0.000 C 
BRANCH   5   6
ATOM      6  C   UNL     1      -1.624 -16.730 -19.168  1.00  0.00     0.000 C 
BRANCH   6   7
ATOM      7  C   UNL     1      -0.779 -17.952 -19.563  1.00  0.00     0.006 C 
BRANCH   7   8
ATOM      8  C   UNL     1      -1.204 -19.228 -18.825  1.00  0.00     0.053 C 
BRANCH   8   9
ATOM      9  C   UNL     1      -0.175 -19.608 -17.806  1.00  0.00     0.041 C 
ATOM     10  O   UNL     1      -0.530 -20.081 -16.695  1.00  0.00    -0.550 OA
ATOM     11  O   UNL     1       1.172 -19.397 -18.067  1.00  0.00    -0.550 OA
ENDBRANCH   8   9
ENDBRANCH   7   8
ENDBRANCH   6   7
ENDBRANCH   5   6
ENDBRANCH   4   5
ENDBRANCH   3   4
ENDBRANCH   2   3
ENDBRANCH   1   2
BRANCH   1  12
ATOM     12  C   UNL     1       3.852 -12.101 -18.813  1.00  0.00     0.000 C 
BRANCH  12  13
ATOM     13  C   UNL     1       2.817 -10.958 -18.751  1.00  0.00    -0.000 C 
BRANCH  13  14
ATOM     14  C   UNL     1       3.338  -9.630 -18.167  1.00  0.00    -0.000 C 
BRANCH  14  15
ATOM     15  C   UNL     1       2.423  -8.987 -17.109  1.00  0.00    -0.000 C 
BRANCH  15  16
ATOM     16  C   UNL     1       3.204  -8.161 -16.072  1.00  0.00    -0.000 C 
BRANCH  16  17
ATOM     17  C   UNL     1       3.876  -9.039 -15.005  1.00  0.00    -0.000 C 
BRANCH  17  18
ATOM     18  C   UNL     1       4.009  -8.322 -13.650  1.00  0.00    -0.000 C 
BRANCH  18  19
ATOM     19  C   UNL     1       3.603  -6.842 -13.725  1.00  0.00    -0.003 C 
ATOM     20  C   UNL     1       2.551  -6.466 -12.682  1.00  0.00     0.004 C 
ENDBRANCH  18  19
ENDBRANCH  17  18
ENDBRANCH  16  17
ENDBRANCH  15  16
ENDBRANCH  14  15
ENDBRANCH  13  14
ENDBRANCH  12  13
ENDBRANCH   1  12
TORSDOF 16
ENDMDL
MODEL 5
REMARK VINA RESULT:    -1.723      3.311      4.158
REMARK INTER + INTRA:          -4.424
REMARK INTER:                  -3.327
REMARK INTRA:                  -1.097
REMARK UNBOUND:                -1.090
REMARK SMILES CCCCCCCCCCCCCCCCCC(=O)[O-]
REMARK SMILES IDX 10 1 11 2 12 3 13 4 14 5 15 6 16 7 17 8 18 9 19 10 20 11
REMARK SMILES IDX 9 12 8 13 7 14 6 15 5 16 4 17 3 18 2 19 1 20
REMARK H PARENT
REMARK Flexibility Score: inf
ROOT
ATOM      1  C   UNL     1       0.059 -16.201 -18.644  1.00  0.00     0.000 C 
ENDROOT
BRANCH   1   2
ATOM      2  C   UNL     1       0.627 -15.047 -17.801  1.00  0.00     0.000 C 
BRANCH   2   3
ATOM      3  C   UNL     1       2.026 -14.602 -18.264  1.00  0.00     0.000 C 
BRANCH   3   4
ATOM      4  C   UNL     1       2.078 -13.251 -19.005  1.00  0.00     0.000 C 
BRANCH   4   5
ATOM      5  C   UNL     1       3.290 -12.363 -18.669  1.00  0.00     0.000 C 
BRANCH   5   6
ATOM      6  C   UNL     1       3.112 -10.908 -19.135  1.00  0.00     0.000 C 
BRANCH   6   7
ATOM      7  C   UNL     1       4.391 -10.074 -18.963  1.00  0.00     0.006 C 
BRANCH   7   8
ATOM      8  C   UNL     1       5.664 -10.931 -18.989  1.00  0.00     0.053 C 
BRANCH   8   9
ATOM      9  C   UNL     1       6.310 -10.864 -20.337  1.00  0.00     0.041 C 
ATOM     10  O   UNL     1       7.565 -10.831 -20.436  1.00  0.00    -0.550 OA
ATOM     11  O   UNL     1       5.526 -10.791 -21.481  1.00  0.00    -0.550 OA
ENDBRANCH   8   9
ENDBRANCH   7   8
ENDBRANCH   6   7
ENDBRANCH   5   6
ENDBRANCH   4   5
ENDBRANCH   3   4
ENDBRANCH   2   3
ENDBRANCH   1   2
BRANCH   1  12
ATOM     12  C   UNL     1      -1.479 -16.192 -18.708  1.00  0.00     0.000 C 
BRANCH  12  13
ATOM     13  C   UNL     1      -2.078 -16.389 -20.116  1.00  0.00    -0.000 C 
BRANCH  13  14
ATOM     14  C   UNL     1      -1.653 -17.683 -20.836  1.00  0.00    -0.000 C 
BRANCH  14  15
ATOM     15  C   UNL     1      -2.125 -18.983 -20.159  1.00  0.00    -0.000 C 
BRANCH  15  16
ATOM     16  C   UNL     1      -1.042 -20.076 -20.150  1.00  0.00    -0.000 C 
BRANCH  16  17
ATOM     17  C   UNL     1       0.290 -19.579 -19.565  1.00  0.00    -0.000 C 
BRANCH  17  18
ATOM     18  C   UNL     1       0.326 -19.663 -18.029  1.00  0.00    -0.000 C 
BRANCH  18  19
ATOM     19  C   UNL     1       1.742 -19.483 -17.462  1.00  0.00    -0.003 C 
ATOM     20  C   UNL     1       1.885 -20.039 -16.045  1.00  0.00     0.004 C 
ENDBRANCH  18  19
ENDBRANCH  17  18
ENDBRANCH  16  17
ENDBRANCH  15  16
ENDBRANCH  14  15
ENDBRANCH  13  14
ENDBRANCH  12  13
ENDBRANCH   1  12
TORSDOF 16
ENDMDL
MODEL 6
REMARK VINA RESULT:    -1.720      1.838      3.113
REMARK INTER + INTRA:          -4.420
REMARK INTER:                  -3.363
REMARK INTRA:                  -1.056
REMARK UNBOUND:                -1.090
REMARK SMILES CCCCCCCCCCCCCCCCCC(=O)[O-]
REMARK SMILES IDX 10 1 11 2 12 3 13 4 14 5 15 6 16 7 17 8 18 9 19 10 20 11
REMARK SMILES IDX 9 12 8 13 7 14 6 15 5 16 4 17 3 18 2 19 1 20
REMARK H PARENT
REMARK Flexibility Score: inf
ROOT
ATOM      1  C   UNL     1       0.228 -16.292 -18.381  1.00  0.00     0.000 C 
ENDROOT
BRANCH   1   2
ATOM      2  C   UNL     1       1.277 -15.338 -17.786  1.00  0.00     0.000 C 
BRANCH   2   3
ATOM      3  C   UNL     1       1.580 -14.139 -18.703  1.00  0.00     0.000 C 
BRANCH   3   4
ATOM      4  C   UNL     1       2.784 -13.272 -18.279  1.00  0.00     0.000 C 
BRANCH   4   5
ATOM      5  C   UNL     1       3.483 -12.515 -19.422  1.00  0.00     0.000 C 
BRANCH   5   6
ATOM      6  C   UNL     1       4.815 -11.879 -18.991  1.00  0.00     0.000 C 
BRANCH   6   7
ATOM      7  C   UNL     1       4.724 -10.350 -18.863  1.00  0.00     0.006 C 
BRANCH   7   8
ATOM      8  C   UNL     1       3.310  -9.818 -19.132  1.00  0.00     0.053 C 
BRANCH   8   9
ATOM      9  C   UNL     1       2.617  -9.505 -17.843  1.00  0.00     0.041 C 
ATOM     10  O   UNL     1       1.359  -9.464 -17.795  1.00  0.00    -0.550 OA
ATOM     11  O   UNL     1       3.360  -9.213 -16.707  1.00  0.00    -0.550 OA
ENDBRANCH   8   9
ENDBRANCH   7   8
ENDBRANCH   6   7
ENDBRANCH   5   6
ENDBRANCH   4   5
ENDBRANCH   3   4
ENDBRANCH   2   3
ENDBRANCH   1   2
BRANCH   1  12
ATOM     12  C   UNL     1      -1.114 -15.598 -18.674  1.00  0.00     0.000 C 
BRANCH  12  13
ATOM     13  C   UNL     1      -2.104 -16.418 -19.527  1.00  0.00    -0.000 C 
BRANCH  13  14
ATOM     14  C   UNL     1      -1.472 -17.543 -20.368  1.00  0.00    -0.000 C 
BRANCH  14  15
ATOM     15  C   UNL     1      -2.078 -18.940 -20.138  1.00  0.00    -0.000 C 
BRANCH  15  16
ATOM     16  C   UNL     1      -1.014 -20.006 -19.829  1.00  0.00    -0.000 C 
BRANCH  16  17
ATOM     17  C   UNL     1      -0.581 -19.996 -18.355  1.00  0.00    -0.000 C 
BRANCH  17  18
ATOM     18  C   UNL     1       0.876 -19.537 -18.171  1.00  0.00    -0.000 C 
BRANCH  18  19
ATOM     19  C   UNL     1       1.457 -19.949 -16.810  1.00  0.00    -0.003 C 
ATOM     20  C   UNL     1       0.381 -20.125 -15.739  1.00  0.00     0.004 C 
ENDBRANCH  18  19
ENDBRANCH  17  18
ENDBRANCH  16  17
ENDBRANCH  15  16
ENDBRANCH  14  15
ENDBRANCH  13  14
ENDBRANCH  12  13
ENDBRANCH   1  12
TORSDOF 16
ENDMDL
MODEL 7
REMARK VINA RESULT:    -1.658      4.501      9.932
REMARK INTER + INTRA:          -4.299
REMARK INTER:                  -3.581
REMARK INTRA:                  -0.718
REMARK UNBOUND:                -1.090
REMARK SMILES CCCCCCCCCCCCCCCCCC(=O)[O-]
REMARK SMILES IDX 10 1 11 2 12 3 13 4 14 5 15 6 16 7 17 8 18 9 19 10 20 11
REMARK SMILES IDX 9 12 8 13 7 14 6 15 5 16 4 17 3 18 2 19 1 20
REMARK H PARENT
REMARK Flexibility Score: inf
ROOT
ATOM      1  C   UNL     1       0.708 -15.729 -18.631  1.00  0.00     0.000 C 
ENDROOT
BRANCH   1   2
ATOM      2  C   UNL     1      -0.689 -15.622 -17.998  1.00  0.00     0.000 C 
BRANCH   2   3
ATOM      3  C   UNL     1      -1.816 -16.017 -18.969  1.00  0.00     0.000 C 
BRANCH   3   4
ATOM      4  C   UNL     1      -2.072 -17.533 -19.101  1.00  0.00     0.000 C 
BRANCH   4   5
ATOM      5  C   UNL     1      -2.043 -18.081 -20.539  1.00  0.00     0.000 C 
BRANCH   5   6
ATOM      6  C   UNL     1      -1.497 -19.516 -20.620  1.00  0.00     0.000 C 
BRANCH   6   7
ATOM      7  C   UNL     1      -1.231 -20.125 -19.235  1.00  0.00     0.006 C 
BRANCH   7   8
ATOM      8  C   UNL     1       0.251 -20.075 -18.841  1.00  0.00     0.053 C 
BRANCH   8   9
ATOM      9  C   UNL     1       0.392 -19.978 -17.354  1.00  0.00     0.041 C 
ATOM     10  O   UNL     1      -0.625 -20.053 -16.616  1.00  0.00    -0.550 OA
ATOM     11  O   UNL     1       1.641 -19.758 -16.787  1.00  0.00    -0.550 OA
ENDBRANCH   8   9
ENDBRANCH   7   8
ENDBRANCH   6   7
ENDBRANCH   5   6
ENDBRANCH   4   5
ENDBRANCH   3   4
ENDBRANCH   2   3
ENDBRANCH   1   2
BRANCH   1  12
ATOM     12  C   UNL     1       1.727 -14.763 -17.999  1.00  0.00     0.000 C 
BRANCH  12  13
ATOM     13  C   UNL     1       1.953 -13.449 -18.774  1.00  0.00    -0.000 C 
BRANCH  13  14
ATOM     14  C   UNL     1       3.368 -12.850 -18.655  1.00  0.00    -0.000 C 
BRANCH  14  15
ATOM     15  C   UNL     1       3.437 -11.320 -18.808  1.00  0.00    -0.000 C 
BRANCH  15  16
ATOM     16  C   UNL     1       4.458 -10.875 -19.869  1.00  0.00    -0.000 C 
BRANCH  16  17
ATOM     17  C   UNL     1       5.900 -11.253 -19.494  1.00  0.00    -0.000 C 
BRANCH  17  18
ATOM     18  C   UNL     1       6.878 -11.084 -20.669  1.00  0.00    -0.000 C 
BRANCH  18  19
ATOM     19  C   UNL     1       8.171 -10.361 -20.260  1.00  0.00    -0.003 C 
ATOM     20  C   UNL     1       9.046  -9.996 -21.459  1.00  0.00     0.004 C 
ENDBRANCH  18  19
ENDBRANCH  17  18
ENDBRANCH  16  17
ENDBRANCH  15  16
ENDBRANCH  14  15
ENDBRANCH  13  14
ENDBRANCH  12  13
ENDBRANCH   1  12
TORSDOF 16
ENDMDL
MODEL 8
REMARK VINA RESULT:    -1.156      2.907      3.684
REMARK INTER + INTRA:          -3.327
REMARK INTER:                  -2.940
REMARK INTRA:                  -0.387
REMARK UNBOUND:                -1.090
REMARK SMILES CCCCCCCCCCCCCCCCCC(=O)[O-]
REMARK SMILES IDX 10 1 11 2 12 3 13 4 14 5 15 6 16 7 17 8 18 9 19 10 20 11
REMARK SMILES IDX 9 12 8 13 7 14 6 15 5 16 4 17 3 18 2 19 1 20
REMARK H PARENT
REMARK Flexibility Score: inf
ROOT
ATOM      1  C   UNL     1       1.426 -15.091 -18.752  1.00  0.00     0.000 C 
ENDROOT
BRANCH   1   2
ATOM      2  C   UNL     1       2.169 -14.099 -17.842  1.00  0.00     0.000 C 
BRANCH   2   3
ATOM      3  C   UNL     1       3.008 -13.078 -18.632  1.00  0.00     0.000 C 
BRANCH   3   4
ATOM      4  C   UNL     1       2.274 -11.777 -19.016  1.00  0.00     0.000 C 
BRANCH   4   5
ATOM      5  C   UNL     1       2.832 -10.494 -18.376  1.00  0.00     0.000 C 
BRANCH   5   6
ATOM      6  C   UNL     1       4.110  -9.988 -19.068  1.00  0.00     0.000 C 
BRANCH   6   7
ATOM      7  C   UNL     1       4.139 -10.322 -20.568  1.00  0.00     0.006 C 
BRANCH   7   8
ATOM      8  C   UNL     1       5.557 -10.598 -21.084  1.00  0.00     0.053 C 
BRANCH   8   9
ATOM      9  C   UNL     1       6.441 -11.052 -19.965  1.00  0.00     0.041 C 
ATOM     10  O   UNL     1       5.979 -11.789 -19.054  1.00  0.00    -0.550 OA
ATOM     11  O   UNL     1       7.761 -10.625 -19.904  1.00  0.00    -0.550 OA
ENDBRANCH   8   9
ENDBRANCH   7   8
ENDBRANCH   6   7
ENDBRANCH   5   6
ENDBRANCH   4   5
ENDBRANCH   3   4
ENDBRANCH   2   3
ENDBRANCH   1   2
BRANCH   1  12
ATOM     12  C   UNL     1       0.329 -15.876 -18.010  1.00  0.00     0.000 C 
BRANCH  12  13
ATOM     13  C   UNL     1      -1.103 -15.665 -18.543  1.00  0.00    -0.000 C 
BRANCH  13  14
ATOM     14  C   UNL     1      -1.925 -16.952 -18.747  1.00  0.00    -0.000 C 
BRANCH  14  15
ATOM     15  C   UNL     1      -1.882 -17.526 -20.176  1.00  0.00    -0.000 C 
BRANCH  15  16
ATOM     16  C   UNL     1      -1.628 -19.043 -20.199  1.00  0.00    -0.000 C 
BRANCH  16  17
ATOM     17  C   UNL     1      -1.004 -19.556 -18.892  1.00  0.00    -0.000 C 
BRANCH  17  18
ATOM     18  C   UNL     1       0.519 -19.745 -19.001  1.00  0.00    -0.000 C 
BRANCH  18  19
ATOM     19  C   UNL     1       1.257 -19.340 -17.716  1.00  0.00    -0.003 C 
ATOM     20  C   UNL     1       0.750 -20.090 -16.484  1.00  0.00     0.004 C 
ENDBRANCH  18  19
ENDBRANCH  17  18
ENDBRANCH  16  17
ENDBRANCH  15  16
ENDBRANCH  14  15
ENDBRANCH  13  14
ENDBRANCH  12  13
ENDBRANCH   1  12
TORSDOF 16
ENDMDL
MODEL 9
REMARK VINA RESULT:    -1.087      0.896      1.999
REMARK INTER + INTRA:          -3.193
REMARK INTER:                  -2.299
REMARK INTRA:                  -0.895
REMARK UNBOUND:                -1.090
REMARK SMILES CCCCCCCCCCCCCCCCCC(=O)[O-]
REMARK SMILES IDX 10 1 11 2 12 3 13 4 14 5 15 6 16 7 17 8 18 9 19 10 20 11
REMARK SMILES IDX 9 12 8 13 7 14 6 15 5 16 4 17 3 18 2 19 1 20
REMARK H PARENT
REMARK Flexibility Score: inf
ROOT
ATOM      1  C   UNL     1       3.831 -12.764 -18.359  1.00  0.00     0.000 C 
ENDROOT
BRANCH   1   2
ATOM      2  C   UNL     1       4.628 -12.037 -19.455  1.00  0.00     0.000 C 
BRANCH   2   3
ATOM      3  C   UNL     1       4.015 -10.677 -19.836  1.00  0.00     0.000 C 
BRANCH   3   4
ATOM      4  C   UNL     1       3.725  -9.729 -18.655  1.00  0.00     0.000 C 
BRANCH   4   5
ATOM      5  C   UNL     1       2.255  -9.671 -18.205  1.00  0.00     0.000 C 
BRANCH   5   6
ATOM      6  C   UNL     1       2.087  -9.108 -16.784  1.00  0.00     0.000 C 
BRANCH   6   7
ATOM      7  C   UNL     1       3.432  -8.787 -16.114  1.00  0.00     0.006 C 
BRANCH   7   8
ATOM      8  C   UNL     1       3.402  -7.470 -15.327  1.00  0.00     0.053 C 
BRANCH   8   9
ATOM      9  C   UNL     1       3.669  -7.723 -13.877  1.00  0.00     0.041 C 
ATOM     10  O   UNL     1       4.262  -8.774 -13.517  1.00  0.00    -0.550 OA
ATOM     11  O   UNL     1       3.222  -6.822 -12.919  1.00  0.00    -0.550 OA
ENDBRANCH   8   9
ENDBRANCH   7   8
ENDBRANCH   6   7
ENDBRANCH   5   6
ENDBRANCH   4   5
ENDBRANCH   3   4
ENDBRANCH   2   3
ENDBRANCH   1   2
BRANCH   1  12
ATOM     12  C   UNL     1       2.475 -13.293 -18.859  1.00  0.00     0.000 C 
BRANCH  12  13
ATOM     13  C   UNL     1       2.096 -14.703 -18.358  1.00  0.00    -0.000 C 
BRANCH  13  14
ATOM     14  C   UNL     1       0.624 -14.877 -17.938  1.00  0.00    -0.000 C 
BRANCH  14  15
ATOM     15  C   UNL     1      -0.053 -16.153 -18.471  1.00  0.00    -0.000 C 
BRANCH  15  16
ATOM     16  C   UNL     1       0.958 -17.247 -18.854  1.00  0.00    -0.000 C 
BRANCH  16  17
ATOM     17  C   UNL     1       0.800 -18.518 -18.005  1.00  0.00    -0.000 C 
BRANCH  17  18
ATOM     18  C   UNL     1      -0.355 -19.411 -18.491  1.00  0.00    -0.000 C 
BRANCH  18  19
ATOM     19  C   UNL     1      -0.513 -19.389 -20.019  1.00  0.00    -0.003 C 
ATOM     20  C   UNL     1      -1.800 -18.698 -20.470  1.00  0.00     0.004 C 
ENDBRANCH  18  19
ENDBRANCH  17  18
ENDBRANCH  16  17
ENDBRANCH  15  16
ENDBRANCH  14  15
ENDBRANCH  13  14
ENDBRANCH  12  13
ENDBRANCH   1  12
TORSDOF 16
ENDMDL
