MODEL 1
REMARK VINA RESULT:    -4.624      0.000      0.000
REMARK INTER + INTRA:          -7.489
REMARK INTER:                  -7.056
REMARK INTRA:                  -0.433
REMARK UNBOUND:                -0.433
REMARK SMILES CCCCCCCCCC=CC(=O)[O-]
REMARK SMILES IDX 7 1 8 2 9 3 10 4 11 5 12 6 13 7 14 8 6 9 5 10 4 11 3 12 2 13
REMARK SMILES IDX 1 14
REMARK H PARENT
REMARK Flexibility Score: inf
ROOT
ATOM      1  C   UNL     1       2.119  -0.308  18.270  1.00  0.00     0.000 C 
ENDROOT
BRANCH   1   2
ATOM      2  C   UNL     1       1.515  -1.699  18.004  1.00  0.00     0.004 C 
BRANCH   2   3
ATOM      3  C   UNL     1       1.235  -2.462  19.310  1.00  0.00     0.027 C 
BRANCH   3   4
ATOM      4  C   UNL     1       1.431  -3.948  19.158  1.00  0.00    -0.025 C 
ATOM      5  C   UNL     1       2.059  -4.757  20.027  1.00  0.00     0.020 C 
BRANCH   5   6
ATOM      6  C   UNL     1       2.724  -4.351  21.283  1.00  0.00     0.064 C 
ATOM      7  O   UNL     1       2.014  -4.012  22.265  1.00  0.00    -0.545 OA
ATOM      8  O   UNL     1       4.105  -4.361  21.428  1.00  0.00    -0.545 OA
ENDBRANCH   5   6
ENDBRANCH   3   4
ENDBRANCH   2   3
ENDBRANCH   1   2
BRANCH   1   9
ATOM      9  C   UNL     1       2.257   0.532  16.990  1.00  0.00     0.000 C 
BRANCH   9  10
ATOM     10  C   UNL     1       3.134   1.777  17.193  1.00  0.00     0.000 C 
BRANCH  10  11
ATOM     11  C   UNL     1       3.574   1.965  18.656  1.00  0.00    -0.000 C 
BRANCH  11  12
ATOM     12  C   UNL     1       4.739   2.962  18.830  1.00  0.00    -0.000 C 
BRANCH  12  13
ATOM     13  C   UNL     1       6.054   2.258  19.198  1.00  0.00    -0.003 C 
ATOM     14  C   UNL     1       7.134   2.529  18.155  1.00  0.00     0.004 C 
ENDBRANCH  12  13
ENDBRANCH  11  12
ENDBRANCH  10  11
ENDBRANCH   9  10
ENDBRANCH   1   9
TORSDOF 9
ENDMDL
MODEL 2
REMARK VINA RESULT:    -4.331     11.097     14.721
REMARK INTER + INTRA:          -7.043
REMARK INTER:                  -6.397
REMARK INTRA:                  -0.646
REMARK UNBOUND:                -0.433
REMARK SMILES CCCCCCCCCC=CC(=O)[O-]
REMARK SMILES IDX 7 1 8 2 9 3 10 4 11 5 12 6 13 7 14 8 6 9 5 10 4 11 3 12 2 13
REMARK SMILES IDX 1 14
REMARK H PARENT
REMARK Flexibility Score: inf
ROOT
ATOM      1  C   UNL     1      11.777 -10.308  26.902  1.00  0.00     0.000 C 
ENDROOT
BRANCH   1   2
ATOM      2  C   UNL     1      10.741  -9.361  27.534  1.00  0.00     0.004 C 
BRANCH   2   3
ATOM      3  C   UNL     1      10.401  -8.180  26.608  1.00  0.00     0.027 C 
BRANCH   3   4
ATOM      4  C   UNL     1       9.203  -7.403  27.087  1.00  0.00    -0.025 C 
ATOM      5  C   UNL     1       8.596  -6.401  26.431  1.00  0.00     0.020 C 
BRANCH   5   6
ATOM      6  C   UNL     1       9.004  -5.824  25.132  1.00  0.00     0.064 C 
ATOM      7  O   UNL     1       9.812  -4.860  25.123  1.00  0.00    -0.545 OA
ATOM      8  O   UNL     1       8.551  -6.330  23.921  1.00  0.00    -0.545 OA
ENDBRANCH   5   6
ENDBRANCH   3   4
ENDBRANCH   2   3
ENDBRANCH   1   2
BRANCH   1   9
ATOM      9  C   UNL     1      11.940 -10.083  25.390  1.00  0.00     0.000 C 
BRANCH   9  10
ATOM     10  C   UNL     1      12.618 -11.269  24.687  1.00  0.00     0.000 C 
BRANCH  10  11
ATOM     11  C   UNL     1      11.616 -12.191  23.970  1.00  0.00    -0.000 C 
BRANCH  11  12
ATOM     12  C   UNL     1      11.672 -13.658  24.445  1.00  0.00    -0.000 C 
BRANCH  12  13
ATOM     13  C   UNL     1      12.258 -13.787  25.859  1.00  0.00    -0.003 C 
ATOM     14  C   UNL     1      13.346 -14.855  25.910  1.00  0.00     0.004 C 
ENDBRANCH  12  13
ENDBRANCH  11  12
ENDBRANCH  10  11
ENDBRANCH   9  10
ENDBRANCH   1   9
TORSDOF 9
ENDMDL
MODEL 3
REMARK VINA RESULT:    -4.321      1.613      2.876
REMARK INTER + INTRA:          -7.027
REMARK INTER:                  -6.557
REMARK INTRA:                  -0.470
REMARK UNBOUND:                -0.433
REMARK SMILES CCCCCCCCCC=CC(=O)[O-]
REMARK SMILES IDX 7 1 8 2 9 3 10 4 11 5 12 6 13 7 14 8 6 9 5 10 4 11 3 12 2 13
REMARK SMILES IDX 1 14
REMARK H PARENT
REMARK Flexibility Score: inf
ROOT
ATOM      1  C   UNL     1       1.612  -2.967  19.389  1.00  0.00     0.000 C 
ENDROOT
BRANCH   1   2
ATOM      2  C   UNL     1       1.035  -3.273  20.782  1.00  0.00     0.004 C 
BRANCH   2   3
ATOM      3  C   UNL     1       2.069  -3.951  21.697  1.00  0.00     0.027 C 
BRANCH   3   4
ATOM      4  C   UNL     1       2.908  -4.963  20.960  1.00  0.00    -0.025 C 
ATOM      5  C   UNL     1       4.214  -5.203  21.159  1.00  0.00     0.020 C 
BRANCH   5   6
ATOM      6  C   UNL     1       5.105  -4.496  22.103  1.00  0.00     0.064 C 
ATOM      7  O   UNL     1       5.177  -4.904  23.292  1.00  0.00    -0.545 OA
ATOM      8  O   UNL     1       5.890  -3.417  21.717  1.00  0.00    -0.545 OA
ENDBRANCH   5   6
ENDBRANCH   3   4
ENDBRANCH   2   3
ENDBRANCH   1   2
BRANCH   1   9
ATOM      9  C   UNL     1       1.188  -1.587  18.862  1.00  0.00     0.000 C 
BRANCH   9  10
ATOM     10  C   UNL     1       1.809  -1.260  17.495  1.00  0.00     0.000 C 
BRANCH  10  11
ATOM     11  C   UNL     1       2.013   0.249  17.277  1.00  0.00    -0.000 C 
BRANCH  11  12
ATOM     12  C   UNL     1       2.872   0.924  18.367  1.00  0.00    -0.000 C 
BRANCH  12  13
ATOM     13  C   UNL     1       3.391   2.301  17.926  1.00  0.00    -0.003 C 
ATOM     14  C   UNL     1       4.253   2.938  19.011  1.00  0.00     0.004 C 
ENDBRANCH  12  13
ENDBRANCH  11  12
ENDBRANCH  10  11
ENDBRANCH   9  10
ENDBRANCH   1   9
TORSDOF 9
ENDMDL
MODEL 4
REMARK VINA RESULT:    -4.290     13.909     15.513
REMARK INTER + INTRA:          -6.980
REMARK INTER:                  -6.173
REMARK INTRA:                  -0.808
REMARK UNBOUND:                -0.433
REMARK SMILES CCCCCCCCCC=CC(=O)[O-]
REMARK SMILES IDX 7 1 8 2 9 3 10 4 11 5 12 6 13 7 14 8 6 9 5 10 4 11 3 12 2 13
REMARK SMILES IDX 1 14
REMARK H PARENT
REMARK Flexibility Score: inf
ROOT
ATOM      1  C   UNL     1      11.848 -10.286  27.073  1.00  0.00     0.000 C 
ENDROOT
BRANCH   1   2
ATOM      2  C   UNL     1      10.857 -10.446  28.240  1.00  0.00     0.004 C 
BRANCH   2   3
ATOM      3  C   UNL     1       9.792  -9.336  28.245  1.00  0.00     0.027 C 
BRANCH   3   4
ATOM      4  C   UNL     1      10.008  -8.340  29.355  1.00  0.00    -0.025 C 
ATOM      5  C   UNL     1       9.691  -8.516  30.649  1.00  0.00     0.020 C 
BRANCH   5   6
ATOM      6  C   UNL     1       9.025  -9.696  31.239  1.00  0.00     0.064 C 
ATOM      7  O   UNL     1       9.735 -10.639  31.675  1.00  0.00    -0.545 OA
ATOM      8  O   UNL     1       7.644  -9.786  31.358  1.00  0.00    -0.545 OA
ENDBRANCH   5   6
ENDBRANCH   3   4
ENDBRANCH   2   3
ENDBRANCH   1   2
BRANCH   1   9
ATOM      9  C   UNL     1      11.375  -9.260  26.030  1.00  0.00     0.000 C 
BRANCH   9  10
ATOM     10  C   UNL     1      11.387  -9.824  24.600  1.00  0.00     0.000 C 
BRANCH  10  11
ATOM     11  C   UNL     1      12.194 -11.129  24.480  1.00  0.00    -0.000 C 
BRANCH  11  12
ATOM     12  C   UNL     1      11.505 -12.207  23.617  1.00  0.00    -0.000 C 
BRANCH  12  13
ATOM     13  C   UNL     1      11.700 -13.619  24.190  1.00  0.00    -0.003 C 
ATOM     14  C   UNL     1      12.208 -13.565  25.628  1.00  0.00     0.004 C 
ENDBRANCH  12  13
ENDBRANCH  11  12
ENDBRANCH  10  11
ENDBRANCH   9  10
ENDBRANCH   1   9
TORSDOF 9
ENDMDL
MODEL 5
REMARK VINA RESULT:    -4.251     14.294     16.299
REMARK INTER + INTRA:          -6.921
REMARK INTER:                  -6.108
REMARK INTRA:                  -0.813
REMARK UNBOUND:                -0.433
REMARK SMILES CCCCCCCCCC=CC(=O)[O-]
REMARK SMILES IDX 7 1 8 2 9 3 10 4 11 5 12 6 13 7 14 8 6 9 5 10 4 11 3 12 2 13
REMARK SMILES IDX 1 14
REMARK H PARENT
REMARK Flexibility Score: inf
ROOT
ATOM      1  C   UNL     1       9.921  -9.601  28.856  1.00  0.00     0.000 C 
ENDROOT
BRANCH   1   2
ATOM      2  C   UNL     1      10.490  -8.640  27.796  1.00  0.00     0.004 C 
BRANCH   2   3
ATOM      3  C   UNL     1      11.385  -9.369  26.780  1.00  0.00     0.027 C 
BRANCH   3   4
ATOM      4  C   UNL     1      11.690 -10.784  27.199  1.00  0.00    -0.025 C 
ATOM      5  C   UNL     1      12.233 -11.738  26.425  1.00  0.00     0.020 C 
BRANCH   5   6
ATOM      6  C   UNL     1      12.597 -11.613  24.998  1.00  0.00     0.064 C 
ATOM      7  O   UNL     1      11.773 -11.992  24.125  1.00  0.00    -0.545 OA
ATOM      8  O   UNL     1      13.804 -11.063  24.585  1.00  0.00    -0.545 OA
ENDBRANCH   5   6
ENDBRANCH   3   4
ENDBRANCH   2   3
ENDBRANCH   1   2
BRANCH   1   9
ATOM      9  C   UNL     1       9.070  -8.880  29.914  1.00  0.00     0.000 C 
BRANCH   9  10
ATOM     10  C   UNL     1       9.921  -8.078  30.910  1.00  0.00     0.000 C 
BRANCH  10  11
ATOM     11  C   UNL     1      10.321  -8.898  32.149  1.00  0.00    -0.000 C 
BRANCH  11  12
ATOM     12  C   UNL     1       9.301  -9.995  32.523  1.00  0.00    -0.000 C 
BRANCH  12  13
ATOM     13  C   UNL     1       9.975 -11.351  32.777  1.00  0.00    -0.003 C 
ATOM     14  C   UNL     1      10.014 -12.194  31.506  1.00  0.00     0.004 C 
ENDBRANCH  12  13
ENDBRANCH  11  12
ENDBRANCH  10  11
ENDBRANCH   9  10
ENDBRANCH   1   9
TORSDOF 9
ENDMDL
MODEL 6
REMARK VINA RESULT:    -4.225     14.654     17.104
REMARK INTER + INTRA:          -6.880
REMARK INTER:                  -5.995
REMARK INTRA:                  -0.886
REMARK UNBOUND:                -0.433
REMARK SMILES CCCCCCCCCC=CC(=O)[O-]
REMARK SMILES IDX 7 1 8 2 9 3 10 4 11 5 12 6 13 7 14 8 6 9 5 10 4 11 3 12 2 13
REMARK SMILES IDX 1 14
REMARK H PARENT
REMARK Flexibility Score: inf
ROOT
ATOM      1  C   UNL     1      11.877 -13.719  24.395  1.00  0.00     0.000 C 
ENDROOT
BRANCH   1   2
ATOM      2  C   UNL     1      12.162 -13.619  25.905  1.00  0.00     0.004 C 
BRANCH   2   3
ATOM      3  C   UNL     1      13.095 -14.741  26.389  1.00  0.00     0.027 C 
BRANCH   3   4
ATOM      4  C   UNL     1      13.981 -15.264  25.288  1.00  0.00    -0.025 C 
ATOM      5  C   UNL     1      15.292 -15.009  25.138  1.00  0.00     0.020 C 
BRANCH   5   6
ATOM      6  C   UNL     1      16.120 -14.131  25.990  1.00  0.00     0.064 C 
ATOM      7  O   UNL     1      16.997 -14.652  26.729  1.00  0.00    -0.545 OA
ATOM      8  O   UNL     1      15.988 -12.748  25.981  1.00  0.00    -0.545 OA
ENDBRANCH   5   6
ENDBRANCH   3   4
ENDBRANCH   2   3
ENDBRANCH   1   2
BRANCH   1   9
ATOM      9  C   UNL     1      11.522 -12.361  23.768  1.00  0.00     0.000 C 
BRANCH   9  10
ATOM     10  C   UNL     1      12.330 -11.202  24.372  1.00  0.00     0.000 C 
BRANCH  10  11
ATOM     11  C   UNL     1      11.457  -9.987  24.728  1.00  0.00    -0.000 C 
BRANCH  11  12
ATOM     12  C   UNL     1      11.835  -9.321  26.068  1.00  0.00    -0.000 C 
BRANCH  12  13
ATOM     13  C   UNL     1      11.525 -10.224  27.271  1.00  0.00    -0.003 C 
ATOM     14  C   UNL     1      10.370  -9.665  28.097  1.00  0.00     0.004 C 
ENDBRANCH  12  13
ENDBRANCH  11  12
ENDBRANCH  10  11
ENDBRANCH   9  10
ENDBRANCH   1   9
TORSDOF 9
ENDMDL
MODEL 7
REMARK VINA RESULT:    -4.198     11.005     13.606
REMARK INTER + INTRA:          -6.840
REMARK INTER:                  -5.738
REMARK INTRA:                  -1.101
REMARK UNBOUND:                -0.433
REMARK SMILES CCCCCCCCCC=CC(=O)[O-]
REMARK SMILES IDX 7 1 8 2 9 3 10 4 11 5 12 6 13 7 14 8 6 9 5 10 4 11 3 12 2 13
REMARK SMILES IDX 1 14
REMARK H PARENT
REMARK Flexibility Score: inf
ROOT
ATOM      1  C   UNL     1      10.996  -9.506  25.876  1.00  0.00     0.000 C 
ENDROOT
BRANCH   1   2
ATOM      2  C   UNL     1      11.662 -10.216  27.069  1.00  0.00     0.004 C 
BRANCH   2   3
ATOM      3  C   UNL     1      10.744 -10.248  28.303  1.00  0.00     0.027 C 
BRANCH   3   4
ATOM      4  C   UNL     1       9.686  -9.177  28.258  1.00  0.00    -0.025 C 
ATOM      5  C   UNL     1       9.092  -8.606  29.319  1.00  0.00     0.020 C 
BRANCH   5   6
ATOM      6  C   UNL     1       9.317  -8.943  30.741  1.00  0.00     0.064 C 
ATOM      7  O   UNL     1      10.157  -8.274  31.398  1.00  0.00    -0.545 OA
ATOM      8  O   UNL     1       8.612  -9.951  31.385  1.00  0.00    -0.545 OA
ENDBRANCH   5   6
ENDBRANCH   3   4
ENDBRANCH   2   3
ENDBRANCH   1   2
BRANCH   1   9
ATOM      9  C   UNL     1      11.950  -8.542  25.153  1.00  0.00     0.000 C 
BRANCH   9  10
ATOM     10  C   UNL     1      12.282  -7.299  25.994  1.00  0.00     0.000 C 
BRANCH  10  11
ATOM     11  C   UNL     1      11.026  -6.584  26.522  1.00  0.00    -0.000 C 
BRANCH  11  12
ATOM     12  C   UNL     1      10.576  -5.394  25.647  1.00  0.00    -0.000 C 
BRANCH  12  13
ATOM     13  C   UNL     1       9.070  -5.435  25.346  1.00  0.00    -0.003 C 
ATOM     14  C   UNL     1       8.308  -6.172  26.444  1.00  0.00     0.004 C 
ENDBRANCH  12  13
ENDBRANCH  11  12
ENDBRANCH  10  11
ENDBRANCH   9  10
ENDBRANCH   1   9
TORSDOF 9
ENDMDL
MODEL 8
REMARK VINA RESULT:    -4.173     14.440     17.725
REMARK INTER + INTRA:          -6.802
REMARK INTER:                  -5.476
REMARK INTRA:                  -1.326
REMARK UNBOUND:                -0.433
REMARK SMILES CCCCCCCCCC=CC(=O)[O-]
REMARK SMILES IDX 7 1 8 2 9 3 10 4 11 5 12 6 13 7 14 8 6 9 5 10 4 11 3 12 2 13
REMARK SMILES IDX 1 14
REMARK H PARENT
REMARK Flexibility Score: inf
ROOT
ATOM      1  C   UNL     1      10.218 -10.326  33.886  1.00  0.00     0.000 C 
ENDROOT
BRANCH   1   2
ATOM      2  C   UNL     1       9.899 -11.403  32.833  1.00  0.00     0.004 C 
BRANCH   2   3
ATOM      3  C   UNL     1       9.793 -10.809  31.419  1.00  0.00     0.027 C 
BRANCH   3   4
ATOM      4  C   UNL     1       9.752  -9.303  31.431  1.00  0.00    -0.025 C 
ATOM      5  C   UNL     1       9.592  -8.507  30.361  1.00  0.00     0.020 C 
BRANCH   5   6
ATOM      6  C   UNL     1       9.472  -8.939  28.953  1.00  0.00     0.064 C 
ATOM      7  O   UNL     1       8.399  -8.710  28.336  1.00  0.00    -0.545 OA
ATOM      8  O   UNL     1      10.514  -9.561  28.276  1.00  0.00    -0.545 OA
ENDBRANCH   5   6
ENDBRANCH   3   4
ENDBRANCH   2   3
ENDBRANCH   1   2
BRANCH   1   9
ATOM      9  C   UNL     1       8.992  -9.939  34.728  1.00  0.00     0.000 C 
BRANCH   9  10
ATOM     10  C   UNL     1       8.184 -11.161  35.191  1.00  0.00     0.000 C 
BRANCH  10  11
ATOM     11  C   UNL     1       6.752 -11.178  34.629  1.00  0.00    -0.000 C 
BRANCH  11  12
ATOM     12  C   UNL     1       6.421  -9.963  33.736  1.00  0.00    -0.000 C 
BRANCH  12  13
ATOM     13  C   UNL     1       6.175 -10.367  32.275  1.00  0.00    -0.003 C 
ATOM     14  C   UNL     1       6.375 -11.867  32.078  1.00  0.00     0.004 C 
ENDBRANCH  12  13
ENDBRANCH  11  12
ENDBRANCH  10  11
ENDBRANCH   9  10
ENDBRANCH   1   9
TORSDOF 9
ENDMDL
MODEL 9
REMARK VINA RESULT:    -4.149     10.909     13.154
REMARK INTER + INTRA:          -6.765
REMARK INTER:                  -5.345
REMARK INTRA:                  -1.420
REMARK UNBOUND:                -0.433
REMARK SMILES CCCCCCCCCC=CC(=O)[O-]
REMARK SMILES IDX 7 1 8 2 9 3 10 4 11 5 12 6 13 7 14 8 6 9 5 10 4 11 3 12 2 13
REMARK SMILES IDX 1 14
REMARK H PARENT
REMARK Flexibility Score: inf
ROOT
ATOM      1  C   UNL     1      11.139   0.762  24.873  1.00  0.00     0.000 C 
ENDROOT
BRANCH   1   2
ATOM      2  C   UNL     1      12.407   1.549  25.251  1.00  0.00     0.004 C 
BRANCH   2   3
ATOM      3  C   UNL     1      13.378   1.677  24.065  1.00  0.00     0.027 C 
BRANCH   3   4
ATOM      4  C   UNL     1      14.072   0.378  23.750  1.00  0.00    -0.025 C 
ATOM      5  C   UNL     1      15.152  -0.116  24.378  1.00  0.00     0.020 C 
BRANCH   5   6
ATOM      6  C   UNL     1      15.906   0.532  25.471  1.00  0.00     0.064 C 
ATOM      7  O   UNL     1      15.532   0.350  26.659  1.00  0.00    -0.545 OA
ATOM      8  O   UNL     1      17.033   1.309  25.236  1.00  0.00    -0.545 OA
ENDBRANCH   5   6
ENDBRANCH   3   4
ENDBRANCH   2   3
ENDBRANCH   1   2
BRANCH   1   9
ATOM      9  C   UNL     1      11.024  -0.573  25.625  1.00  0.00     0.000 C 
BRANCH   9  10
ATOM     10  C   UNL     1      12.004  -0.672  26.805  1.00  0.00     0.000 C 
BRANCH  10  11
ATOM     11  C   UNL     1      12.875  -1.939  26.753  1.00  0.00    -0.000 C 
BRANCH  11  12
ATOM     12  C   UNL     1      12.672  -2.780  25.474  1.00  0.00    -0.000 C 
BRANCH  12  13
ATOM     13  C   UNL     1      12.055  -4.154  25.777  1.00  0.00    -0.003 C 
ATOM     14  C   UNL     1      10.626  -4.244  25.250  1.00  0.00     0.004 C 
ENDBRANCH  12  13
ENDBRANCH  11  12
ENDBRANCH  10  11
ENDBRANCH   9  10
ENDBRANCH   1   9
TORSDOF 9
ENDMDL
