MODEL 1
REMARK VINA RESULT:    -4.100      0.000      0.000
REMARK INTER + INTRA:          -4.713
REMARK INTER:                  -4.460
REMARK INTRA:                  -0.253
REMARK UNBOUND:                -0.253
REMARK SMILES O=C([O-])c1ccccc1O
REMARK SMILES IDX 4 1 9 2 5 3 8 4 6 5 7 6 2 7 1 8 3 9 10 10
REMARK H PARENT 10 11
REMARK Flexibility Score: inf
ROOT
ATOM      1  C   UNL     1     141.737 147.205 141.797  1.00  0.00     0.039 A 
ATOM      2  C   UNL     1     141.304 146.704 143.052  1.00  0.00     0.124 A 
ATOM      3  C   UNL     1     142.110 148.558 141.696  1.00  0.00     0.014 A 
ATOM      4  C   UNL     1     141.315 147.544 144.173  1.00  0.00     0.047 A 
ATOM      5  C   UNL     1     142.095 149.387 142.820  1.00  0.00     0.001 A 
ATOM      6  C   UNL     1     141.708 148.877 144.059  1.00  0.00     0.004 A 
ENDROOT
BRANCH   1   7
ATOM      7  C   UNL     1     141.847 146.356 140.589  1.00  0.00     0.075 C 
ATOM      8  O   UNL     1     141.487 146.786 139.462  1.00  0.00    -0.545 OA
ATOM      9  O   UNL     1     142.289 145.043 140.700  1.00  0.00    -0.545 OA
ENDBRANCH   1   7
BRANCH   2  10
ATOM     10  O   UNL     1     140.827 145.403 143.221  1.00  0.00    -0.507 OA
ATOM     11  H   UNL     1     141.313 144.581 142.888  1.00  0.00     0.293 HD
ENDBRANCH   2  10
TORSDOF 2
ENDMDL
MODEL 2
REMARK VINA RESULT:    -4.050     11.069     11.939
REMARK INTER + INTRA:          -4.658
REMARK INTER:                  -4.407
REMARK INTRA:                  -0.251
REMARK UNBOUND:                -0.253
REMARK SMILES O=C([O-])c1ccccc1O
REMARK SMILES IDX 4 1 9 2 5 3 8 4 6 5 7 6 2 7 1 8 3 9 10 10
REMARK H PARENT 10 11
REMARK Flexibility Score: inf
ROOT
ATOM      1  C   UNL     1     142.813 135.854 145.130  1.00  0.00     0.039 A 
ATOM      2  C   UNL     1     142.483 136.734 146.194  1.00  0.00     0.124 A 
ATOM      3  C   UNL     1     143.934 135.014 145.266  1.00  0.00     0.014 A 
ATOM      4  C   UNL     1     143.236 136.706 147.374  1.00  0.00     0.047 A 
ATOM      5  C   UNL     1     144.687 135.015 146.443  1.00  0.00     0.001 A 
ATOM      6  C   UNL     1     144.332 135.853 147.499  1.00  0.00     0.004 A 
ENDROOT
BRANCH   1   7
ATOM      7  C   UNL     1     142.008 135.754 143.892  1.00  0.00     0.075 C 
ATOM      8  O   UNL     1     141.857 134.649 143.307  1.00  0.00    -0.545 OA
ATOM      9  O   UNL     1     141.465 136.899 143.321  1.00  0.00    -0.545 OA
ENDBRANCH   1   7
BRANCH   2  10
ATOM     10  O   UNL     1     141.447 137.667 146.107  1.00  0.00    -0.507 OA
ATOM     11  H   UNL     1     141.365 138.343 145.360  1.00  0.00     0.293 HD
ENDBRANCH   2  10
TORSDOF 2
ENDMDL
MODEL 3
REMARK VINA RESULT:    -3.989     10.737     11.689
REMARK INTER + INTRA:          -4.592
REMARK INTER:                  -4.341
REMARK INTRA:                  -0.251
REMARK UNBOUND:                -0.253
REMARK SMILES O=C([O-])c1ccccc1O
REMARK SMILES IDX 4 1 9 2 5 3 8 4 6 5 7 6 2 7 1 8 3 9 10 10
REMARK H PARENT 10 11
REMARK Flexibility Score: inf
ROOT
ATOM      1  C   UNL     1     142.338 136.251 145.358  1.00  0.00     0.039 A 
ATOM      2  C   UNL     1     143.448 135.595 145.950  1.00  0.00     0.124 A 
ATOM      3  C   UNL     1     141.657 137.235 146.097  1.00  0.00     0.014 A 
ATOM      4  C   UNL     1     143.881 135.980 147.225  1.00  0.00     0.047 A 
ATOM      5  C   UNL     1     142.089 137.593 147.377  1.00  0.00     0.001 A 
ATOM      6  C   UNL     1     143.206 136.973 147.935  1.00  0.00     0.004 A 
ENDROOT
BRANCH   1   7
ATOM      7  C   UNL     1     141.881 135.969 143.979  1.00  0.00     0.075 C 
ATOM      8  O   UNL     1     141.426 136.888 143.248  1.00  0.00    -0.545 OA
ATOM      9  O   UNL     1     141.887 134.665 143.497  1.00  0.00    -0.545 OA
ENDBRANCH   1   7
BRANCH   2  10
ATOM     10  O   UNL     1     144.122 134.542 145.327  1.00  0.00    -0.507 OA
ATOM     11  H   UNL     1     144.268 134.484 144.329  1.00  0.00     0.293 HD
ENDBRANCH   2  10
TORSDOF 2
ENDMDL
MODEL 4
REMARK VINA RESULT:    -3.951      1.670      2.172
REMARK INTER + INTRA:          -4.551
REMARK INTER:                  -4.304
REMARK INTRA:                  -0.247
REMARK UNBOUND:                -0.253
REMARK SMILES O=C([O-])c1ccccc1O
REMARK SMILES IDX 4 1 9 2 5 3 8 4 6 5 7 6 2 7 1 8 3 9 10 10
REMARK H PARENT 10 11
REMARK Flexibility Score: inf
ROOT
ATOM      1  C   UNL     1     141.338 148.726 142.142  1.00  0.00     0.039 A 
ATOM      2  C   UNL     1     141.434 148.690 143.558  1.00  0.00     0.124 A 
ATOM      3  C   UNL     1     142.033 149.729 141.440  1.00  0.00     0.014 A 
ATOM      4  C   UNL     1     142.261 149.605 144.220  1.00  0.00     0.047 A 
ATOM      5  C   UNL     1     142.838 150.647 142.118  1.00  0.00     0.001 A 
ATOM      6  C   UNL     1     142.959 150.579 143.506  1.00  0.00     0.004 A 
ENDROOT
BRANCH   1   7
ATOM      7  C   UNL     1     140.564 147.734 141.364  1.00  0.00     0.075 C 
ATOM      8  O   UNL     1     139.379 147.447 141.680  1.00  0.00    -0.545 OA
ATOM      9  O   UNL     1     141.165 147.055 140.310  1.00  0.00    -0.545 OA
ENDBRANCH   1   7
BRANCH   2  10
ATOM     10  O   UNL     1     140.704 147.792 144.340  1.00  0.00    -0.507 OA
ATOM     11  H   UNL     1     141.122 147.023 144.845  1.00  0.00     0.293 HD
ENDBRANCH   2  10
TORSDOF 2
ENDMDL
MODEL 5
REMARK VINA RESULT:    -3.782     11.628     12.786
REMARK INTER + INTRA:          -4.366
REMARK INTER:                  -4.155
REMARK INTRA:                  -0.212
REMARK UNBOUND:                -0.253
REMARK SMILES O=C([O-])c1ccccc1O
REMARK SMILES IDX 4 1 9 2 5 3 8 4 6 5 7 6 2 7 1 8 3 9 10 10
REMARK H PARENT 10 11
REMARK Flexibility Score: inf
ROOT
ATOM      1  C   UNL     1     143.604 135.508 146.875  1.00  0.00     0.039 A 
ATOM      2  C   UNL     1     143.063 135.708 145.578  1.00  0.00     0.124 A 
ATOM      3  C   UNL     1     143.220 136.377 147.913  1.00  0.00     0.014 A 
ATOM      4  C   UNL     1     142.117 136.719 145.371  1.00  0.00     0.047 A 
ATOM      5  C   UNL     1     142.291 137.395 147.683  1.00  0.00     0.001 A 
ATOM      6  C   UNL     1     141.733 137.559 146.416  1.00  0.00     0.004 A 
ENDROOT
BRANCH   1   7
ATOM      7  C   UNL     1     144.532 134.401 147.196  1.00  0.00     0.075 C 
ATOM      8  O   UNL     1     145.019 133.681 146.285  1.00  0.00    -0.545 OA
ATOM      9  O   UNL     1     144.824 134.100 148.521  1.00  0.00    -0.545 OA
ENDBRANCH   1   7
BRANCH   2  10
ATOM     10  O   UNL     1     143.460 134.954 144.471  1.00  0.00    -0.507 OA
ATOM     11  H   UNL     1     144.326 135.106 143.972  1.00  0.00     0.293 HD
ENDBRANCH   2  10
TORSDOF 2
ENDMDL
MODEL 6
REMARK VINA RESULT:    -3.703      2.110      4.310
REMARK INTER + INTRA:          -4.280
REMARK INTER:                  -4.041
REMARK INTRA:                  -0.239
REMARK UNBOUND:                -0.253
REMARK SMILES O=C([O-])c1ccccc1O
REMARK SMILES IDX 4 1 9 2 5 3 8 4 6 5 7 6 2 7 1 8 3 9 10 10
REMARK H PARENT 10 11
REMARK Flexibility Score: inf
ROOT
ATOM      1  C   UNL     1     141.928 146.354 140.852  1.00  0.00     0.039 A 
ATOM      2  C   UNL     1     142.053 146.069 139.468  1.00  0.00     0.124 A 
ATOM      3  C   UNL     1     142.301 145.369 141.785  1.00  0.00     0.014 A 
ATOM      4  C   UNL     1     142.600 144.847 139.059  1.00  0.00     0.047 A 
ATOM      5  C   UNL     1     142.826 144.146 141.359  1.00  0.00     0.001 A 
ATOM      6  C   UNL     1     142.984 143.890 139.998  1.00  0.00     0.004 A 
ENDROOT
BRANCH   1   7
ATOM      7  C   UNL     1     141.451 147.658 141.364  1.00  0.00     0.075 C 
ATOM      8  O   UNL     1     140.514 147.721 142.202  1.00  0.00    -0.545 OA
ATOM      9  O   UNL     1     141.992 148.839 140.868  1.00  0.00    -0.545 OA
ENDBRANCH   1   7
BRANCH   2  10
ATOM     10  O   UNL     1     141.618 146.950 138.474  1.00  0.00    -0.507 OA
ATOM     11  H   UNL     1     141.256 147.874 138.666  1.00  0.00     0.293 HD
ENDBRANCH   2  10
TORSDOF 2
ENDMDL
MODEL 7
REMARK VINA RESULT:    -3.683      2.119      3.173
REMARK INTER + INTRA:          -4.259
REMARK INTER:                  -4.008
REMARK INTRA:                  -0.252
REMARK UNBOUND:                -0.253
REMARK SMILES O=C([O-])c1ccccc1O
REMARK SMILES IDX 4 1 9 2 5 3 8 4 6 5 7 6 2 7 1 8 3 9 10 10
REMARK H PARENT 10 11
REMARK Flexibility Score: inf
ROOT
ATOM      1  C   UNL     1     142.296 145.574 140.509  1.00  0.00     0.039 A 
ATOM      2  C   UNL     1     141.602 146.732 140.070  1.00  0.00     0.124 A 
ATOM      3  C   UNL     1     142.362 145.303 141.888  1.00  0.00     0.014 A 
ATOM      4  C   UNL     1     140.946 147.542 141.006  1.00  0.00     0.047 A 
ATOM      5  C   UNL     1     141.720 146.134 142.809  1.00  0.00     0.001 A 
ATOM      6  C   UNL     1     141.005 147.246 142.367  1.00  0.00     0.004 A 
ENDROOT
BRANCH   1   7
ATOM      7  C   UNL     1     142.930 144.617 139.575  1.00  0.00     0.075 C 
ATOM      8  O   UNL     1     142.911 143.379 139.807  1.00  0.00    -0.545 OA
ATOM      9  O   UNL     1     143.618 145.083 138.461  1.00  0.00    -0.545 OA
ENDBRANCH   1   7
BRANCH   2  10
ATOM     10  O   UNL     1     141.568 147.128 138.731  1.00  0.00    -0.507 OA
ATOM     11  H   UNL     1     142.330 146.980 138.085  1.00  0.00     0.293 HD
ENDBRANCH   2  10
TORSDOF 2
ENDMDL
MODEL 8
REMARK VINA RESULT:    -3.668     14.337     15.713
REMARK INTER + INTRA:          -4.243
REMARK INTER:                  -4.023
REMARK INTRA:                  -0.220
REMARK UNBOUND:                -0.253
REMARK SMILES O=C([O-])c1ccccc1O
REMARK SMILES IDX 4 1 9 2 5 3 8 4 6 5 7 6 2 7 1 8 3 9 10 10
REMARK H PARENT 10 11
REMARK Flexibility Score: inf
ROOT
ATOM      1  C   UNL     1     134.960 135.308 150.072  1.00  0.00     0.039 A 
ATOM      2  C   UNL     1     135.276 136.679 149.884  1.00  0.00     0.124 A 
ATOM      3  C   UNL     1     134.245 134.927 151.222  1.00  0.00     0.014 A 
ATOM      4  C   UNL     1     134.818 137.627 150.807  1.00  0.00     0.047 A 
ATOM      5  C   UNL     1     133.814 135.884 152.144  1.00  0.00     0.001 A 
ATOM      6  C   UNL     1     134.093 137.234 151.931  1.00  0.00     0.004 A 
ENDROOT
BRANCH   1   7
ATOM      7  C   UNL     1     135.322 134.259 149.092  1.00  0.00     0.075 C 
ATOM      8  O   UNL     1     136.526 134.038 148.797  1.00  0.00    -0.545 OA
ATOM      9  O   UNL     1     134.325 133.550 148.433  1.00  0.00    -0.545 OA
ENDBRANCH   1   7
BRANCH   2  10
ATOM     10  O   UNL     1     136.062 137.133 148.823  1.00  0.00    -0.507 OA
ATOM     11  H   UNL     1     136.574 136.519 148.204  1.00  0.00     0.293 HD
ENDBRANCH   2  10
TORSDOF 2
ENDMDL
MODEL 9
REMARK VINA RESULT:    -3.560      1.017      2.223
REMARK INTER + INTRA:          -4.125
REMARK INTER:                  -3.885
REMARK INTRA:                  -0.240
REMARK UNBOUND:                -0.253
REMARK SMILES O=C([O-])c1ccccc1O
REMARK SMILES IDX 4 1 9 2 5 3 8 4 6 5 7 6 2 7 1 8 3 9 10 10
REMARK H PARENT 10 11
REMARK Flexibility Score: inf
ROOT
ATOM      1  C   UNL     1     141.908 147.333 141.835  1.00  0.00     0.039 A 
ATOM      2  C   UNL     1     142.420 148.657 141.833  1.00  0.00     0.124 A 
ATOM      3  C   UNL     1     141.351 146.823 143.022  1.00  0.00     0.014 A 
ATOM      4  C   UNL     1     142.304 149.447 142.983  1.00  0.00     0.047 A 
ATOM      5  C   UNL     1     141.262 147.617 144.168  1.00  0.00     0.001 A 
ATOM      6  C   UNL     1     141.730 148.930 144.145  1.00  0.00     0.004 A 
ENDROOT
BRANCH   1   7
ATOM      7  C   UNL     1     141.905 146.472 140.632  1.00  0.00     0.075 C 
ATOM      8  O   UNL     1     141.485 146.907 139.527  1.00  0.00    -0.545 OA
ATOM      9  O   UNL     1     142.303 145.144 140.726  1.00  0.00    -0.545 OA
ENDBRANCH   1   7
BRANCH   2  10
ATOM     10  O   UNL     1     143.075 149.211 140.730  1.00  0.00    -0.507 OA
ATOM     11  H   UNL     1     142.602 149.720 139.996  1.00  0.00     0.293 HD
ENDBRANCH   2  10
TORSDOF 2
ENDMDL
