MODEL 1
REMARK VINA RESULT:    -8.350      0.000      0.000
REMARK INTER + INTRA:         -12.580
REMARK INTER:                 -12.011
REMARK INTRA:                  -0.569
REMARK UNBOUND:                -0.569
REMARK SMILES CC(C)=CCCC(C)=CCCC(C)=CCO
REMARK SMILES IDX 10 1 9 2 7 3 8 4 6 5 5 6 4 7 1 8 2 9 3 10 11 11 12 12 14 13
REMARK SMILES IDX 13 14 15 15 16 16
REMARK H PARENT 16 17
REMARK Flexibility Score: inf
ROOT
ATOM      1  C   UNL     1      -3.443  45.093  15.120  1.00  0.00     0.032 C 
ENDROOT
BRANCH   1   2
ATOM      2  C   UNL     1      -3.571  46.464  15.732  1.00  0.00    -0.028 C 
ATOM      3  C   UNL     1      -3.145  46.792  16.973  1.00  0.00    -0.077 C 
ATOM      4  C   UNL     1      -2.437  45.796  17.862  1.00  0.00     0.039 C 
BRANCH   3   5
ATOM      5  C   UNL     1      -3.364  48.203  17.479  1.00  0.00     0.034 C 
BRANCH   5   6
ATOM      6  C   UNL     1      -2.146  49.100  17.220  1.00  0.00     0.032 C 
BRANCH   6   7
ATOM      7  C   UNL     1      -2.069  50.241  18.208  1.00  0.00    -0.028 C 
ATOM      8  C   UNL     1      -0.133  49.256  19.455  1.00  0.00     0.039 C 
ATOM      9  C   UNL     1      -1.153  50.340  19.196  1.00  0.00    -0.080 C 
ATOM     10  C   UNL     1      -1.172  51.566  20.072  1.00  0.00     0.039 C 
ENDBRANCH   6   7
ENDBRANCH   5   6
ENDBRANCH   3   5
ENDBRANCH   1   2
BRANCH   1  11
ATOM     11  C   UNL     1      -3.439  45.177  13.590  1.00  0.00     0.034 C 
BRANCH  11  12
ATOM     12  C   UNL     1      -3.273  43.805  12.974  1.00  0.00    -0.075 C 
ATOM     13  C   UNL     1      -2.514  42.886  13.613  1.00  0.00    -0.000 C 
ATOM     14  C   UNL     1      -3.973  43.488  11.673  1.00  0.00     0.039 C 
BRANCH  13  15
ATOM     15  C   UNL     1      -2.282  41.490  13.103  1.00  0.00     0.183 C 
BRANCH  15  16
ATOM     16  O   UNL     1      -1.113  40.966  13.669  1.00  0.00    -0.392 OA
ATOM     17  H   UNL     1      -1.305  40.848  14.635  1.00  0.00     0.210 HD
ENDBRANCH  15  16
ENDBRANCH  13  15
ENDBRANCH  11  12
ENDBRANCH   1  11
TORSDOF 8
ENDMDL
MODEL 2
REMARK VINA RESULT:    -8.256      2.437      3.325
REMARK INTER + INTRA:         -12.446
REMARK INTER:                 -11.515
REMARK INTRA:                  -0.930
REMARK UNBOUND:                -0.569
REMARK SMILES CC(C)=CCCC(C)=CCCC(C)=CCO
REMARK SMILES IDX 10 1 9 2 7 3 8 4 6 5 5 6 4 7 1 8 2 9 3 10 11 11 12 12 14 13
REMARK SMILES IDX 13 14 15 15 16 16
REMARK H PARENT 16 17
REMARK Flexibility Score: inf
ROOT
ATOM      1  C   UNL     1      -3.735  45.851  14.801  1.00  0.00     0.032 C 
ENDROOT
BRANCH   1   2
ATOM      2  C   UNL     1      -3.142  45.491  16.140  1.00  0.00    -0.028 C 
ATOM      3  C   UNL     1      -3.038  46.343  17.186  1.00  0.00    -0.077 C 
ATOM      4  C   UNL     1      -3.570  47.757  17.118  1.00  0.00     0.039 C 
BRANCH   3   5
ATOM      5  C   UNL     1      -2.392  45.861  18.468  1.00  0.00     0.034 C 
BRANCH   5   6
ATOM      6  C   UNL     1      -1.355  46.861  18.998  1.00  0.00     0.032 C 
BRANCH   6   7
ATOM      7  C   UNL     1       0.045  46.295  18.952  1.00  0.00    -0.028 C 
ATOM      8  C   UNL     1       0.622  47.441  16.801  1.00  0.00     0.039 C 
ATOM      9  C   UNL     1       0.953  46.570  17.990  1.00  0.00    -0.080 C 
ATOM     10  C   UNL     1       2.329  45.968  18.110  1.00  0.00     0.039 C 
ENDBRANCH   6   7
ENDBRANCH   5   6
ENDBRANCH   3   5
ENDBRANCH   1   2
BRANCH   1  11
ATOM     11  C   UNL     1      -2.991  45.137  13.667  1.00  0.00     0.034 C 
BRANCH  11  12
ATOM     12  C   UNL     1      -3.607  43.784  13.388  1.00  0.00    -0.075 C 
ATOM     13  C   UNL     1      -4.951  43.649  13.441  1.00  0.00    -0.000 C 
ATOM     14  C   UNL     1      -2.709  42.620  13.036  1.00  0.00     0.039 C 
BRANCH  13  15
ATOM     15  C   UNL     1      -5.676  42.358  13.175  1.00  0.00     0.183 C 
BRANCH  15  16
ATOM     16  O   UNL     1      -6.460  42.017  14.284  1.00  0.00    -0.392 OA
ATOM     17  H   UNL     1      -7.402  42.050  13.975  1.00  0.00     0.210 HD
ENDBRANCH  15  16
ENDBRANCH  13  15
ENDBRANCH  11  12
ENDBRANCH   1  11
TORSDOF 8
ENDMDL
MODEL 3
REMARK VINA RESULT:    -8.165      2.824      7.077
REMARK INTER + INTRA:         -12.315
REMARK INTER:                 -11.697
REMARK INTRA:                  -0.618
REMARK UNBOUND:                -0.569
REMARK SMILES CC(C)=CCCC(C)=CCCC(C)=CCO
REMARK SMILES IDX 10 1 9 2 7 3 8 4 6 5 5 6 4 7 1 8 2 9 3 10 11 11 12 12 14 13
REMARK SMILES IDX 13 14 15 15 16 16
REMARK H PARENT 16 17
REMARK Flexibility Score: inf
ROOT
ATOM      1  C   UNL     1      -1.290  46.892  19.468  1.00  0.00     0.032 C 
ENDROOT
BRANCH   1   2
ATOM      2  C   UNL     1      -2.064  46.020  18.512  1.00  0.00    -0.028 C 
ATOM      3  C   UNL     1      -2.726  46.477  17.424  1.00  0.00    -0.077 C 
ATOM      4  C   UNL     1      -2.703  47.936  17.032  1.00  0.00     0.039 C 
BRANCH   3   5
ATOM      5  C   UNL     1      -3.492  45.496  16.562  1.00  0.00     0.034 C 
BRANCH   5   6
ATOM      6  C   UNL     1      -3.470  45.896  15.080  1.00  0.00     0.032 C 
BRANCH   6   7
ATOM      7  C   UNL     1      -3.521  44.688  14.173  1.00  0.00    -0.028 C 
ATOM      8  C   UNL     1      -3.612  46.054  12.075  1.00  0.00     0.039 C 
ATOM      9  C   UNL     1      -3.553  44.743  12.823  1.00  0.00    -0.080 C 
ATOM     10  C   UNL     1      -3.549  43.448  12.052  1.00  0.00     0.039 C 
ENDBRANCH   6   7
ENDBRANCH   5   6
ENDBRANCH   3   5
ENDBRANCH   1   2
BRANCH   1  11
ATOM     11  C   UNL     1      -0.027  46.174  19.958  1.00  0.00     0.034 C 
BRANCH  11  12
ATOM     12  C   UNL     1       1.121  46.388  18.996  1.00  0.00    -0.075 C 
ATOM     13  C   UNL     1       1.029  47.369  18.070  1.00  0.00    -0.000 C 
ATOM     14  C   UNL     1       2.349  45.514  19.103  1.00  0.00     0.039 C 
BRANCH  13  15
ATOM     15  C   UNL     1       2.108  47.680  17.068  1.00  0.00     0.183 C 
BRANCH  15  16
ATOM     16  O   UNL     1       1.647  47.404  15.775  1.00  0.00    -0.392 OA
ATOM     17  H   UNL     1       0.668  47.564  15.792  1.00  0.00     0.210 HD
ENDBRANCH  15  16
ENDBRANCH  13  15
ENDBRANCH  11  12
ENDBRANCH   1  11
TORSDOF 8
ENDMDL
MODEL 4
REMARK VINA RESULT:    -8.087      1.995      2.906
REMARK INTER + INTRA:         -12.203
REMARK INTER:                 -11.338
REMARK INTRA:                  -0.864
REMARK UNBOUND:                -0.569
REMARK SMILES CC(C)=CCCC(C)=CCCC(C)=CCO
REMARK SMILES IDX 10 1 9 2 7 3 8 4 6 5 5 6 4 7 1 8 2 9 3 10 11 11 12 12 14 13
REMARK SMILES IDX 13 14 15 15 16 16
REMARK H PARENT 16 17
REMARK Flexibility Score: inf
ROOT
ATOM      1  C   UNL     1      -3.876  45.860  14.800  1.00  0.00     0.032 C 
ENDROOT
BRANCH   1   2
ATOM      2  C   UNL     1      -3.133  45.498  16.061  1.00  0.00    -0.028 C 
ATOM      3  C   UNL     1      -2.936  46.338  17.102  1.00  0.00    -0.077 C 
ATOM      4  C   UNL     1      -3.504  47.739  17.115  1.00  0.00     0.039 C 
BRANCH   3   5
ATOM      5  C   UNL     1      -2.142  45.856  18.299  1.00  0.00     0.034 C 
BRANCH   5   6
ATOM      6  C   UNL     1      -1.097  46.887  18.747  1.00  0.00     0.032 C 
BRANCH   6   7
ATOM      7  C   UNL     1       0.290  46.290  18.802  1.00  0.00    -0.028 C 
ATOM      8  C   UNL     1       1.036  47.396  16.681  1.00  0.00     0.039 C 
ATOM      9  C   UNL     1       1.267  46.534  17.900  1.00  0.00    -0.080 C 
ATOM     10  C   UNL     1       2.618  45.904  18.119  1.00  0.00     0.039 C 
ENDBRANCH   6   7
ENDBRANCH   5   6
ENDBRANCH   3   5
ENDBRANCH   1   2
BRANCH   1  11
ATOM     11  C   UNL     1      -3.156  45.307  13.566  1.00  0.00     0.034 C 
BRANCH  11  12
ATOM     12  C   UNL     1      -3.379  43.816  13.435  1.00  0.00    -0.075 C 
ATOM     13  C   UNL     1      -2.317  43.011  13.203  1.00  0.00    -0.000 C 
ATOM     14  C   UNL     1      -4.775  43.260  13.584  1.00  0.00     0.039 C 
BRANCH  13  15
ATOM     15  C   UNL     1      -2.413  41.517  13.063  1.00  0.00     0.183 C 
BRANCH  15  16
ATOM     16  O   UNL     1      -1.277  40.914  13.617  1.00  0.00    -0.392 OA
ATOM     17  H   UNL     1      -0.657  41.655  13.846  1.00  0.00     0.210 HD
ENDBRANCH  15  16
ENDBRANCH  13  15
ENDBRANCH  11  12
ENDBRANCH   1  11
TORSDOF 8
ENDMDL
MODEL 5
REMARK VINA RESULT:    -8.082      2.094      4.389
REMARK INTER + INTRA:         -12.196
REMARK INTER:                 -11.710
REMARK INTRA:                  -0.486
REMARK UNBOUND:                -0.569
REMARK SMILES CC(C)=CCCC(C)=CCCC(C)=CCO
REMARK SMILES IDX 10 1 9 2 7 3 8 4 6 5 5 6 4 7 1 8 2 9 3 10 11 11 12 12 14 13
REMARK SMILES IDX 13 14 15 15 16 16
REMARK H PARENT 16 17
REMARK Flexibility Score: inf
ROOT
ATOM      1  C   UNL     1      -2.524  42.162  12.799  1.00  0.00     0.032 C 
ENDROOT
BRANCH   1   2
ATOM      2  C   UNL     1      -3.138  43.203  13.700  1.00  0.00    -0.028 C 
ATOM      3  C   UNL     1      -3.619  44.394  13.278  1.00  0.00    -0.077 C 
ATOM      4  C   UNL     1      -3.631  44.776  11.815  1.00  0.00     0.039 C 
BRANCH   3   5
ATOM      5  C   UNL     1      -4.183  45.364  14.295  1.00  0.00     0.034 C 
BRANCH   5   6
ATOM      6  C   UNL     1      -3.346  45.397  15.582  1.00  0.00     0.032 C 
BRANCH   6   7
ATOM      7  C   UNL     1      -3.443  46.734  16.279  1.00  0.00    -0.028 C 
ATOM      8  C   UNL     1      -2.153  45.973  18.287  1.00  0.00     0.039 C 
ATOM      9  C   UNL     1      -2.886  47.017  17.477  1.00  0.00    -0.080 C 
ATOM     10  C   UNL     1      -3.025  48.415  18.021  1.00  0.00     0.039 C 
ENDBRANCH   6   7
ENDBRANCH   5   6
ENDBRANCH   3   5
ENDBRANCH   1   2
BRANCH   1  11
ATOM     11  C   UNL     1      -1.593  41.237  13.590  1.00  0.00     0.034 C 
BRANCH  11  12
ATOM     12  C   UNL     1      -1.706  39.810  13.100  1.00  0.00    -0.075 C 
ATOM     13  C   UNL     1      -2.165  38.859  13.945  1.00  0.00    -0.000 C 
ATOM     14  C   UNL     1      -1.323  39.485  11.675  1.00  0.00     0.039 C 
BRANCH  13  15
ATOM     15  C   UNL     1      -2.327  37.412  13.569  1.00  0.00     0.183 C 
BRANCH  15  16
ATOM     16  O   UNL     1      -3.588  37.210  12.994  1.00  0.00    -0.392 OA
ATOM     17  H   UNL     1      -3.479  37.391  12.024  1.00  0.00     0.210 HD
ENDBRANCH  15  16
ENDBRANCH  13  15
ENDBRANCH  11  12
ENDBRANCH   1  11
TORSDOF 8
ENDMDL
MODEL 6
REMARK VINA RESULT:    -8.063      2.452      7.102
REMARK INTER + INTRA:         -12.168
REMARK INTER:                 -11.285
REMARK INTRA:                  -0.883
REMARK UNBOUND:                -0.569
REMARK SMILES CC(C)=CCCC(C)=CCCC(C)=CCO
REMARK SMILES IDX 10 1 9 2 7 3 8 4 6 5 5 6 4 7 1 8 2 9 3 10 11 11 12 12 14 13
REMARK SMILES IDX 13 14 15 15 16 16
REMARK H PARENT 16 17
REMARK Flexibility Score: inf
ROOT
ATOM      1  C   UNL     1      -2.098  46.109  19.102  1.00  0.00     0.032 C 
ENDROOT
BRANCH   1   2
ATOM      2  C   UNL     1      -2.311  45.861  17.630  1.00  0.00    -0.028 C 
ATOM      3  C   UNL     1      -3.029  46.666  16.814  1.00  0.00    -0.077 C 
ATOM      4  C   UNL     1      -3.654  47.950  17.310  1.00  0.00     0.039 C 
BRANCH   3   5
ATOM      5  C   UNL     1      -3.192  46.284  15.358  1.00  0.00     0.034 C 
BRANCH   5   6
ATOM      6  C   UNL     1      -3.668  44.834  15.195  1.00  0.00     0.032 C 
BRANCH   6   7
ATOM      7  C   UNL     1      -4.055  44.527  13.767  1.00  0.00    -0.028 C 
ATOM      8  C   UNL     1      -2.482  42.587  13.576  1.00  0.00     0.039 C 
ATOM      9  C   UNL     1      -3.556  43.505  13.039  1.00  0.00    -0.080 C 
ATOM     10  C   UNL     1      -4.080  43.296  11.642  1.00  0.00     0.039 C 
ENDBRANCH   6   7
ENDBRANCH   5   6
ENDBRANCH   3   5
ENDBRANCH   1   2
BRANCH   1  11
ATOM     11  C   UNL     1      -0.620  45.945  19.472  1.00  0.00     0.034 C 
BRANCH  11  12
ATOM     12  C   UNL     1       0.232  46.971  18.758  1.00  0.00    -0.075 C 
ATOM     13  C   UNL     1       1.174  46.550  17.884  1.00  0.00    -0.000 C 
ATOM     14  C   UNL     1      -0.001  48.440  19.022  1.00  0.00     0.039 C 
BRANCH  13  15
ATOM     15  C   UNL     1       2.074  47.474  17.110  1.00  0.00     0.183 C 
BRANCH  15  16
ATOM     16  O   UNL     1       1.686  47.498  15.765  1.00  0.00    -0.392 OA
ATOM     17  H   UNL     1       2.466  47.847  15.261  1.00  0.00     0.210 HD
ENDBRANCH  15  16
ENDBRANCH  13  15
ENDBRANCH  11  12
ENDBRANCH   1  11
TORSDOF 8
ENDMDL
MODEL 7
REMARK VINA RESULT:    -8.024      2.774      7.077
REMARK INTER + INTRA:         -12.112
REMARK INTER:                 -11.376
REMARK INTRA:                  -0.736
REMARK UNBOUND:                -0.569
REMARK SMILES CC(C)=CCCC(C)=CCCC(C)=CCO
REMARK SMILES IDX 10 1 9 2 7 3 8 4 6 5 5 6 4 7 1 8 2 9 3 10 11 11 12 12 14 13
REMARK SMILES IDX 13 14 15 15 16 16
REMARK H PARENT 16 17
REMARK Flexibility Score: inf
ROOT
ATOM      1  C   UNL     1      -0.522  48.139  17.589  1.00  0.00     0.032 C 
ENDROOT
BRANCH   1   2
ATOM      2  C   UNL     1      -1.320  47.028  16.956  1.00  0.00    -0.028 C 
ATOM      3  C   UNL     1      -2.646  46.835  17.142  1.00  0.00    -0.077 C 
ATOM      4  C   UNL     1      -3.478  47.775  17.984  1.00  0.00     0.039 C 
BRANCH   3   5
ATOM      5  C   UNL     1      -3.321  45.657  16.471  1.00  0.00     0.034 C 
BRANCH   5   6
ATOM      6  C   UNL     1      -3.632  45.940  14.994  1.00  0.00     0.032 C 
BRANCH   6   7
ATOM      7  C   UNL     1      -3.616  44.676  14.166  1.00  0.00    -0.028 C 
ATOM      8  C   UNL     1      -3.616  45.904  11.982  1.00  0.00     0.039 C 
ATOM      9  C   UNL     1      -3.577  44.644  12.816  1.00  0.00    -0.080 C 
ATOM     10  C   UNL     1      -3.513  43.303  12.132  1.00  0.00     0.039 C 
ENDBRANCH   6   7
ENDBRANCH   5   6
ENDBRANCH   3   5
ENDBRANCH   1   2
BRANCH   1  11
ATOM     11  C   UNL     1       0.888  47.660  17.950  1.00  0.00     0.034 C 
BRANCH  11  12
ATOM     12  C   UNL     1       0.858  46.770  19.173  1.00  0.00    -0.075 C 
ATOM     13  C   UNL     1       1.415  45.539  19.104  1.00  0.00    -0.000 C 
ATOM     14  C   UNL     1       0.227  47.283  20.446  1.00  0.00     0.039 C 
BRANCH  13  15
ATOM     15  C   UNL     1       1.453  44.571  20.255  1.00  0.00     0.183 C 
BRANCH  15  16
ATOM     16  O   UNL     1       1.804  43.297  19.791  1.00  0.00    -0.392 OA
ATOM     17  H   UNL     1       0.959  42.779  19.745  1.00  0.00     0.210 HD
ENDBRANCH  15  16
ENDBRANCH  13  15
ENDBRANCH  11  12
ENDBRANCH   1  11
TORSDOF 8
ENDMDL
MODEL 8
REMARK VINA RESULT:    -7.911      2.807      4.192
REMARK INTER + INTRA:         -11.950
REMARK INTER:                 -10.952
REMARK INTRA:                  -0.998
REMARK UNBOUND:                -0.569
REMARK SMILES CC(C)=CCCC(C)=CCCC(C)=CCO
REMARK SMILES IDX 10 1 9 2 7 3 8 4 6 5 5 6 4 7 1 8 2 9 3 10 11 11 12 12 14 13
REMARK SMILES IDX 13 14 15 15 16 16
REMARK H PARENT 16 17
REMARK Flexibility Score: inf
ROOT
ATOM      1  C   UNL     1      -3.429  46.925  16.750  1.00  0.00     0.032 C 
ENDROOT
BRANCH   1   2
ATOM      2  C   UNL     1      -2.588  47.169  17.978  1.00  0.00    -0.028 C 
ATOM      3  C   UNL     1      -2.093  48.374  18.340  1.00  0.00    -0.077 C 
ATOM      4  C   UNL     1      -2.390  49.628  17.550  1.00  0.00     0.039 C 
BRANCH   3   5
ATOM      5  C   UNL     1      -1.235  48.475  19.584  1.00  0.00     0.034 C 
BRANCH   5   6
ATOM      6  C   UNL     1       0.207  48.885  19.254  1.00  0.00     0.032 C 
BRANCH   6   7
ATOM      7  C   UNL     1       1.127  47.688  19.179  1.00  0.00    -0.028 C 
ATOM      8  C   UNL     1       0.961  47.500  16.687  1.00  0.00     0.039 C 
ATOM      9  C   UNL     1       1.499  47.076  18.034  1.00  0.00    -0.080 C 
ATOM     10  C   UNL     1       2.465  45.923  18.117  1.00  0.00     0.039 C 
ENDBRANCH   6   7
ENDBRANCH   5   6
ENDBRANCH   3   5
ENDBRANCH   1   2
BRANCH   1  11
ATOM     11  C   UNL     1      -3.167  45.527  16.180  1.00  0.00     0.034 C 
BRANCH  11  12
ATOM     12  C   UNL     1      -3.656  45.426  14.752  1.00  0.00    -0.075 C 
ATOM     13  C   UNL     1      -4.155  46.529  14.149  1.00  0.00    -0.000 C 
ATOM     14  C   UNL     1      -3.557  44.105  14.027  1.00  0.00     0.039 C 
BRANCH  13  15
ATOM     15  C   UNL     1      -4.662  46.554  12.733  1.00  0.00     0.183 C 
BRANCH  15  16
ATOM     16  O   UNL     1      -5.351  47.750  12.497  1.00  0.00    -0.392 OA
ATOM     17  H   UNL     1      -4.665  48.467  12.496  1.00  0.00     0.210 HD
ENDBRANCH  15  16
ENDBRANCH  13  15
ENDBRANCH  11  12
ENDBRANCH   1  11
TORSDOF 8
ENDMDL
MODEL 9
REMARK VINA RESULT:    -7.808      2.049      3.347
REMARK INTER + INTRA:         -11.800
REMARK INTER:                 -10.888
REMARK INTRA:                  -0.912
REMARK UNBOUND:                -0.569
REMARK SMILES CC(C)=CCCC(C)=CCCC(C)=CCO
REMARK SMILES IDX 10 1 9 2 7 3 8 4 6 5 5 6 4 7 1 8 2 9 3 10 11 11 12 12 14 13
REMARK SMILES IDX 13 14 15 15 16 16
REMARK H PARENT 16 17
REMARK Flexibility Score: inf
ROOT
ATOM      1  C   UNL     1      -3.490  46.719  16.255  1.00  0.00     0.032 C 
ENDROOT
BRANCH   1   2
ATOM      2  C   UNL     1      -2.783  46.936  17.569  1.00  0.00    -0.028 C 
ATOM      3  C   UNL     1      -2.241  48.111  17.962  1.00  0.00    -0.077 C 
ATOM      4  C   UNL     1      -2.342  49.359  17.116  1.00  0.00     0.039 C 
BRANCH   3   5
ATOM      5  C   UNL     1      -1.530  48.184  19.298  1.00  0.00     0.034 C 
BRANCH   5   6
ATOM      6  C   UNL     1      -0.091  48.698  19.155  1.00  0.00     0.032 C 
BRANCH   6   7
ATOM      7  C   UNL     1       0.909  47.565  19.143  1.00  0.00    -0.028 C 
ATOM      8  C   UNL     1       1.019  47.460  16.643  1.00  0.00     0.039 C 
ATOM      9  C   UNL     1       1.440  47.021  18.026  1.00  0.00    -0.080 C 
ATOM     10  C   UNL     1       2.467  45.929  18.178  1.00  0.00     0.039 C 
ENDBRANCH   6   7
ENDBRANCH   5   6
ENDBRANCH   3   5
ENDBRANCH   1   2
BRANCH   1  11
ATOM     11  C   UNL     1      -3.249  45.298  15.736  1.00  0.00     0.034 C 
BRANCH  11  12
ATOM     12  C   UNL     1      -3.725  45.158  14.306  1.00  0.00    -0.075 C 
ATOM     13  C   UNL     1      -3.354  44.071  13.593  1.00  0.00    -0.000 C 
ATOM     14  C   UNL     1      -4.619  46.224  13.716  1.00  0.00     0.039 C 
BRANCH  13  15
ATOM     15  C   UNL     1      -3.770  43.819  12.170  1.00  0.00     0.183 C 
BRANCH  15  16
ATOM     16  O   UNL     1      -3.424  42.514  11.798  1.00  0.00    -0.392 OA
ATOM     17  H   UNL     1      -3.787  42.384  10.884  1.00  0.00     0.210 HD
ENDBRANCH  15  16
ENDBRANCH  13  15
ENDBRANCH  11  12
ENDBRANCH   1  11
TORSDOF 8
ENDMDL
