MODEL 1
REMARK VINA RESULT:     8.260      0.000      0.000
REMARK INTER + INTRA:          11.322
REMARK INTER:                  11.639
REMARK INTRA:                  -0.318
REMARK UNBOUND:                -0.318
REMARK SMILES CCCCCCCCC(=O)[O-]
REMARK SMILES IDX 6 1 7 2 8 3 9 4 10 5 11 6 5 7 4 8 3 9 2 10 1 11
REMARK H PARENT
REMARK Flexibility Score: inf
ROOT
ATOM      1  C   UNL     1      52.820  56.303  25.351  1.00  0.00     0.000 C 
ENDROOT
BRANCH   1   2
ATOM      2  C   UNL     1      53.439  55.433  26.457  1.00  0.00     0.006 C 
BRANCH   2   3
ATOM      3  C   UNL     1      52.473  55.185  27.623  1.00  0.00     0.053 C 
BRANCH   3   4
ATOM      4  C   UNL     1      52.478  53.738  28.005  1.00  0.00     0.041 C 
ATOM      5  O   UNL     1      53.462  53.008  27.713  1.00  0.00    -0.550 OA
ATOM      6  O   UNL     1      51.416  53.207  28.727  1.00  0.00    -0.550 OA
ENDBRANCH   3   4
ENDBRANCH   2   3
ENDBRANCH   1   2
BRANCH   1   7
ATOM      7  C   UNL     1      53.804  56.593  24.208  1.00  0.00     0.000 C 
BRANCH   7   8
ATOM      8  C   UNL     1      54.959  55.583  24.208  1.00  0.00    -0.000 C 
BRANCH   8   9
ATOM      9  C   UNL     1      56.312  56.292  24.320  1.00  0.00    -0.000 C 
BRANCH   9  10
ATOM     10  C   UNL     1      56.444  57.019  25.664  1.00  0.00    -0.003 C 
ATOM     11  C   UNL     1      57.888  57.010  26.156  1.00  0.00     0.004 C 
ENDBRANCH   9  10
ENDBRANCH   8   9
ENDBRANCH   7   8
ENDBRANCH   1   7
TORSDOF 7
ENDMDL
MODEL 2
REMARK VINA RESULT:     8.428      9.489     10.851
REMARK INTER + INTRA:          11.559
REMARK INTER:                  11.801
REMARK INTRA:                  -0.242
REMARK UNBOUND:                -0.318
REMARK SMILES CCCCCCCCC(=O)[O-]
REMARK SMILES IDX 6 1 7 2 8 3 9 4 10 5 11 6 5 7 4 8 3 9 2 10 1 11
REMARK H PARENT
REMARK Flexibility Score: inf
ROOT
ATOM      1  C   UNL     1      56.021  48.112  19.083  1.00  0.00     0.000 C 
ENDROOT
BRANCH   1   2
ATOM      2  C   UNL     1      56.165  47.283  20.369  1.00  0.00     0.006 C 
BRANCH   2   3
ATOM      3  C   UNL     1      56.655  48.119  21.559  1.00  0.00     0.053 C 
BRANCH   3   4
ATOM      4  C   UNL     1      57.447  47.270  22.502  1.00  0.00     0.041 C 
ATOM      5  O   UNL     1      56.861  46.540  23.343  1.00  0.00    -0.550 OA
ATOM      6  O   UNL     1      58.834  47.249  22.420  1.00  0.00    -0.550 OA
ENDBRANCH   3   4
ENDBRANCH   2   3
ENDBRANCH   1   2
BRANCH   1   7
ATOM      7  C   UNL     1      57.174  47.876  18.095  1.00  0.00     0.000 C 
BRANCH   7   8
ATOM      8  C   UNL     1      56.975  48.698  16.815  1.00  0.00    -0.000 C 
BRANCH   8   9
ATOM      9  C   UNL     1      55.570  49.307  16.763  1.00  0.00    -0.000 C 
BRANCH   9  10
ATOM     10  C   UNL     1      55.503  50.453  15.747  1.00  0.00    -0.003 C 
ATOM     11  C   UNL     1      54.243  50.360  14.893  1.00  0.00     0.004 C 
ENDBRANCH   9  10
ENDBRANCH   8   9
ENDBRANCH   7   8
ENDBRANCH   1   7
TORSDOF 7
ENDMDL
MODEL 3
REMARK VINA RESULT:     8.533      2.677      5.160
REMARK INTER + INTRA:          11.708
REMARK INTER:                  11.692
REMARK INTRA:                   0.016
REMARK UNBOUND:                -0.318
REMARK SMILES CCCCCCCCC(=O)[O-]
REMARK SMILES IDX 6 1 7 2 8 3 9 4 10 5 11 6 5 7 4 8 3 9 2 10 1 11
REMARK H PARENT
REMARK Flexibility Score: inf
ROOT
ATOM      1  C   UNL     1      53.762  55.455  24.257  1.00  0.00     0.000 C 
ENDROOT
BRANCH   1   2
ATOM      2  C   UNL     1      55.073  56.179  23.910  1.00  0.00     0.006 C 
BRANCH   2   3
ATOM      3  C   UNL     1      55.648  56.960  25.099  1.00  0.00     0.053 C 
BRANCH   3   4
ATOM      4  C   UNL     1      56.934  56.344  25.553  1.00  0.00     0.041 C 
ATOM      5  O   UNL     1      57.178  55.133  25.312  1.00  0.00    -0.550 OA
ATOM      6  O   UNL     1      57.886  57.122  26.202  1.00  0.00    -0.550 OA
ENDBRANCH   3   4
ENDBRANCH   2   3
ENDBRANCH   1   2
BRANCH   1   7
ATOM      7  C   UNL     1      53.044  56.078  25.464  1.00  0.00     0.000 C 
BRANCH   7   8
ATOM      8  C   UNL     1      53.476  55.398  26.769  1.00  0.00    -0.000 C 
BRANCH   8   9
ATOM      9  C   UNL     1      52.261  55.034  27.629  1.00  0.00    -0.000 C 
BRANCH   9  10
ATOM     10  C   UNL     1      52.524  53.761  28.443  1.00  0.00    -0.003 C 
ATOM     11  C   UNL     1      51.253  52.931  28.593  1.00  0.00     0.004 C 
ENDBRANCH   9  10
ENDBRANCH   8   9
ENDBRANCH   7   8
ENDBRANCH   1   7
TORSDOF 7
ENDMDL
MODEL 4
REMARK VINA RESULT:     9.134     10.244     11.569
REMARK INTER + INTRA:          12.554
REMARK INTER:                  12.791
REMARK INTRA:                  -0.237
REMARK UNBOUND:                -0.318
REMARK SMILES CCCCCCCCC(=O)[O-]
REMARK SMILES IDX 6 1 7 2 8 3 9 4 10 5 11 6 5 7 4 8 3 9 2 10 1 11
REMARK H PARENT
REMARK Flexibility Score: inf
ROOT
ATOM      1  C   UNL     1      57.128  47.947  18.167  1.00  0.00     0.000 C 
ENDROOT
BRANCH   1   2
ATOM      2  C   UNL     1      56.804  48.649  16.839  1.00  0.00     0.006 C 
BRANCH   2   3
ATOM      3  C   UNL     1      55.395  49.254  16.820  1.00  0.00     0.053 C 
BRANCH   3   4
ATOM      4  C   UNL     1      55.292  50.302  15.757  1.00  0.00     0.041 C 
ATOM      5  O   UNL     1      56.198  51.167  15.629  1.00  0.00    -0.550 OA
ATOM      6  O   UNL     1      54.217  50.295  14.875  1.00  0.00    -0.550 OA
ENDBRANCH   3   4
ENDBRANCH   2   3
ENDBRANCH   1   2
BRANCH   1   7
ATOM      7  C   UNL     1      56.000  48.086  19.200  1.00  0.00     0.000 C 
BRANCH   7   8
ATOM      8  C   UNL     1      56.294  47.248  20.451  1.00  0.00    -0.000 C 
BRANCH   8   9
ATOM      9  C   UNL     1      56.726  48.139  21.621  1.00  0.00    -0.000 C 
BRANCH   9  10
ATOM     10  C   UNL     1      57.566  47.350  22.633  1.00  0.00    -0.003 C 
ATOM     11  C   UNL     1      56.700  46.383  23.434  1.00  0.00     0.004 C 
ENDBRANCH   9  10
ENDBRANCH   8   9
ENDBRANCH   7   8
ENDBRANCH   1   7
TORSDOF 7
ENDMDL
MODEL 5
REMARK VINA RESULT:    11.191     12.930     14.134
REMARK INTER + INTRA:          15.453
REMARK INTER:                  15.695
REMARK INTRA:                  -0.242
REMARK UNBOUND:                -0.318
REMARK SMILES CCCCCCCCC(=O)[O-]
REMARK SMILES IDX 6 1 7 2 8 3 9 4 10 5 11 6 5 7 4 8 3 9 2 10 1 11
REMARK H PARENT
REMARK Flexibility Score: inf
ROOT
ATOM      1  C   UNL     1      55.760  43.578  20.182  1.00  0.00     0.000 C 
ENDROOT
BRANCH   1   2
ATOM      2  C   UNL     1      56.323  44.800  20.926  1.00  0.00     0.006 C 
BRANCH   2   3
ATOM      3  C   UNL     1      55.987  46.123  20.227  1.00  0.00     0.053 C 
BRANCH   3   4
ATOM      4  C   UNL     1      56.384  47.282  21.086  1.00  0.00     0.041 C 
ATOM      5  O   UNL     1      56.173  48.461  20.696  1.00  0.00    -0.550 OA
ATOM      6  O   UNL     1      56.943  47.060  22.338  1.00  0.00    -0.550 OA
ENDBRANCH   3   4
ENDBRANCH   2   3
ENDBRANCH   1   2
BRANCH   1   7
ATOM      7  C   UNL     1      56.012  42.261  20.933  1.00  0.00     0.000 C 
BRANCH   7   8
ATOM      8  C   UNL     1      54.720  41.445  21.058  1.00  0.00    -0.000 C 
BRANCH   8   9
ATOM      9  C   UNL     1      55.015  39.941  21.060  1.00  0.00    -0.000 C 
BRANCH   9  10
ATOM     10  C   UNL     1      56.442  39.660  20.575  1.00  0.00    -0.003 C 
ATOM     11  C   UNL     1      57.023  38.426  21.258  1.00  0.00     0.004 C 
ENDBRANCH   9  10
ENDBRANCH   8   9
ENDBRANCH   7   8
ENDBRANCH   1   7
TORSDOF 7
ENDMDL
