MODEL 1
REMARK VINA RESULT:    -4.220      0.000      0.000
REMARK INTER + INTRA:          -6.789
REMARK INTER:                  -6.440
REMARK INTRA:                  -0.349
REMARK UNBOUND:                -0.349
REMARK SMILES CC1=CCC[C@H](C)C(=O)C[C@@H](C(C)C)C(=O)C1
REMARK SMILES IDX 8 1 9 2 6 3 7 4 5 5 4 6 3 7 2 8 1 9 10 11 11 12 15 13 16 14
REMARK SMILES IDX 17 15 12 17 13 18 14 19
REMARK H PARENT
REMARK Flexibility Score: 70.00
ROOT
ATOM      1  C   UNL     1     -22.845 -52.797  27.560  1.00  0.00     0.136 C 
ATOM      2  O   UNL     1     -21.978 -52.337  26.831  1.00  0.00    -0.299 OA
ENDROOT
BRANCH   1   3
ATOM      3  C   UNL     1     -23.220 -52.092  28.854  1.00  0.00     0.053 C 
ATOM      4  C   UNL     1     -22.066 -51.279  29.464  1.00  0.00     0.016 C 
BRANCH   3   5
ATOM      5  C   UNL     1     -24.535 -51.278  28.744  1.00  0.00     0.015 C 
BRANCH   5   6
ATOM      6  C   UNL     1     -25.871 -51.996  29.033  1.00  0.00     0.028 C 
BRANCH   6   7
ATOM      7  C   UNL     1     -26.885 -52.077  27.917  1.00  0.00    -0.028 C 
ATOM      8  C   UNL     1     -27.260 -53.191  27.247  1.00  0.00    -0.070 CG0
ATOM      9  C   UNL     1     -28.510 -53.099  26.402  1.00  0.00     0.039 C 
ATOM     10  G   UNL     1     -26.509 -54.509  27.301  1.00  0.00     0.000 G0
ENDBRANCH   6   7
ENDBRANCH   5   6
ENDBRANCH   3   5
ENDBRANCH   1   3
BRANCH   1  11
ATOM     11  C   UNL     1     -23.466 -54.138  27.226  1.00  0.00     0.087 C 
BRANCH  11  12
ATOM     12  C   UNL     1     -24.262 -54.208  25.890  1.00  0.00     0.066 C 
BRANCH  12  13
ATOM     13  C   UNL     1     -25.682 -54.734  26.042  1.00  0.00     0.140 C 
ATOM     14  O   UNL     1     -26.143 -55.408  25.131  1.00  0.00    -0.299 OA
BRANCH  13  15
ATOM     15  C   UNL     1     -26.511 -54.538  27.294  1.00  0.00     0.106 CG0
ATOM     16  G   UNL     1     -27.245 -53.210  27.240  1.00  0.00     0.000 G0
ENDBRANCH  13  15
ENDBRANCH  12  13
BRANCH  12  17
ATOM     17  C   UNL     1     -23.487 -55.004  24.793  1.00  0.00    -0.006 C 
ATOM     18  C   UNL     1     -22.671 -54.075  23.876  1.00  0.00     0.008 C 
ATOM     19  C   UNL     1     -22.537 -56.047  25.413  1.00  0.00     0.008 C 
ENDBRANCH  12  17
ENDBRANCH  11  12
ENDBRANCH   1  11
TORSDOF 1
ENDMDL
MODEL 2
REMARK VINA RESULT:    -4.199      1.884      3.643
REMARK INTER + INTRA:          -6.756
REMARK INTER:                  -6.482
REMARK INTRA:                  -0.275
REMARK UNBOUND:                -0.349
REMARK SMILES CC1=CCC[C@H](C)C(=O)C[C@@H](C(C)C)C(=O)C1
REMARK SMILES IDX 8 1 9 2 6 3 7 4 5 5 4 6 3 7 2 8 1 9 10 11 11 12 15 13 16 14
REMARK SMILES IDX 17 15 12 17 13 18 14 19
REMARK H PARENT
REMARK Flexibility Score: 70.00
ROOT
ATOM      1  C   UNL     1     -25.200 -53.162  24.591  1.00  0.00     0.136 C 
ATOM      2  O   UNL     1     -24.639 -53.144  23.505  1.00  0.00    -0.299 OA
ENDROOT
BRANCH   1   3
ATOM      3  C   UNL     1     -26.706 -53.353  24.679  1.00  0.00     0.053 C 
ATOM      4  C   UNL     1     -27.143 -54.824  24.581  1.00  0.00     0.016 C 
BRANCH   3   5
ATOM      5  C   UNL     1     -27.342 -52.618  25.888  1.00  0.00     0.015 C 
BRANCH   5   6
ATOM      6  C   UNL     1     -27.623 -53.425  27.174  1.00  0.00     0.028 C 
BRANCH   6   7
ATOM      7  C   UNL     1     -27.300 -52.776  28.499  1.00  0.00    -0.028 C 
ATOM      8  C   UNL     1     -26.216 -53.015  29.271  1.00  0.00    -0.070 CG0
ATOM      9  C   UNL     1     -25.931 -52.033  30.383  1.00  0.00     0.039 C 
ATOM     10  G   UNL     1     -25.280 -54.196  29.081  1.00  0.00     0.000 G0
ENDBRANCH   6   7
ENDBRANCH   5   6
ENDBRANCH   3   5
ENDBRANCH   1   3
BRANCH   1  11
ATOM     11  C   UNL     1     -24.403 -52.878  25.848  1.00  0.00     0.087 C 
BRANCH  11  12
ATOM     12  C   UNL     1     -24.049 -54.114  26.726  1.00  0.00     0.066 C 
BRANCH  12  13
ATOM     13  C   UNL     1     -24.084 -53.841  28.223  1.00  0.00     0.140 C 
ATOM     14  O   UNL     1     -23.140 -53.240  28.716  1.00  0.00    -0.299 OA
BRANCH  13  15
ATOM     15  C   UNL     1     -25.262 -54.199  29.105  1.00  0.00     0.106 CG0
ATOM     16  G   UNL     1     -26.198 -53.011  29.245  1.00  0.00     0.000 G0
ENDBRANCH  13  15
ENDBRANCH  12  13
BRANCH  12  17
ATOM     17  C   UNL     1     -22.687 -54.753  26.307  1.00  0.00    -0.006 C 
ATOM     18  C   UNL     1     -22.876 -55.910  25.308  1.00  0.00     0.008 C 
ATOM     19  C   UNL     1     -21.738 -53.712  25.685  1.00  0.00     0.008 C 
ENDBRANCH  12  17
ENDBRANCH  11  12
ENDBRANCH   1  11
TORSDOF 1
ENDMDL
MODEL 3
REMARK VINA RESULT:    -4.181      1.882      4.764
REMARK INTER + INTRA:          -6.730
REMARK INTER:                  -6.561
REMARK INTRA:                  -0.169
REMARK UNBOUND:                -0.349
REMARK SMILES CC1=CCC[C@H](C)C(=O)C[C@@H](C(C)C)C(=O)C1
REMARK SMILES IDX 8 1 9 2 6 3 7 4 5 5 4 6 3 7 2 8 1 9 10 11 11 12 15 13 16 14
REMARK SMILES IDX 17 15 12 17 13 18 14 19
REMARK H PARENT
REMARK Flexibility Score: 70.00
ROOT
ATOM      1  C   UNL     1     -25.485 -54.900  25.868  1.00  0.00     0.136 C 
ATOM      2  O   UNL     1     -25.929 -55.359  24.825  1.00  0.00    -0.299 OA
ENDROOT
BRANCH   1   3
ATOM      3  C   UNL     1     -24.017 -54.521  25.982  1.00  0.00     0.053 C 
ATOM      4  C   UNL     1     -23.065 -55.582  25.406  1.00  0.00     0.016 C 
BRANCH   3   5
ATOM      5  C   UNL     1     -23.715 -53.094  25.455  1.00  0.00     0.015 C 
BRANCH   5   6
ATOM      6  C   UNL     1     -23.432 -51.975  26.481  1.00  0.00     0.028 C 
BRANCH   6   7
ATOM      7  C   UNL     1     -23.018 -52.384  27.875  1.00  0.00    -0.028 C 
ATOM      8  C   UNL     1     -23.817 -52.464  28.963  1.00  0.00    -0.070 CG0
ATOM      9  C   UNL     1     -23.271 -53.196  30.167  1.00  0.00     0.039 C 
ATOM     10  G   UNL     1     -25.214 -51.873  29.038  1.00  0.00     0.000 G0
ENDBRANCH   6   7
ENDBRANCH   5   6
ENDBRANCH   3   5
ENDBRANCH   1   3
BRANCH   1  11
ATOM     11  C   UNL     1     -26.381 -54.817  27.088  1.00  0.00     0.087 C 
BRANCH  11  12
ATOM     12  C   UNL     1     -26.808 -53.385  27.525  1.00  0.00     0.066 C 
BRANCH  12  13
ATOM     13  C   UNL     1     -26.259 -52.961  28.880  1.00  0.00     0.140 C 
ATOM     14  O   UNL     1     -26.625 -53.586  29.865  1.00  0.00    -0.299 OA
BRANCH  13  15
ATOM     15  C   UNL     1     -25.223 -51.871  29.051  1.00  0.00     0.106 CG0
ATOM     16  G   UNL     1     -23.823 -52.453  28.972  1.00  0.00     0.000 G0
ENDBRANCH  13  15
ENDBRANCH  12  13
BRANCH  12  17
ATOM     17  C   UNL     1     -28.358 -53.200  27.468  1.00  0.00    -0.006 C 
ATOM     18  C   UNL     1     -28.804 -51.876  28.117  1.00  0.00     0.008 C 
ATOM     19  C   UNL     1     -28.882 -53.243  26.021  1.00  0.00     0.008 C 
ENDBRANCH  12  17
ENDBRANCH  11  12
ENDBRANCH   1  11
TORSDOF 1
ENDMDL
MODEL 4
REMARK VINA RESULT:    -4.103      1.967      3.578
REMARK INTER + INTRA:          -6.610
REMARK INTER:                  -6.393
REMARK INTRA:                  -0.217
REMARK UNBOUND:                -0.349
REMARK SMILES CC1=CCC[C@H](C)C(=O)C[C@@H](C(C)C)C(=O)C1
REMARK SMILES IDX 8 1 9 2 6 3 7 4 5 5 4 6 3 7 2 8 1 9 10 11 11 12 15 13 16 14
REMARK SMILES IDX 17 15 12 17 13 18 14 19
REMARK H PARENT
REMARK Flexibility Score: 70.00
ROOT
ATOM      1  C   UNL     1     -23.467 -54.755  25.421  1.00  0.00     0.136 C 
ATOM      2  O   UNL     1     -23.101 -55.292  24.384  1.00  0.00    -0.299 OA
ENDROOT
BRANCH   1   3
ATOM      3  C   UNL     1     -22.501 -53.908  26.234  1.00  0.00     0.053 C 
ATOM      4  C   UNL     1     -21.114 -54.551  26.400  1.00  0.00     0.016 C 
BRANCH   3   5
ATOM      5  C   UNL     1     -22.425 -52.437  25.749  1.00  0.00     0.015 C 
BRANCH   5   6
ATOM      6  C   UNL     1     -23.035 -51.335  26.642  1.00  0.00     0.028 C 
BRANCH   6   7
ATOM      7  C   UNL     1     -23.323 -51.676  28.085  1.00  0.00    -0.028 C 
ATOM      8  C   UNL     1     -24.510 -52.071  28.599  1.00  0.00    -0.070 CG0
ATOM      9  C   UNL     1     -24.497 -52.665  29.989  1.00  0.00     0.039 C 
ATOM     10  G   UNL     1     -25.835 -51.958  27.865  1.00  0.00     0.000 G0
ENDBRANCH   6   7
ENDBRANCH   5   6
ENDBRANCH   3   5
ENDBRANCH   1   3
BRANCH   1  11
ATOM     11  C   UNL     1     -24.858 -55.032  25.954  1.00  0.00     0.087 C 
BRANCH  11  12
ATOM     12  C   UNL     1     -25.848 -53.831  25.937  1.00  0.00     0.066 C 
BRANCH  12  13
ATOM     13  C   UNL     1     -26.240 -53.331  27.320  1.00  0.00     0.140 C 
ATOM     14  O   UNL     1     -26.853 -54.096  28.051  1.00  0.00    -0.299 OA
BRANCH  13  15
ATOM     15  C   UNL     1     -25.833 -51.976  27.859  1.00  0.00     0.106 CG0
ATOM     16  G   UNL     1     -24.504 -52.072  28.587  1.00  0.00     0.000 G0
ENDBRANCH  13  15
ENDBRANCH  12  13
BRANCH  12  17
ATOM     17  C   UNL     1     -27.113 -54.134  25.073  1.00  0.00    -0.006 C 
ATOM     18  C   UNL     1     -27.344 -53.061  23.993  1.00  0.00     0.008 C 
ATOM     19  C   UNL     1     -27.018 -55.511  24.391  1.00  0.00     0.008 C 
ENDBRANCH  12  17
ENDBRANCH  11  12
ENDBRANCH   1  11
TORSDOF 1
ENDMDL
MODEL 5
REMARK VINA RESULT:    -4.098      3.218      5.504
REMARK INTER + INTRA:          -6.602
REMARK INTER:                  -6.339
REMARK INTRA:                  -0.263
REMARK UNBOUND:                -0.349
REMARK SMILES CC1=CCC[C@H](C)C(=O)C[C@@H](C(C)C)C(=O)C1
REMARK SMILES IDX 8 1 9 2 6 3 7 4 5 5 4 6 3 7 2 8 1 9 10 11 11 12 15 13 16 14
REMARK SMILES IDX 17 15 12 17 13 18 14 19
REMARK H PARENT
REMARK Flexibility Score: 70.00
ROOT
ATOM      1  C   UNL     1     -21.258 -53.693  23.912  1.00  0.00     0.136 C 
ATOM      2  O   UNL     1     -21.819 -54.194  22.947  1.00  0.00    -0.299 OA
ENDROOT
BRANCH   1   3
ATOM      3  C   UNL     1     -20.124 -52.699  23.715  1.00  0.00     0.053 C 
ATOM      4  C   UNL     1     -19.854 -52.364  22.239  1.00  0.00     0.016 C 
BRANCH   3   5
ATOM      5  C   UNL     1     -20.264 -51.434  24.602  1.00  0.00     0.015 C 
BRANCH   5   6
ATOM      6  C   UNL     1     -19.345 -51.294  25.835  1.00  0.00     0.028 C 
BRANCH   6   7
ATOM      7  C   UNL     1     -19.941 -50.722  27.098  1.00  0.00    -0.028 C 
ATOM      8  C   UNL     1     -20.507 -51.418  28.111  1.00  0.00    -0.070 CG0
ATOM      9  C   UNL     1     -20.743 -50.679  29.408  1.00  0.00     0.039 C 
ATOM     10  G   UNL     1     -20.906 -52.880  28.018  1.00  0.00     0.000 G0
ENDBRANCH   6   7
ENDBRANCH   5   6
ENDBRANCH   3   5
ENDBRANCH   1   3
BRANCH   1  11
ATOM     11  C   UNL     1     -21.620 -54.155  25.309  1.00  0.00     0.087 C 
BRANCH  11  12
ATOM     12  C   UNL     1     -22.682 -53.298  26.058  1.00  0.00     0.066 C 
BRANCH  12  13
ATOM     13  C   UNL     1     -22.340 -53.022  27.515  1.00  0.00     0.140 C 
ATOM     14  O   UNL     1     -23.259 -52.982  28.320  1.00  0.00    -0.299 OA
BRANCH  13  15
ATOM     15  C   UNL     1     -20.920 -52.882  28.022  1.00  0.00     0.106 CG0
ATOM     16  G   UNL     1     -20.525 -51.418  28.094  1.00  0.00     0.000 G0
ENDBRANCH  13  15
ENDBRANCH  12  13
BRANCH  12  17
ATOM     17  C   UNL     1     -24.115 -53.905  25.926  1.00  0.00    -0.006 C 
ATOM     18  C   UNL     1     -24.922 -53.238  24.796  1.00  0.00     0.008 C 
ATOM     19  C   UNL     1     -24.067 -55.423  25.672  1.00  0.00     0.008 C 
ENDBRANCH  12  17
ENDBRANCH  11  12
ENDBRANCH   1  11
TORSDOF 1
ENDMDL
MODEL 6
REMARK VINA RESULT:    -4.020      2.191      4.591
REMARK INTER + INTRA:          -6.484
REMARK INTER:                  -6.407
REMARK INTRA:                  -0.076
REMARK UNBOUND:                -0.349
REMARK SMILES CC1=CCC[C@H](C)C(=O)C[C@@H](C(C)C)C(=O)C1
REMARK SMILES IDX 8 1 9 2 6 3 7 4 5 5 4 6 3 7 2 8 1 9 10 11 11 12 15 13 16 14
REMARK SMILES IDX 17 15 12 17 13 18 14 19
REMARK H PARENT
REMARK Flexibility Score: 70.00
ROOT
ATOM      1  C   UNL     1     -21.511 -52.956  24.615  1.00  0.00     0.136 C 
ATOM      2  O   UNL     1     -20.289 -52.962  24.688  1.00  0.00    -0.299 OA
ENDROOT
BRANCH   1   3
ATOM      3  C   UNL     1     -22.239 -53.997  23.779  1.00  0.00     0.053 C 
ATOM      4  C   UNL     1     -21.767 -54.045  22.316  1.00  0.00     0.016 C 
BRANCH   3   5
ATOM      5  C   UNL     1     -22.272 -55.397  24.445  1.00  0.00     0.015 C 
BRANCH   5   6
ATOM      6  C   UNL     1     -23.549 -55.821  25.203  1.00  0.00     0.028 C 
BRANCH   6   7
ATOM      7  C   UNL     1     -24.762 -54.928  25.097  1.00  0.00    -0.028 C 
ATOM      8  C   UNL     1     -25.070 -53.887  25.905  1.00  0.00    -0.070 CG0
ATOM      9  C   UNL     1     -26.148 -52.941  25.429  1.00  0.00     0.039 C 
ATOM     10  G   UNL     1     -24.398 -53.619  27.240  1.00  0.00     0.000 G0
ENDBRANCH   6   7
ENDBRANCH   5   6
ENDBRANCH   3   5
ENDBRANCH   1   3
BRANCH   1  11
ATOM     11  C   UNL     1     -22.292 -51.835  25.270  1.00  0.00     0.087 C 
BRANCH  11  12
ATOM     12  C   UNL     1     -22.416 -51.904  26.820  1.00  0.00     0.066 C 
BRANCH  12  13
ATOM     13  C   UNL     1     -23.815 -52.238  27.316  1.00  0.00     0.140 C 
ATOM     14  O   UNL     1     -24.517 -51.317  27.709  1.00  0.00    -0.299 OA
BRANCH  13  15
ATOM     15  C   UNL     1     -24.404 -53.632  27.263  1.00  0.00     0.106 CG0
ATOM     16  G   UNL     1     -25.063 -53.878  25.916  1.00  0.00     0.000 G0
ENDBRANCH  13  15
ENDBRANCH  12  13
BRANCH  12  17
ATOM     17  C   UNL     1     -21.876 -50.607  27.504  1.00  0.00    -0.006 C 
ATOM     18  C   UNL     1     -20.709 -50.905  28.463  1.00  0.00     0.008 C 
ATOM     19  C   UNL     1     -21.412 -49.569  26.465  1.00  0.00     0.008 C 
ENDBRANCH  12  17
ENDBRANCH  11  12
ENDBRANCH   1  11
TORSDOF 1
ENDMDL
MODEL 7
REMARK VINA RESULT:    -3.895      1.806      4.010
REMARK INTER + INTRA:          -6.293
REMARK INTER:                  -5.997
REMARK INTRA:                  -0.295
REMARK UNBOUND:                -0.349
REMARK SMILES CC1=CCC[C@H](C)C(=O)C[C@@H](C(C)C)C(=O)C1
REMARK SMILES IDX 8 1 9 2 6 3 7 4 5 5 4 6 3 7 2 8 1 9 10 11 11 12 15 13 16 14
REMARK SMILES IDX 17 15 12 17 13 18 14 19
REMARK H PARENT
REMARK Flexibility Score: 70.00
ROOT
ATOM      1  C   UNL     1     -23.631 -51.730  27.134  1.00  0.00     0.136 C 
ATOM      2  O   UNL     1     -22.591 -51.262  27.576  1.00  0.00    -0.299 OA
ENDROOT
BRANCH   1   3
ATOM      3  C   UNL     1     -23.632 -52.517  25.833  1.00  0.00     0.053 C 
ATOM      4  C   UNL     1     -22.761 -51.884  24.735  1.00  0.00     0.016 C 
BRANCH   3   5
ATOM      5  C   UNL     1     -23.338 -54.027  26.036  1.00  0.00     0.015 C 
BRANCH   5   6
ATOM      6  C   UNL     1     -24.512 -55.025  25.931  1.00  0.00     0.028 C 
BRANCH   6   7
ATOM      7  C   UNL     1     -25.791 -54.545  25.287  1.00  0.00    -0.028 C 
ATOM      8  C   UNL     1     -26.902 -54.113  25.924  1.00  0.00    -0.070 CG0
ATOM      9  C   UNL     1     -27.934 -53.384  25.095  1.00  0.00     0.039 C 
ATOM     10  G   UNL     1     -27.164 -54.313  27.407  1.00  0.00     0.000 G0
ENDBRANCH   6   7
ENDBRANCH   5   6
ENDBRANCH   3   5
ENDBRANCH   1   3
BRANCH   1  11
ATOM     11  C   UNL     1     -24.942 -51.424  27.830  1.00  0.00     0.087 C 
BRANCH  11  12
ATOM     12  C   UNL     1     -25.561 -52.586  28.660  1.00  0.00     0.066 C 
BRANCH  12  13
ATOM     13  C   UNL     1     -26.937 -53.027  28.180  1.00  0.00     0.140 C 
ATOM     14  O   UNL     1     -27.876 -52.264  28.360  1.00  0.00    -0.299 OA
BRANCH  13  15
ATOM     15  C   UNL     1     -27.178 -54.313  27.419  1.00  0.00     0.106 CG0
ATOM     16  G   UNL     1     -26.901 -54.113  25.939  1.00  0.00     0.000 G0
ENDBRANCH  13  15
ENDBRANCH  12  13
BRANCH  12  17
ATOM     17  C   UNL     1     -25.581 -52.262  30.188  1.00  0.00    -0.006 C 
ATOM     18  C   UNL     1     -24.976 -53.402  31.027  1.00  0.00     0.008 C 
ATOM     19  C   UNL     1     -24.822 -50.959  30.501  1.00  0.00     0.008 C 
ENDBRANCH  12  17
ENDBRANCH  11  12
ENDBRANCH   1  11
TORSDOF 1
ENDMDL
MODEL 8
REMARK VINA RESULT:    -3.894      3.956      6.436
REMARK INTER + INTRA:          -6.292
REMARK INTER:                  -6.132
REMARK INTRA:                  -0.161
REMARK UNBOUND:                -0.349
REMARK SMILES CC1=CCC[C@H](C)C(=O)C[C@@H](C(C)C)C(=O)C1
REMARK SMILES IDX 8 1 9 2 6 3 7 4 5 5 4 6 3 7 2 8 1 9 10 11 11 12 15 13 16 14
REMARK SMILES IDX 17 15 12 17 13 18 14 19
REMARK H PARENT
REMARK Flexibility Score: 70.00
ROOT
ATOM      1  C   UNL     1     -19.016 -50.131  28.874  1.00  0.00     0.136 C 
ATOM      2  O   UNL     1     -17.937 -49.563  28.974  1.00  0.00    -0.299 OA
ENDROOT
BRANCH   1   3
ATOM      3  C   UNL     1     -19.542 -50.552  27.510  1.00  0.00     0.053 C 
ATOM      4  C   UNL     1     -19.336 -49.488  26.420  1.00  0.00     0.016 C 
BRANCH   3   5
ATOM      5  C   UNL     1     -19.052 -51.958  27.077  1.00  0.00     0.015 C 
BRANCH   5   6
ATOM      6  C   UNL     1     -20.084 -53.104  26.997  1.00  0.00     0.028 C 
BRANCH   6   7
ATOM      7  C   UNL     1     -21.542 -52.756  27.177  1.00  0.00    -0.028 C 
ATOM      8  C   UNL     1     -22.236 -52.763  28.338  1.00  0.00    -0.070 CG0
ATOM      9  C   UNL     1     -23.582 -52.076  28.341  1.00  0.00     0.039 C 
ATOM     10  G   UNL     1     -21.741 -53.410  29.620  1.00  0.00     0.000 G0
ENDBRANCH   6   7
ENDBRANCH   5   6
ENDBRANCH   3   5
ENDBRANCH   1   3
BRANCH   1  11
ATOM     11  C   UNL     1     -19.882 -50.313  30.104  1.00  0.00     0.087 C 
BRANCH  11  12
ATOM     12  C   UNL     1     -19.950 -51.756  30.684  1.00  0.00     0.066 C 
BRANCH  12  13
ATOM     13  C   UNL     1     -21.340 -52.375  30.643  1.00  0.00     0.140 C 
ATOM     14  O   UNL     1     -22.177 -51.952  31.428  1.00  0.00    -0.299 OA
BRANCH  13  15
ATOM     15  C   UNL     1     -21.755 -53.418  29.627  1.00  0.00     0.106 CG0
ATOM     16  G   UNL     1     -22.224 -52.752  28.346  1.00  0.00     0.000 G0
ENDBRANCH  13  15
ENDBRANCH  12  13
BRANCH  12  17
ATOM     17  C   UNL     1     -19.347 -51.832  32.122  1.00  0.00    -0.006 C 
ATOM     18  C   UNL     1     -19.523 -53.229  32.748  1.00  0.00     0.008 C 
ATOM     19  C   UNL     1     -17.850 -51.471  32.130  1.00  0.00     0.008 C 
ENDBRANCH  12  17
ENDBRANCH  11  12
ENDBRANCH   1  11
TORSDOF 1
ENDMDL
MODEL 9
REMARK VINA RESULT:    -3.826      2.278      5.445
REMARK INTER + INTRA:          -6.188
REMARK INTER:                  -5.953
REMARK INTRA:                  -0.235
REMARK UNBOUND:                -0.349
REMARK SMILES CC1=CCC[C@H](C)C(=O)C[C@@H](C(C)C)C(=O)C1
REMARK SMILES IDX 8 1 9 2 6 3 7 4 5 5 4 6 3 7 2 8 1 9 10 11 11 12 15 13 16 14
REMARK SMILES IDX 17 15 12 17 13 18 14 19
REMARK H PARENT
REMARK Flexibility Score: 70.00
ROOT
ATOM      1  C   UNL     1     -25.131 -54.620  26.730  1.00  0.00     0.136 C 
ATOM      2  O   UNL     1     -26.209 -55.112  26.426  1.00  0.00    -0.299 OA
ENDROOT
BRANCH   1   3
ATOM      3  C   UNL     1     -23.948 -54.704  25.779  1.00  0.00     0.053 C 
ATOM      4  C   UNL     1     -23.921 -55.998  24.949  1.00  0.00     0.016 C 
BRANCH   3   5
ATOM      5  C   UNL     1     -23.774 -53.431  24.911  1.00  0.00     0.015 C 
BRANCH   5   6
ATOM      6  C   UNL     1     -22.491 -52.591  25.086  1.00  0.00     0.028 C 
BRANCH   6   7
ATOM      7  C   UNL     1     -21.502 -53.024  26.142  1.00  0.00    -0.028 C 
ATOM      8  C   UNL     1     -21.499 -52.656  27.443  1.00  0.00    -0.070 CG0
ATOM      9  C   UNL     1     -20.623 -53.452  28.383  1.00  0.00     0.039 C 
ATOM     10  G   UNL     1     -22.318 -51.507  28.004  1.00  0.00     0.000 G0
ENDBRANCH   6   7
ENDBRANCH   5   6
ENDBRANCH   3   5
ENDBRANCH   1   3
BRANCH   1  11
ATOM     11  C   UNL     1     -24.946 -54.025  28.111  1.00  0.00     0.087 C 
BRANCH  11  12
ATOM     12  C   UNL     1     -24.788 -52.478  28.173  1.00  0.00     0.066 C 
BRANCH  12  13
ATOM     13  C   UNL     1     -23.486 -52.013  28.811  1.00  0.00     0.140 C 
ATOM     14  O   UNL     1     -23.370 -52.130  30.022  1.00  0.00    -0.299 OA
BRANCH  13  15
ATOM     15  C   UNL     1     -22.307 -51.499  28.012  1.00  0.00     0.106 CG0
ATOM     16  G   UNL     1     -21.497 -52.658  27.457  1.00  0.00     0.000 G0
ENDBRANCH  13  15
ENDBRANCH  12  13
BRANCH  12  17
ATOM     17  C   UNL     1     -26.017 -51.795  28.852  1.00  0.00    -0.006 C 
ATOM     18  C   UNL     1     -27.069 -51.345  27.820  1.00  0.00     0.008 C 
ATOM     19  C   UNL     1     -26.693 -52.729  29.873  1.00  0.00     0.008 C 
ENDBRANCH  12  17
ENDBRANCH  11  12
ENDBRANCH   1  11
TORSDOF 1
ENDMDL
