MODEL 1
REMARK VINA RESULT:    -6.414      0.000      0.000
REMARK INTER + INTRA:          -8.594
REMARK INTER:                  -8.101
REMARK INTRA:                  -0.493
REMARK UNBOUND:                -0.493
REMARK SMILES Oc1ccc(CCc2cc(O)cc(O)c2)cc1
REMARK SMILES IDX 6 1 5 2 4 3 3 4 2 5 16 6 17 7 1 8 7 10 8 11 15 12 9 13 13 14
REMARK SMILES IDX 10 15 12 16 14 17 11 19
REMARK H PARENT 1 9 14 18 11 20
REMARK Flexibility Score: inf
ROOT
ATOM      1  C   UNL     1       7.359   6.907  -4.257  1.00  0.00     0.040 C 
ENDROOT
BRANCH   1   2
ATOM      2  C   UNL     1       7.071   6.073  -3.037  1.00  0.00    -0.047 A 
ATOM      3  C   UNL     1       6.921   6.682  -1.781  1.00  0.00     0.007 A 
ATOM      4  C   UNL     1       6.621   5.909  -0.655  1.00  0.00     0.046 A 
ATOM      5  C   UNL     1       6.457   4.523  -0.776  1.00  0.00     0.115 A 
ATOM      6  C   UNL     1       6.893   4.685  -3.156  1.00  0.00     0.007 A 
ATOM      7  C   UNL     1       6.593   3.914  -2.028  1.00  0.00     0.046 A 
BRANCH   5   8
ATOM      8  O   UNL     1       6.158   3.742   0.339  1.00  0.00    -0.508 OA
ATOM      9  H   UNL     1       5.358   3.945   0.927  1.00  0.00     0.293 HD
ENDBRANCH   5   8
ENDBRANCH   1   2
BRANCH   1  10
ATOM     10  C   UNL     1       8.821   6.750  -4.684  1.00  0.00     0.040 C 
BRANCH  10  11
ATOM     11  C   UNL     1       8.907   6.189  -6.078  1.00  0.00    -0.040 A 
ATOM     12  C   UNL     1       8.610   4.838  -6.317  1.00  0.00     0.050 A 
ATOM     13  C   UNL     1       9.342   6.998  -7.141  1.00  0.00     0.050 A 
ATOM     14  C   UNL     1       8.722   4.305  -7.609  1.00  0.00     0.119 A 
ATOM     15  C   UNL     1       9.456   6.466  -8.434  1.00  0.00     0.119 A 
ATOM     16  C   UNL     1       9.142   5.123  -8.663  1.00  0.00     0.092 A 
BRANCH  14  17
ATOM     17  O   UNL     1       8.421   2.968  -7.854  1.00  0.00    -0.508 OA
ATOM     18  H   UNL     1       9.138   2.304  -8.124  1.00  0.00     0.293 HD
ENDBRANCH  14  17
BRANCH  15  19
ATOM     19  O   UNL     1       9.879   7.265  -9.494  1.00  0.00    -0.508 OA
ATOM     20  H   UNL     1      10.860   7.347  -9.736  1.00  0.00     0.293 HD
ENDBRANCH  15  19
ENDBRANCH  10  11
ENDBRANCH   1  10
TORSDOF 6
ENDMDL
MODEL 2
REMARK VINA RESULT:    -6.392      0.074      2.032
REMARK INTER + INTRA:          -8.567
REMARK INTER:                  -8.065
REMARK INTRA:                  -0.502
REMARK UNBOUND:                -0.493
REMARK SMILES Oc1ccc(CCc2cc(O)cc(O)c2)cc1
REMARK SMILES IDX 6 1 5 2 4 3 3 4 2 5 16 6 17 7 1 8 7 10 8 11 15 12 9 13 13 14
REMARK SMILES IDX 10 15 12 16 14 17 11 19
REMARK H PARENT 1 9 14 18 11 20
REMARK Flexibility Score: inf
ROOT
ATOM      1  C   UNL     1       7.335   6.848  -4.344  1.00  0.00     0.040 C 
ENDROOT
BRANCH   1   2
ATOM      2  C   UNL     1       7.064   6.063  -3.089  1.00  0.00    -0.047 A 
ATOM      3  C   UNL     1       6.899   6.723  -1.861  1.00  0.00     0.007 A 
ATOM      4  C   UNL     1       6.614   5.995  -0.702  1.00  0.00     0.046 A 
ATOM      5  C   UNL     1       6.482   4.601  -0.761  1.00  0.00     0.115 A 
ATOM      6  C   UNL     1       6.917   4.667  -3.146  1.00  0.00     0.007 A 
ATOM      7  C   UNL     1       6.633   3.941  -1.985  1.00  0.00     0.046 A 
BRANCH   5   8
ATOM      8  O   UNL     1       6.199   3.865   0.387  1.00  0.00    -0.508 OA
ATOM      9  H   UNL     1       6.938   3.463   0.953  1.00  0.00     0.293 HD
ENDBRANCH   5   8
ENDBRANCH   1   2
BRANCH   1  10
ATOM     10  C   UNL     1       8.813   6.749  -4.733  1.00  0.00     0.040 C 
BRANCH  10  11
ATOM     11  C   UNL     1       8.959   6.160  -6.111  1.00  0.00    -0.040 A 
ATOM     12  C   UNL     1       9.379   6.963  -7.183  1.00  0.00     0.050 A 
ATOM     13  C   UNL     1       8.620   4.817  -6.346  1.00  0.00     0.050 A 
ATOM     14  C   UNL     1       9.483   6.424  -8.473  1.00  0.00     0.119 A 
ATOM     15  C   UNL     1       8.724   4.277  -7.637  1.00  0.00     0.119 A 
ATOM     16  C   UNL     1       9.158   5.082  -8.695  1.00  0.00     0.092 A 
BRANCH  14  17
ATOM     17  O   UNL     1       9.906   7.214  -9.540  1.00  0.00    -0.508 OA
ATOM     18  H   UNL     1       9.850   6.886 -10.497  1.00  0.00     0.293 HD
ENDBRANCH  14  17
BRANCH  15  19
ATOM     19  O   UNL     1       8.397   2.944  -7.876  1.00  0.00    -0.508 OA
ATOM     20  H   UNL     1       8.140   2.620  -8.800  1.00  0.00     0.293 HD
ENDBRANCH  15  19
ENDBRANCH  10  11
ENDBRANCH   1  10
TORSDOF 6
ENDMDL
MODEL 3
REMARK VINA RESULT:    -5.903      1.723      6.726
REMARK INTER + INTRA:          -7.949
REMARK INTER:                  -7.496
REMARK INTRA:                  -0.453
REMARK UNBOUND:                -0.493
REMARK SMILES Oc1ccc(CCc2cc(O)cc(O)c2)cc1
REMARK SMILES IDX 6 1 5 2 4 3 3 4 2 5 16 6 17 7 1 8 7 10 8 11 15 12 9 13 13 14
REMARK SMILES IDX 10 15 12 16 14 17 11 19
REMARK H PARENT 1 9 14 18 11 20
REMARK Flexibility Score: inf
ROOT
ATOM      1  C   UNL     1       9.284   6.381  -5.455  1.00  0.00     0.040 C 
ENDROOT
BRANCH   1   2
ATOM      2  C   UNL     1       9.194   5.898  -6.878  1.00  0.00    -0.047 A 
ATOM      3  C   UNL     1       9.489   6.766  -7.942  1.00  0.00     0.007 A 
ATOM      4  C   UNL     1       9.437   6.306  -9.261  1.00  0.00     0.046 A 
ATOM      5  C   UNL     1       9.101   4.973  -9.529  1.00  0.00     0.115 A 
ATOM      6  C   UNL     1       8.871   4.558  -7.151  1.00  0.00     0.007 A 
ATOM      7  C   UNL     1       8.819   4.101  -8.472  1.00  0.00     0.046 A 
BRANCH   5   8
ATOM      8  O   UNL     1       9.045   4.504 -10.840  1.00  0.00    -0.508 OA
ATOM      9  H   UNL     1       8.741   5.098 -11.602  1.00  0.00     0.293 HD
ENDBRANCH   5   8
ENDBRANCH   1   2
BRANCH   1  10
ATOM     10  C   UNL     1       8.055   7.218  -5.092  1.00  0.00     0.040 C 
BRANCH  10  11
ATOM     11  C   UNL     1       7.573   6.878  -3.707  1.00  0.00    -0.040 A 
ATOM     12  C   UNL     1       7.366   5.539  -3.339  1.00  0.00     0.050 A 
ATOM     13  C   UNL     1       7.272   7.900  -2.791  1.00  0.00     0.050 A 
ATOM     14  C   UNL     1       6.885   5.223  -2.060  1.00  0.00     0.119 A 
ATOM     15  C   UNL     1       6.790   7.584  -1.512  1.00  0.00     0.119 A 
ATOM     16  C   UNL     1       6.602   6.247  -1.151  1.00  0.00     0.092 A 
BRANCH  14  17
ATOM     17  O   UNL     1       6.685   3.896  -1.686  1.00  0.00    -0.508 OA
ATOM     18  H   UNL     1       7.081   3.130  -2.217  1.00  0.00     0.293 HD
ENDBRANCH  14  17
BRANCH  15  19
ATOM     19  O   UNL     1       6.497   8.592  -0.597  1.00  0.00    -0.508 OA
ATOM     20  H   UNL     1       5.613   9.087  -0.620  1.00  0.00     0.293 HD
ENDBRANCH  15  19
ENDBRANCH  10  11
ENDBRANCH   1  10
TORSDOF 6
ENDMDL
MODEL 4
REMARK VINA RESULT:    -5.842      1.668      6.980
REMARK INTER + INTRA:          -7.872
REMARK INTER:                  -7.388
REMARK INTRA:                  -0.484
REMARK UNBOUND:                -0.493
REMARK SMILES Oc1ccc(CCc2cc(O)cc(O)c2)cc1
REMARK SMILES IDX 6 1 5 2 4 3 3 4 2 5 16 6 17 7 1 8 7 10 8 11 15 12 9 13 13 14
REMARK SMILES IDX 10 15 12 16 14 17 11 19
REMARK H PARENT 1 9 14 18 11 20
REMARK Flexibility Score: inf
ROOT
ATOM      1  C   UNL     1       9.296   6.646  -5.242  1.00  0.00     0.040 C 
ENDROOT
BRANCH   1   2
ATOM      2  C   UNL     1       9.273   6.102  -6.646  1.00  0.00    -0.047 A 
ATOM      3  C   UNL     1       8.845   4.788  -6.890  1.00  0.00     0.007 A 
ATOM      4  C   UNL     1       8.793   4.295  -8.197  1.00  0.00     0.046 A 
ATOM      5  C   UNL     1       9.158   5.115  -9.274  1.00  0.00     0.115 A 
ATOM      6  C   UNL     1       9.625   6.925  -7.729  1.00  0.00     0.007 A 
ATOM      7  C   UNL     1       9.573   6.430  -9.036  1.00  0.00     0.046 A 
BRANCH   5   8
ATOM      8  O   UNL     1       9.110   4.636 -10.581  1.00  0.00    -0.508 OA
ATOM      9  H   UNL     1       9.142   3.642 -10.781  1.00  0.00     0.293 HD
ENDBRANCH   5   8
ENDBRANCH   1   2
BRANCH   1  10
ATOM     10  C   UNL     1       7.996   7.394  -4.933  1.00  0.00     0.040 C 
BRANCH  10  11
ATOM     11  C   UNL     1       7.470   7.002  -3.579  1.00  0.00    -0.040 A 
ATOM     12  C   UNL     1       7.238   7.980  -2.599  1.00  0.00     0.050 A 
ATOM     13  C   UNL     1       7.260   5.649  -3.265  1.00  0.00     0.050 A 
ATOM     14  C   UNL     1       6.780   7.613  -1.326  1.00  0.00     0.119 A 
ATOM     15  C   UNL     1       6.802   5.281  -1.992  1.00  0.00     0.119 A 
ATOM     16  C   UNL     1       6.560   6.265  -1.028  1.00  0.00     0.092 A 
BRANCH  14  17
ATOM     17  O   UNL     1       6.541   8.580  -0.351  1.00  0.00    -0.508 OA
ATOM     18  H   UNL     1       5.616   8.966  -0.203  1.00  0.00     0.293 HD
ENDBRANCH  14  17
BRANCH  15  19
ATOM     19  O   UNL     1       6.585   3.941  -1.676  1.00  0.00    -0.508 OA
ATOM     20  H   UNL     1       7.169   3.453  -1.007  1.00  0.00     0.293 HD
ENDBRANCH  15  19
ENDBRANCH  10  11
ENDBRANCH   1  10
TORSDOF 6
ENDMDL
MODEL 5
REMARK VINA RESULT:    -5.682      1.765      2.358
REMARK INTER + INTRA:          -7.671
REMARK INTER:                  -7.271
REMARK INTRA:                  -0.400
REMARK UNBOUND:                -0.493
REMARK SMILES Oc1ccc(CCc2cc(O)cc(O)c2)cc1
REMARK SMILES IDX 6 1 5 2 4 3 3 4 2 5 16 6 17 7 1 8 7 10 8 11 15 12 9 13 13 14
REMARK SMILES IDX 10 15 12 16 14 17 11 19
REMARK H PARENT 1 9 14 18 11 20
REMARK Flexibility Score: inf
ROOT
ATOM      1  C   UNL     1       7.772   5.998  -4.464  1.00  0.00     0.040 C 
ENDROOT
BRANCH   1   2
ATOM      2  C   UNL     1       7.483   6.855  -3.261  1.00  0.00    -0.047 A 
ATOM      3  C   UNL     1       6.870   6.300  -2.126  1.00  0.00     0.007 A 
ATOM      4  C   UNL     1       6.633   7.089  -0.996  1.00  0.00     0.046 A 
ATOM      5  C   UNL     1       7.016   8.437  -0.986  1.00  0.00     0.115 A 
ATOM      6  C   UNL     1       7.877   8.203  -3.242  1.00  0.00     0.007 A 
ATOM      7  C   UNL     1       7.638   8.991  -2.110  1.00  0.00     0.046 A 
BRANCH   5   8
ATOM      8  O   UNL     1       6.784   9.234   0.133  1.00  0.00    -0.508 OA
ATOM      9  H   UNL     1       6.375  10.157   0.049  1.00  0.00     0.293 HD
ENDBRANCH   5   8
ENDBRANCH   1   2
BRANCH   1  10
ATOM     10  C   UNL     1       8.794   6.680  -5.378  1.00  0.00     0.040 C 
BRANCH  10  11
ATOM     11  C   UNL     1       8.869   5.976  -6.706  1.00  0.00    -0.040 A 
ATOM     12  C   UNL     1       8.604   4.600  -6.794  1.00  0.00     0.050 A 
ATOM     13  C   UNL     1       9.261   6.678  -7.859  1.00  0.00     0.050 A 
ATOM     14  C   UNL     1       8.706   3.936  -8.025  1.00  0.00     0.119 A 
ATOM     15  C   UNL     1       9.363   6.015  -9.090  1.00  0.00     0.119 A 
ATOM     16  C   UNL     1       9.082   4.647  -9.169  1.00  0.00     0.092 A 
BRANCH  14  17
ATOM     17  O   UNL     1       8.437   2.573  -8.120  1.00  0.00    -0.508 OA
ATOM     18  H   UNL     1       8.507   2.079  -9.002  1.00  0.00     0.293 HD
ENDBRANCH  14  17
BRANCH  15  19
ATOM     19  O   UNL     1       9.744   6.706 -10.238  1.00  0.00    -0.508 OA
ATOM     20  H   UNL     1       9.935   6.224 -11.108  1.00  0.00     0.293 HD
ENDBRANCH  15  19
ENDBRANCH  10  11
ENDBRANCH   1  10
TORSDOF 6
ENDMDL
MODEL 6
REMARK VINA RESULT:    -5.564      2.341      3.602
REMARK INTER + INTRA:          -7.521
REMARK INTER:                  -7.129
REMARK INTRA:                  -0.392
REMARK UNBOUND:                -0.493
REMARK SMILES Oc1ccc(CCc2cc(O)cc(O)c2)cc1
REMARK SMILES IDX 6 1 5 2 4 3 3 4 2 5 16 6 17 7 1 8 7 10 8 11 15 12 9 13 13 14
REMARK SMILES IDX 10 15 12 16 14 17 11 19
REMARK H PARENT 1 9 14 18 11 20
REMARK Flexibility Score: inf
ROOT
ATOM      1  C   UNL     1       8.136   6.163  -5.066  1.00  0.00     0.040 C 
ENDROOT
BRANCH   1   2
ATOM      2  C   UNL     1       8.075   7.201  -3.977  1.00  0.00    -0.047 A 
ATOM      3  C   UNL     1       7.130   7.091  -2.944  1.00  0.00     0.007 A 
ATOM      4  C   UNL     1       7.097   8.037  -1.915  1.00  0.00     0.046 A 
ATOM      5  C   UNL     1       8.015   9.096  -1.903  1.00  0.00     0.115 A 
ATOM      6  C   UNL     1       9.002   8.256  -3.954  1.00  0.00     0.007 A 
ATOM      7  C   UNL     1       8.966   9.202  -2.923  1.00  0.00     0.046 A 
BRANCH   5   8
ATOM      8  O   UNL     1       7.991  10.045  -0.884  1.00  0.00    -0.508 OA
ATOM      9  H   UNL     1       7.118  10.362  -0.476  1.00  0.00     0.293 HD
ENDBRANCH   5   8
ENDBRANCH   1   2
BRANCH   1  10
ATOM     10  C   UNL     1       9.296   6.454  -6.023  1.00  0.00     0.040 C 
BRANCH  10  11
ATOM     11  C   UNL     1       9.171   5.624  -7.272  1.00  0.00    -0.040 A 
ATOM     12  C   UNL     1       9.357   6.212  -8.533  1.00  0.00     0.050 A 
ATOM     13  C   UNL     1       8.812   4.268  -7.189  1.00  0.00     0.050 A 
ATOM     14  C   UNL     1       9.208   5.448  -9.700  1.00  0.00     0.119 A 
ATOM     15  C   UNL     1       8.662   3.503  -8.355  1.00  0.00     0.119 A 
ATOM     16  C   UNL     1       8.865   4.095  -9.606  1.00  0.00     0.092 A 
BRANCH  14  17
ATOM     17  O   UNL     1       9.398   6.023 -10.954  1.00  0.00    -0.508 OA
ATOM     18  H   UNL     1       9.328   7.024 -11.094  1.00  0.00     0.293 HD
ENDBRANCH  14  17
BRANCH  15  19
ATOM     19  O   UNL     1       8.313   2.157  -8.280  1.00  0.00    -0.508 OA
ATOM     20  H   UNL     1       8.799   1.453  -8.823  1.00  0.00     0.293 HD
ENDBRANCH  15  19
ENDBRANCH  10  11
ENDBRANCH   1  10
TORSDOF 6
ENDMDL
MODEL 7
REMARK VINA RESULT:    -5.421      1.741      3.008
REMARK INTER + INTRA:          -7.341
REMARK INTER:                  -6.832
REMARK INTRA:                  -0.509
REMARK UNBOUND:                -0.493
REMARK SMILES Oc1ccc(CCc2cc(O)cc(O)c2)cc1
REMARK SMILES IDX 6 1 5 2 4 3 3 4 2 5 16 6 17 7 1 8 7 10 8 11 15 12 9 13 13 14
REMARK SMILES IDX 10 15 12 16 14 17 11 19
REMARK H PARENT 1 9 14 18 11 20
REMARK Flexibility Score: inf
ROOT
ATOM      1  C   UNL     1       6.793   6.296  -3.746  1.00  0.00     0.040 C 
ENDROOT
BRANCH   1   2
ATOM      2  C   UNL     1       6.744   5.731  -2.352  1.00  0.00    -0.047 A 
ATOM      3  C   UNL     1       6.699   4.342  -2.151  1.00  0.00     0.007 A 
ATOM      4  C   UNL     1       6.687   3.818  -0.854  1.00  0.00     0.046 A 
ATOM      5  C   UNL     1       6.731   4.676   0.252  1.00  0.00     0.115 A 
ATOM      6  C   UNL     1       6.801   6.587  -1.240  1.00  0.00     0.007 A 
ATOM      7  C   UNL     1       6.788   6.060   0.056  1.00  0.00     0.046 A 
BRANCH   5   8
ATOM      8  O   UNL     1       6.718   4.166   1.548  1.00  0.00    -0.508 OA
ATOM      9  H   UNL     1       7.567   4.100   2.099  1.00  0.00     0.293 HD
ENDBRANCH   5   8
ENDBRANCH   1   2
BRANCH   1  10
ATOM     10  C   UNL     1       7.834   5.555  -4.591  1.00  0.00     0.040 C 
BRANCH  10  11
ATOM     11  C   UNL     1       8.764   6.531  -5.260  1.00  0.00    -0.040 A 
ATOM     12  C   UNL     1       9.231   7.656  -4.561  1.00  0.00     0.050 A 
ATOM     13  C   UNL     1       9.127   6.355  -6.606  1.00  0.00     0.050 A 
ATOM     14  C   UNL     1      10.071   8.584  -5.194  1.00  0.00     0.119 A 
ATOM     15  C   UNL     1       9.966   7.283  -7.239  1.00  0.00     0.119 A 
ATOM     16  C   UNL     1      10.438   8.392  -6.529  1.00  0.00     0.092 A 
BRANCH  14  17
ATOM     17  O   UNL     1      10.543   9.698  -4.504  1.00  0.00    -0.508 OA
ATOM     18  H   UNL     1       9.935  10.253  -3.914  1.00  0.00     0.293 HD
ENDBRANCH  14  17
BRANCH  15  19
ATOM     19  O   UNL     1      10.335   7.111  -8.571  1.00  0.00    -0.508 OA
ATOM     20  H   UNL     1      11.258   7.367  -8.902  1.00  0.00     0.293 HD
ENDBRANCH  15  19
ENDBRANCH  10  11
ENDBRANCH   1  10
TORSDOF 6
ENDMDL
MODEL 8
REMARK VINA RESULT:    -5.214      4.105      6.409
REMARK INTER + INTRA:          -7.079
REMARK INTER:                  -6.404
REMARK INTRA:                  -0.676
REMARK UNBOUND:                -0.493
REMARK SMILES Oc1ccc(CCc2cc(O)cc(O)c2)cc1
REMARK SMILES IDX 6 1 5 2 4 3 3 4 2 5 16 6 17 7 1 8 7 10 8 11 15 12 9 13 13 14
REMARK SMILES IDX 10 15 12 16 14 17 11 19
REMARK H PARENT 1 9 14 18 11 20
REMARK Flexibility Score: inf
ROOT
ATOM      1  C   UNL     1       5.782   9.979  -1.754  1.00  0.00     0.040 C 
ENDROOT
BRANCH   1   2
ATOM      2  C   UNL     1       4.320   9.841  -2.085  1.00  0.00    -0.047 A 
ATOM      3  C   UNL     1       3.857  10.125  -3.380  1.00  0.00     0.007 A 
ATOM      4  C   UNL     1       2.504   9.964  -3.695  1.00  0.00     0.046 A 
ATOM      5  C   UNL     1       1.604   9.508  -2.723  1.00  0.00     0.115 A 
ATOM      6  C   UNL     1       3.417   9.371  -1.117  1.00  0.00     0.007 A 
ATOM      7  C   UNL     1       2.064   9.212  -1.435  1.00  0.00     0.046 A 
BRANCH   5   8
ATOM      8  O   UNL     1       0.254   9.345  -3.024  1.00  0.00    -0.508 OA
ATOM      9  H   UNL     1      -0.209   9.928  -3.713  1.00  0.00     0.293 HD
ENDBRANCH   5   8
ENDBRANCH   1   2
BRANCH   1  10
ATOM     10  C   UNL     1       6.201   8.930  -0.720  1.00  0.00     0.040 C 
BRANCH  10  11
ATOM     11  C   UNL     1       6.578   7.640  -1.398  1.00  0.00    -0.040 A 
ATOM     12  C   UNL     1       7.109   7.653  -2.697  1.00  0.00     0.050 A 
ATOM     13  C   UNL     1       6.348   6.411  -0.758  1.00  0.00     0.050 A 
ATOM     14  C   UNL     1       7.429   6.450  -3.343  1.00  0.00     0.119 A 
ATOM     15  C   UNL     1       6.667   5.207  -1.403  1.00  0.00     0.119 A 
ATOM     16  C   UNL     1       7.210   5.232  -2.692  1.00  0.00     0.092 A 
BRANCH  14  17
ATOM     17  O   UNL     1       7.964   6.455  -4.629  1.00  0.00    -0.508 OA
ATOM     18  H   UNL     1       7.375   6.354  -5.448  1.00  0.00     0.293 HD
ENDBRANCH  14  17
BRANCH  15  19
ATOM     19  O   UNL     1       6.448   3.985  -0.772  1.00  0.00    -0.508 OA
ATOM     20  H   UNL     1       7.218   3.387  -0.494  1.00  0.00     0.293 HD
ENDBRANCH  15  19
ENDBRANCH  10  11
ENDBRANCH   1  10
TORSDOF 6
ENDMDL
MODEL 9
REMARK VINA RESULT:    -5.135      4.031      5.974
REMARK INTER + INTRA:          -6.979
REMARK INTER:                  -6.329
REMARK INTRA:                  -0.650
REMARK UNBOUND:                -0.493
REMARK SMILES Oc1ccc(CCc2cc(O)cc(O)c2)cc1
REMARK SMILES IDX 6 1 5 2 4 3 3 4 2 5 16 6 17 7 1 8 7 10 8 11 15 12 9 13 13 14
REMARK SMILES IDX 10 15 12 16 14 17 11 19
REMARK H PARENT 1 9 14 18 11 20
REMARK Flexibility Score: inf
ROOT
ATOM      1  C   UNL     1       5.973   9.938  -1.562  1.00  0.00     0.040 C 
ENDROOT
BRANCH   1   2
ATOM      2  C   UNL     1       4.528   9.794  -1.958  1.00  0.00    -0.047 A 
ATOM      3  C   UNL     1       3.571   9.384  -1.015  1.00  0.00     0.007 A 
ATOM      4  C   UNL     1       2.224   9.283  -1.376  1.00  0.00     0.046 A 
ATOM      5  C   UNL     1       1.819   9.601  -2.679  1.00  0.00     0.115 A 
ATOM      6  C   UNL     1       4.115  10.125  -3.260  1.00  0.00     0.007 A 
ATOM      7  C   UNL     1       2.766  10.022  -3.618  1.00  0.00     0.046 A 
BRANCH   5   8
ATOM      8  O   UNL     1       0.480   9.503  -3.051  1.00  0.00    -0.508 OA
ATOM      9  H   UNL     1       0.195   8.973  -3.867  1.00  0.00     0.293 HD
ENDBRANCH   5   8
ENDBRANCH   1   2
BRANCH   1  10
ATOM     10  C   UNL     1       6.399   8.784  -0.651  1.00  0.00     0.040 C 
BRANCH  10  11
ATOM     11  C   UNL     1       6.657   7.540  -1.458  1.00  0.00    -0.040 A 
ATOM     12  C   UNL     1       6.469   6.272  -0.885  1.00  0.00     0.050 A 
ATOM     13  C   UNL     1       7.145   7.638  -2.772  1.00  0.00     0.050 A 
ATOM     14  C   UNL     1       6.742   5.113  -1.625  1.00  0.00     0.119 A 
ATOM     15  C   UNL     1       7.418   6.479  -3.513  1.00  0.00     0.119 A 
ATOM     16  C   UNL     1       7.212   5.221  -2.938  1.00  0.00     0.092 A 
BRANCH  14  17
ATOM     17  O   UNL     1       6.550   3.852  -1.065  1.00  0.00    -0.508 OA
ATOM     18  H   UNL     1       5.634   3.538  -0.767  1.00  0.00     0.293 HD
ENDBRANCH  14  17
BRANCH  15  19
ATOM     19  O   UNL     1       7.895   6.568  -4.819  1.00  0.00    -0.508 OA
ATOM     20  H   UNL     1       7.623   7.329  -5.431  1.00  0.00     0.293 HD
ENDBRANCH  15  19
ENDBRANCH  10  11
ENDBRANCH   1  10
TORSDOF 6
ENDMDL
