MODEL 1
REMARK VINA RESULT:    -4.477      0.000      0.000
REMARK INTER + INTRA:          -8.381
REMARK INTER:                  -7.095
REMARK INTRA:                  -1.286
REMARK UNBOUND:                -1.286
REMARK SMILES C[C@H]1O[C@H](O[C@@H]2CC[C@]3(C)[C@@H](CC[C@]4(C)[C@@H]3C=C[C@]35OC[C@@]6(CCC(C)(C)C[C@H]63)[C@H](O)C[C@@]54C)[C@@]2(C)CO)[C@@H](O)[C@@H](O[C@H]2O[C@H](CO)[C@@H](O)[C@H](O)[C@@H]2O)[C@@H]1O
REMARK SMILES IDX 1 1 2 2 54 3 41 4 39 5 4 6 3 7 55 8 42 10 43 11 52 12 44 13
REMARK SMILES IDX 50 14 45 15 48 16 53 17 51 19 46 21 47 22 49 24 5 26 6 27
REMARK SMILES IDX 7 28 35 29 8 30 11 31 36 32 9 33 12 34 10 35 16 36 13 37
REMARK SMILES IDX 14 38 17 39 15 40 33 41 18 42 19 43 32 44 34 45 29 46 20 47
REMARK SMILES IDX 30 48 22 49 28 50 21 51 23 52 25 53 24 54 26 55 27 56 37 57
REMARK SMILES IDX 38 58 31 60 40 62
REMARK H PARENT 55 9 53 18 51 20 47 23 49 25 38 59 31 61 40 63
REMARK Flexibility Score: inf
ROOT
ATOM      1  C   UNL     1      10.061   6.373  18.977  1.00  0.00     0.041 C 
ATOM      2  C   UNL     1      11.439   6.513  18.201  1.00  0.00     0.150 C 
ATOM      3  C   UNL     1      12.852   7.241  18.320  1.00  0.00     0.175 C 
ATOM      4  C   UNL     1      12.461   8.750  18.813  1.00  0.00     0.186 C 
ATOM      5  C   UNL     1      11.230   9.263  17.977  1.00  0.00     0.202 C 
ATOM      6  C   UNL     1      10.834   8.193  16.764  1.00  0.00     0.282 C 
ATOM      7  O   UNL     1      11.135   6.836  16.880  1.00  0.00    -0.344 OA
ENDROOT
BRANCH   3   8
ATOM      8  O   UNL     1      13.406   7.216  16.898  1.00  0.00    -0.388 OA
ATOM      9  H   UNL     1      14.365   6.915  16.824  1.00  0.00     0.211 HD
ENDBRANCH   3   8
BRANCH   4  10
ATOM     10  O   UNL     1      12.013   8.972  20.255  1.00  0.00    -0.341 OA
BRANCH  10  11
ATOM     11  C   UNL     1      12.018   8.012  21.361  1.00  0.00     0.282 C 
ATOM     12  C   UNL     1      11.253   8.632  22.624  1.00  0.00     0.202 C 
ATOM     13  O   UNL     1      13.342   7.518  21.756  1.00  0.00    -0.341 OA
ATOM     14  C   UNL     1      12.200   9.583  23.544  1.00  0.00     0.179 C 
ATOM     15  C   UNL     1      14.170   8.477  22.461  1.00  0.00     0.178 C 
ATOM     16  C   UNL     1      13.632   8.971  23.963  1.00  0.00     0.177 C 
BRANCH  12  17
ATOM     17  O   UNL     1      10.899   7.516  23.335  1.00  0.00    -0.385 OA
ATOM     18  H   UNL     1       9.921   7.306  23.200  1.00  0.00     0.211 HD
ENDBRANCH  12  17
BRANCH  14  19
ATOM     19  O   UNL     1      11.459  10.082  24.715  1.00  0.00    -0.387 OA
ATOM     20  H   UNL     1      11.569  11.094  24.845  1.00  0.00     0.211 HD
ENDBRANCH  14  19
BRANCH  15  21
ATOM     21  C   UNL     1      15.570   7.786  22.547  1.00  0.00     0.191 C 
BRANCH  21  22
ATOM     22  O   UNL     1      16.426   8.591  23.303  1.00  0.00    -0.394 OA
ATOM     23  H   UNL     1      17.295   8.589  22.812  1.00  0.00     0.210 HD
ENDBRANCH  21  22
ENDBRANCH  15  21
BRANCH  16  24
ATOM     24  O   UNL     1      14.214  10.125  24.545  1.00  0.00    -0.387 OA
ATOM     25  H   UNL     1      14.659  10.797  23.848  1.00  0.00     0.211 HD
ENDBRANCH  16  24
ENDBRANCH  10  11
ENDBRANCH   4  10
BRANCH   6  26
ATOM     26  O   UNL     1      11.015   8.516  15.391  1.00  0.00    -0.346 OA
BRANCH  26  27
ATOM     27  C   UNL     1      10.012   8.506  14.374  1.00  0.00     0.130 C 
ATOM     28  C   UNL     1       9.000   9.752  14.208  1.00  0.00     0.033 C 
ATOM     29  C   UNL     1       9.611   7.315  13.391  1.00  0.00     0.020 C 
ATOM     30  C   UNL     1       7.482   9.365  14.076  1.00  0.00     0.010 C 
ATOM     31  C   UNL     1       8.034   6.967  13.724  1.00  0.00     0.006 C 
ATOM     32  C   UNL     1      10.298   5.874  13.440  1.00  0.00     0.017 C 
ATOM     33  C   UNL     1       7.261   7.971  14.766  1.00  0.00    -0.022 C 
ATOM     34  C   UNL     1       7.232   6.666  12.439  1.00  0.00     0.005 C 
ATOM     35  C   UNL     1       7.758   8.151  16.272  1.00  0.00     0.012 C 
ATOM     36  C   UNL     1       5.844   7.306  14.967  1.00  0.00     0.024 C 
ATOM     37  C   UNL     1       5.819   6.091  12.748  1.00  0.00     0.008 C 
ATOM     38  C   UNL     1       4.960   6.963  13.715  1.00  0.00    -0.017 C 
ATOM     39  C   UNL     1       5.179   7.301  16.325  1.00  0.00    -0.024 C 
ATOM     40  C   UNL     1       4.558   8.243  12.907  1.00  0.00     0.013 C 
ATOM     41  C   UNL     1       3.657   6.147  14.290  1.00  0.00     0.009 C 
ATOM     42  C   UNL     1       4.514   6.141  16.670  1.00  0.00     0.005 C 
ATOM     43  C   UNL     1       3.953   5.275  15.576  1.00  0.00     0.096 C 
ATOM     44  C   UNL     1       2.949   5.246  13.226  1.00  0.00     0.043 C 
ATOM     45  C   UNL     1       2.605   7.278  14.728  1.00  0.00     0.015 C 
ATOM     46  C   UNL     1       4.662   3.879  15.441  1.00  0.00     0.037 C 
ATOM     47  O   UNL     1       2.649   4.850  16.063  1.00  0.00    -0.369 OA
ATOM     48  C   UNL     1       3.334   3.715  13.232  1.00  0.00     0.124 C 
ATOM     49  C   UNL     1       3.593   3.128  14.686  1.00  0.00     0.026 C 
ATOM     50  C   UNL     1       6.062   3.313  15.053  1.00  0.00     0.014 C 
ATOM     51  C   UNL     1       2.409   3.528  15.588  1.00  0.00     0.171 C 
ATOM     52  C   UNL     1       3.856   1.587  14.650  1.00  0.00     0.013 C 
ATOM     53  C   UNL     1       6.232   1.842  15.634  1.00  0.00    -0.035 C 
ATOM     54  C   UNL     1       4.847   1.117  15.734  1.00  0.00     0.007 C 
ATOM     55  C   UNL     1       6.871   1.917  17.076  1.00  0.00     0.011 C 
ATOM     56  C   UNL     1       7.193   0.991  14.755  1.00  0.00     0.011 C 
BRANCH  29  57
ATOM     57  C   UNL     1       9.901   7.858  11.947  1.00  0.00     0.165 C 
BRANCH  57  58
ATOM     58  O   UNL     1      11.215   8.379  11.749  1.00  0.00    -0.396 OA
ATOM     59  H   UNL     1      11.762   7.534  11.673  1.00  0.00     0.210 HD
ENDBRANCH  57  58
ENDBRANCH  29  57
BRANCH  48  60
ATOM     60  O   UNL     1       4.431   3.499  12.399  1.00  0.00    -0.392 OA
ATOM     61  H   UNL     1       5.090   2.953  12.888  1.00  0.00     0.210 HD
ENDBRANCH  48  60
ENDBRANCH  26  27
ENDBRANCH   6  26
BRANCH   5  62
ATOM     62  O   UNL     1      10.141   9.320  18.807  1.00  0.00    -0.385 OA
ATOM     63  H   UNL     1       9.371   9.783  18.348  1.00  0.00     0.211 HD
ENDBRANCH   5  62
TORSDOF 14
ENDMDL
MODEL 2
REMARK VINA RESULT:    -4.147      1.429      2.348
REMARK INTER + INTRA:          -7.857
REMARK INTER:                  -6.501
REMARK INTRA:                  -1.356
REMARK UNBOUND:                -1.286
REMARK SMILES C[C@H]1O[C@H](O[C@@H]2CC[C@]3(C)[C@@H](CC[C@]4(C)[C@@H]3C=C[C@]35OC[C@@]6(CCC(C)(C)C[C@H]63)[C@H](O)C[C@@]54C)[C@@]2(C)CO)[C@@H](O)[C@@H](O[C@H]2O[C@H](CO)[C@@H](O)[C@H](O)[C@@H]2O)[C@@H]1O
REMARK SMILES IDX 1 1 2 2 54 3 41 4 39 5 4 6 3 7 55 8 42 10 43 11 52 12 44 13
REMARK SMILES IDX 50 14 45 15 48 16 53 17 51 19 46 21 47 22 49 24 5 26 6 27
REMARK SMILES IDX 7 28 35 29 8 30 11 31 36 32 9 33 12 34 10 35 16 36 13 37
REMARK SMILES IDX 14 38 17 39 15 40 33 41 18 42 19 43 32 44 34 45 29 46 20 47
REMARK SMILES IDX 30 48 22 49 28 50 21 51 23 52 25 53 24 54 26 55 27 56 37 57
REMARK SMILES IDX 38 58 31 60 40 62
REMARK H PARENT 55 9 53 18 51 20 47 23 49 25 38 59 31 61 40 63
REMARK Flexibility Score: inf
ROOT
ATOM      1  C   UNL     1      10.135   5.738  20.204  1.00  0.00     0.041 C 
ATOM      2  C   UNL     1      11.525   5.911  19.456  1.00  0.00     0.150 C 
ATOM      3  C   UNL     1      12.961   6.573  19.660  1.00  0.00     0.175 C 
ATOM      4  C   UNL     1      12.617   8.034  20.308  1.00  0.00     0.186 C 
ATOM      5  C   UNL     1      11.411   8.675  19.524  1.00  0.00     0.202 C 
ATOM      6  C   UNL     1      10.991   7.754  18.202  1.00  0.00     0.282 C 
ATOM      7  O   UNL     1      11.244   6.383  18.175  1.00  0.00    -0.344 OA
ENDROOT
BRANCH   3   8
ATOM      8  O   UNL     1      13.527   6.679  18.246  1.00  0.00    -0.388 OA
ATOM      9  H   UNL     1      12.987   6.206  17.539  1.00  0.00     0.211 HD
ENDBRANCH   3   8
BRANCH   4  10
ATOM     10  O   UNL     1      12.163   8.118  21.762  1.00  0.00    -0.341 OA
BRANCH  10  11
ATOM     11  C   UNL     1      12.253   9.261  22.673  1.00  0.00     0.282 C 
ATOM     12  C   UNL     1      12.907   8.802  24.062  1.00  0.00     0.202 C 
ATOM     13  O   UNL     1      10.992   9.973  22.911  1.00  0.00    -0.341 OA
ATOM     14  C   UNL     1      11.828   8.158  25.096  1.00  0.00     0.179 C 
ATOM     15  C   UNL     1      10.036   9.267  23.742  1.00  0.00     0.178 C 
ATOM     16  C   UNL     1      10.474   9.002  25.331  1.00  0.00     0.177 C 
BRANCH  12  17
ATOM     17  O   UNL     1      13.381   9.982  24.572  1.00  0.00    -0.385 OA
ATOM     18  H   UNL     1      14.047  10.398  23.940  1.00  0.00     0.211 HD
ENDBRANCH  12  17
BRANCH  14  19
ATOM     19  O   UNL     1      12.475   7.803  26.371  1.00  0.00    -0.387 OA
ATOM     20  H   UNL     1      12.571   6.788  26.491  1.00  0.00     0.211 HD
ENDBRANCH  14  19
BRANCH  15  21
ATOM     21  C   UNL     1       8.731  10.122  23.637  1.00  0.00     0.191 C 
BRANCH  21  22
ATOM     22  O   UNL     1       7.810   9.660  24.579  1.00  0.00    -0.394 OA
ATOM     23  H   UNL     1       8.253   8.884  25.024  1.00  0.00     0.210 HD
ENDBRANCH  21  22
ENDBRANCH  15  21
BRANCH  16  24
ATOM     24  O   UNL     1       9.740   8.055  26.087  1.00  0.00    -0.387 OA
ATOM     25  H   UNL     1       9.491   8.373  27.074  1.00  0.00     0.211 HD
ENDBRANCH  16  24
ENDBRANCH  10  11
ENDBRANCH   4  10
BRANCH   6  26
ATOM     26  O   UNL     1      11.195   8.214  16.872  1.00  0.00    -0.346 OA
BRANCH  26  27
ATOM     27  C   UNL     1      10.187   8.466  15.893  1.00  0.00     0.130 C 
ATOM     28  C   UNL     1       9.212   9.746  16.030  1.00  0.00     0.033 C 
ATOM     29  C   UNL     1       9.743   7.544  14.668  1.00  0.00     0.020 C 
ATOM     30  C   UNL     1       7.682   9.443  15.834  1.00  0.00     0.010 C 
ATOM     31  C   UNL     1       8.158   7.175  14.934  1.00  0.00     0.006 C 
ATOM     32  C   UNL     1      10.385   6.112  14.377  1.00  0.00     0.017 C 
ATOM     33  C   UNL     1       7.422   7.935  16.189  1.00  0.00    -0.022 C 
ATOM     34  C   UNL     1       7.339   7.200  13.624  1.00  0.00     0.005 C 
ATOM     35  C   UNL     1       7.934   7.750  17.689  1.00  0.00     0.012 C 
ATOM     36  C   UNL     1       5.987   7.283  16.250  1.00  0.00     0.024 C 
ATOM     37  C   UNL     1       5.911   6.611  13.812  1.00  0.00     0.008 C 
ATOM     38  C   UNL     1       5.085   7.262  14.965  1.00  0.00    -0.017 C 
ATOM     39  C   UNL     1       5.331   6.985  17.579  1.00  0.00    -0.024 C 
ATOM     40  C   UNL     1       4.718   8.705  14.477  1.00  0.00     0.013 C 
ATOM     41  C   UNL     1       3.761   6.373  15.354  1.00  0.00     0.009 C 
ATOM     42  C   UNL     1       4.632   5.797  17.658  1.00  0.00     0.005 C 
ATOM     43  C   UNL     1       4.038   5.221  16.402  1.00  0.00     0.096 C 
ATOM     44  C   UNL     1       3.018   5.762  14.121  1.00  0.00     0.043 C 
ATOM     45  C   UNL     1       2.747   7.404  16.054  1.00  0.00     0.015 C 
ATOM     46  C   UNL     1       4.702   3.874  15.941  1.00  0.00     0.037 C 
ATOM     47  O   UNL     1       2.724   4.733  16.796  1.00  0.00    -0.369 OA
ATOM     48  C   UNL     1       3.356   4.260  13.771  1.00  0.00     0.124 C 
ATOM     49  C   UNL     1       3.606   3.347  15.048  1.00  0.00     0.026 C 
ATOM     50  C   UNL     1       6.081   3.372  15.415  1.00  0.00     0.014 C 
ATOM     51  C   UNL     1       2.440   3.563  16.033  1.00  0.00     0.171 C 
ATOM     52  C   UNL     1       3.821   1.848  14.657  1.00  0.00     0.013 C 
ATOM     53  C   UNL     1       6.209   1.802  15.641  1.00  0.00    -0.035 C 
ATOM     54  C   UNL     1       4.803   1.114  15.591  1.00  0.00     0.007 C 
ATOM     55  C   UNL     1       6.859   1.526  17.053  1.00  0.00     0.011 C 
ATOM     56  C   UNL     1       7.138   1.149  14.579  1.00  0.00     0.011 C 
BRANCH  29  57
ATOM     57  C   UNL     1      10.040   8.396  13.384  1.00  0.00     0.165 C 
BRANCH  57  58
ATOM     58  O   UNL     1      11.337   8.206  12.819  1.00  0.00    -0.396 OA
ATOM     59  H   UNL     1      11.772   7.602  13.501  1.00  0.00     0.210 HD
ENDBRANCH  57  58
ENDBRANCH  29  57
BRANCH  48  60
ATOM     60  O   UNL     1       4.441   4.209  12.896  1.00  0.00    -0.392 OA
ATOM     61  H   UNL     1       4.422   3.342  12.428  1.00  0.00     0.210 HD
ENDBRANCH  48  60
ENDBRANCH  26  27
ENDBRANCH   6  26
BRANCH   5  62
ATOM     62  O   UNL     1      10.317   8.682  20.349  1.00  0.00    -0.385 OA
ATOM     63  H   UNL     1       9.467   8.620  19.809  1.00  0.00     0.211 HD
ENDBRANCH   5  62
TORSDOF 14
ENDMDL
MODEL 3
REMARK VINA RESULT:    -3.977      2.559      5.769
REMARK INTER + INTRA:          -7.588
REMARK INTER:                  -6.152
REMARK INTRA:                  -1.436
REMARK UNBOUND:                -1.286
REMARK SMILES C[C@H]1O[C@H](O[C@@H]2CC[C@]3(C)[C@@H](CC[C@]4(C)[C@@H]3C=C[C@]35OC[C@@]6(CCC(C)(C)C[C@H]63)[C@H](O)C[C@@]54C)[C@@]2(C)CO)[C@@H](O)[C@@H](O[C@H]2O[C@H](CO)[C@@H](O)[C@H](O)[C@@H]2O)[C@@H]1O
REMARK SMILES IDX 1 1 2 2 54 3 41 4 39 5 4 6 3 7 55 8 42 10 43 11 52 12 44 13
REMARK SMILES IDX 50 14 45 15 48 16 53 17 51 19 46 21 47 22 49 24 5 26 6 27
REMARK SMILES IDX 7 28 35 29 8 30 11 31 36 32 9 33 12 34 10 35 16 36 13 37
REMARK SMILES IDX 14 38 17 39 15 40 33 41 18 42 19 43 32 44 34 45 29 46 20 47
REMARK SMILES IDX 30 48 22 49 28 50 21 51 23 52 25 53 24 54 26 55 27 56 37 57
REMARK SMILES IDX 38 58 31 60 40 62
REMARK H PARENT 55 9 53 18 51 20 47 23 49 25 38 59 31 61 40 63
REMARK Flexibility Score: inf
ROOT
ATOM      1  C   UNL     1       7.503  10.125  20.538  1.00  0.00     0.041 C 
ATOM      2  C   UNL     1       6.900   9.002  21.485  1.00  0.00     0.150 C 
ATOM      3  C   UNL     1       7.152   7.489  21.918  1.00  0.00     0.175 C 
ATOM      4  C   UNL     1       7.499   6.743  20.504  1.00  0.00     0.186 C 
ATOM      5  C   UNL     1       6.484   7.228  19.402  1.00  0.00     0.202 C 
ATOM      6  C   UNL     1       5.299   8.197  20.056  1.00  0.00     0.282 C 
ATOM      7  O   UNL     1       5.534   8.931  21.218  1.00  0.00    -0.344 OA
ENDROOT
BRANCH   3   8
ATOM      8  O   UNL     1       5.815   7.040  22.502  1.00  0.00    -0.388 OA
ATOM      9  H   UNL     1       5.708   6.042  22.593  1.00  0.00     0.211 HD
ENDBRANCH   3   8
BRANCH   4  10
ATOM     10  O   UNL     1       8.856   6.979  19.849  1.00  0.00    -0.341 OA
BRANCH  10  11
ATOM     11  C   UNL     1      10.009   6.076  19.806  1.00  0.00     0.282 C 
ATOM     12  C   UNL     1      10.918   6.291  21.107  1.00  0.00     0.202 C 
ATOM     13  O   UNL     1      10.825   6.161  18.590  1.00  0.00    -0.341 OA
ATOM     14  C   UNL     1      11.972   7.522  20.956  1.00  0.00     0.179 C 
ATOM     15  C   UNL     1      11.639   7.356  18.479  1.00  0.00     0.178 C 
ATOM     16  C   UNL     1      12.855   7.543  19.607  1.00  0.00     0.177 C 
BRANCH  12  17
ATOM     17  O   UNL     1      11.606   5.109  21.187  1.00  0.00    -0.385 OA
ATOM     18  H   UNL     1      12.000   4.867  20.291  1.00  0.00     0.211 HD
ENDBRANCH  12  17
BRANCH  14  19
ATOM     19  O   UNL     1      12.814   7.639  22.159  1.00  0.00    -0.387 OA
ATOM     20  H   UNL     1      13.424   8.464  22.130  1.00  0.00     0.211 HD
ENDBRANCH  14  19
BRANCH  15  21
ATOM     21  C   UNL     1      12.205   7.301  17.022  1.00  0.00     0.191 C 
BRANCH  21  22
ATOM     22  O   UNL     1      13.596   7.199  17.081  1.00  0.00    -0.394 OA
ATOM     23  H   UNL     1      13.932   8.140  17.071  1.00  0.00     0.210 HD
ENDBRANCH  21  22
ENDBRANCH  15  21
BRANCH  16  24
ATOM     24  O   UNL     1      13.459   8.818  19.747  1.00  0.00    -0.387 OA
ATOM     25  H   UNL     1      14.354   8.822  20.326  1.00  0.00     0.211 HD
ENDBRANCH  16  24
ENDBRANCH  10  11
ENDBRANCH   4  10
BRANCH   6  26
ATOM     26  O   UNL     1       3.942   7.777  20.129  1.00  0.00    -0.346 OA
BRANCH  26  27
ATOM     27  C   UNL     1       3.142   7.290  19.051  1.00  0.00     0.130 C 
ATOM     28  C   UNL     1       2.232   5.970  19.237  1.00  0.00     0.033 C 
ATOM     29  C   UNL     1       3.105   7.795  17.538  1.00  0.00     0.020 C 
ATOM     30  C   UNL     1       2.356   4.906  18.087  1.00  0.00     0.010 C 
ATOM     31  C   UNL     1       3.569   6.506  16.620  1.00  0.00     0.006 C 
ATOM     32  C   UNL     1       4.041   8.964  16.985  1.00  0.00     0.017 C 
ATOM     33  C   UNL     1       3.759   5.074  17.401  1.00  0.00    -0.022 C 
ATOM     34  C   UNL     1       2.739   6.401  15.321  1.00  0.00     0.005 C 
ATOM     35  C   UNL     1       4.834   4.899  18.567  1.00  0.00     0.012 C 
ATOM     36  C   UNL     1       4.317   4.100  16.293  1.00  0.00     0.024 C 
ATOM     37  C   UNL     1       3.327   5.354  14.331  1.00  0.00     0.008 C 
ATOM     38  C   UNL     1       3.539   3.933  14.938  1.00  0.00    -0.017 C 
ATOM     39  C   UNL     1       5.381   3.079  16.627  1.00  0.00    -0.024 C 
ATOM     40  C   UNL     1       2.109   3.330  15.149  1.00  0.00     0.013 C 
ATOM     41  C   UNL     1       4.485   2.989  13.986  1.00  0.00     0.009 C 
ATOM     42  C   UNL     1       6.365   2.894  15.677  1.00  0.00     0.005 C 
ATOM     43  C   UNL     1       6.037   3.166  14.233  1.00  0.00     0.096 C 
ATOM     44  C   UNL     1       4.202   3.141  12.455  1.00  0.00     0.043 C 
ATOM     45  C   UNL     1       4.120   1.477  14.386  1.00  0.00     0.015 C 
ATOM     46  C   UNL     1       6.801   4.398  13.627  1.00  0.00     0.037 C 
ATOM     47  O   UNL     1       6.673   2.085  13.493  1.00  0.00    -0.369 OA
ATOM     48  C   UNL     1       5.157   4.111  11.656  1.00  0.00     0.124 C 
ATOM     49  C   UNL     1       6.665   4.078  12.159  1.00  0.00     0.026 C 
ATOM     50  C   UNL     1       6.859   5.944  13.815  1.00  0.00     0.014 C 
ATOM     51  C   UNL     1       7.116   2.607  12.243  1.00  0.00     0.171 C 
ATOM     52  C   UNL     1       7.594   4.964  11.265  1.00  0.00     0.013 C 
ATOM     53  C   UNL     1       8.227   6.511  13.235  1.00  0.00    -0.035 C 
ATOM     54  C   UNL     1       8.743   5.622  12.053  1.00  0.00     0.007 C 
ATOM     55  C   UNL     1       9.318   6.521  14.376  1.00  0.00     0.011 C 
ATOM     56  C   UNL     1       8.072   7.978  12.743  1.00  0.00     0.011 C 
BRANCH  29  57
ATOM     57  C   UNL     1       1.637   8.303  17.309  1.00  0.00     0.165 C 
BRANCH  57  58
ATOM     58  O   UNL     1       1.528   9.549  16.622  1.00  0.00    -0.396 OA
ATOM     59  H   UNL     1       2.475   9.691  16.303  1.00  0.00     0.210 HD
ENDBRANCH  57  58
ENDBRANCH  29  57
BRANCH  48  60
ATOM     60  O   UNL     1       4.646   5.408  11.681  1.00  0.00    -0.392 OA
ATOM     61  H   UNL     1       4.001   5.502  10.942  1.00  0.00     0.210 HD
ENDBRANCH  48  60
ENDBRANCH  26  27
ENDBRANCH   6  26
BRANCH   5  62
ATOM     62  O   UNL     1       7.166   8.009  18.506  1.00  0.00    -0.385 OA
ATOM     63  H   UNL     1       6.798   8.950  18.506  1.00  0.00     0.211 HD
ENDBRANCH   5  62
TORSDOF 14
ENDMDL
MODEL 4
REMARK VINA RESULT:    -3.907      2.487      5.519
REMARK INTER + INTRA:          -7.478
REMARK INTER:                  -6.118
REMARK INTRA:                  -1.360
REMARK UNBOUND:                -1.286
REMARK SMILES C[C@H]1O[C@H](O[C@@H]2CC[C@]3(C)[C@@H](CC[C@]4(C)[C@@H]3C=C[C@]35OC[C@@]6(CCC(C)(C)C[C@H]63)[C@H](O)C[C@@]54C)[C@@]2(C)CO)[C@@H](O)[C@@H](O[C@H]2O[C@H](CO)[C@@H](O)[C@H](O)[C@@H]2O)[C@@H]1O
REMARK SMILES IDX 1 1 2 2 54 3 41 4 39 5 4 6 3 7 55 8 42 10 43 11 52 12 44 13
REMARK SMILES IDX 50 14 45 15 48 16 53 17 51 19 46 21 47 22 49 24 5 26 6 27
REMARK SMILES IDX 7 28 35 29 8 30 11 31 36 32 9 33 12 34 10 35 16 36 13 37
REMARK SMILES IDX 14 38 17 39 15 40 33 41 18 42 19 43 32 44 34 45 29 46 20 47
REMARK SMILES IDX 30 48 22 49 28 50 21 51 23 52 25 53 24 54 26 55 27 56 37 57
REMARK SMILES IDX 38 58 31 60 40 62
REMARK H PARENT 55 9 53 18 51 20 47 23 49 25 38 59 31 61 40 63
REMARK Flexibility Score: inf
ROOT
ATOM      1  C   UNL     1       8.380   9.448  18.747  1.00  0.00     0.041 C 
ATOM      2  C   UNL     1       7.544   9.915  20.014  1.00  0.00     0.150 C 
ATOM      3  C   UNL     1       7.589   9.866  21.607  1.00  0.00     0.175 C 
ATOM      4  C   UNL     1       8.070   8.336  21.927  1.00  0.00     0.186 C 
ATOM      5  C   UNL     1       7.278   7.342  20.998  1.00  0.00     0.202 C 
ATOM      6  C   UNL     1       6.103   8.135  20.124  1.00  0.00     0.282 C 
ATOM      7  O   UNL     1       6.231   9.490  19.817  1.00  0.00    -0.344 OA
ENDROOT
BRANCH   3   8
ATOM      8  O   UNL     1       6.145  10.125  22.029  1.00  0.00    -0.388 OA
ATOM      9  H   UNL     1       5.457   9.573  21.540  1.00  0.00     0.211 HD
ENDBRANCH   3   8
BRANCH   4  10
ATOM     10  O   UNL     1       9.525   7.945  21.685  1.00  0.00    -0.341 OA
BRANCH  10  11
ATOM     11  C   UNL     1      10.623   8.794  21.218  1.00  0.00     0.282 C 
ATOM     12  C   UNL     1      11.587   7.955  20.252  1.00  0.00     0.202 C 
ATOM     13  O   UNL     1      11.402   9.449  22.275  1.00  0.00    -0.341 OA
ATOM     14  C   UNL     1      12.702   7.085  21.057  1.00  0.00     0.179 C 
ATOM     15  C   UNL     1      12.276   8.571  23.028  1.00  0.00     0.178 C 
ATOM     16  C   UNL     1      13.539   7.871  22.189  1.00  0.00     0.177 C 
BRANCH  12  17
ATOM     17  O   UNL     1      12.211   8.937  19.528  1.00  0.00    -0.385 OA
ATOM     18  H   UNL     1      11.754   9.065  18.637  1.00  0.00     0.211 HD
ENDBRANCH  12  17
BRANCH  14  19
ATOM     19  O   UNL     1      13.589   6.377  20.117  1.00  0.00    -0.387 OA
ATOM     20  H   UNL     1      13.089   6.040  19.287  1.00  0.00     0.211 HD
ENDBRANCH  14  19
BRANCH  15  21
ATOM     21  C   UNL     1      12.789   9.459  24.209  1.00  0.00     0.191 C 
BRANCH  21  22
ATOM     22  O   UNL     1      14.186   9.439  24.216  1.00  0.00    -0.394 OA
ATOM     23  H   UNL     1      14.440   8.566  23.804  1.00  0.00     0.210 HD
ENDBRANCH  21  22
ENDBRANCH  15  21
BRANCH  16  24
ATOM     24  O   UNL     1      14.217   6.774  22.777  1.00  0.00    -0.387 OA
ATOM     25  H   UNL     1      14.819   7.025  23.620  1.00  0.00     0.211 HD
ENDBRANCH  16  24
ENDBRANCH  10  11
ENDBRANCH   4  10
BRANCH   6  26
ATOM     26  O   UNL     1       4.718   7.919  20.362  1.00  0.00    -0.346 OA
BRANCH  26  27
ATOM     27  C   UNL     1       3.764   7.401  19.433  1.00  0.00     0.130 C 
ATOM     28  C   UNL     1       2.911   6.078  19.787  1.00  0.00     0.033 C 
ATOM     29  C   UNL     1       3.484   7.874  17.935  1.00  0.00     0.020 C 
ATOM     30  C   UNL     1       2.866   4.990  18.653  1.00  0.00     0.010 C 
ATOM     31  C   UNL     1       3.814   6.569  16.982  1.00  0.00     0.006 C 
ATOM     32  C   UNL     1       4.307   9.039  17.219  1.00  0.00     0.017 C 
ATOM     33  C   UNL     1       4.141   5.157  17.751  1.00  0.00    -0.022 C 
ATOM     34  C   UNL     1       2.792   6.429  15.832  1.00  0.00     0.005 C 
ATOM     35  C   UNL     1       5.389   5.017  18.737  1.00  0.00     0.012 C 
ATOM     36  C   UNL     1       4.531   4.163  16.589  1.00  0.00     0.024 C 
ATOM     37  C   UNL     1       3.230   5.366  14.783  1.00  0.00     0.008 C 
ATOM     38  C   UNL     1       3.552   3.960  15.377  1.00  0.00    -0.017 C 
ATOM     39  C   UNL     1       5.646   3.160  16.772  1.00  0.00    -0.024 C 
ATOM     40  C   UNL     1       2.179   3.349  15.822  1.00  0.00     0.013 C 
ATOM     41  C   UNL     1       4.348   3.005  14.306  1.00  0.00     0.009 C 
ATOM     42  C   UNL     1       6.471   2.963  15.682  1.00  0.00     0.005 C 
ATOM     43  C   UNL     1       5.917   3.201  14.303  1.00  0.00     0.096 C 
ATOM     44  C   UNL     1       3.826   3.121  12.836  1.00  0.00     0.043 C 
ATOM     45  C   UNL     1       4.069   1.499  14.789  1.00  0.00     0.015 C 
ATOM     46  C   UNL     1       6.561   4.426  13.560  1.00  0.00     0.037 C 
ATOM     47  O   UNL     1       6.442   2.110  13.494  1.00  0.00    -0.369 OA
ATOM     48  C   UNL     1       4.632   4.082  11.878  1.00  0.00     0.124 C 
ATOM     49  C   UNL     1       6.200   4.074  12.138  1.00  0.00     0.026 C 
ATOM     50  C   UNL     1       6.629   5.977  13.706  1.00  0.00     0.014 C 
ATOM     51  C   UNL     1       6.677   2.609  12.180  1.00  0.00     0.171 C 
ATOM     52  C   UNL     1       6.966   4.948  11.092  1.00  0.00     0.013 C 
ATOM     53  C   UNL     1       7.882   6.543  12.906  1.00  0.00    -0.035 C 
ATOM     54  C   UNL     1       8.217   5.634  11.676  1.00  0.00     0.007 C 
ATOM     55  C   UNL     1       9.139   6.587  13.862  1.00  0.00     0.011 C 
ATOM     56  C   UNL     1       7.634   7.998  12.416  1.00  0.00     0.011 C 
BRANCH  29  57
ATOM     57  C   UNL     1       1.992   8.363  17.931  1.00  0.00     0.165 C 
BRANCH  57  58
ATOM     58  O   UNL     1       1.648   9.265  18.982  1.00  0.00    -0.396 OA
ATOM     59  H   UNL     1       2.441   9.172  19.600  1.00  0.00     0.210 HD
ENDBRANCH  57  58
ENDBRANCH  29  57
BRANCH  48  60
ATOM     60  O   UNL     1       4.115   5.375  11.957  1.00  0.00    -0.392 OA
ATOM     61  H   UNL     1       3.907   5.683  11.045  1.00  0.00     0.210 HD
ENDBRANCH  48  60
ENDBRANCH  26  27
ENDBRANCH   6  26
BRANCH   5  62
ATOM     62  O   UNL     1       8.153   6.823  20.079  1.00  0.00    -0.385 OA
ATOM     63  H   UNL     1       7.654   6.309  19.368  1.00  0.00     0.211 HD
ENDBRANCH   5  62
TORSDOF 14
ENDMDL
MODEL 5
REMARK VINA RESULT:    -3.885      6.340      8.377
REMARK INTER + INTRA:          -7.442
REMARK INTER:                  -6.540
REMARK INTRA:                  -0.903
REMARK UNBOUND:                -1.286
REMARK SMILES C[C@H]1O[C@H](O[C@@H]2CC[C@]3(C)[C@@H](CC[C@]4(C)[C@@H]3C=C[C@]35OC[C@@]6(CCC(C)(C)C[C@H]63)[C@H](O)C[C@@]54C)[C@@]2(C)CO)[C@@H](O)[C@@H](O[C@H]2O[C@H](CO)[C@@H](O)[C@H](O)[C@@H]2O)[C@@H]1O
REMARK SMILES IDX 1 1 2 2 54 3 41 4 39 5 4 6 3 7 55 8 42 10 43 11 52 12 44 13
REMARK SMILES IDX 50 14 45 15 48 16 53 17 51 19 46 21 47 22 49 24 5 26 6 27
REMARK SMILES IDX 7 28 35 29 8 30 11 31 36 32 9 33 12 34 10 35 16 36 13 37
REMARK SMILES IDX 14 38 17 39 15 40 33 41 18 42 19 43 32 44 34 45 29 46 20 47
REMARK SMILES IDX 30 48 22 49 28 50 21 51 23 52 25 53 24 54 26 55 27 56 37 57
REMARK SMILES IDX 38 58 31 60 40 62
REMARK H PARENT 55 9 53 18 51 20 47 23 49 25 38 59 31 61 40 63
REMARK Flexibility Score: inf
ROOT
ATOM      1  C   UNL     1       4.940   7.372  25.700  1.00  0.00     0.041 C 
ATOM      2  C   UNL     1       3.924   7.279  24.482  1.00  0.00     0.150 C 
ATOM      3  C   UNL     1       2.563   6.562  24.065  1.00  0.00     0.175 C 
ATOM      4  C   UNL     1       2.761   5.030  24.600  1.00  0.00     0.186 C 
ATOM      5  C   UNL     1       4.211   4.538  24.231  1.00  0.00     0.202 C 
ATOM      6  C   UNL     1       5.004   5.653  23.282  1.00  0.00     0.282 C 
ATOM      7  O   UNL     1       4.676   7.007  23.341  1.00  0.00    -0.344 OA
ENDROOT
BRANCH   3   8
ATOM      8  O   UNL     1       2.546   6.651  22.541  1.00  0.00    -0.388 OA
ATOM      9  H   UNL     1       2.589   7.589  22.173  1.00  0.00     0.211 HD
ENDBRANCH   3   8
BRANCH   4  10
ATOM     10  O   UNL     1       2.673   4.744  26.096  1.00  0.00    -0.341 OA
BRANCH  10  11
ATOM     11  C   UNL     1       1.627   5.158  27.035  1.00  0.00     0.282 C 
ATOM     12  C   UNL     1       2.073   6.497  27.793  1.00  0.00     0.202 C 
ATOM     13  O   UNL     1       1.215   4.135  28.003  1.00  0.00    -0.341 OA
ATOM     14  C   UNL     1       3.020   6.217  29.086  1.00  0.00     0.179 C 
ATOM     15  C   UNL     1       2.177   3.858  29.051  1.00  0.00     0.178 C 
ATOM     16  C   UNL     1       2.497   5.097  30.123  1.00  0.00     0.177 C 
BRANCH  12  17
ATOM     17  O   UNL     1       0.875   7.017  28.208  1.00  0.00    -0.385 OA
ATOM     18  H   UNL     1       0.720   7.923  27.791  1.00  0.00     0.211 HD
ENDBRANCH  12  17
BRANCH  14  19
ATOM     19  O   UNL     1       3.355   7.478  29.770  1.00  0.00    -0.387 OA
ATOM     20  H   UNL     1       3.907   8.108  29.178  1.00  0.00     0.211 HD
ENDBRANCH  14  19
BRANCH  15  21
ATOM     21  C   UNL     1       1.601   2.599  29.779  1.00  0.00     0.191 C 
BRANCH  21  22
ATOM     22  O   UNL     1       2.499   2.200  30.771  1.00  0.00    -0.394 OA
ATOM     23  H   UNL     1       2.114   1.363  31.156  1.00  0.00     0.210 HD
ENDBRANCH  21  22
ENDBRANCH  15  21
BRANCH  16  24
ATOM     24  O   UNL     1       3.643   4.999  30.952  1.00  0.00    -0.387 OA
ATOM     25  H   UNL     1       4.196   4.094  30.837  1.00  0.00     0.211 HD
ENDBRANCH  16  24
ENDBRANCH  10  11
ENDBRANCH   4  10
BRANCH   6  26
ATOM     26  O   UNL     1       5.321   5.388  21.922  1.00  0.00    -0.346 OA
BRANCH  26  27
ATOM     27  C   UNL     1       6.059   6.233  21.038  1.00  0.00     0.130 C 
ATOM     28  C   UNL     1       5.647   7.782  20.849  1.00  0.00     0.033 C 
ATOM     29  C   UNL     1       7.227   5.830  20.027  1.00  0.00     0.020 C 
ATOM     30  C   UNL     1       5.551   8.270  19.358  1.00  0.00     0.010 C 
ATOM     31  C   UNL     1       6.673   6.215  18.522  1.00  0.00     0.006 C 
ATOM     32  C   UNL     1       7.733   4.328  19.833  1.00  0.00     0.017 C 
ATOM     33  C   UNL     1       5.249   7.028  18.445  1.00  0.00    -0.022 C 
ATOM     34  C   UNL     1       7.786   6.824  17.642  1.00  0.00     0.005 C 
ATOM     35  C   UNL     1       3.897   6.394  19.010  1.00  0.00     0.012 C 
ATOM     36  C   UNL     1       4.942   7.127  16.901  1.00  0.00     0.024 C 
ATOM     37  C   UNL     1       7.353   6.955  16.153  1.00  0.00     0.008 C 
ATOM     38  C   UNL     1       6.019   7.732  15.930  1.00  0.00    -0.017 C 
ATOM     39  C   UNL     1       3.530   6.972  16.382  1.00  0.00    -0.024 C 
ATOM     40  C   UNL     1       6.328   9.233  16.253  1.00  0.00     0.013 C 
ATOM     41  C   UNL     1       5.429   7.524  14.412  1.00  0.00     0.009 C 
ATOM     42  C   UNL     1       3.389   6.257  15.210  1.00  0.00     0.005 C 
ATOM     43  C   UNL     1       4.535   6.231  14.235  1.00  0.00     0.096 C 
ATOM     44  C   UNL     1       6.524   7.532  13.296  1.00  0.00     0.043 C 
ATOM     45  C   UNL     1       4.475   8.788  14.149  1.00  0.00     0.015 C 
ATOM     46  C   UNL     1       5.206   4.819  14.078  1.00  0.00     0.037 C 
ATOM     47  O   UNL     1       3.917   6.365  12.924  1.00  0.00    -0.369 OA
ATOM     48  C   UNL     1       7.032   6.123  12.798  1.00  0.00     0.124 C 
ATOM     49  C   UNL     1       5.893   5.015  12.748  1.00  0.00     0.026 C 
ATOM     50  C   UNL     1       6.030   3.815  14.940  1.00  0.00     0.014 C 
ATOM     51  C   UNL     1       4.681   5.599  11.995  1.00  0.00     0.171 C 
ATOM     52  C   UNL     1       6.415   3.673  12.140  1.00  0.00     0.013 C 
ATOM     53  C   UNL     1       5.936   2.356  14.311  1.00  0.00    -0.035 C 
ATOM     54  C   UNL     1       5.747   2.428  12.758  1.00  0.00     0.007 C 
ATOM     55  C   UNL     1       4.705   1.592  14.938  1.00  0.00     0.011 C 
ATOM     56  C   UNL     1       7.204   1.515  14.635  1.00  0.00     0.011 C 
BRANCH  29  57
ATOM     57  C   UNL     1       8.487   6.628  20.515  1.00  0.00     0.165 C 
BRANCH  57  58
ATOM     58  O   UNL     1       9.741   6.003  20.243  1.00  0.00    -0.396 OA
ATOM     59  H   UNL     1       9.486   5.026  20.231  1.00  0.00     0.210 HD
ENDBRANCH  57  58
ENDBRANCH  29  57
BRANCH  48  60
ATOM     60  O   UNL     1       8.108   5.703  13.579  1.00  0.00    -0.392 OA
ATOM     61  H   UNL     1       8.474   6.487  14.051  1.00  0.00     0.210 HD
ENDBRANCH  48  60
ENDBRANCH  26  27
ENDBRANCH   6  26
BRANCH   5  62
ATOM     62  O   UNL     1       4.937   4.436  25.389  1.00  0.00    -0.385 OA
ATOM     63  H   UNL     1       5.099   5.350  25.786  1.00  0.00     0.211 HD
ENDBRANCH   5  62
TORSDOF 14
ENDMDL
MODEL 6
REMARK VINA RESULT:    -3.882     13.257     18.305
REMARK INTER + INTRA:          -7.438
REMARK INTER:                  -6.266
REMARK INTRA:                  -1.172
REMARK UNBOUND:                -1.286
REMARK SMILES C[C@H]1O[C@H](O[C@@H]2CC[C@]3(C)[C@@H](CC[C@]4(C)[C@@H]3C=C[C@]35OC[C@@]6(CCC(C)(C)C[C@H]63)[C@H](O)C[C@@]54C)[C@@]2(C)CO)[C@@H](O)[C@@H](O[C@H]2O[C@H](CO)[C@@H](O)[C@H](O)[C@@H]2O)[C@@H]1O
REMARK SMILES IDX 1 1 2 2 54 3 41 4 39 5 4 6 3 7 55 8 42 10 43 11 52 12 44 13
REMARK SMILES IDX 50 14 45 15 48 16 53 17 51 19 46 21 47 22 49 24 5 26 6 27
REMARK SMILES IDX 7 28 35 29 8 30 11 31 36 32 9 33 12 34 10 35 16 36 13 37
REMARK SMILES IDX 14 38 17 39 15 40 33 41 18 42 19 43 32 44 34 45 29 46 20 47
REMARK SMILES IDX 30 48 22 49 28 50 21 51 23 52 25 53 24 54 26 55 27 56 37 57
REMARK SMILES IDX 38 58 31 60 40 62
REMARK H PARENT 55 9 53 18 51 20 47 23 49 25 38 59 31 61 40 63
REMARK Flexibility Score: inf
ROOT
ATOM      1  C   UNL     1      14.381  -3.011  15.775  1.00  0.00     0.041 C 
ATOM      2  C   UNL     1      15.721  -2.827  14.942  1.00  0.00     0.150 C 
ATOM      3  C   UNL     1      16.356  -3.208  13.530  1.00  0.00     0.175 C 
ATOM      4  C   UNL     1      15.910  -4.768  13.322  1.00  0.00     0.186 C 
ATOM      5  C   UNL     1      16.128  -5.551  14.671  1.00  0.00     0.202 C 
ATOM      6  C   UNL     1      16.887  -4.600  15.806  1.00  0.00     0.282 C 
ATOM      7  O   UNL     1      16.774  -3.211  15.769  1.00  0.00    -0.344 OA
ENDROOT
BRANCH   3   8
ATOM      8  O   UNL     1      17.859  -3.055  13.744  1.00  0.00    -0.388 OA
ATOM      9  H   UNL     1      18.234  -3.593  14.510  1.00  0.00     0.211 HD
ENDBRANCH   3   8
BRANCH   4  10
ATOM     10  O   UNL     1      14.461  -5.089  12.969  1.00  0.00    -0.341 OA
BRANCH  10  11
ATOM     11  C   UNL     1      13.693  -4.640  11.805  1.00  0.00     0.282 C 
ATOM     12  C   UNL     1      12.855  -3.327  12.178  1.00  0.00     0.202 C 
ATOM     13  O   UNL     1      12.819  -5.653  11.203  1.00  0.00    -0.341 OA
ATOM     14  C   UNL     1      11.432  -3.657  12.895  1.00  0.00     0.179 C 
ATOM     15  C   UNL     1      11.635  -5.979  11.975  1.00  0.00     0.178 C 
ATOM     16  C   UNL     1      10.508  -4.762  12.170  1.00  0.00     0.177 C 
BRANCH  12  17
ATOM     17  O   UNL     1      12.627  -2.760  10.952  1.00  0.00    -0.385 OA
ATOM     18  H   UNL     1      11.648  -2.813  10.714  1.00  0.00     0.211 HD
ENDBRANCH  12  17
BRANCH  14  19
ATOM     19  O   UNL     1      10.685  -2.418  13.168  1.00  0.00    -0.387 OA
ATOM     20  H   UNL     1       9.720  -2.460  12.821  1.00  0.00     0.211 HD
ENDBRANCH  14  19
BRANCH  15  21
ATOM     21  C   UNL     1      11.026  -7.218  11.241  1.00  0.00     0.191 C 
BRANCH  21  22
ATOM     22  O   UNL     1       9.878  -7.628  11.920  1.00  0.00    -0.394 OA
ATOM     23  H   UNL     1       9.117  -7.199  11.437  1.00  0.00     0.210 HD
ENDBRANCH  21  22
ENDBRANCH  15  21
BRANCH  16  24
ATOM     24  O   UNL     1       9.510  -4.916  13.165  1.00  0.00    -0.387 OA
ATOM     25  H   UNL     1       9.885  -5.132  14.139  1.00  0.00     0.211 HD
ENDBRANCH  16  24
ENDBRANCH  10  11
ENDBRANCH   4  10
BRANCH   6  26
ATOM     26  O   UNL     1      18.213  -4.871  16.245  1.00  0.00    -0.346 OA
BRANCH  26  27
ATOM     27  C   UNL     1      18.673  -6.064  16.882  1.00  0.00     0.130 C 
ATOM     28  C   UNL     1      17.891  -7.460  16.672  1.00  0.00     0.033 C 
ATOM     29  C   UNL     1      19.841  -6.224  17.957  1.00  0.00     0.020 C 
ATOM     30  C   UNL     1      17.592  -8.262  17.991  1.00  0.00     0.010 C 
ATOM     31  C   UNL     1      19.123  -6.820  19.317  1.00  0.00     0.006 C 
ATOM     32  C   UNL     1      20.680  -4.991  18.525  1.00  0.00     0.017 C 
ATOM     33  C   UNL     1      17.544  -7.249  19.190  1.00  0.00    -0.022 C 
ATOM     34  C   UNL     1      20.003  -7.884  20.009  1.00  0.00     0.005 C 
ATOM     35  C   UNL     1      16.419  -6.182  18.810  1.00  0.00     0.012 C 
ATOM     36  C   UNL     1      17.131  -7.649  20.660  1.00  0.00     0.024 C 
ATOM     37  C   UNL     1      19.464  -8.268  21.417  1.00  0.00     0.008 C 
ATOM     38  C   UNL     1      17.972  -8.722  21.441  1.00  0.00    -0.017 C 
ATOM     39  C   UNL     1      15.770  -7.283  21.206  1.00  0.00    -0.024 C 
ATOM     40  C   UNL     1      17.931 -10.125  20.746  1.00  0.00     0.013 C 
ATOM     41  C   UNL     1      17.361  -8.756  22.964  1.00  0.00     0.009 C 
ATOM     42  C   UNL     1      15.735  -6.868  22.522  1.00  0.00     0.005 C 
ATOM     43  C   UNL     1      16.794  -7.368  23.467  1.00  0.00     0.096 C 
ATOM     44  C   UNL     1      18.354  -9.311  24.037  1.00  0.00     0.043 C 
ATOM     45  C   UNL     1      16.117  -9.771  22.901  1.00  0.00     0.015 C 
ATOM     46  C   UNL     1      17.774  -6.250  23.976  1.00  0.00     0.037 C 
ATOM     47  O   UNL     1      16.086  -7.665  24.704  1.00  0.00    -0.369 OA
ATOM     48  C   UNL     1      19.154  -8.239  24.875  1.00  0.00     0.124 C 
ATOM     49  C   UNL     1      18.313  -6.933  25.209  1.00  0.00     0.026 C 
ATOM     50  C   UNL     1      18.864  -5.299  23.395  1.00  0.00     0.014 C 
ATOM     51  C   UNL     1      16.955  -7.367  25.794  1.00  0.00     0.171 C 
ATOM     52  C   UNL     1      19.105  -5.954  26.137  1.00  0.00     0.013 C 
ATOM     53  C   UNL     1      19.085  -4.065  24.374  1.00  0.00    -0.035 C 
ATOM     54  C   UNL     1      18.793  -4.470  25.858  1.00  0.00     0.007 C 
ATOM     55  C   UNL     1      18.112  -2.890  23.967  1.00  0.00     0.011 C 
ATOM     56  C   UNL     1      20.535  -3.510  24.270  1.00  0.00     0.011 C 
BRANCH  29  57
ATOM     57  C   UNL     1      20.900  -7.163  17.278  1.00  0.00     0.165 C 
BRANCH  57  58
ATOM     58  O   UNL     1      21.123  -6.917  15.889  1.00  0.00    -0.396 OA
ATOM     59  H   UNL     1      21.637  -6.048  15.914  1.00  0.00     0.210 HD
ENDBRANCH  57  58
ENDBRANCH  29  57
BRANCH  48  60
ATOM     60  O   UNL     1      20.344  -7.918  24.223  1.00  0.00    -0.392 OA
ATOM     61  H   UNL     1      21.097  -8.215  24.786  1.00  0.00     0.210 HD
ENDBRANCH  48  60
ENDBRANCH  26  27
ENDBRANCH   6  26
BRANCH   5  62
ATOM     62  O   UNL     1      14.898  -5.859  15.191  1.00  0.00    -0.385 OA
ATOM     63  H   UNL     1      14.496  -5.054  15.649  1.00  0.00     0.211 HD
ENDBRANCH   5  62
TORSDOF 14
ENDMDL
MODEL 7
REMARK VINA RESULT:    -3.796     12.755     15.479
REMARK INTER + INTRA:          -7.302
REMARK INTER:                  -5.938
REMARK INTRA:                  -1.363
REMARK UNBOUND:                -1.286
REMARK SMILES C[C@H]1O[C@H](O[C@@H]2CC[C@]3(C)[C@@H](CC[C@]4(C)[C@@H]3C=C[C@]35OC[C@@]6(CCC(C)(C)C[C@H]63)[C@H](O)C[C@@]54C)[C@@]2(C)CO)[C@@H](O)[C@@H](O[C@H]2O[C@H](CO)[C@@H](O)[C@H](O)[C@@H]2O)[C@@H]1O
REMARK SMILES IDX 1 1 2 2 54 3 41 4 39 5 4 6 3 7 55 8 42 10 43 11 52 12 44 13
REMARK SMILES IDX 50 14 45 15 48 16 53 17 51 19 46 21 47 22 49 24 5 26 6 27
REMARK SMILES IDX 7 28 35 29 8 30 11 31 36 32 9 33 12 34 10 35 16 36 13 37
REMARK SMILES IDX 14 38 17 39 15 40 33 41 18 42 19 43 32 44 34 45 29 46 20 47
REMARK SMILES IDX 30 48 22 49 28 50 21 51 23 52 25 53 24 54 26 55 27 56 37 57
REMARK SMILES IDX 38 58 31 60 40 62
REMARK H PARENT 55 9 53 18 51 20 47 23 49 25 38 59 31 61 40 63
REMARK Flexibility Score: inf
ROOT
ATOM      1  C   UNL     1      16.653  -6.343  19.207  1.00  0.00     0.041 C 
ATOM      2  C   UNL     1      17.650  -7.568  19.034  1.00  0.00     0.150 C 
ATOM      3  C   UNL     1      18.757  -8.379  19.843  1.00  0.00     0.175 C 
ATOM      4  C   UNL     1      19.616  -7.207  20.593  1.00  0.00     0.186 C 
ATOM      5  C   UNL     1      19.892  -6.039  19.573  1.00  0.00     0.202 C 
ATOM      6  C   UNL     1      19.380  -6.440  18.041  1.00  0.00     0.282 C 
ATOM      7  O   UNL     1      18.351  -7.361  17.847  1.00  0.00    -0.344 OA
ENDROOT
BRANCH   3   8
ATOM      8  O   UNL     1      19.563  -9.092  18.761  1.00  0.00    -0.388 OA
ATOM      9  H   UNL     1      19.043  -9.766  18.222  1.00  0.00     0.211 HD
ENDBRANCH   3   8
BRANCH   4  10
ATOM     10  O   UNL     1      19.004  -6.481  21.787  1.00  0.00    -0.341 OA
BRANCH  10  11
ATOM     11  C   UNL     1      19.657  -6.088  23.038  1.00  0.00     0.282 C 
ATOM     12  C   UNL     1      18.612  -6.176  24.250  1.00  0.00     0.202 C 
ATOM     13  O   UNL     1      20.309  -4.774  23.018  1.00  0.00    -0.341 OA
ATOM     14  C   UNL     1      17.691  -4.843  24.400  1.00  0.00     0.179 C 
ATOM     15  C   UNL     1      19.405  -3.640  23.025  1.00  0.00     0.178 C 
ATOM     16  C   UNL     1      18.472  -3.432  24.394  1.00  0.00     0.177 C 
BRANCH  12  17
ATOM     17  O   UNL     1      19.433  -6.289  25.342  1.00  0.00    -0.385 OA
ATOM     18  H   UNL     1      19.359  -7.211  25.745  1.00  0.00     0.211 HD
ENDBRANCH  12  17
BRANCH  14  19
ATOM     19  O   UNL     1      16.789  -4.961  25.558  1.00  0.00    -0.387 OA
ATOM     20  H   UNL     1      17.057  -4.335  26.327  1.00  0.00     0.211 HD
ENDBRANCH  14  19
BRANCH  15  21
ATOM     21  C   UNL     1      20.332  -2.408  22.765  1.00  0.00     0.191 C 
BRANCH  21  22
ATOM     22  O   UNL     1      19.860  -1.322  23.505  1.00  0.00    -0.394 OA
ATOM     23  H   UNL     1      20.663  -0.942  23.961  1.00  0.00     0.210 HD
ENDBRANCH  21  22
ENDBRANCH  15  21
BRANCH  16  24
ATOM     24  O   UNL     1      17.361  -2.555  24.330  1.00  0.00    -0.387 OA
ATOM     25  H   UNL     1      17.209  -2.099  23.378  1.00  0.00     0.211 HD
ENDBRANCH  16  24
ENDBRANCH  10  11
ENDBRANCH   4  10
BRANCH   6  26
ATOM     26  O   UNL     1      20.298  -6.652  16.976  1.00  0.00    -0.346 OA
BRANCH  26  27
ATOM     27  C   UNL     1      20.059  -6.425  15.586  1.00  0.00     0.130 C 
ATOM     28  C   UNL     1      20.400  -4.996  14.918  1.00  0.00     0.033 C 
ATOM     29  C   UNL     1      19.326  -7.380  14.538  1.00  0.00     0.020 C 
ATOM     30  C   UNL     1      19.261  -4.390  14.019  1.00  0.00     0.010 C 
ATOM     31  C   UNL     1      18.011  -6.539  14.005  1.00  0.00     0.006 C 
ATOM     32  C   UNL     1      18.693  -8.790  14.937  1.00  0.00     0.017 C 
ATOM     33  C   UNL     1      17.884  -4.978  14.495  1.00  0.00    -0.022 C 
ATOM     34  C   UNL     1      17.782  -6.737  12.491  1.00  0.00     0.005 C 
ATOM     35  C   UNL     1      17.763  -4.598  16.041  1.00  0.00     0.012 C 
ATOM     36  C   UNL     1      16.487  -4.507  13.933  1.00  0.00     0.024 C 
ATOM     37  C   UNL     1      16.413  -6.165  12.023  1.00  0.00     0.008 C 
ATOM     38  C   UNL     1      16.167  -4.672  12.404  1.00  0.00    -0.017 C 
ATOM     39  C   UNL     1      15.591  -3.603  14.749  1.00  0.00    -0.024 C 
ATOM     40  C   UNL     1      17.132  -3.828  11.504  1.00  0.00     0.013 C 
ATOM     41  C   UNL     1      14.595  -4.238  12.220  1.00  0.00     0.009 C 
ATOM     42  C   UNL     1      14.241  -3.883  14.700  1.00  0.00     0.005 C 
ATOM     43  C   UNL     1      13.684  -4.554  13.474  1.00  0.00     0.096 C 
ATOM     44  C   UNL     1      13.915  -4.832  10.943  1.00  0.00     0.043 C 
ATOM     45  C   UNL     1      14.611  -2.641  12.048  1.00  0.00     0.015 C 
ATOM     46  C   UNL     1      13.164  -6.015  13.726  1.00  0.00     0.037 C 
ATOM     47  O   UNL     1      12.422  -3.877  13.215  1.00  0.00    -0.369 OA
ATOM     48  C   UNL     1      13.053  -6.138  11.149  1.00  0.00     0.124 C 
ATOM     49  C   UNL     1      12.261  -6.170  12.527  1.00  0.00     0.026 C 
ATOM     50  C   UNL     1      13.740  -7.408  14.121  1.00  0.00     0.014 C 
ATOM     51  C   UNL     1      11.508  -4.834  12.684  1.00  0.00     0.171 C 
ATOM     52  C   UNL     1      11.333  -7.424  12.634  1.00  0.00     0.013 C 
ATOM     53  C   UNL     1      12.582  -8.329  14.707  1.00  0.00    -0.035 C 
ATOM     54  C   UNL     1      11.199  -7.956  14.074  1.00  0.00     0.007 C 
ATOM     55  C   UNL     1      12.496  -8.132  16.271  1.00  0.00     0.011 C 
ATOM     56  C   UNL     1      12.872  -9.836  14.454  1.00  0.00     0.011 C 
BRANCH  29  57
ATOM     57  C   UNL     1      20.411  -7.709  13.453  1.00  0.00     0.165 C 
BRANCH  57  58
ATOM     58  O   UNL     1      20.313  -9.011  12.876  1.00  0.00    -0.396 OA
ATOM     59  H   UNL     1      20.897  -8.918  12.057  1.00  0.00     0.210 HD
ENDBRANCH  57  58
ENDBRANCH  29  57
BRANCH  48  60
ATOM     60  O   UNL     1      13.859  -7.266  11.006  1.00  0.00    -0.392 OA
ATOM     61  H   UNL     1      14.053  -7.626  11.903  1.00  0.00     0.210 HD
ENDBRANCH  48  60
ENDBRANCH  26  27
ENDBRANCH   6  26
BRANCH   5  62
ATOM     62  O   UNL     1      19.149  -4.952  19.953  1.00  0.00    -0.385 OA
ATOM     63  H   UNL     1      18.442  -5.224  20.621  1.00  0.00     0.211 HD
ENDBRANCH   5  62
TORSDOF 14
ENDMDL
MODEL 8
REMARK VINA RESULT:    -3.778     13.674     17.062
REMARK INTER + INTRA:          -7.273
REMARK INTER:                  -5.802
REMARK INTRA:                  -1.471
REMARK UNBOUND:                -1.286
REMARK SMILES C[C@H]1O[C@H](O[C@@H]2CC[C@]3(C)[C@@H](CC[C@]4(C)[C@@H]3C=C[C@]35OC[C@@]6(CCC(C)(C)C[C@H]63)[C@H](O)C[C@@]54C)[C@@]2(C)CO)[C@@H](O)[C@@H](O[C@H]2O[C@H](CO)[C@@H](O)[C@H](O)[C@@H]2O)[C@@H]1O
REMARK SMILES IDX 1 1 2 2 54 3 41 4 39 5 4 6 3 7 55 8 42 10 43 11 52 12 44 13
REMARK SMILES IDX 50 14 45 15 48 16 53 17 51 19 46 21 47 22 49 24 5 26 6 27
REMARK SMILES IDX 7 28 35 29 8 30 11 31 36 32 9 33 12 34 10 35 16 36 13 37
REMARK SMILES IDX 14 38 17 39 15 40 33 41 18 42 19 43 32 44 34 45 29 46 20 47
REMARK SMILES IDX 30 48 22 49 28 50 21 51 23 52 25 53 24 54 26 55 27 56 37 57
REMARK SMILES IDX 38 58 31 60 40 62
REMARK H PARENT 55 9 53 18 51 20 47 23 49 25 38 59 31 61 40 63
REMARK Flexibility Score: inf
ROOT
ATOM      1  C   UNL     1      16.255  -5.554  23.804  1.00  0.00     0.041 C 
ATOM      2  C   UNL     1      16.170  -7.132  23.954  1.00  0.00     0.150 C 
ATOM      3  C   UNL     1      16.965  -8.353  24.601  1.00  0.00     0.175 C 
ATOM      4  C   UNL     1      18.526  -8.022  24.245  1.00  0.00     0.186 C 
ATOM      5  C   UNL     1      18.624  -7.551  22.746  1.00  0.00     0.202 C 
ATOM      6  C   UNL     1      17.160  -7.702  21.968  1.00  0.00     0.282 C 
ATOM      7  O   UNL     1      15.962  -7.655  22.680  1.00  0.00    -0.344 OA
ENDROOT
BRANCH   3   8
ATOM      8  O   UNL     1      16.442  -9.577  23.853  1.00  0.00    -0.388 OA
ATOM      9  H   UNL     1      15.762  -9.375  23.138  1.00  0.00     0.211 HD
ENDBRANCH   3   8
BRANCH   4  10
ATOM     10  O   UNL     1      19.244  -6.908  25.002  1.00  0.00    -0.341 OA
BRANCH  10  11
ATOM     11  C   UNL     1      20.149  -7.031  26.148  1.00  0.00     0.282 C 
ATOM     12  C   UNL     1      19.340  -7.561  27.426  1.00  0.00     0.202 C 
ATOM     13  O   UNL     1      20.902  -5.818  26.484  1.00  0.00    -0.341 OA
ATOM     14  C   UNL     1      18.586  -6.373  28.244  1.00  0.00     0.179 C 
ATOM     15  C   UNL     1      20.121  -4.760  27.095  1.00  0.00     0.178 C 
ATOM     16  C   UNL     1      19.477  -5.077  28.603  1.00  0.00     0.177 C 
BRANCH  12  17
ATOM     17  O   UNL     1      20.333  -8.093  28.206  1.00  0.00    -0.385 OA
ATOM     18  H   UNL     1      21.060  -7.413  28.367  1.00  0.00     0.211 HD
ENDBRANCH  12  17
BRANCH  14  19
ATOM     19  O   UNL     1      17.905  -6.911  29.434  1.00  0.00    -0.387 OA
ATOM     20  H   UNL     1      16.884  -6.818  29.375  1.00  0.00     0.211 HD
ENDBRANCH  14  19
BRANCH  15  21
ATOM     21  C   UNL     1      21.092  -3.535  27.128  1.00  0.00     0.191 C 
BRANCH  21  22
ATOM     22  O   UNL     1      21.041  -2.950  28.395  1.00  0.00    -0.394 OA
ATOM     23  H   UNL     1      20.428  -2.167  28.301  1.00  0.00     0.210 HD
ENDBRANCH  21  22
ENDBRANCH  15  21
BRANCH  16  24
ATOM     24  O   UNL     1      18.457  -4.227  29.097  1.00  0.00    -0.387 OA
ATOM     25  H   UNL     1      17.537  -4.281  28.562  1.00  0.00     0.211 HD
ENDBRANCH  16  24
ENDBRANCH  10  11
ENDBRANCH   4  10
BRANCH   6  26
ATOM     26  O   UNL     1      16.958  -8.651  20.928  1.00  0.00    -0.346 OA
BRANCH  26  27
ATOM     27  C   UNL     1      15.833  -8.730  20.052  1.00  0.00     0.130 C 
ATOM     28  C   UNL     1      15.447 -10.125  19.338  1.00  0.00     0.033 C 
ATOM     29  C   UNL     1      14.909  -7.544  19.517  1.00  0.00     0.020 C 
ATOM     30  C   UNL     1      15.167 -10.029  17.794  1.00  0.00     0.010 C 
ATOM     31  C   UNL     1      15.079  -7.546  17.877  1.00  0.00     0.006 C 
ATOM     32  C   UNL     1      15.156  -6.010  19.887  1.00  0.00     0.017 C 
ATOM     33  C   UNL     1      15.937  -8.783  17.224  1.00  0.00    -0.022 C 
ATOM     34  C   UNL     1      13.736  -7.275  17.164  1.00  0.00     0.005 C 
ATOM     35  C   UNL     1      17.472  -9.017  17.594  1.00  0.00     0.012 C 
ATOM     36  C   UNL     1      16.020  -8.430  15.689  1.00  0.00     0.024 C 
ATOM     37  C   UNL     1      13.920  -7.020  15.640  1.00  0.00     0.008 C 
ATOM     38  C   UNL     1      14.704  -8.138  14.884  1.00  0.00    -0.017 C 
ATOM     39  C   UNL     1      17.285  -8.694  14.904  1.00  0.00    -0.024 C 
ATOM     40  C   UNL     1      13.752  -9.382  14.835  1.00  0.00     0.013 C 
ATOM     41  C   UNL     1      15.184  -7.654  13.391  1.00  0.00     0.009 C 
ATOM     42  C   UNL     1      17.642  -7.728  13.985  1.00  0.00     0.005 C 
ATOM     43  C   UNL     1      16.562  -6.878  13.371  1.00  0.00     0.096 C 
ATOM     44  C   UNL     1      14.119  -6.803  12.623  1.00  0.00     0.043 C 
ATOM     45  C   UNL     1      15.400  -9.007  12.553  1.00  0.00     0.015 C 
ATOM     46  C   UNL     1      16.626  -5.366  13.790  1.00  0.00     0.037 C 
ATOM     47  O   UNL     1      16.923  -6.768  11.966  1.00  0.00    -0.369 OA
ATOM     48  C   UNL     1      14.295  -5.235  12.685  1.00  0.00     0.124 C 
ATOM     49  C   UNL     1      15.812  -4.762  12.671  1.00  0.00     0.026 C 
ATOM     50  C   UNL     1      16.455  -4.501  15.076  1.00  0.00     0.014 C 
ATOM     51  C   UNL     1      16.531  -5.475  11.509  1.00  0.00     0.171 C 
ATOM     52  C   UNL     1      15.934  -3.204  12.616  1.00  0.00     0.013 C 
ATOM     53  C   UNL     1      17.169  -3.093  14.882  1.00  0.00    -0.035 C 
ATOM     54  C   UNL     1      17.162  -2.666  13.375  1.00  0.00     0.007 C 
ATOM     55  C   UNL     1      18.666  -3.191  15.375  1.00  0.00     0.011 C 
ATOM     56  C   UNL     1      16.484  -1.986  15.732  1.00  0.00     0.011 C 
BRANCH  29  57
ATOM     57  C   UNL     1      13.470  -7.869  20.055  1.00  0.00     0.165 C 
BRANCH  57  58
ATOM     58  O   UNL     1      13.410  -8.243  21.431  1.00  0.00    -0.396 OA
ATOM     59  H   UNL     1      12.463  -8.586  21.510  1.00  0.00     0.210 HD
ENDBRANCH  57  58
ENDBRANCH  29  57
BRANCH  48  60
ATOM     60  O   UNL     1      13.619  -4.725  13.793  1.00  0.00    -0.392 OA
ATOM     61  H   UNL     1      12.698  -4.504  13.521  1.00  0.00     0.210 HD
ENDBRANCH  48  60
ENDBRANCH  26  27
ENDBRANCH   6  26
BRANCH   5  62
ATOM     62  O   UNL     1      18.927  -6.214  22.735  1.00  0.00    -0.385 OA
ATOM     63  H   UNL     1      19.050  -5.888  21.787  1.00  0.00     0.211 HD
ENDBRANCH   5  62
TORSDOF 14
ENDMDL
MODEL 9
REMARK VINA RESULT:    -3.775     13.269     16.047
REMARK INTER + INTRA:          -7.268
REMARK INTER:                  -5.915
REMARK INTRA:                  -1.354
REMARK UNBOUND:                -1.286
REMARK SMILES C[C@H]1O[C@H](O[C@@H]2CC[C@]3(C)[C@@H](CC[C@]4(C)[C@@H]3C=C[C@]35OC[C@@]6(CCC(C)(C)C[C@H]63)[C@H](O)C[C@@]54C)[C@@]2(C)CO)[C@@H](O)[C@@H](O[C@H]2O[C@H](CO)[C@@H](O)[C@H](O)[C@@H]2O)[C@@H]1O
REMARK SMILES IDX 1 1 2 2 54 3 41 4 39 5 4 6 3 7 55 8 42 10 43 11 52 12 44 13
REMARK SMILES IDX 50 14 45 15 48 16 53 17 51 19 46 21 47 22 49 24 5 26 6 27
REMARK SMILES IDX 7 28 35 29 8 30 11 31 36 32 9 33 12 34 10 35 16 36 13 37
REMARK SMILES IDX 14 38 17 39 15 40 33 41 18 42 19 43 32 44 34 45 29 46 20 47
REMARK SMILES IDX 30 48 22 49 28 50 21 51 23 52 25 53 24 54 26 55 27 56 37 57
REMARK SMILES IDX 38 58 31 60 40 62
REMARK H PARENT 55 9 53 18 51 20 47 23 49 25 38 59 31 61 40 63
REMARK Flexibility Score: inf
ROOT
ATOM      1  C   UNL     1      16.515  -3.962  22.894  1.00  0.00     0.041 C 
ATOM      2  C   UNL     1      15.963  -5.451  22.893  1.00  0.00     0.150 C 
ATOM      3  C   UNL     1      16.225  -6.863  23.587  1.00  0.00     0.175 C 
ATOM      4  C   UNL     1      17.855  -6.989  23.589  1.00  0.00     0.186 C 
ATOM      5  C   UNL     1      18.409  -6.537  22.186  1.00  0.00     0.202 C 
ATOM      6  C   UNL     1      17.170  -6.243  21.113  1.00  0.00     0.282 C 
ATOM      7  O   UNL     1      15.906  -5.866  21.564  1.00  0.00    -0.344 OA
ENDROOT
BRANCH   3   8
ATOM      8  O   UNL     1      15.562  -7.868  22.649  1.00  0.00    -0.388 OA
ATOM      9  H   UNL     1      16.067  -8.733  22.533  1.00  0.00     0.211 HD
ENDBRANCH   3   8
BRANCH   4  10
ATOM     10  O   UNL     1      18.668  -6.145  24.566  1.00  0.00    -0.341 OA
BRANCH  10  11
ATOM     11  C   UNL     1      19.708  -6.591  25.497  1.00  0.00     0.282 C 
ATOM     12  C   UNL     1      19.039  -7.359  26.734  1.00  0.00     0.202 C 
ATOM     13  O   UNL     1      20.612  -5.539  25.975  1.00  0.00    -0.341 OA
ATOM     14  C   UNL     1      18.523  -6.358  27.908  1.00  0.00     0.179 C 
ATOM     15  C   UNL     1      20.028  -4.612  26.925  1.00  0.00     0.178 C 
ATOM     16  C   UNL     1      19.574  -5.240  28.404  1.00  0.00     0.177 C 
BRANCH  12  17
ATOM     17  O   UNL     1      20.076  -8.121  27.207  1.00  0.00    -0.385 OA
ATOM     18  H   UNL     1      19.734  -8.994  27.577  1.00  0.00     0.211 HD
ENDBRANCH  12  17
BRANCH  14  19
ATOM     19  O   UNL     1      17.967  -7.121  29.038  1.00  0.00    -0.387 OA
ATOM     20  H   UNL     1      16.959  -6.966  29.154  1.00  0.00     0.211 HD
ENDBRANCH  14  19
BRANCH  15  21
ATOM     21  C   UNL     1      21.107  -3.490  27.080  1.00  0.00     0.191 C 
BRANCH  21  22
ATOM     22  O   UNL     1      21.095  -3.030  28.398  1.00  0.00    -0.394 OA
ATOM     23  H   UNL     1      21.280  -3.834  28.961  1.00  0.00     0.210 HD
ENDBRANCH  21  22
ENDBRANCH  15  21
BRANCH  16  24
ATOM     24  O   UNL     1      18.719  -4.472  29.233  1.00  0.00    -0.387 OA
ATOM     25  H   UNL     1      17.695  -4.770  29.211  1.00  0.00     0.211 HD
ENDBRANCH  16  24
ENDBRANCH  10  11
ENDBRANCH   4  10
BRANCH   6  26
ATOM     26  O   UNL     1      16.948  -7.073  19.979  1.00  0.00    -0.346 OA
BRANCH  26  27
ATOM     27  C   UNL     1      17.608  -6.985  18.716  1.00  0.00     0.130 C 
ATOM     28  C   UNL     1      18.436  -5.659  18.314  1.00  0.00     0.033 C 
ATOM     29  C   UNL     1      17.538  -8.003  17.489  1.00  0.00     0.020 C 
ATOM     30  C   UNL     1      18.130  -5.090  16.881  1.00  0.00     0.010 C 
ATOM     31  C   UNL     1      16.901  -7.151  16.231  1.00  0.00     0.006 C 
ATOM     32  C   UNL     1      16.639  -9.323  17.501  1.00  0.00     0.017 C 
ATOM     33  C   UNL     1      16.684  -5.541  16.464  1.00  0.00    -0.022 C 
ATOM     34  C   UNL     1      17.595  -7.498  14.895  1.00  0.00     0.005 C 
ATOM     35  C   UNL     1      15.713  -4.988  17.604  1.00  0.00     0.012 C 
ATOM     36  C   UNL     1      15.957  -5.053  15.151  1.00  0.00     0.024 C 
ATOM     37  C   UNL     1      16.845  -6.901  13.669  1.00  0.00     0.008 C 
ATOM     38  C   UNL     1      16.590  -5.364  13.748  1.00  0.00    -0.017 C 
ATOM     39  C   UNL     1      14.859  -4.015  15.216  1.00  0.00    -0.024 C 
ATOM     40  C   UNL     1      17.988  -4.681  13.566  1.00  0.00     0.013 C 
ATOM     41  C   UNL     1      15.495  -4.861  12.634  1.00  0.00     0.009 C 
ATOM     42  C   UNL     1      13.780  -4.219  14.380  1.00  0.00     0.005 C 
ATOM     43  C   UNL     1      13.989  -4.986  13.102  1.00  0.00     0.096 C 
ATOM     44  C   UNL     1      15.644  -5.550  11.237  1.00  0.00     0.043 C 
ATOM     45  C   UNL     1      15.788  -3.297  12.423  1.00  0.00     0.015 C 
ATOM     46  C   UNL     1      13.261  -6.378  13.067  1.00  0.00     0.037 C 
ATOM     47  O   UNL     1      13.213  -4.269  12.102  1.00  0.00    -0.369 OA
ATOM     48  C   UNL     1      14.688  -6.773  10.951  1.00  0.00     0.124 C 
ATOM     49  C   UNL     1      13.236  -6.609  11.576  1.00  0.00     0.026 C 
ATOM     50  C   UNL     1      13.331  -7.751  13.801  1.00  0.00     0.014 C 
ATOM     51  C   UNL     1      12.692  -5.223  11.179  1.00  0.00     0.171 C 
ATOM     52  C   UNL     1      12.292  -7.788  11.169  1.00  0.00     0.013 C 
ATOM     53  C   UNL     1      11.957  -8.533  13.620  1.00  0.00    -0.035 C 
ATOM     54  C   UNL     1      11.271  -8.151  12.265  1.00  0.00     0.007 C 
ATOM     55  C   UNL     1      10.982  -8.163  14.805  1.00  0.00     0.011 C 
ATOM     56  C   UNL     1      12.169 -10.073  13.671  1.00  0.00     0.011 C 
BRANCH  29  57
ATOM     57  C   UNL     1      19.011  -8.512  17.294  1.00  0.00     0.165 C 
BRANCH  57  58
ATOM     58  O   UNL     1      19.650  -8.985  18.479  1.00  0.00    -0.396 OA
ATOM     59  H   UNL     1      20.153  -8.164  18.783  1.00  0.00     0.210 HD
ENDBRANCH  57  58
ENDBRANCH  29  57
BRANCH  48  60
ATOM     60  O   UNL     1      15.290  -7.956  11.381  1.00  0.00    -0.392 OA
ATOM     61  H   UNL     1      14.841  -8.250  12.207  1.00  0.00     0.210 HD
ENDBRANCH  48  60
ENDBRANCH  26  27
ENDBRANCH   6  26
BRANCH   5  62
ATOM     62  O   UNL     1      19.066  -5.345  22.347  1.00  0.00    -0.385 OA
ATOM     63  H   UNL     1      19.858  -5.459  22.962  1.00  0.00     0.211 HD
ENDBRANCH   5  62
TORSDOF 14
ENDMDL
