MODEL 1
REMARK VINA RESULT:    -4.584      0.000      0.000
REMARK INTER + INTRA:          -5.027
REMARK INTER:                  -4.852
REMARK INTRA:                  -0.176
REMARK UNBOUND:                -0.176
REMARK SMILES CC1=CCC(C(C)C)=CC1
REMARK SMILES IDX 1 1 2 2 3 3 4 4 5 5 9 6 10 7 6 8 7 9 8 10
REMARK H PARENT
REMARK Flexibility Score: inf
ROOT
ATOM      1  C   UNL     1      10.331  -0.747  27.521  1.00  0.00     0.039 C 
ATOM      2  C   UNL     1       9.838   0.251  26.510  1.00  0.00    -0.073 C 
ATOM      3  C   UNL     1       8.581   0.728  26.595  1.00  0.00    -0.023 C 
ATOM      4  C   UNL     1       8.084   1.760  25.612  1.00  0.00     0.058 C 
ATOM      5  C   UNL     1       8.717   1.569  24.244  1.00  0.00    -0.068 C 
ATOM      6  C   UNL     1       9.976   1.087  24.167  1.00  0.00    -0.023 C 
ATOM      7  C   UNL     1      10.755   0.751  25.414  1.00  0.00     0.057 C 
ENDROOT
BRANCH   5   8
ATOM      8  C   UNL     1       7.943   1.887  22.974  1.00  0.00     0.009 C 
ATOM      9  C   UNL     1       6.452   2.089  23.268  1.00  0.00     0.012 C 
ATOM     10  C   UNL     1       8.153   0.793  21.922  1.00  0.00     0.012 C 
ENDBRANCH   5   8
TORSDOF 1
ENDMDL
MODEL 2
REMARK VINA RESULT:    -4.558      8.537      9.766
REMARK INTER + INTRA:          -5.000
REMARK INTER:                  -4.855
REMARK INTRA:                  -0.144
REMARK UNBOUND:                -0.176
REMARK SMILES CC1=CCC(C(C)C)=CC1
REMARK SMILES IDX 1 1 2 2 3 3 4 4 5 5 9 6 10 7 6 8 7 9 8 10
REMARK H PARENT
REMARK Flexibility Score: inf
ROOT
ATOM      1  C   UNL     1       9.001  -1.862  16.719  1.00  0.00     0.039 C 
ATOM      2  C   UNL     1       7.542  -2.217  16.668  1.00  0.00    -0.073 C 
ATOM      3  C   UNL     1       6.822  -1.949  15.561  1.00  0.00    -0.023 C 
ATOM      4  C   UNL     1       5.367  -2.336  15.479  1.00  0.00     0.058 C 
ATOM      5  C   UNL     1       4.696  -2.253  16.841  1.00  0.00    -0.068 C 
ATOM      6  C   UNL     1       5.424  -2.522  17.946  1.00  0.00    -0.023 C 
ATOM      7  C   UNL     1       6.878  -2.908  17.840  1.00  0.00     0.057 C 
ENDROOT
BRANCH   5   8
ATOM      8  C   UNL     1       3.235  -1.850  16.968  1.00  0.00     0.009 C 
ATOM      9  C   UNL     1       2.339  -3.071  17.208  1.00  0.00     0.012 C 
ATOM     10  C   UNL     1       2.779  -1.066  15.733  1.00  0.00     0.012 C 
ENDBRANCH   5   8
TORSDOF 1
ENDMDL
MODEL 3
REMARK VINA RESULT:    -4.464      8.478      9.837
REMARK INTER + INTRA:          -4.901
REMARK INTER:                  -4.756
REMARK INTRA:                  -0.145
REMARK UNBOUND:                -0.176
REMARK SMILES CC1=CCC(C(C)C)=CC1
REMARK SMILES IDX 1 1 2 2 3 3 4 4 5 5 9 6 10 7 6 8 7 9 8 10
REMARK H PARENT
REMARK Flexibility Score: inf
ROOT
ATOM      1  C   UNL     1       8.753  -2.823  16.751  1.00  0.00     0.039 C 
ATOM      2  C   UNL     1       7.293  -2.468  16.786  1.00  0.00    -0.073 C 
ATOM      3  C   UNL     1       6.573  -2.688  17.903  1.00  0.00    -0.023 C 
ATOM      4  C   UNL     1       5.117  -2.300  17.967  1.00  0.00     0.058 C 
ATOM      5  C   UNL     1       4.447  -2.444  16.610  1.00  0.00    -0.068 C 
ATOM      6  C   UNL     1       5.175  -2.224  15.494  1.00  0.00    -0.023 C 
ATOM      7  C   UNL     1       6.629  -1.831  15.583  1.00  0.00     0.057 C 
ENDROOT
BRANCH   5   8
ATOM      8  C   UNL     1       2.987  -2.855  16.500  1.00  0.00     0.009 C 
ATOM      9  C   UNL     1       2.078  -1.636  16.306  1.00  0.00     0.012 C 
ATOM     10  C   UNL     1       2.559  -3.672  17.724  1.00  0.00     0.012 C 
ENDBRANCH   5   8
TORSDOF 1
ENDMDL
MODEL 4
REMARK VINA RESULT:    -4.440      1.998      3.232
REMARK INTER + INTRA:          -4.875
REMARK INTER:                  -4.734
REMARK INTRA:                  -0.141
REMARK UNBOUND:                -0.176
REMARK SMILES CC1=CCC(C(C)C)=CC1
REMARK SMILES IDX 1 1 2 2 3 3 4 4 5 5 9 6 10 7 6 8 7 9 8 10
REMARK H PARENT
REMARK Flexibility Score: inf
ROOT
ATOM      1  C   UNL     1      14.152  -1.312  27.037  1.00  0.00     0.039 C 
ATOM      2  C   UNL     1      12.898  -0.964  26.286  1.00  0.00    -0.073 C 
ATOM      3  C   UNL     1      12.942  -0.785  24.951  1.00  0.00    -0.023 C 
ATOM      4  C   UNL     1      11.685  -0.475  24.177  1.00  0.00     0.058 C 
ATOM      5  C   UNL     1      10.714   0.350  25.007  1.00  0.00    -0.068 C 
ATOM      6  C   UNL     1      10.678   0.167  26.344  1.00  0.00    -0.023 C 
ATOM      7  C   UNL     1      11.575  -0.845  27.012  1.00  0.00     0.057 C 
ENDROOT
BRANCH   5   8
ATOM      8  C   UNL     1       9.814   1.387  24.353  1.00  0.00     0.009 C 
ATOM      9  C   UNL     1       8.487   1.527  25.109  1.00  0.00     0.012 C 
ATOM     10  C   UNL     1       9.574   1.045  22.879  1.00  0.00     0.012 C 
ENDBRANCH   5   8
TORSDOF 1
ENDMDL
MODEL 5
REMARK VINA RESULT:    -4.367      7.151     10.215
REMARK INTER + INTRA:          -4.798
REMARK INTER:                  -4.622
REMARK INTRA:                  -0.176
REMARK UNBOUND:                -0.176
REMARK SMILES CC1=CCC(C(C)C)=CC1
REMARK SMILES IDX 1 1 2 2 3 3 4 4 5 5 9 6 10 7 6 8 7 9 8 10
REMARK H PARENT
REMARK Flexibility Score: inf
ROOT
ATOM      1  C   UNL     1       1.063  -1.157  15.994  1.00  0.00     0.039 C 
ATOM      2  C   UNL     1       2.259  -1.895  16.528  1.00  0.00    -0.073 C 
ATOM      3  C   UNL     1       2.317  -2.227  17.832  1.00  0.00    -0.023 C 
ATOM      4  C   UNL     1       3.492  -3.002  18.376  1.00  0.00     0.058 C 
ATOM      5  C   UNL     1       4.774  -2.648  17.641  1.00  0.00    -0.068 C 
ATOM      6  C   UNL     1       4.708  -2.314  16.334  1.00  0.00    -0.023 C 
ATOM      7  C   UNL     1       3.388  -2.299  15.604  1.00  0.00     0.057 C 
ENDROOT
BRANCH   5   8
ATOM      8  C   UNL     1       6.112  -2.642  18.364  1.00  0.00     0.009 C 
ATOM      9  C   UNL     1       6.124  -1.617  19.504  1.00  0.00     0.012 C 
ATOM     10  C   UNL     1       7.259  -2.385  17.381  1.00  0.00     0.012 C 
ENDBRANCH   5   8
TORSDOF 1
ENDMDL
MODEL 6
REMARK VINA RESULT:    -4.358      0.676      4.563
REMARK INTER + INTRA:          -4.789
REMARK INTER:                  -4.611
REMARK INTRA:                  -0.178
REMARK UNBOUND:                -0.176
REMARK SMILES CC1=CCC(C(C)C)=CC1
REMARK SMILES IDX 1 1 2 2 3 3 4 4 5 5 9 6 10 7 6 8 7 9 8 10
REMARK H PARENT
REMARK Flexibility Score: inf
ROOT
ATOM      1  C   UNL     1       7.699   1.693  22.764  1.00  0.00     0.039 C 
ATOM      2  C   UNL     1       8.512   1.512  24.015  1.00  0.00    -0.073 C 
ATOM      3  C   UNL     1       9.793   1.105  23.932  1.00  0.00    -0.023 C 
ATOM      4  C   UNL     1      10.634   0.957  25.176  1.00  0.00     0.058 C 
ATOM      5  C   UNL     1       9.791   0.522  26.364  1.00  0.00    -0.068 C 
ATOM      6  C   UNL     1       8.506   0.932  26.439  1.00  0.00    -0.023 C 
ATOM      7  C   UNL     1       7.911   1.816  25.372  1.00  0.00     0.057 C 
ENDROOT
BRANCH   5   8
ATOM      8  C   UNL     1      10.368  -0.382  27.442  1.00  0.00     0.009 C 
ATOM      9  C   UNL     1      11.589  -1.153  26.927  1.00  0.00     0.012 C 
ATOM     10  C   UNL     1       9.298  -1.339  27.978  1.00  0.00     0.012 C 
ENDBRANCH   5   8
TORSDOF 1
ENDMDL
MODEL 7
REMARK VINA RESULT:    -4.278      8.512     10.040
REMARK INTER + INTRA:          -4.703
REMARK INTER:                  -4.564
REMARK INTRA:                  -0.140
REMARK UNBOUND:                -0.176
REMARK SMILES CC1=CCC(C(C)C)=CC1
REMARK SMILES IDX 1 1 2 2 3 3 4 4 5 5 9 6 10 7 6 8 7 9 8 10
REMARK H PARENT
REMARK Flexibility Score: inf
ROOT
ATOM      1  C   UNL     1       4.673  -5.279  19.911  1.00  0.00     0.039 C 
ATOM      2  C   UNL     1       4.144  -4.218  18.986  1.00  0.00    -0.073 C 
ATOM      3  C   UNL     1       2.999  -4.428  18.307  1.00  0.00    -0.023 C 
ATOM      4  C   UNL     1       2.434  -3.358  17.406  1.00  0.00     0.058 C 
ATOM      5  C   UNL     1       3.540  -2.536  16.764  1.00  0.00    -0.068 C 
ATOM      6  C   UNL     1       4.685  -2.332  17.450  1.00  0.00    -0.023 C 
ATOM      7  C   UNL     1       4.870  -2.898  18.835  1.00  0.00     0.057 C 
ENDROOT
BRANCH   5   8
ATOM      8  C   UNL     1       3.379  -1.971  15.361  1.00  0.00     0.009 C 
ATOM      9  C   UNL     1       4.737  -1.795  14.673  1.00  0.00     0.012 C 
ATOM     10  C   UNL     1       2.603  -0.650  15.394  1.00  0.00     0.012 C 
ENDBRANCH   5   8
TORSDOF 1
ENDMDL
MODEL 8
REMARK VINA RESULT:    -4.217     15.294     18.147
REMARK INTER + INTRA:          -4.640
REMARK INTER:                  -4.487
REMARK INTRA:                  -0.153
REMARK UNBOUND:                -0.176
REMARK SMILES CC1=CCC(C(C)C)=CC1
REMARK SMILES IDX 1 1 2 2 3 3 4 4 5 5 9 6 10 7 6 8 7 9 8 10
REMARK H PARENT
REMARK Flexibility Score: inf
ROOT
ATOM      1  C   UNL     1      -2.086  -7.433   8.875  1.00  0.00     0.039 C 
ATOM      2  C   UNL     1      -1.276  -6.554   9.788  1.00  0.00    -0.073 C 
ATOM      3  C   UNL     1      -1.445  -6.633  11.122  1.00  0.00    -0.023 C 
ATOM      4  C   UNL     1      -0.611  -5.788  12.052  1.00  0.00     0.058 C 
ATOM      5  C   UNL     1      -0.270  -4.446  11.423  1.00  0.00    -0.068 C 
ATOM      6  C   UNL     1      -0.105  -4.375  10.085  1.00  0.00    -0.023 C 
ATOM      7  C   UNL     1      -0.244  -5.603   9.220  1.00  0.00     0.057 C 
ENDROOT
BRANCH   5   8
ATOM      8  C   UNL     1      -0.142  -3.194  12.276  1.00  0.00     0.009 C 
ATOM      9  C   UNL     1       0.921  -3.370  13.367  1.00  0.00     0.012 C 
ATOM     10  C   UNL     1      -1.495  -2.810  12.883  1.00  0.00     0.012 C 
ENDBRANCH   5   8
TORSDOF 1
ENDMDL
MODEL 9
REMARK VINA RESULT:    -4.110      8.261     10.854
REMARK INTER + INTRA:          -4.526
REMARK INTER:                  -4.388
REMARK INTRA:                  -0.138
REMARK UNBOUND:                -0.176
REMARK SMILES CC1=CCC(C(C)C)=CC1
REMARK SMILES IDX 1 1 2 2 3 3 4 4 5 5 9 6 10 7 6 8 7 9 8 10
REMARK H PARENT
REMARK Flexibility Score: inf
ROOT
ATOM      1  C   UNL     1       0.563  -0.927  15.816  1.00  0.00     0.039 C 
ATOM      2  C   UNL     1       1.596  -1.856  16.391  1.00  0.00    -0.073 C 
ATOM      3  C   UNL     1       1.267  -2.685  17.400  1.00  0.00    -0.023 C 
ATOM      4  C   UNL     1       2.282  -3.651  17.960  1.00  0.00     0.058 C 
ATOM      5  C   UNL     1       3.686  -3.073  17.900  1.00  0.00    -0.068 C 
ATOM      6  C   UNL     1       4.008  -2.240  16.887  1.00  0.00    -0.023 C 
ATOM      7  C   UNL     1       2.999  -1.890  15.822  1.00  0.00     0.057 C 
ENDROOT
BRANCH   5   8
ATOM      8  C   UNL     1       4.712  -3.402  18.974  1.00  0.00     0.009 C 
ATOM      9  C   UNL     1       6.123  -2.984  18.542  1.00  0.00     0.012 C 
ATOM     10  C   UNL     1       4.665  -4.890  19.333  1.00  0.00     0.012 C 
ENDBRANCH   5   8
TORSDOF 1
ENDMDL
