MODEL 1
REMARK VINA RESULT:    -3.642      0.000      0.000
REMARK INTER + INTRA:          -5.863
REMARK INTER:                  -5.345
REMARK INTRA:                  -0.518
REMARK UNBOUND:                -0.518
REMARK SMILES O=C([O-])CCCCCCCC(=O)[O-]
REMARK SMILES IDX 7 1 6 2 5 3 4 4 2 5 1 6 3 7 8 8 9 9 10 10 11 11 12 12 13 13
REMARK H PARENT
REMARK Flexibility Score: inf
ROOT
ATOM      1  C   UNL     1      -8.417  -6.495   7.459  1.00  0.00     0.000 C 
ENDROOT
BRANCH   1   2
ATOM      2  C   UNL     1      -7.973  -7.102   8.801  1.00  0.00     0.000 C 
BRANCH   2   3
ATOM      3  C   UNL     1      -7.594  -6.025   9.837  1.00  0.00     0.006 C 
BRANCH   3   4
ATOM      4  C   UNL     1      -6.077  -5.828   9.993  1.00  0.00     0.053 C 
BRANCH   4   5
ATOM      5  C   UNL     1      -5.649  -4.428   9.682  1.00  0.00     0.041 C 
ATOM      6  O   UNL     1      -4.438  -4.175   9.448  1.00  0.00    -0.550 OA
ATOM      7  O   UNL     1      -6.589  -3.409   9.622  1.00  0.00    -0.550 OA
ENDBRANCH   4   5
ENDBRANCH   3   4
ENDBRANCH   2   3
ENDBRANCH   1   2
BRANCH   1   8
ATOM      8  C   UNL     1      -9.870  -5.997   7.485  1.00  0.00     0.000 C 
BRANCH   8   9
ATOM      9  C   UNL     1     -10.053  -4.656   6.760  1.00  0.00     0.006 C 
BRANCH   9  10
ATOM     10  C   UNL     1      -9.533  -3.495   7.614  1.00  0.00     0.053 C 
BRANCH  10  11
ATOM     11  C   UNL     1      -8.784  -2.516   6.767  1.00  0.00     0.041 C 
ATOM     12  O   UNL     1      -8.922  -2.525   5.515  1.00  0.00    -0.550 OA
ATOM     13  O   UNL     1      -7.972  -1.559   7.363  1.00  0.00    -0.550 OA
ENDBRANCH  10  11
ENDBRANCH   9  10
ENDBRANCH   8   9
ENDBRANCH   1   8
TORSDOF 8
ENDMDL
MODEL 2
REMARK VINA RESULT:    -3.421     12.043     13.852
REMARK INTER + INTRA:          -5.539
REMARK INTER:                  -4.820
REMARK INTRA:                  -0.719
REMARK UNBOUND:                -0.518
REMARK SMILES O=C([O-])CCCCCCCC(=O)[O-]
REMARK SMILES IDX 7 1 6 2 5 3 4 4 2 5 1 6 3 7 8 8 9 9 10 10 11 11 12 12 13 13
REMARK H PARENT
REMARK Flexibility Score: inf
ROOT
ATOM      1  C   UNL     1      -5.283   7.986   8.985  1.00  0.00     0.000 C 
ENDROOT
BRANCH   1   2
ATOM      2  C   UNL     1      -5.875   7.139  10.125  1.00  0.00     0.000 C 
BRANCH   2   3
ATOM      3  C   UNL     1      -7.403   6.978  10.006  1.00  0.00     0.006 C 
BRANCH   3   4
ATOM      4  C   UNL     1      -7.956   7.357   8.622  1.00  0.00     0.053 C 
BRANCH   4   5
ATOM      5  C   UNL     1      -9.423   7.652   8.655  1.00  0.00     0.041 C 
ATOM      6  O   UNL     1      -9.924   8.463   7.832  1.00  0.00    -0.550 OA
ATOM      7  O   UNL     1     -10.241   7.013   9.577  1.00  0.00    -0.550 OA
ENDBRANCH   4   5
ENDBRANCH   3   4
ENDBRANCH   2   3
ENDBRANCH   1   2
BRANCH   1   8
ATOM      8  C   UNL     1      -4.751   9.344   9.469  1.00  0.00     0.000 C 
BRANCH   8   9
ATOM      9  C   UNL     1      -4.896  10.450   8.415  1.00  0.00     0.006 C 
BRANCH   9  10
ATOM     10  C   UNL     1      -5.778   9.985   7.251  1.00  0.00     0.053 C 
BRANCH  10  11
ATOM     11  C   UNL     1      -7.097  10.689   7.280  1.00  0.00     0.041 C 
ATOM     12  O   UNL     1      -7.687  10.975   6.205  1.00  0.00    -0.550 OA
ATOM     13  O   UNL     1      -7.700  10.988   8.495  1.00  0.00    -0.550 OA
ENDBRANCH  10  11
ENDBRANCH   9  10
ENDBRANCH   8   9
ENDBRANCH   1   8
TORSDOF 8
ENDMDL
MODEL 3
REMARK VINA RESULT:    -3.415     13.398     15.434
REMARK INTER + INTRA:          -5.530
REMARK INTER:                  -4.892
REMARK INTRA:                  -0.638
REMARK UNBOUND:                -0.518
REMARK SMILES O=C([O-])CCCCCCCC(=O)[O-]
REMARK SMILES IDX 7 1 6 2 5 3 4 4 2 5 1 6 3 7 8 8 9 9 10 10 11 11 12 12 13 13
REMARK H PARENT
REMARK Flexibility Score: inf
ROOT
ATOM      1  C   UNL     1       7.876  -7.365   3.910  1.00  0.00     0.000 C 
ENDROOT
BRANCH   1   2
ATOM      2  C   UNL     1       6.601  -7.912   3.246  1.00  0.00     0.000 C 
BRANCH   2   3
ATOM      3  C   UNL     1       5.325  -7.213   3.757  1.00  0.00     0.006 C 
BRANCH   3   4
ATOM      4  C   UNL     1       4.306  -6.905   2.648  1.00  0.00     0.053 C 
BRANCH   4   5
ATOM      5  C   UNL     1       3.529  -8.116   2.234  1.00  0.00     0.041 C 
ATOM      6  O   UNL     1       3.617  -8.551   1.056  1.00  0.00    -0.550 OA
ATOM      7  O   UNL     1       2.730  -8.780   3.156  1.00  0.00    -0.550 OA
ENDBRANCH   4   5
ENDBRANCH   3   4
ENDBRANCH   2   3
ENDBRANCH   1   2
BRANCH   1   8
ATOM      8  C   UNL     1       7.577  -6.307   4.985  1.00  0.00     0.000 C 
BRANCH   8   9
ATOM      9  C   UNL     1       8.441  -6.477   6.242  1.00  0.00     0.006 C 
BRANCH   9  10
ATOM     10  C   UNL     1       8.049  -7.744   7.010  1.00  0.00     0.053 C 
BRANCH  10  11
ATOM     11  C   UNL     1       6.634  -7.652   7.485  1.00  0.00     0.041 C 
ATOM     12  O   UNL     1       6.299  -6.761   8.309  1.00  0.00    -0.550 OA
ATOM     13  O   UNL     1       5.672  -8.519   6.981  1.00  0.00    -0.550 OA
ENDBRANCH  10  11
ENDBRANCH   9  10
ENDBRANCH   8   9
ENDBRANCH   1   8
TORSDOF 8
ENDMDL
MODEL 4
REMARK VINA RESULT:    -3.408     20.066     20.931
REMARK INTER + INTRA:          -5.519
REMARK INTER:                  -4.773
REMARK INTRA:                  -0.746
REMARK UNBOUND:                -0.518
REMARK SMILES O=C([O-])CCCCCCCC(=O)[O-]
REMARK SMILES IDX 7 1 6 2 5 3 4 4 2 5 1 6 3 7 8 8 9 9 10 10 11 11 12 12 13 13
REMARK H PARENT
REMARK Flexibility Score: inf
ROOT
ATOM      1  C   UNL     1       4.741  -7.247  -8.160  1.00  0.00     0.000 C 
ENDROOT
BRANCH   1   2
ATOM      2  C   UNL     1       5.041  -6.113  -9.156  1.00  0.00     0.000 C 
BRANCH   2   3
ATOM      3  C   UNL     1       5.257  -4.756  -8.455  1.00  0.00     0.006 C 
BRANCH   3   4
ATOM      4  C   UNL     1       6.599  -4.655  -7.711  1.00  0.00     0.053 C 
BRANCH   4   5
ATOM      5  C   UNL     1       6.429  -4.667  -6.224  1.00  0.00     0.041 C 
ATOM      6  O   UNL     1       7.438  -4.717  -5.473  1.00  0.00    -0.550 OA
ATOM      7  O   UNL     1       5.159  -4.596  -5.668  1.00  0.00    -0.550 OA
ENDBRANCH   4   5
ENDBRANCH   3   4
ENDBRANCH   2   3
ENDBRANCH   1   2
BRANCH   1   8
ATOM      8  C   UNL     1       5.741  -8.410  -8.267  1.00  0.00     0.000 C 
BRANCH   8   9
ATOM      9  C   UNL     1       7.030  -8.160  -7.471  1.00  0.00     0.006 C 
BRANCH   9  10
ATOM     10  C   UNL     1       7.045  -8.984  -6.179  1.00  0.00     0.053 C 
BRANCH  10  11
ATOM     11  C   UNL     1       6.751  -8.114  -4.999  1.00  0.00     0.041 C 
ATOM     12  O   UNL     1       5.567  -7.769  -4.745  1.00  0.00    -0.550 OA
ATOM     13  O   UNL     1       7.778  -7.723  -4.150  1.00  0.00    -0.550 OA
ENDBRANCH  10  11
ENDBRANCH   9  10
ENDBRANCH   8   9
ENDBRANCH   1   8
TORSDOF 8
ENDMDL
MODEL 5
REMARK VINA RESULT:    -3.340      2.136      3.649
REMARK INTER + INTRA:          -5.420
REMARK INTER:                  -4.867
REMARK INTRA:                  -0.552
REMARK UNBOUND:                -0.518
REMARK SMILES O=C([O-])CCCCCCCC(=O)[O-]
REMARK SMILES IDX 7 1 6 2 5 3 4 4 2 5 1 6 3 7 8 8 9 9 10 10 11 11 12 12 13 13
REMARK H PARENT
REMARK Flexibility Score: inf
ROOT
ATOM      1  C   UNL     1      -8.174  -6.682   8.157  1.00  0.00     0.000 C 
ENDROOT
BRANCH   1   2
ATOM      2  C   UNL     1      -7.758  -5.204   8.255  1.00  0.00     0.000 C 
BRANCH   2   3
ATOM      3  C   UNL     1      -8.964  -4.266   8.464  1.00  0.00     0.006 C 
BRANCH   3   4
ATOM      4  C   UNL     1      -8.581  -2.887   9.026  1.00  0.00     0.053 C 
BRANCH   4   5
ATOM      5  C   UNL     1      -8.335  -1.881   7.946  1.00  0.00     0.041 C 
ATOM      6  O   UNL     1      -9.222  -1.650   7.082  1.00  0.00    -0.550 OA
ATOM      7  O   UNL     1      -7.139  -1.177   7.909  1.00  0.00    -0.550 OA
ENDBRANCH   4   5
ENDBRANCH   3   4
ENDBRANCH   2   3
ENDBRANCH   1   2
BRANCH   1   8
ATOM      8  C   UNL     1      -8.399  -7.141   6.707  1.00  0.00     0.000 C 
BRANCH   8   9
ATOM      9  C   UNL     1      -9.788  -7.755   6.487  1.00  0.00     0.006 C 
BRANCH   9  10
ATOM     10  C   UNL     1     -10.878  -6.681   6.546  1.00  0.00     0.053 C 
BRANCH  10  11
ATOM     11  C   UNL     1     -10.867  -5.854   5.300  1.00  0.00     0.041 C 
ATOM     12  O   UNL     1     -10.926  -6.408   4.171  1.00  0.00    -0.550 OA
ATOM     13  O   UNL     1     -10.841  -4.467   5.385  1.00  0.00    -0.550 OA
ENDBRANCH  10  11
ENDBRANCH   9  10
ENDBRANCH   8   9
ENDBRANCH   1   8
TORSDOF 8
ENDMDL
MODEL 6
REMARK VINA RESULT:    -3.331      1.506      2.521
REMARK INTER + INTRA:          -5.407
REMARK INTER:                  -4.794
REMARK INTRA:                  -0.613
REMARK UNBOUND:                -0.518
REMARK SMILES O=C([O-])CCCCCCCC(=O)[O-]
REMARK SMILES IDX 7 1 6 2 5 3 4 4 2 5 1 6 3 7 8 8 9 9 10 10 11 11 12 12 13 13
REMARK H PARENT
REMARK Flexibility Score: inf
ROOT
ATOM      1  C   UNL     1     -10.334  -5.242   6.462  1.00  0.00     0.000 C 
ENDROOT
BRANCH   1   2
ATOM      2  C   UNL     1     -10.032  -6.751   6.485  1.00  0.00     0.000 C 
BRANCH   2   3
ATOM      3  C   UNL     1      -8.522  -7.047   6.575  1.00  0.00     0.006 C 
BRANCH   3   4
ATOM      4  C   UNL     1      -7.670  -5.809   6.901  1.00  0.00     0.053 C 
BRANCH   4   5
ATOM      5  C   UNL     1      -7.218  -5.787   8.327  1.00  0.00     0.041 C 
ATOM      6  O   UNL     1      -6.210  -5.112   8.661  1.00  0.00    -0.550 OA
ATOM      7  O   UNL     1      -7.926  -6.491   9.293  1.00  0.00    -0.550 OA
ENDBRANCH   4   5
ENDBRANCH   3   4
ENDBRANCH   2   3
ENDBRANCH   1   2
BRANCH   1   8
ATOM      8  C   UNL     1     -10.984  -4.747   7.764  1.00  0.00     0.000 C 
BRANCH   8   9
ATOM      9  C   UNL     1     -10.779  -3.244   7.996  1.00  0.00     0.006 C 
BRANCH   9  10
ATOM     10  C   UNL     1      -9.351  -2.953   8.471  1.00  0.00     0.053 C 
BRANCH  10  11
ATOM     11  C   UNL     1      -8.621  -2.126   7.461  1.00  0.00     0.041 C 
ATOM     12  O   UNL     1      -7.719  -1.328   7.828  1.00  0.00    -0.550 OA
ATOM     13  O   UNL     1      -8.903  -2.271   6.108  1.00  0.00    -0.550 OA
ENDBRANCH  10  11
ENDBRANCH   9  10
ENDBRANCH   8   9
ENDBRANCH   1   8
TORSDOF 8
ENDMDL
MODEL 7
REMARK VINA RESULT:    -3.328      2.169      4.244
REMARK INTER + INTRA:          -5.403
REMARK INTER:                  -4.836
REMARK INTRA:                  -0.567
REMARK UNBOUND:                -0.518
REMARK SMILES O=C([O-])CCCCCCCC(=O)[O-]
REMARK SMILES IDX 7 1 6 2 5 3 4 4 2 5 1 6 3 7 8 8 9 9 10 10 11 11 12 12 13 13
REMARK H PARENT
REMARK Flexibility Score: inf
ROOT
ATOM      1  C   UNL     1      -7.827  -5.731   7.755  1.00  0.00     0.000 C 
ENDROOT
BRANCH   1   2
ATOM      2  C   UNL     1      -8.329  -7.182   7.663  1.00  0.00     0.000 C 
BRANCH   2   3
ATOM      3  C   UNL     1      -9.104  -7.455   6.359  1.00  0.00     0.006 C 
BRANCH   3   4
ATOM      4  C   UNL     1     -10.523  -6.863   6.351  1.00  0.00     0.053 C 
BRANCH   4   5
ATOM      5  C   UNL     1     -10.800  -6.063   5.117  1.00  0.00     0.041 C 
ATOM      6  O   UNL     1     -10.765  -6.614   3.985  1.00  0.00    -0.550 OA
ATOM      7  O   UNL     1     -11.123  -4.717   5.218  1.00  0.00    -0.550 OA
ENDBRANCH   4   5
ENDBRANCH   3   4
ENDBRANCH   2   3
ENDBRANCH   1   2
BRANCH   1   8
ATOM      8  C   UNL     1      -8.399  -4.981   8.969  1.00  0.00     0.000 C 
BRANCH   8   9
ATOM      9  C   UNL     1      -9.586  -4.079   8.605  1.00  0.00     0.006 C 
BRANCH   9  10
ATOM     10  C   UNL     1      -9.223  -2.600   8.775  1.00  0.00     0.053 C 
BRANCH  10  11
ATOM     11  C   UNL     1      -8.601  -2.066   7.523  1.00  0.00     0.041 C 
ATOM     12  O   UNL     1      -9.091  -2.354   6.400  1.00  0.00    -0.550 OA
ATOM     13  O   UNL     1      -7.509  -1.211   7.599  1.00  0.00    -0.550 OA
ENDBRANCH  10  11
ENDBRANCH   9  10
ENDBRANCH   8   9
ENDBRANCH   1   8
TORSDOF 8
ENDMDL
MODEL 8
REMARK VINA RESULT:    -3.304     20.625     21.608
REMARK INTER + INTRA:          -5.367
REMARK INTER:                  -4.789
REMARK INTRA:                  -0.577
REMARK UNBOUND:                -0.518
REMARK SMILES O=C([O-])CCCCCCCC(=O)[O-]
REMARK SMILES IDX 7 1 6 2 5 3 4 4 2 5 1 6 3 7 8 8 9 9 10 10 11 11 12 12 13 13
REMARK H PARENT
REMARK Flexibility Score: inf
ROOT
ATOM      1  C   UNL     1       7.546  -4.659  -7.898  1.00  0.00     0.000 C 
ENDROOT
BRANCH   1   2
ATOM      2  C   UNL     1       7.687  -3.466  -8.860  1.00  0.00     0.000 C 
BRANCH   2   3
ATOM      3  C   UNL     1       6.749  -3.579 -10.078  1.00  0.00     0.006 C 
BRANCH   3   4
ATOM      4  C   UNL     1       5.589  -2.570 -10.058  1.00  0.00     0.053 C 
BRANCH   4   5
ATOM      5  C   UNL     1       4.323  -3.168  -9.530  1.00  0.00     0.041 C 
ATOM      6  O   UNL     1       4.046  -4.374  -9.767  1.00  0.00    -0.550 OA
ATOM      7  O   UNL     1       3.461  -2.404  -8.755  1.00  0.00    -0.550 OA
ENDBRANCH   4   5
ENDBRANCH   3   4
ENDBRANCH   2   3
ENDBRANCH   1   2
BRANCH   1   8
ATOM      8  C   UNL     1       7.035  -5.928  -8.598  1.00  0.00     0.000 C 
BRANCH   8   9
ATOM      9  C   UNL     1       6.493  -6.973  -7.613  1.00  0.00     0.006 C 
BRANCH   9  10
ATOM     10  C   UNL     1       5.026  -6.695  -7.271  1.00  0.00     0.053 C 
BRANCH  10  11
ATOM     11  C   UNL     1       4.902  -6.182  -5.872  1.00  0.00     0.041 C 
ATOM     12  O   UNL     1       4.759  -6.985  -4.913  1.00  0.00    -0.550 OA
ATOM     13  O   UNL     1       4.992  -4.818  -5.620  1.00  0.00    -0.550 OA
ENDBRANCH  10  11
ENDBRANCH   9  10
ENDBRANCH   8   9
ENDBRANCH   1   8
TORSDOF 8
ENDMDL
MODEL 9
REMARK VINA RESULT:    -3.242      1.872      3.846
REMARK INTER + INTRA:          -5.276
REMARK INTER:                  -4.564
REMARK INTRA:                  -0.713
REMARK UNBOUND:                -0.518
REMARK SMILES O=C([O-])CCCCCCCC(=O)[O-]
REMARK SMILES IDX 7 1 6 2 5 3 4 4 2 5 1 6 3 7 8 8 9 9 10 10 11 11 12 12 13 13
REMARK H PARENT
REMARK Flexibility Score: inf
ROOT
ATOM      1  C   UNL     1     -11.119  -5.128   8.045  1.00  0.00     0.000 C 
ENDROOT
BRANCH   1   2
ATOM      2  C   UNL     1     -10.616  -4.019   8.985  1.00  0.00     0.000 C 
BRANCH   2   3
ATOM      3  C   UNL     1     -10.653  -2.626   8.325  1.00  0.00     0.006 C 
BRANCH   3   4
ATOM      4  C   UNL     1      -9.483  -1.718   8.738  1.00  0.00     0.053 C 
BRANCH   4   5
ATOM      5  C   UNL     1      -8.369  -1.734   7.739  1.00  0.00     0.041 C 
ATOM      6  O   UNL     1      -8.535  -2.278   6.615  1.00  0.00    -0.550 OA
ATOM      7  O   UNL     1      -7.157  -1.126   8.037  1.00  0.00    -0.550 OA
ENDBRANCH   4   5
ENDBRANCH   3   4
ENDBRANCH   2   3
ENDBRANCH   1   2
BRANCH   1   8
ATOM      8  C   UNL     1     -10.259  -5.267   6.779  1.00  0.00     0.000 C 
BRANCH   8   9
ATOM      9  C   UNL     1      -9.599  -6.648   6.658  1.00  0.00     0.006 C 
BRANCH   9  10
ATOM     10  C   UNL     1      -8.490  -6.819   7.700  1.00  0.00     0.053 C 
BRANCH  10  11
ATOM     11  C   UNL     1      -7.457  -5.748   7.547  1.00  0.00     0.041 C 
ATOM     12  O   UNL     1      -6.845  -5.610   6.456  1.00  0.00    -0.550 OA
ATOM     13  O   UNL     1      -7.205  -4.870   8.594  1.00  0.00    -0.550 OA
ENDBRANCH  10  11
ENDBRANCH   9  10
ENDBRANCH   8   9
ENDBRANCH   1   8
TORSDOF 8
ENDMDL
