MODEL 1
REMARK VINA RESULT:    -3.890      0.000      0.000
REMARK INTER + INTRA:          -4.864
REMARK INTER:                  -4.800
REMARK INTRA:                  -0.065
REMARK UNBOUND:                -0.065
REMARK SMILES CCCCCC(=O)[O-]
REMARK SMILES IDX 4 1 5 2 6 3 7 4 8 5 3 6 2 7 1 8
REMARK H PARENT
REMARK Flexibility Score: inf
ROOT
ATOM      1  C   UNL     1      20.747  -0.058  27.789  1.00  0.00     0.006 C 
ENDROOT
BRANCH   1   2
ATOM      2  C   UNL     1      21.266  -0.450  26.402  1.00  0.00     0.053 C 
BRANCH   2   3
ATOM      3  C   UNL     1      22.159   0.619  25.856  1.00  0.00     0.041 C 
ATOM      4  O   UNL     1      21.667   1.607  25.250  1.00  0.00    -0.550 OA
ATOM      5  O   UNL     1      23.538   0.499  25.971  1.00  0.00    -0.550 OA
ENDBRANCH   2   3
ENDBRANCH   1   2
BRANCH   1   6
ATOM      6  C   UNL     1      20.875  -1.224  28.775  1.00  0.00     0.000 C 
BRANCH   6   7
ATOM      7  C   UNL     1      21.629  -0.796  30.039  1.00  0.00    -0.003 C 
ATOM      8  C   UNL     1      22.463  -1.944  30.599  1.00  0.00     0.004 C 
ENDBRANCH   6   7
ENDBRANCH   1   6
TORSDOF 4
ENDMDL
MODEL 2
REMARK VINA RESULT:    -3.748      5.959      6.986
REMARK INTER + INTRA:          -4.690
REMARK INTER:                  -4.447
REMARK INTRA:                  -0.242
REMARK UNBOUND:                -0.065
REMARK SMILES CCCCCC(=O)[O-]
REMARK SMILES IDX 4 1 5 2 6 3 7 4 8 5 3 6 2 7 1 8
REMARK H PARENT
REMARK Flexibility Score: inf
ROOT
ATOM      1  C   UNL     1      27.147   0.820  31.602  1.00  0.00     0.006 C 
ENDROOT
BRANCH   1   2
ATOM      2  C   UNL     1      26.265   0.291  30.468  1.00  0.00     0.053 C 
BRANCH   2   3
ATOM      3  C   UNL     1      26.584   0.992  29.185  1.00  0.00     0.041 C 
ATOM      4  O   UNL     1      26.203   0.508  28.087  1.00  0.00    -0.550 OA
ATOM      5  O   UNL     1      27.343   2.155  29.199  1.00  0.00    -0.550 OA
ENDBRANCH   2   3
ENDBRANCH   1   2
BRANCH   1   6
ATOM      6  C   UNL     1      28.348  -0.101  31.842  1.00  0.00     0.000 C 
BRANCH   6   7
ATOM      7  C   UNL     1      29.666   0.675  31.745  1.00  0.00    -0.003 C 
ATOM      8  C   UNL     1      30.311   0.497  30.374  1.00  0.00     0.004 C 
ENDBRANCH   6   7
ENDBRANCH   1   6
TORSDOF 4
ENDMDL
MODEL 3
REMARK VINA RESULT:    -3.748      6.455      7.315
REMARK INTER + INTRA:          -4.690
REMARK INTER:                  -4.451
REMARK INTRA:                  -0.239
REMARK UNBOUND:                -0.065
REMARK SMILES CCCCCC(=O)[O-]
REMARK SMILES IDX 4 1 5 2 6 3 7 4 8 5 3 6 2 7 1 8
REMARK H PARENT
REMARK Flexibility Score: inf
ROOT
ATOM      1  C   UNL     1      28.509  -0.048  28.764  1.00  0.00     0.006 C 
ENDROOT
BRANCH   1   2
ATOM      2  C   UNL     1      27.015   0.287  28.818  1.00  0.00     0.053 C 
BRANCH   2   3
ATOM      3  C   UNL     1      26.357  -0.436  29.951  1.00  0.00     0.041 C 
ATOM      4  O   UNL     1      25.235  -0.057  30.378  1.00  0.00    -0.550 OA
ATOM      5  O   UNL     1      27.005  -1.499  30.568  1.00  0.00    -0.550 OA
ENDBRANCH   2   3
ENDBRANCH   1   2
BRANCH   1   6
ATOM      6  C   UNL     1      29.341   1.031  29.465  1.00  0.00     0.000 C 
BRANCH   6   7
ATOM      7  C   UNL     1      30.267   0.414  30.519  1.00  0.00    -0.003 C 
ATOM      8  C   UNL     1      29.653   0.504  31.913  1.00  0.00     0.004 C 
ENDBRANCH   6   7
ENDBRANCH   1   6
TORSDOF 4
ENDMDL
MODEL 4
REMARK VINA RESULT:    -3.745     13.029     14.466
REMARK INTER + INTRA:          -4.686
REMARK INTER:                  -4.617
REMARK INTRA:                  -0.069
REMARK UNBOUND:                -0.065
REMARK SMILES CCCCCC(=O)[O-]
REMARK SMILES IDX 4 1 5 2 6 3 7 4 8 5 3 6 2 7 1 8
REMARK H PARENT
REMARK Flexibility Score: inf
ROOT
ATOM      1  C   UNL     1      35.455   1.058  33.113  1.00  0.00     0.006 C 
ENDROOT
BRANCH   1   2
ATOM      2  C   UNL     1      34.890   0.654  34.478  1.00  0.00     0.053 C 
BRANCH   2   3
ATOM      3  C   UNL     1      33.763   1.558  34.867  1.00  0.00     0.041 C 
ATOM      4  O   UNL     1      32.580   1.126  34.882  1.00  0.00    -0.550 OA
ATOM      5  O   UNL     1      34.013   2.892  35.164  1.00  0.00    -0.550 OA
ENDBRANCH   2   3
ENDBRANCH   1   2
BRANCH   1   6
ATOM      6  C   UNL     1      35.495  -0.140  32.157  1.00  0.00     0.000 C 
BRANCH   6   7
ATOM      7  C   UNL     1      35.236   0.301  30.712  1.00  0.00    -0.003 C 
ATOM      8  C   UNL     1      33.920  -0.268  30.189  1.00  0.00     0.004 C 
ENDBRANCH   6   7
ENDBRANCH   1   6
TORSDOF 4
ENDMDL
MODEL 5
REMARK VINA RESULT:    -3.735      7.022      8.039
REMARK INTER + INTRA:          -4.673
REMARK INTER:                  -4.423
REMARK INTRA:                  -0.250
REMARK UNBOUND:                -0.065
REMARK SMILES CCCCCC(=O)[O-]
REMARK SMILES IDX 4 1 5 2 6 3 7 4 8 5 3 6 2 7 1 8
REMARK H PARENT
REMARK Flexibility Score: inf
ROOT
ATOM      1  C   UNL     1      28.980   0.943  28.943  1.00  0.00     0.006 C 
ENDROOT
BRANCH   1   2
ATOM      2  C   UNL     1      29.985   0.623  30.054  1.00  0.00     0.053 C 
BRANCH   2   3
ATOM      3  C   UNL     1      29.515   1.178  31.361  1.00  0.00     0.041 C 
ATOM      4  O   UNL     1      29.859   0.631  32.442  1.00  0.00    -0.550 OA
ATOM      5  O   UNL     1      28.657   2.270  31.385  1.00  0.00    -0.550 OA
ENDBRANCH   2   3
ENDBRANCH   1   2
BRANCH   1   6
ATOM      6  C   UNL     1      27.882  -0.124  28.869  1.00  0.00     0.000 C 
BRANCH   6   7
ATOM      7  C   UNL     1      26.491   0.510  28.980  1.00  0.00    -0.003 C 
ATOM      8  C   UNL     1      25.864   0.228  30.342  1.00  0.00     0.004 C 
ENDBRANCH   6   7
ENDBRANCH   1   6
TORSDOF 4
ENDMDL
MODEL 6
REMARK VINA RESULT:    -3.727      2.667      4.266
REMARK INTER + INTRA:          -4.664
REMARK INTER:                  -4.599
REMARK INTRA:                  -0.065
REMARK UNBOUND:                -0.065
REMARK SMILES CCCCCC(=O)[O-]
REMARK SMILES IDX 4 1 5 2 6 3 7 4 8 5 3 6 2 7 1 8
REMARK H PARENT
REMARK Flexibility Score: inf
ROOT
ATOM      1  C   UNL     1      21.166  -0.293  26.748  1.00  0.00     0.006 C 
ENDROOT
BRANCH   1   2
ATOM      2  C   UNL     1      20.569   0.013  28.125  1.00  0.00     0.053 C 
BRANCH   2   3
ATOM      3  C   UNL     1      21.039  -0.987  29.133  1.00  0.00     0.041 C 
ATOM      4  O   UNL     1      20.589  -2.164  29.116  1.00  0.00    -0.550 OA
ATOM      5  O   UNL     1      21.936  -0.608  30.123  1.00  0.00    -0.550 OA
ENDBRANCH   2   3
ENDBRANCH   1   2
BRANCH   1   6
ATOM      6  C   UNL     1      21.790   0.963  26.128  1.00  0.00     0.000 C 
BRANCH   6   7
ATOM      7  C   UNL     1      23.119   0.634  25.438  1.00  0.00    -0.003 C 
ATOM      8  C   UNL     1      24.247   1.515  25.965  1.00  0.00     0.004 C 
ENDBRANCH   6   7
ENDBRANCH   1   6
TORSDOF 4
ENDMDL
MODEL 7
REMARK VINA RESULT:    -3.721      6.522      7.907
REMARK INTER + INTRA:          -4.656
REMARK INTER:                  -4.404
REMARK INTRA:                  -0.252
REMARK UNBOUND:                -0.065
REMARK SMILES CCCCCC(=O)[O-]
REMARK SMILES IDX 4 1 5 2 6 3 7 4 8 5 3 6 2 7 1 8
REMARK H PARENT
REMARK Flexibility Score: inf
ROOT
ATOM      1  C   UNL     1      27.722  -0.117  31.941  1.00  0.00     0.006 C 
ENDROOT
BRANCH   1   2
ATOM      2  C   UNL     1      29.202   0.278  31.965  1.00  0.00     0.053 C 
BRANCH   2   3
ATOM      3  C   UNL     1      29.875  -0.134  30.695  1.00  0.00     0.041 C 
ATOM      4  O   UNL     1      30.741   0.612  30.165  1.00  0.00    -0.550 OA
ATOM      5  O   UNL     1      29.512  -1.320  30.068  1.00  0.00    -0.550 OA
ENDBRANCH   2   3
ENDBRANCH   1   2
BRANCH   1   6
ATOM      6  C   UNL     1      26.896   0.893  31.135  1.00  0.00     0.000 C 
BRANCH   6   7
ATOM      7  C   UNL     1      26.039   0.186  30.080  1.00  0.00    -0.003 C 
ATOM      8  C   UNL     1      26.563   0.456  28.673  1.00  0.00     0.004 C 
ENDBRANCH   6   7
ENDBRANCH   1   6
TORSDOF 4
ENDMDL
MODEL 8
REMARK VINA RESULT:    -3.693      2.737      4.363
REMARK INTER + INTRA:          -4.621
REMARK INTER:                  -4.545
REMARK INTRA:                  -0.076
REMARK UNBOUND:                -0.065
REMARK SMILES CCCCCC(=O)[O-]
REMARK SMILES IDX 4 1 5 2 6 3 7 4 8 5 3 6 2 7 1 8
REMARK H PARENT
REMARK Flexibility Score: inf
ROOT
ATOM      1  C   UNL     1      20.827  -0.385  28.293  1.00  0.00     0.006 C 
ENDROOT
BRANCH   1   2
ATOM      2  C   UNL     1      20.828  -1.657  29.146  1.00  0.00     0.053 C 
BRANCH   2   3
ATOM      3  C   UNL     1      21.921  -1.604  30.166  1.00  0.00     0.041 C 
ATOM      4  O   UNL     1      22.414  -0.497  30.510  1.00  0.00    -0.550 OA
ATOM      5  O   UNL     1      22.432  -2.780  30.700  1.00  0.00    -0.550 OA
ENDBRANCH   2   3
ENDBRANCH   1   2
BRANCH   1   6
ATOM      6  C   UNL     1      21.148  -0.704  26.828  1.00  0.00     0.000 C 
BRANCH   6   7
ATOM      7  C   UNL     1      21.478   0.573  26.047  1.00  0.00    -0.003 C 
ATOM      8  C   UNL     1      22.979   0.699  25.805  1.00  0.00     0.004 C 
ENDBRANCH   6   7
ENDBRANCH   1   6
TORSDOF 4
ENDMDL
MODEL 9
REMARK VINA RESULT:    -3.407      6.909      7.576
REMARK INTER + INTRA:          -4.268
REMARK INTER:                  -4.067
REMARK INTRA:                  -0.201
REMARK UNBOUND:                -0.065
REMARK SMILES CCCCCC(=O)[O-]
REMARK SMILES IDX 4 1 5 2 6 3 7 4 8 5 3 6 2 7 1 8
REMARK H PARENT
REMARK Flexibility Score: inf
ROOT
ATOM      1  C   UNL     1      28.464   0.455  28.759  1.00  0.00     0.006 C 
ENDROOT
BRANCH   1   2
ATOM      2  C   UNL     1      27.233   1.308  29.081  1.00  0.00     0.053 C 
BRANCH   2   3
ATOM      3  C   UNL     1      27.644   2.609  29.693  1.00  0.00     0.041 C 
ATOM      4  O   UNL     1      27.664   3.659  28.997  1.00  0.00    -0.550 OA
ATOM      5  O   UNL     1      28.051   2.656  31.020  1.00  0.00    -0.550 OA
ENDBRANCH   2   3
ENDBRANCH   1   2
BRANCH   1   6
ATOM      6  C   UNL     1      28.506  -0.804  29.633  1.00  0.00     0.000 C 
BRANCH   6   7
ATOM      7  C   UNL     1      29.860  -0.941  30.337  1.00  0.00    -0.003 C 
ATOM      8  C   UNL     1      30.620   0.382  30.332  1.00  0.00     0.004 C 
ENDBRANCH   6   7
ENDBRANCH   1   6
TORSDOF 4
ENDMDL
