MODEL 1
REMARK VINA RESULT:    -4.151      0.000      0.000
REMARK INTER + INTRA:          -5.583
REMARK INTER:                  -5.122
REMARK INTRA:                  -0.461
REMARK UNBOUND:                -0.461
REMARK SMILES COC(=O)c1ccccc1C(=O)OC
REMARK SMILES IDX 5 1 6 2 7 3 8 4 9 5 10 6 3 7 4 8 2 9 1 10 11 11 12 12 13 13
REMARK SMILES IDX 14 14
REMARK H PARENT
REMARK Flexibility Score: inf
ROOT
ATOM      1  C   UNL     1     120.019 120.133 129.663  1.00  0.00     0.074 A 
ATOM      2  C   UNL     1     120.933 119.321 128.966  1.00  0.00     0.016 A 
ATOM      3  C   UNL     1     122.291 119.340 129.283  1.00  0.00     0.001 A 
ATOM      4  C   UNL     1     122.760 120.168 130.300  1.00  0.00     0.001 A 
ATOM      5  C   UNL     1     121.876 120.998 130.989  1.00  0.00     0.016 A 
ATOM      6  C   UNL     1     120.504 121.011 130.672  1.00  0.00     0.074 A 
ENDROOT
BRANCH   1   7
ATOM      7  C   UNL     1     118.580 119.980 129.354  1.00  0.00     0.338 C 
ATOM      8  O   UNL     1     117.900 119.078 129.916  1.00  0.00    -0.246 OA
BRANCH   7   9
ATOM      9  O   UNL     1     117.990 120.806 128.391  1.00  0.00    -0.465 OA
ATOM     10  C   UNL     1     116.955 121.731 128.704  1.00  0.00     0.282 C 
ENDBRANCH   7   9
ENDBRANCH   1   7
BRANCH   6  11
ATOM     11  C   UNL     1     119.637 121.998 131.355  1.00  0.00     0.338 C 
ATOM     12  O   UNL     1     119.431 123.125 130.826  1.00  0.00    -0.246 OA
BRANCH  11  13
ATOM     13  O   UNL     1     119.005 121.661 132.557  1.00  0.00    -0.465 OA
ATOM     14  C   UNL     1     117.641 121.265 132.623  1.00  0.00     0.282 C 
ENDBRANCH  11  13
ENDBRANCH   6  11
TORSDOF 4
ENDMDL
MODEL 2
REMARK VINA RESULT:    -4.134      1.863      4.535
REMARK INTER + INTRA:          -5.561
REMARK INTER:                  -5.358
REMARK INTRA:                  -0.203
REMARK UNBOUND:                -0.461
REMARK SMILES COC(=O)c1ccccc1C(=O)OC
REMARK SMILES IDX 5 1 6 2 7 3 8 4 9 5 10 6 3 7 4 8 2 9 1 10 11 11 12 12 13 13
REMARK SMILES IDX 14 14
REMARK H PARENT
REMARK Flexibility Score: inf
ROOT
ATOM      1  C   UNL     1     118.102 120.291 130.222  1.00  0.00     0.074 A 
ATOM      2  C   UNL     1     117.699 119.518 131.327  1.00  0.00     0.016 A 
ATOM      3  C   UNL     1     116.468 119.741 131.943  1.00  0.00     0.001 A 
ATOM      4  C   UNL     1     115.618 120.737 131.467  1.00  0.00     0.001 A 
ATOM      5  C   UNL     1     116.006 121.529 130.388  1.00  0.00     0.016 A 
ATOM      6  C   UNL     1     117.254 121.337 129.764  1.00  0.00     0.074 A 
ENDROOT
BRANCH   1   7
ATOM      7  C   UNL     1     119.368 119.927 129.547  1.00  0.00     0.338 C 
ATOM      8  O   UNL     1     119.349 119.382 128.409  1.00  0.00    -0.246 OA
BRANCH   7   9
ATOM      9  O   UNL     1     120.585 120.140 130.203  1.00  0.00    -0.465 OA
ATOM     10  C   UNL     1     121.833 119.737 129.652  1.00  0.00     0.282 C 
ENDBRANCH   7   9
ENDBRANCH   1   7
BRANCH   6  11
ATOM     11  C   UNL     1     117.660 122.286 128.703  1.00  0.00     0.338 C 
ATOM     12  O   UNL     1     118.576 123.125 128.927  1.00  0.00    -0.246 OA
BRANCH  11  13
ATOM     13  O   UNL     1     117.068 122.216 127.437  1.00  0.00    -0.465 OA
ATOM     14  C   UNL     1     116.060 123.125 127.010  1.00  0.00     0.282 C 
ENDBRANCH  11  13
ENDBRANCH   6  11
TORSDOF 4
ENDMDL
MODEL 3
REMARK VINA RESULT:    -4.125      0.322      3.260
REMARK INTER + INTRA:          -5.550
REMARK INTER:                  -5.175
REMARK INTRA:                  -0.375
REMARK UNBOUND:                -0.461
REMARK SMILES COC(=O)c1ccccc1C(=O)OC
REMARK SMILES IDX 5 1 6 2 7 3 8 4 9 5 10 6 3 7 4 8 2 9 1 10 11 11 12 12 13 13
REMARK SMILES IDX 14 14
REMARK H PARENT
REMARK Flexibility Score: inf
ROOT
ATOM      1  C   UNL     1     120.491 120.944 130.680  1.00  0.00     0.074 A 
ATOM      2  C   UNL     1     121.861 120.911 130.998  1.00  0.00     0.016 A 
ATOM      3  C   UNL     1     122.748 120.131 130.255  1.00  0.00     0.001 A 
ATOM      4  C   UNL     1     122.282 119.373 129.184  1.00  0.00     0.001 A 
ATOM      5  C   UNL     1     120.924 119.373 128.865  1.00  0.00     0.016 A 
ATOM      6  C   UNL     1     120.008 120.136 129.614  1.00  0.00     0.074 A 
ENDROOT
BRANCH   1   7
ATOM      7  C   UNL     1     119.627 121.879 131.436  1.00  0.00     0.338 C 
ATOM      8  O   UNL     1     119.801 123.125 131.340  1.00  0.00    -0.246 OA
BRANCH   7   9
ATOM      9  O   UNL     1     118.653 121.371 132.302  1.00  0.00    -0.465 OA
ATOM     10  C   UNL     1     117.398 122.010 132.504  1.00  0.00     0.282 C 
ENDBRANCH   7   9
ENDBRANCH   1   7
BRANCH   6  11
ATOM     11  C   UNL     1     118.567 120.002 129.304  1.00  0.00     0.338 C 
ATOM     12  O   UNL     1     117.867 119.154 129.924  1.00  0.00    -0.246 OA
BRANCH  11  13
ATOM     13  O   UNL     1     117.971 120.850 128.364  1.00  0.00    -0.465 OA
ATOM     14  C   UNL     1     117.127 121.934 128.734  1.00  0.00     0.282 C 
ENDBRANCH  11  13
ENDBRANCH   6  11
TORSDOF 4
ENDMDL
MODEL 4
REMARK VINA RESULT:    -4.106      1.940      4.416
REMARK INTER + INTRA:          -5.526
REMARK INTER:                  -5.364
REMARK INTRA:                  -0.162
REMARK UNBOUND:                -0.461
REMARK SMILES COC(=O)c1ccccc1C(=O)OC
REMARK SMILES IDX 5 1 6 2 7 3 8 4 9 5 10 6 3 7 4 8 2 9 1 10 11 11 12 12 13 13
REMARK SMILES IDX 14 14
REMARK H PARENT
REMARK Flexibility Score: inf
ROOT
ATOM      1  C   UNL     1     116.940 121.207 129.904  1.00  0.00     0.074 A 
ATOM      2  C   UNL     1     115.802 121.260 130.730  1.00  0.00     0.016 A 
ATOM      3  C   UNL     1     115.636 120.353 131.777  1.00  0.00     0.001 A 
ATOM      4  C   UNL     1     116.604 119.379 132.016  1.00  0.00     0.001 A 
ATOM      5  C   UNL     1     117.728 119.295 131.197  1.00  0.00     0.016 A 
ATOM      6  C   UNL     1     117.905 120.186 130.121  1.00  0.00     0.074 A 
ENDROOT
BRANCH   1   7
ATOM      7  C   UNL     1     117.106 122.269 128.886  1.00  0.00     0.338 C 
ATOM      8  O   UNL     1     118.091 123.056 128.943  1.00  0.00    -0.246 OA
BRANCH   7   9
ATOM      9  O   UNL     1     116.135 122.431 127.893  1.00  0.00    -0.465 OA
ATOM     10  C   UNL     1     116.389 123.125 126.678  1.00  0.00     0.282 C 
ENDBRANCH   7   9
ENDBRANCH   1   7
BRANCH   6  11
ATOM     11  C   UNL     1     119.056 119.971 129.216  1.00  0.00     0.338 C 
ATOM     12  O   UNL     1     118.886 119.384 128.112  1.00  0.00    -0.246 OA
BRANCH  11  13
ATOM     13  O   UNL     1     120.320 120.465 129.560  1.00  0.00    -0.465 OA
ATOM     14  C   UNL     1     121.519 119.736 129.326  1.00  0.00     0.282 C 
ENDBRANCH  11  13
ENDBRANCH   6  11
TORSDOF 4
ENDMDL
MODEL 5
REMARK VINA RESULT:    -3.931      1.850      4.104
REMARK INTER + INTRA:          -5.311
REMARK INTER:                  -5.046
REMARK INTRA:                  -0.265
REMARK UNBOUND:                -0.461
REMARK SMILES COC(=O)c1ccccc1C(=O)OC
REMARK SMILES IDX 5 1 6 2 7 3 8 4 9 5 10 6 3 7 4 8 2 9 1 10 11 11 12 12 13 13
REMARK SMILES IDX 14 14
REMARK H PARENT
REMARK Flexibility Score: inf
ROOT
ATOM      1  C   UNL     1     116.900 121.492 129.839  1.00  0.00     0.074 A 
ATOM      2  C   UNL     1     115.958 121.632 128.804  1.00  0.00     0.016 A 
ATOM      3  C   UNL     1     116.225 122.443 127.700  1.00  0.00     0.001 A 
ATOM      4  C   UNL     1     117.437 123.125 127.612  1.00  0.00     0.001 A 
ATOM      5  C   UNL     1     118.376 123.017 128.637  1.00  0.00     0.016 A 
ATOM      6  C   UNL     1     118.118 122.222 129.770  1.00  0.00     0.074 A 
ENDROOT
BRANCH   1   7
ATOM      7  C   UNL     1     116.599 120.529 130.922  1.00  0.00     0.338 C 
ATOM      8  O   UNL     1     115.709 120.790 131.777  1.00  0.00    -0.246 OA
BRANCH   7   9
ATOM      9  O   UNL     1     117.348 119.352 131.026  1.00  0.00    -0.465 OA
ATOM     10  C   UNL     1     116.906 118.225 131.774  1.00  0.00     0.282 C 
ENDBRANCH   7   9
ENDBRANCH   1   7
BRANCH   6  11
ATOM     11  C   UNL     1     119.100 122.243 130.877  1.00  0.00     0.338 C 
ATOM     12  O   UNL     1     119.000 123.110 131.789  1.00  0.00    -0.246 OA
BRANCH  11  13
ATOM     13  O   UNL     1     120.103 121.270 130.942  1.00  0.00    -0.465 OA
ATOM     14  C   UNL     1     120.447 120.446 129.834  1.00  0.00     0.282 C 
ENDBRANCH  11  13
ENDBRANCH   6  11
TORSDOF 4
ENDMDL
MODEL 6
REMARK VINA RESULT:    -3.917      1.691      4.359
REMARK INTER + INTRA:          -5.294
REMARK INTER:                  -5.018
REMARK INTRA:                  -0.276
REMARK UNBOUND:                -0.461
REMARK SMILES COC(=O)c1ccccc1C(=O)OC
REMARK SMILES IDX 5 1 6 2 7 3 8 4 9 5 10 6 3 7 4 8 2 9 1 10 11 11 12 12 13 13
REMARK SMILES IDX 14 14
REMARK H PARENT
REMARK Flexibility Score: inf
ROOT
ATOM      1  C   UNL     1     118.012 120.918 129.912  1.00  0.00     0.074 A 
ATOM      2  C   UNL     1     117.719 121.670 128.759  1.00  0.00     0.016 A 
ATOM      3  C   UNL     1     116.408 122.047 128.467  1.00  0.00     0.001 A 
ATOM      4  C   UNL     1     115.369 121.681 129.320  1.00  0.00     0.001 A 
ATOM      5  C   UNL     1     115.634 120.918 130.456  1.00  0.00     0.016 A 
ATOM      6  C   UNL     1     116.946 120.508 130.759  1.00  0.00     0.074 A 
ENDROOT
BRANCH   1   7
ATOM      7  C   UNL     1     119.434 120.650 130.221  1.00  0.00     0.338 C 
ATOM      8  O   UNL     1     120.014 121.278 131.150  1.00  0.00    -0.246 OA
BRANCH   7   9
ATOM      9  O   UNL     1     120.150 119.737 129.439  1.00  0.00    -0.465 OA
ATOM     10  C   UNL     1     121.571 119.712 129.397  1.00  0.00     0.282 C 
ENDBRANCH   7   9
ENDBRANCH   1   7
BRANCH   6  11
ATOM     11  C   UNL     1     117.147 119.601 131.912  1.00  0.00     0.338 C 
ATOM     12  O   UNL     1     117.137 118.351 131.736  1.00  0.00    -0.246 OA
BRANCH  11  13
ATOM     13  O   UNL     1     117.402 120.128 133.183  1.00  0.00    -0.465 OA
ATOM     14  C   UNL     1     117.361 121.523 133.457  1.00  0.00     0.282 C 
ENDBRANCH  11  13
ENDBRANCH   6  11
TORSDOF 4
ENDMDL
MODEL 7
REMARK VINA RESULT:    -3.866      1.726      4.450
REMARK INTER + INTRA:          -5.231
REMARK INTER:                  -4.966
REMARK INTRA:                  -0.265
REMARK UNBOUND:                -0.461
REMARK SMILES COC(=O)c1ccccc1C(=O)OC
REMARK SMILES IDX 5 1 6 2 7 3 8 4 9 5 10 6 3 7 4 8 2 9 1 10 11 11 12 12 13 13
REMARK SMILES IDX 14 14
REMARK H PARENT
REMARK Flexibility Score: inf
ROOT
ATOM      1  C   UNL     1     117.044 120.594 130.764  1.00  0.00     0.074 A 
ATOM      2  C   UNL     1     115.743 120.961 130.372  1.00  0.00     0.016 A 
ATOM      3  C   UNL     1     115.529 121.700 129.207  1.00  0.00     0.001 A 
ATOM      4  C   UNL     1     116.610 122.084 128.417  1.00  0.00     0.001 A 
ATOM      5  C   UNL     1     117.909 121.751 128.798  1.00  0.00     0.016 A 
ATOM      6  C   UNL     1     118.149 121.025 129.980  1.00  0.00     0.074 A 
ENDROOT
BRANCH   1   7
ATOM      7  C   UNL     1     117.189 119.715 131.946  1.00  0.00     0.338 C 
ATOM      8  O   UNL     1     117.101 118.463 131.822  1.00  0.00    -0.246 OA
BRANCH   7   9
ATOM      9  O   UNL     1     117.367 120.285 133.211  1.00  0.00    -0.465 OA
ATOM     10  C   UNL     1     116.289 120.811 133.974  1.00  0.00     0.282 C 
ENDBRANCH   7   9
ENDBRANCH   1   7
BRANCH   6  11
ATOM     11  C   UNL     1     119.554 120.805 130.393  1.00  0.00     0.338 C 
ATOM     12  O   UNL     1     120.039 121.473 131.348  1.00  0.00    -0.246 OA
BRANCH  11  13
ATOM     13  O   UNL     1     120.325 119.822 129.762  1.00  0.00    -0.465 OA
ATOM     14  C   UNL     1     121.747 119.829 129.787  1.00  0.00     0.282 C 
ENDBRANCH  11  13
ENDBRANCH   6  11
TORSDOF 4
ENDMDL
MODEL 8
REMARK VINA RESULT:    -3.793      3.027      4.684
REMARK INTER + INTRA:          -5.140
REMARK INTER:                  -4.690
REMARK INTRA:                  -0.450
REMARK UNBOUND:                -0.461
REMARK SMILES COC(=O)c1ccccc1C(=O)OC
REMARK SMILES IDX 5 1 6 2 7 3 8 4 9 5 10 6 3 7 4 8 2 9 1 10 11 11 12 12 13 13
REMARK SMILES IDX 14 14
REMARK H PARENT
REMARK Flexibility Score: inf
ROOT
ATOM      1  C   UNL     1     117.720 122.149 130.016  1.00  0.00     0.074 A 
ATOM      2  C   UNL     1     118.254 122.671 128.823  1.00  0.00     0.016 A 
ATOM      3  C   UNL     1     117.473 122.765 127.671  1.00  0.00     0.001 A 
ATOM      4  C   UNL     1     116.146 122.341 127.691  1.00  0.00     0.001 A 
ATOM      5  C   UNL     1     115.602 121.800 128.855  1.00  0.00     0.016 A 
ATOM      6  C   UNL     1     116.379 121.676 130.023  1.00  0.00     0.074 A 
ENDROOT
BRANCH   1   7
ATOM      7  C   UNL     1     118.568 122.184 131.228  1.00  0.00     0.338 C 
ATOM      8  O   UNL     1     119.501 121.348 131.377  1.00  0.00    -0.246 OA
BRANCH   7   9
ATOM      9  O   UNL     1     118.292 123.114 132.236  1.00  0.00    -0.465 OA
ATOM     10  C   UNL     1     118.161 122.746 133.604  1.00  0.00     0.282 C 
ENDBRANCH   7   9
ENDBRANCH   1   7
BRANCH   6  11
ATOM     11  C   UNL     1     115.783 120.985 131.189  1.00  0.00     0.338 C 
ATOM     12  O   UNL     1     115.085 121.637 132.015  1.00  0.00    -0.246 OA
BRANCH  11  13
ATOM     13  O   UNL     1     115.948 119.605 131.346  1.00  0.00    -0.465 OA
ATOM     14  C   UNL     1     116.942 119.042 132.193  1.00  0.00     0.282 C 
ENDBRANCH  11  13
ENDBRANCH   6  11
TORSDOF 4
ENDMDL
MODEL 9
REMARK VINA RESULT:    -3.704      3.082      3.994
REMARK INTER + INTRA:          -5.031
REMARK INTER:                  -4.713
REMARK INTRA:                  -0.318
REMARK UNBOUND:                -0.461
REMARK SMILES COC(=O)c1ccccc1C(=O)OC
REMARK SMILES IDX 5 1 6 2 7 3 8 4 9 5 10 6 3 7 4 8 2 9 1 10 11 11 12 12 13 13
REMARK SMILES IDX 14 14
REMARK H PARENT
REMARK Flexibility Score: inf
ROOT
ATOM      1  C   UNL     1     117.148 121.022 130.400  1.00  0.00     0.074 A 
ATOM      2  C   UNL     1     117.899 119.926 129.938  1.00  0.00     0.016 A 
ATOM      3  C   UNL     1     117.865 118.703 130.610  1.00  0.00     0.001 A 
ATOM      4  C   UNL     1     117.081 118.556 131.752  1.00  0.00     0.001 A 
ATOM      5  C   UNL     1     116.346 119.635 132.240  1.00  0.00     0.016 A 
ATOM      6  C   UNL     1     116.383 120.884 131.591  1.00  0.00     0.074 A 
ENDROOT
BRANCH   1   7
ATOM      7  C   UNL     1     117.141 122.253 129.577  1.00  0.00     0.338 C 
ATOM      8  O   UNL     1     118.046 123.120 129.721  1.00  0.00    -0.246 OA
BRANCH   7   9
ATOM      9  O   UNL     1     116.092 122.475 128.679  1.00  0.00    -0.465 OA
ATOM     10  C   UNL     1     116.309 122.864 127.328  1.00  0.00     0.282 C 
ENDBRANCH   7   9
ENDBRANCH   1   7
BRANCH   6  11
ATOM     11  C   UNL     1     115.678 122.022 132.223  1.00  0.00     0.338 C 
ATOM     12  O   UNL     1     114.416 122.035 132.262  1.00  0.00    -0.246 OA
BRANCH  11  13
ATOM     13  O   UNL     1     116.408 123.054 132.823  1.00  0.00    -0.465 OA
ATOM     14  C   UNL     1     117.002 122.927 134.109  1.00  0.00     0.282 C 
ENDBRANCH  11  13
ENDBRANCH   6  11
TORSDOF 4
ENDMDL
