MODEL 1
REMARK VINA RESULT:    -8.372      0.000      0.000
REMARK INTER + INTRA:         -16.562
REMARK INTER:                 -13.756
REMARK INTRA:                  -2.806
REMARK UNBOUND:                -2.806
REMARK SMILES C[C@@H]1O[C@H](OC[C@H]2O[C@H](Oc3c(-c4ccc(O)c(O)c4)oc4cc(O)cc(O)c4c3=O)[C@H](O)[C@H](O)[C@H]2O)[C@@H](O)[C@@H](O)[C@H]1O
REMARK SMILES IDX 7 1 36 2 34 3 32 4 9 5 8 6 6 7 5 8 4 9 1 10 2 11 42 12 3 13
REMARK SMILES IDX 40 14 38 15 43 16 41 18 39 20 37 22 35 24 10 26 11 27 12 28
REMARK SMILES IDX 30 29 21 30 29 31 31 32 22 33 27 34 23 35 26 36 24 37 13 38
REMARK SMILES IDX 20 39 14 40 18 41 15 42 16 43 19 44 17 46 28 48 25 50 33 52
REMARK H PARENT 43 17 41 19 39 21 37 23 35 25 19 45 17 47 28 49 25 51 33 53
REMARK Flexibility Score: inf
ROOT
ATOM      1  C   UNL     1      22.727 119.162 297.278  1.00  0.00     0.180 C 
ATOM      2  C   UNL     1      22.129 117.824 296.739  1.00  0.00     0.177 C 
ATOM      3  C   UNL     1      21.829 117.924 295.220  1.00  0.00     0.180 C 
ATOM      4  C   UNL     1      22.877 118.791 294.469  1.00  0.00     0.214 C 
ATOM      5  C   UNL     1      24.124 119.008 295.339  1.00  0.00     0.339 C 
ATOM      6  O   UNL     1      23.800 119.717 296.521  1.00  0.00    -0.332 OA
ENDROOT
BRANCH   1   7
ATOM      7  C   UNL     1      23.190 119.068 298.750  1.00  0.00     0.198 C 
BRANCH   7   8
ATOM      8  O   UNL     1      24.430 118.404 298.945  1.00  0.00    -0.347 OA
BRANCH   8   9
ATOM      9  C   UNL     1      25.406 119.209 299.593  1.00  0.00     0.281 C 
ATOM     10  C   UNL     1      24.973 121.172 302.661  1.00  0.00     0.041 C 
ATOM     11  C   UNL     1      25.560 120.815 301.293  1.00  0.00     0.150 C 
ATOM     12  C   UNL     1      27.081 120.486 301.418  1.00  0.00     0.174 C 
ATOM     13  O   UNL     1      24.800 119.734 300.761  1.00  0.00    -0.344 OA
ATOM     14  C   UNL     1      27.293 118.958 301.306  1.00  0.00     0.179 C 
ATOM     15  C   UNL     1      26.653 118.377 300.014  1.00  0.00     0.202 C 
BRANCH  12  16
ATOM     16  O   UNL     1      27.771 121.142 300.378  1.00  0.00    -0.388 OA
ATOM     17  H   UNL     1      28.672 120.729 300.313  1.00  0.00     0.211 HD
ENDBRANCH  12  16
BRANCH  14  18
ATOM     18  O   UNL     1      28.649 118.595 301.433  1.00  0.00    -0.387 OA
ATOM     19  H   UNL     1      28.912 118.687 302.387  1.00  0.00     0.211 HD
ENDBRANCH  14  18
BRANCH  15  20
ATOM     20  O   UNL     1      27.595 118.299 298.968  1.00  0.00    -0.385 OA
ATOM     21  H   UNL     1      27.703 117.346 298.720  1.00  0.00     0.211 HD
ENDBRANCH  15  20
ENDBRANCH   8   9
ENDBRANCH   7   8
ENDBRANCH   1   7
BRANCH   2  22
ATOM     22  O   UNL     1      23.021 116.764 296.994  1.00  0.00    -0.387 OA
ATOM     23  H   UNL     1      23.554 116.626 296.169  1.00  0.00     0.211 HD
ENDBRANCH   2  22
BRANCH   3  24
ATOM     24  O   UNL     1      20.539 118.457 295.030  1.00  0.00    -0.387 OA
ATOM     25  H   UNL     1      20.585 119.060 294.240  1.00  0.00     0.211 HD
ENDBRANCH   3  24
BRANCH   5  26
ATOM     26  O   UNL     1      25.128 119.705 294.592  1.00  0.00    -0.454 OA
BRANCH  26  27
ATOM     27  C   UNL     1      26.485 119.355 294.558  1.00  0.00     0.214 A 
ATOM     28  C   UNL     1      27.025 118.639 293.471  1.00  0.00     0.180 A 
ATOM     29  C   UNL     1      27.322 119.687 295.633  1.00  0.00     0.239 A 
ATOM     30  O   UNL     1      28.325 118.362 293.448  1.00  0.00    -0.452 OA
ATOM     31  C   UNL     1      28.695 119.368 295.576  1.00  0.00     0.111 A 
ATOM     32  O   UNL     1      26.831 120.262 296.642  1.00  0.00    -0.285 OA
ATOM     33  C   UNL     1      29.165 118.690 294.426  1.00  0.00     0.146 A 
ATOM     34  C   UNL     1      29.611 119.698 296.602  1.00  0.00     0.134 A 
ATOM     35  C   UNL     1      30.516 118.346 294.312  1.00  0.00     0.094 A 
ATOM     36  C   UNL     1      30.961 119.338 296.473  1.00  0.00     0.093 A 
ATOM     37  C   UNL     1      31.411 118.658 295.338  1.00  0.00     0.123 A 
BRANCH  28  38
ATOM     38  C   UNL     1      26.203 118.197 292.320  1.00  0.00     0.025 A 
ATOM     39  C   UNL     1      26.092 116.822 292.052  1.00  0.00     0.062 A 
ATOM     40  C   UNL     1      25.493 119.109 291.517  1.00  0.00     0.016 A 
ATOM     41  C   UNL     1      25.313 116.362 290.984  1.00  0.00     0.158 A 
ATOM     42  C   UNL     1      24.710 118.653 290.452  1.00  0.00     0.051 A 
ATOM     43  C   UNL     1      24.617 117.280 290.180  1.00  0.00     0.157 A 
BRANCH  41  44
ATOM     44  O   UNL     1      25.241 114.991 290.743  1.00  0.00    -0.504 OA
ATOM     45  H   UNL     1      24.937 114.615 289.852  1.00  0.00     0.293 HD
ENDBRANCH  41  44
BRANCH  43  46
ATOM     46  O   UNL     1      23.825 116.825 289.129  1.00  0.00    -0.504 OA
ATOM     47  H   UNL     1      24.006 117.105 288.171  1.00  0.00     0.293 HD
ENDBRANCH  43  46
ENDBRANCH  28  38
BRANCH  34  48
ATOM     48  O   UNL     1      29.191 120.377 297.748  1.00  0.00    -0.507 OA
ATOM     49  H   UNL     1      29.778 120.440 298.575  1.00  0.00     0.293 HD
ENDBRANCH  34  48
BRANCH  37  50
ATOM     50  O   UNL     1      32.753 118.293 295.246  1.00  0.00    -0.508 OA
ATOM     51  H   UNL     1      33.480 118.971 295.056  1.00  0.00     0.293 HD
ENDBRANCH  37  50
ENDBRANCH  26  27
ENDBRANCH   5  26
BRANCH   4  52
ATOM     52  O   UNL     1      22.343 120.043 294.118  1.00  0.00    -0.384 OA
ATOM     53  H   UNL     1      21.890 120.401 294.923  1.00  0.00     0.211 HD
ENDBRANCH   4  52
TORSDOF 16
ENDMDL
MODEL 2
REMARK VINA RESULT:    -8.283      1.984      6.016
REMARK INTER + INTRA:         -16.416
REMARK INTER:                 -13.070
REMARK INTRA:                  -3.346
REMARK UNBOUND:                -2.806
REMARK SMILES C[C@@H]1O[C@H](OC[C@H]2O[C@H](Oc3c(-c4ccc(O)c(O)c4)oc4cc(O)cc(O)c4c3=O)[C@H](O)[C@H](O)[C@H]2O)[C@@H](O)[C@@H](O)[C@H]1O
REMARK SMILES IDX 7 1 36 2 34 3 32 4 9 5 8 6 6 7 5 8 4 9 1 10 2 11 42 12 3 13
REMARK SMILES IDX 40 14 38 15 43 16 41 18 39 20 37 22 35 24 10 26 11 27 12 28
REMARK SMILES IDX 30 29 21 30 29 31 31 32 22 33 27 34 23 35 26 36 24 37 13 38
REMARK SMILES IDX 20 39 14 40 18 41 15 42 16 43 19 44 17 46 28 48 25 50 33 52
REMARK H PARENT 43 17 41 19 39 21 37 23 35 25 19 45 17 47 28 49 25 51 33 53
REMARK Flexibility Score: inf
ROOT
ATOM      1  C   UNL     1      23.653 119.055 293.827  1.00  0.00     0.180 C 
ATOM      2  C   UNL     1      24.545 117.941 293.194  1.00  0.00     0.177 C 
ATOM      3  C   UNL     1      25.934 118.504 292.795  1.00  0.00     0.180 C 
ATOM      4  C   UNL     1      26.440 119.582 293.793  1.00  0.00     0.214 C 
ATOM      5  C   UNL     1      25.626 119.540 295.094  1.00  0.00     0.339 C 
ATOM      6  O   UNL     1      24.264 119.839 294.849  1.00  0.00    -0.332 OA
ENDROOT
BRANCH   1   7
ATOM      7  C   UNL     1      22.315 118.516 294.385  1.00  0.00     0.198 C 
BRANCH   7   8
ATOM      8  O   UNL     1      22.413 117.862 295.641  1.00  0.00    -0.347 OA
BRANCH   8   9
ATOM      9  C   UNL     1      21.985 118.668 296.732  1.00  0.00     0.281 C 
ATOM     10  C   UNL     1      18.903 120.643 296.950  1.00  0.00     0.041 C 
ATOM     11  C   UNL     1      20.362 120.279 297.239  1.00  0.00     0.150 C 
ATOM     12  C   UNL     1      20.555 119.948 298.752  1.00  0.00     0.174 C 
ATOM     13  O   UNL     1      20.719 119.198 296.384  1.00  0.00    -0.344 OA
ATOM     14  C   UNL     1      20.702 118.418 298.934  1.00  0.00     0.179 C 
ATOM     15  C   UNL     1      21.831 117.834 298.038  1.00  0.00     0.202 C 
BRANCH  12  16
ATOM     16  O   UNL     1      21.718 120.598 299.212  1.00  0.00    -0.388 OA
ATOM     17  H   UNL     1      22.247 120.858 298.413  1.00  0.00     0.211 HD
ENDBRANCH  12  16
BRANCH  14  18
ATOM     18  O   UNL     1      20.859 118.053 300.287  1.00  0.00    -0.387 OA
ATOM     19  H   UNL     1      19.958 117.967 300.697  1.00  0.00     0.211 HD
ENDBRANCH  14  18
BRANCH  15  20
ATOM     20  O   UNL     1      23.049 117.751 298.742  1.00  0.00    -0.385 OA
ATOM     21  H   UNL     1      23.250 116.793 298.898  1.00  0.00     0.211 HD
ENDBRANCH  15  20
ENDBRANCH   8   9
ENDBRANCH   7   8
ENDBRANCH   1   7
BRANCH   2  22
ATOM     22  O   UNL     1      24.689 116.872 294.098  1.00  0.00    -0.387 OA
ATOM     23  H   UNL     1      23.826 116.778 294.579  1.00  0.00     0.211 HD
ENDBRANCH   2  22
BRANCH   3  24
ATOM     24  O   UNL     1      25.867 119.046 291.496  1.00  0.00    -0.387 OA
ATOM     25  H   UNL     1      24.916 119.005 291.210  1.00  0.00     0.211 HD
ENDBRANCH   3  24
BRANCH   5  26
ATOM     26  O   UNL     1      26.180 120.454 296.049  1.00  0.00    -0.454 OA
BRANCH  26  27
ATOM     27  C   UNL     1      26.633 120.098 297.325  1.00  0.00     0.214 A 
ATOM     28  C   UNL     1      27.983 119.763 297.551  1.00  0.00     0.180 A 
ATOM     29  C   UNL     1      25.731 120.035 298.399  1.00  0.00     0.239 A 
ATOM     30  O   UNL     1      28.392 119.473 298.783  1.00  0.00    -0.452 OA
ATOM     31  C   UNL     1      26.201 119.714 299.689  1.00  0.00     0.111 A 
ATOM     32  O   UNL     1      24.509 120.260 298.190  1.00  0.00    -0.285 OA
ATOM     33  C   UNL     1      27.582 119.439 299.837  1.00  0.00     0.146 A 
ATOM     34  C   UNL     1      25.364 119.664 300.828  1.00  0.00     0.134 A 
ATOM     35  C   UNL     1      28.106 119.114 301.093  1.00  0.00     0.094 A 
ATOM     36  C   UNL     1      25.907 119.329 302.078  1.00  0.00     0.093 A 
ATOM     37  C   UNL     1      27.269 119.047 302.210  1.00  0.00     0.123 A 
BRANCH  28  38
ATOM     38  C   UNL     1      28.993 119.746 296.467  1.00  0.00     0.025 A 
ATOM     39  C   UNL     1      29.672 120.934 296.151  1.00  0.00     0.062 A 
ATOM     40  C   UNL     1      29.326 118.564 295.778  1.00  0.00     0.016 A 
ATOM     41  C   UNL     1      30.645 120.956 295.144  1.00  0.00     0.158 A 
ATOM     42  C   UNL     1      30.300 118.582 294.774  1.00  0.00     0.051 A 
ATOM     43  C   UNL     1      30.963 119.775 294.453  1.00  0.00     0.157 A 
BRANCH  41  44
ATOM     44  O   UNL     1      31.285 122.159 294.851  1.00  0.00    -0.504 OA
ATOM     45  H   UNL     1      32.283 122.211 294.677  1.00  0.00     0.293 HD
ENDBRANCH  41  44
BRANCH  43  46
ATOM     46  O   UNL     1      31.944 119.789 293.465  1.00  0.00    -0.504 OA
ATOM     47  H   UNL     1      32.929 119.857 293.699  1.00  0.00     0.293 HD
ENDBRANCH  43  46
ENDBRANCH  28  38
BRANCH  34  48
ATOM     48  O   UNL     1      23.998 119.940 300.728  1.00  0.00    -0.507 OA
ATOM     49  H   UNL     1      23.537 120.587 301.362  1.00  0.00     0.293 HD
ENDBRANCH  34  48
BRANCH  37  50
ATOM     50  O   UNL     1      27.778 118.695 303.459  1.00  0.00    -0.508 OA
ATOM     51  H   UNL     1      27.406 119.083 304.317  1.00  0.00     0.293 HD
ENDBRANCH  37  50
ENDBRANCH  26  27
ENDBRANCH   5  26
BRANCH   4  52
ATOM     52  O   UNL     1      26.349 120.871 293.239  1.00  0.00    -0.384 OA
ATOM     53  H   UNL     1      27.231 121.078 292.840  1.00  0.00     0.211 HD
ENDBRANCH   4  52
TORSDOF 16
ENDMDL
MODEL 3
REMARK VINA RESULT:    -8.149      2.334      6.859
REMARK INTER + INTRA:         -16.195
REMARK INTER:                 -13.781
REMARK INTRA:                  -2.414
REMARK UNBOUND:                -2.806
REMARK SMILES C[C@@H]1O[C@H](OC[C@H]2O[C@H](Oc3c(-c4ccc(O)c(O)c4)oc4cc(O)cc(O)c4c3=O)[C@H](O)[C@H](O)[C@H]2O)[C@@H](O)[C@@H](O)[C@H]1O
REMARK SMILES IDX 7 1 36 2 34 3 32 4 9 5 8 6 6 7 5 8 4 9 1 10 2 11 42 12 3 13
REMARK SMILES IDX 40 14 38 15 43 16 41 18 39 20 37 22 35 24 10 26 11 27 12 28
REMARK SMILES IDX 30 29 21 30 29 31 31 32 22 33 27 34 23 35 26 36 24 37 13 38
REMARK SMILES IDX 20 39 14 40 18 41 15 42 16 43 19 44 17 46 28 48 25 50 33 52
REMARK H PARENT 43 17 41 19 39 21 37 23 35 25 19 45 17 47 28 49 25 51 33 53
REMARK Flexibility Score: inf
ROOT
ATOM      1  C   UNL     1      23.460 120.068 294.807  1.00  0.00     0.180 C 
ATOM      2  C   UNL     1      23.616 118.663 294.143  1.00  0.00     0.177 C 
ATOM      3  C   UNL     1      25.045 118.479 293.566  1.00  0.00     0.180 C 
ATOM      4  C   UNL     1      26.126 119.170 294.444  1.00  0.00     0.214 C 
ATOM      5  C   UNL     1      25.557 119.524 295.825  1.00  0.00     0.339 C 
ATOM      6  O   UNL     1      24.492 120.449 295.713  1.00  0.00    -0.332 OA
ENDROOT
BRANCH   1   7
ATOM      7  C   UNL     1      22.107 120.246 295.534  1.00  0.00     0.198 C 
BRANCH   7   8
ATOM      8  O   UNL     1      21.953 119.463 296.709  1.00  0.00    -0.347 OA
BRANCH   8   9
ATOM      9  C   UNL     1      20.702 118.790 296.778  1.00  0.00     0.281 C 
ATOM     10  C   UNL     1      18.630 117.673 293.966  1.00  0.00     0.041 C 
ATOM     11  C   UNL     1      18.924 118.167 295.385  1.00  0.00     0.150 C 
ATOM     12  C   UNL     1      18.526 117.084 296.436  1.00  0.00     0.174 C 
ATOM     13  O   UNL     1      20.303 118.519 295.447  1.00  0.00    -0.344 OA
ATOM     14  C   UNL     1      19.799 116.403 296.990  1.00  0.00     0.179 C 
ATOM     15  C   UNL     1      20.816 117.440 297.545  1.00  0.00     0.202 C 
BRANCH  12  16
ATOM     16  O   UNL     1      17.824 117.712 297.487  1.00  0.00    -0.388 OA
ATOM     17  H   UNL     1      18.402 117.673 298.293  1.00  0.00     0.211 HD
ENDBRANCH  12  16
BRANCH  14  18
ATOM     18  O   UNL     1      19.503 115.398 297.932  1.00  0.00    -0.387 OA
ATOM     19  H   UNL     1      20.327 115.197 298.450  1.00  0.00     0.211 HD
ENDBRANCH  14  18
BRANCH  15  20
ATOM     20  O   UNL     1      20.652 117.622 298.933  1.00  0.00    -0.385 OA
ATOM     21  H   UNL     1      19.689 117.765 299.114  1.00  0.00     0.211 HD
ENDBRANCH  15  20
ENDBRANCH   8   9
ENDBRANCH   7   8
ENDBRANCH   1   7
BRANCH   2  22
ATOM     22  O   UNL     1      23.333 117.655 295.084  1.00  0.00    -0.387 OA
ATOM     23  H   UNL     1      22.712 117.015 294.647  1.00  0.00     0.211 HD
ENDBRANCH   2  22
BRANCH   3  24
ATOM     24  O   UNL     1      25.093 118.991 292.255  1.00  0.00    -0.387 OA
ATOM     25  H   UNL     1      24.612 119.862 292.262  1.00  0.00     0.211 HD
ENDBRANCH   3  24
BRANCH   5  26
ATOM     26  O   UNL     1      26.595 120.048 296.663  1.00  0.00    -0.454 OA
BRANCH  26  27
ATOM     27  C   UNL     1      27.444 119.271 297.462  1.00  0.00     0.214 A 
ATOM     28  C   UNL     1      27.107 118.958 298.793  1.00  0.00     0.180 A 
ATOM     29  C   UNL     1      28.671 118.821 296.950  1.00  0.00     0.239 A 
ATOM     30  O   UNL     1      27.913 118.180 299.511  1.00  0.00    -0.452 OA
ATOM     31  C   UNL     1      29.504 118.006 297.746  1.00  0.00     0.111 A 
ATOM     32  O   UNL     1      29.015 119.159 295.786  1.00  0.00    -0.285 OA
ATOM     33  C   UNL     1      29.066 117.699 299.056  1.00  0.00     0.146 A 
ATOM     34  C   UNL     1      30.738 117.484 297.292  1.00  0.00     0.134 A 
ATOM     35  C   UNL     1      29.850 116.896 299.892  1.00  0.00     0.094 A 
ATOM     36  C   UNL     1      31.513 116.687 298.148  1.00  0.00     0.093 A 
ATOM     37  C   UNL     1      31.076 116.399 299.444  1.00  0.00     0.123 A 
BRANCH  28  38
ATOM     38  C   UNL     1      25.860 119.438 299.434  1.00  0.00     0.025 A 
ATOM     39  C   UNL     1      25.885 120.648 300.148  1.00  0.00     0.062 A 
ATOM     40  C   UNL     1      24.642 118.743 299.309  1.00  0.00     0.016 A 
ATOM     41  C   UNL     1      24.725 121.145 300.755  1.00  0.00     0.158 A 
ATOM     42  C   UNL     1      23.481 119.239 299.911  1.00  0.00     0.051 A 
ATOM     43  C   UNL     1      23.516 120.439 300.635  1.00  0.00     0.157 A 
BRANCH  41  44
ATOM     44  O   UNL     1      24.796 122.341 301.466  1.00  0.00    -0.504 OA
ATOM     45  H   UNL     1      25.026 123.222 301.019  1.00  0.00     0.293 HD
ENDBRANCH  41  44
BRANCH  43  46
ATOM     46  O   UNL     1      22.356 120.940 301.220  1.00  0.00    -0.504 OA
ATOM     47  H   UNL     1      21.464 120.908 300.737  1.00  0.00     0.293 HD
ENDBRANCH  43  46
ENDBRANCH  28  38
BRANCH  34  48
ATOM     48  O   UNL     1      31.201 117.753 296.003  1.00  0.00    -0.507 OA
ATOM     49  H   UNL     1      30.822 118.516 295.449  1.00  0.00     0.293 HD
ENDBRANCH  34  48
BRANCH  37  50
ATOM     50  O   UNL     1      31.877 115.623 300.280  1.00  0.00    -0.508 OA
ATOM     51  H   UNL     1      31.523 114.796 300.743  1.00  0.00     0.293 HD
ENDBRANCH  37  50
ENDBRANCH  26  27
ENDBRANCH   5  26
BRANCH   4  52
ATOM     52  O   UNL     1      26.604 120.342 293.833  1.00  0.00    -0.384 OA
ATOM     53  H   UNL     1      27.383 120.084 293.278  1.00  0.00     0.211 HD
ENDBRANCH   4  52
TORSDOF 16
ENDMDL
MODEL 4
REMARK VINA RESULT:    -8.118      2.042      7.000
REMARK INTER + INTRA:         -16.144
REMARK INTER:                 -13.890
REMARK INTRA:                  -2.255
REMARK UNBOUND:                -2.806
REMARK SMILES C[C@@H]1O[C@H](OC[C@H]2O[C@H](Oc3c(-c4ccc(O)c(O)c4)oc4cc(O)cc(O)c4c3=O)[C@H](O)[C@H](O)[C@H]2O)[C@@H](O)[C@@H](O)[C@H]1O
REMARK SMILES IDX 7 1 36 2 34 3 32 4 9 5 8 6 6 7 5 8 4 9 1 10 2 11 42 12 3 13
REMARK SMILES IDX 40 14 38 15 43 16 41 18 39 20 37 22 35 24 10 26 11 27 12 28
REMARK SMILES IDX 30 29 21 30 29 31 31 32 22 33 27 34 23 35 26 36 24 37 13 38
REMARK SMILES IDX 20 39 14 40 18 41 15 42 16 43 19 44 17 46 28 48 25 50 33 52
REMARK H PARENT 43 17 41 19 39 21 37 23 35 25 19 45 17 47 28 49 25 51 33 53
REMARK Flexibility Score: inf
ROOT
ATOM      1  C   UNL     1      28.723 118.712 300.077  1.00  0.00     0.180 C 
ATOM      2  C   UNL     1      27.992 117.991 301.253  1.00  0.00     0.177 C 
ATOM      3  C   UNL     1      27.006 118.953 301.965  1.00  0.00     0.180 C 
ATOM      4  C   UNL     1      26.329 119.940 300.974  1.00  0.00     0.214 C 
ATOM      5  C   UNL     1      26.520 119.470 299.525  1.00  0.00     0.339 C 
ATOM      6  O   UNL     1      27.892 119.443 299.178  1.00  0.00    -0.332 OA
ENDROOT
BRANCH   1   7
ATOM      7  C   UNL     1      29.602 117.759 299.234  1.00  0.00     0.198 C 
BRANCH   7   8
ATOM      8  O   UNL     1      30.867 118.286 298.862  1.00  0.00    -0.347 OA
BRANCH   8   9
ATOM      9  C   UNL     1      30.779 119.361 297.935  1.00  0.00     0.281 C 
ATOM     10  C   UNL     1      33.157 122.121 297.512  1.00  0.00     0.041 C 
ATOM     11  C   UNL     1      31.794 121.424 297.483  1.00  0.00     0.150 C 
ATOM     12  C   UNL     1      31.258 121.328 296.020  1.00  0.00     0.174 C 
ATOM     13  O   UNL     1      31.942 120.151 298.105  1.00  0.00    -0.344 OA
ATOM     14  C   UNL     1      31.408 119.876 295.506  1.00  0.00     0.179 C 
ATOM     15  C   UNL     1      30.738 118.851 296.464  1.00  0.00     0.202 C 
BRANCH  12  16
ATOM     16  O   UNL     1      29.898 121.700 296.012  1.00  0.00    -0.388 OA
ATOM     17  H   UNL     1      29.415 121.045 295.445  1.00  0.00     0.211 HD
ENDBRANCH  12  16
BRANCH  14  18
ATOM     18  O   UNL     1      30.959 119.730 294.178  1.00  0.00    -0.387 OA
ATOM     19  H   UNL     1      31.705 119.964 293.565  1.00  0.00     0.211 HD
ENDBRANCH  14  18
BRANCH  15  20
ATOM     20  O   UNL     1      29.420 118.559 296.058  1.00  0.00    -0.385 OA
ATOM     21  H   UNL     1      29.239 117.606 296.260  1.00  0.00     0.211 HD
ENDBRANCH  15  20
ENDBRANCH   8   9
ENDBRANCH   7   8
ENDBRANCH   1   7
BRANCH   2  22
ATOM     22  O   UNL     1      27.310 116.858 300.769  1.00  0.00    -0.387 OA
ATOM     23  H   UNL     1      26.872 117.122 299.918  1.00  0.00     0.211 HD
ENDBRANCH   2  22
BRANCH   3  24
ATOM     24  O   UNL     1      27.689 119.671 302.966  1.00  0.00    -0.387 OA
ATOM     25  H   UNL     1      27.419 120.624 302.880  1.00  0.00     0.211 HD
ENDBRANCH   3  24
BRANCH   5  26
ATOM     26  O   UNL     1      25.790 120.321 298.633  1.00  0.00    -0.454 OA
BRANCH  26  27
ATOM     27  C   UNL     1      25.409 119.973 297.330  1.00  0.00     0.214 A 
ATOM     28  C   UNL     1      24.121 119.473 297.058  1.00  0.00     0.180 A 
ATOM     29  C   UNL     1      26.329 120.086 296.277  1.00  0.00     0.239 A 
ATOM     30  O   UNL     1      23.775 119.194 295.804  1.00  0.00    -0.452 OA
ATOM     31  C   UNL     1      25.928 119.771 294.961  1.00  0.00     0.111 A 
ATOM     32  O   UNL     1      27.506 120.460 296.523  1.00  0.00    -0.285 OA
ATOM     33  C   UNL     1      24.599 119.322 294.769  1.00  0.00     0.146 A 
ATOM     34  C   UNL     1      26.783 119.892 293.841  1.00  0.00     0.134 A 
ATOM     35  C   UNL     1      24.144 118.995 293.487  1.00  0.00     0.094 A 
ATOM     36  C   UNL     1      26.310 119.551 292.564  1.00  0.00     0.093 A 
ATOM     37  C   UNL     1      25.000 119.098 292.387  1.00  0.00     0.123 A 
BRANCH  28  38
ATOM     38  C   UNL     1      23.105 119.266 298.117  1.00  0.00     0.025 A 
ATOM     39  C   UNL     1      22.161 118.238 297.962  1.00  0.00     0.062 A 
ATOM     40  C   UNL     1      23.088 120.037 299.294  1.00  0.00     0.016 A 
ATOM     41  C   UNL     1      21.195 117.999 298.946  1.00  0.00     0.158 A 
ATOM     42  C   UNL     1      22.127 119.798 300.282  1.00  0.00     0.051 A 
ATOM     43  C   UNL     1      21.177 118.781 300.113  1.00  0.00     0.157 A 
BRANCH  41  44
ATOM     44  O   UNL     1      20.267 116.978 298.747  1.00  0.00    -0.504 OA
ATOM     45  H   UNL     1      20.534 116.067 298.391  1.00  0.00     0.293 HD
ENDBRANCH  41  44
BRANCH  43  46
ATOM     46  O   UNL     1      20.231 118.533 301.104  1.00  0.00    -0.504 OA
ATOM     47  H   UNL     1      19.724 117.655 301.143  1.00  0.00     0.293 HD
ENDBRANCH  43  46
ENDBRANCH  28  38
BRANCH  34  48
ATOM     48  O   UNL     1      28.096 120.342 293.985  1.00  0.00    -0.507 OA
ATOM     49  H   UNL     1      28.305 121.286 294.298  1.00  0.00     0.293 HD
ENDBRANCH  34  48
BRANCH  37  50
ATOM     50  O   UNL     1      24.564 118.746 291.111  1.00  0.00    -0.508 OA
ATOM     51  H   UNL     1      23.621 118.939 290.796  1.00  0.00     0.293 HD
ENDBRANCH  37  50
ENDBRANCH  26  27
ENDBRANCH   5  26
BRANCH   4  52
ATOM     52  O   UNL     1      26.858 121.236 301.107  1.00  0.00    -0.384 OA
ATOM     53  H   UNL     1      26.771 121.676 300.224  1.00  0.00     0.211 HD
ENDBRANCH   4  52
TORSDOF 16
ENDMDL
MODEL 5
REMARK VINA RESULT:    -8.111      2.876      8.171
REMARK INTER + INTRA:         -16.133
REMARK INTER:                 -13.380
REMARK INTRA:                  -2.753
REMARK UNBOUND:                -2.806
REMARK SMILES C[C@@H]1O[C@H](OC[C@H]2O[C@H](Oc3c(-c4ccc(O)c(O)c4)oc4cc(O)cc(O)c4c3=O)[C@H](O)[C@H](O)[C@H]2O)[C@@H](O)[C@@H](O)[C@H]1O
REMARK SMILES IDX 7 1 36 2 34 3 32 4 9 5 8 6 6 7 5 8 4 9 1 10 2 11 42 12 3 13
REMARK SMILES IDX 40 14 38 15 43 16 41 18 39 20 37 22 35 24 10 26 11 27 12 28
REMARK SMILES IDX 30 29 21 30 29 31 31 32 22 33 27 34 23 35 26 36 24 37 13 38
REMARK SMILES IDX 20 39 14 40 18 41 15 42 16 43 19 44 17 46 28 48 25 50 33 52
REMARK H PARENT 43 17 41 19 39 21 37 23 35 25 19 45 17 47 28 49 25 51 33 53
REMARK Flexibility Score: inf
ROOT
ATOM      1  C   UNL     1      27.965 120.544 295.191  1.00  0.00     0.180 C 
ATOM      2  C   UNL     1      26.851 121.473 294.614  1.00  0.00     0.177 C 
ATOM      3  C   UNL     1      25.490 120.732 294.550  1.00  0.00     0.180 C 
ATOM      4  C   UNL     1      25.297 119.753 295.742  1.00  0.00     0.214 C 
ATOM      5  C   UNL     1      26.315 120.046 296.853  1.00  0.00     0.339 C 
ATOM      6  O   UNL     1      27.639 119.849 296.393  1.00  0.00    -0.332 OA
ENDROOT
BRANCH   1   7
ATOM      7  C   UNL     1      29.306 121.279 295.423  1.00  0.00     0.198 C 
BRANCH   7   8
ATOM      8  O   UNL     1      30.465 120.486 295.214  1.00  0.00    -0.347 OA
BRANCH   8   9
ATOM      9  C   UNL     1      30.213 119.309 294.457  1.00  0.00     0.281 C 
ATOM     10  C   UNL     1      31.769 118.345 291.279  1.00  0.00     0.041 C 
ATOM     11  C   UNL     1      30.670 118.406 292.343  1.00  0.00     0.150 C 
ATOM     12  C   UNL     1      30.392 116.986 292.927  1.00  0.00     0.174 C 
ATOM     13  O   UNL     1      31.076 119.345 293.335  1.00  0.00    -0.344 OA
ATOM     14  C   UNL     1      31.007 116.876 294.342  1.00  0.00     0.179 C 
ATOM     15  C   UNL     1      30.520 118.021 295.276  1.00  0.00     0.202 C 
BRANCH  12  16
ATOM     16  O   UNL     1      28.997 116.792 292.996  1.00  0.00    -0.388 OA
ATOM     17  H   UNL     1      28.762 116.665 293.952  1.00  0.00     0.211 HD
ENDBRANCH  12  16
BRANCH  14  18
ATOM     18  O   UNL     1      30.806 115.605 294.916  1.00  0.00    -0.387 OA
ATOM     19  H   UNL     1      31.414 115.512 295.697  1.00  0.00     0.211 HD
ENDBRANCH  14  18
BRANCH  15  20
ATOM     20  O   UNL     1      29.405 117.618 296.038  1.00  0.00    -0.385 OA
ATOM     21  H   UNL     1      29.347 116.629 296.000  1.00  0.00     0.211 HD
ENDBRANCH  15  20
ENDBRANCH   8   9
ENDBRANCH   7   8
ENDBRANCH   1   7
BRANCH   2  22
ATOM     22  O   UNL     1      26.740 122.635 295.401  1.00  0.00    -0.387 OA
ATOM     23  H   UNL     1      27.452 123.259 295.102  1.00  0.00     0.211 HD
ENDBRANCH   2  22
BRANCH   3  24
ATOM     24  O   UNL     1      25.393 120.030 293.332  1.00  0.00    -0.387 OA
ATOM     25  H   UNL     1      24.917 119.177 293.522  1.00  0.00     0.211 HD
ENDBRANCH   3  24
BRANCH   5  26
ATOM     26  O   UNL     1      26.049 119.219 297.993  1.00  0.00    -0.454 OA
BRANCH  26  27
ATOM     27  C   UNL     1      25.984 119.678 299.315  1.00  0.00     0.214 A 
ATOM     28  C   UNL     1      27.097 119.582 300.174  1.00  0.00     0.180 A 
ATOM     29  C   UNL     1      24.787 120.213 299.814  1.00  0.00     0.239 A 
ATOM     30  O   UNL     1      27.018 120.069 301.409  1.00  0.00    -0.452 OA
ATOM     31  C   UNL     1      24.740 120.710 301.134  1.00  0.00     0.111 A 
ATOM     32  O   UNL     1      23.766 120.234 299.076  1.00  0.00    -0.285 OA
ATOM     33  C   UNL     1      25.917 120.619 301.914  1.00  0.00     0.146 A 
ATOM     34  C   UNL     1      23.583 121.295 301.700  1.00  0.00     0.134 A 
ATOM     35  C   UNL     1      25.931 121.094 303.229  1.00  0.00     0.094 A 
ATOM     36  C   UNL     1      23.614 121.759 303.024  1.00  0.00     0.093 A 
ATOM     37  C   UNL     1      24.779 121.654 303.788  1.00  0.00     0.123 A 
BRANCH  28  38
ATOM     38  C   UNL     1      28.383 118.980 299.750  1.00  0.00     0.025 A 
ATOM     39  C   UNL     1      29.352 119.798 299.147  1.00  0.00     0.062 A 
ATOM     40  C   UNL     1      28.680 117.622 299.977  1.00  0.00     0.016 A 
ATOM     41  C   UNL     1      30.585 119.271 298.747  1.00  0.00     0.158 A 
ATOM     42  C   UNL     1      29.913 117.093 299.583  1.00  0.00     0.051 A 
ATOM     43  C   UNL     1      30.870 117.913 298.967  1.00  0.00     0.157 A 
BRANCH  41  44
ATOM     44  O   UNL     1      31.514 120.114 298.140  1.00  0.00    -0.504 OA
ATOM     45  H   UNL     1      32.437 119.794 297.867  1.00  0.00     0.293 HD
ENDBRANCH  41  44
BRANCH  43  46
ATOM     46  O   UNL     1      32.103 117.389 298.589  1.00  0.00    -0.504 OA
ATOM     47  H   UNL     1      32.914 117.986 298.460  1.00  0.00     0.293 HD
ENDBRANCH  43  46
ENDBRANCH  28  38
BRANCH  34  48
ATOM     48  O   UNL     1      22.404 121.415 300.961  1.00  0.00    -0.507 OA
ATOM     49  H   UNL     1      21.893 120.599 300.636  1.00  0.00     0.293 HD
ENDBRANCH  34  48
BRANCH  37  50
ATOM     50  O   UNL     1      24.775 122.103 305.108  1.00  0.00    -0.508 OA
ATOM     51  H   UNL     1      25.550 122.624 305.497  1.00  0.00     0.293 HD
ENDBRANCH  37  50
ENDBRANCH  26  27
ENDBRANCH   5  26
BRANCH   4  52
ATOM     52  O   UNL     1      25.443 118.417 295.331  1.00  0.00    -0.384 OA
ATOM     53  H   UNL     1      25.891 118.432 294.448  1.00  0.00     0.211 HD
ENDBRANCH   4  52
TORSDOF 16
ENDMDL
MODEL 6
REMARK VINA RESULT:    -8.099      3.273      7.811
REMARK INTER + INTRA:         -16.113
REMARK INTER:                 -13.241
REMARK INTRA:                  -2.872
REMARK UNBOUND:                -2.806
REMARK SMILES C[C@@H]1O[C@H](OC[C@H]2O[C@H](Oc3c(-c4ccc(O)c(O)c4)oc4cc(O)cc(O)c4c3=O)[C@H](O)[C@H](O)[C@H]2O)[C@@H](O)[C@@H](O)[C@H]1O
REMARK SMILES IDX 7 1 36 2 34 3 32 4 9 5 8 6 6 7 5 8 4 9 1 10 2 11 42 12 3 13
REMARK SMILES IDX 40 14 38 15 43 16 41 18 39 20 37 22 35 24 10 26 11 27 12 28
REMARK SMILES IDX 30 29 21 30 29 31 31 32 22 33 27 34 23 35 26 36 24 37 13 38
REMARK SMILES IDX 20 39 14 40 18 41 15 42 16 43 19 44 17 46 28 48 25 50 33 52
REMARK H PARENT 43 17 41 19 39 21 37 23 35 25 19 45 17 47 28 49 25 51 33 53
REMARK Flexibility Score: inf
ROOT
ATOM      1  C   UNL     1      23.851 120.254 302.031  1.00  0.00     0.180 C 
ATOM      2  C   UNL     1      24.937 121.375 302.032  1.00  0.00     0.177 C 
ATOM      3  C   UNL     1      26.322 120.803 301.629  1.00  0.00     0.180 C 
ATOM      4  C   UNL     1      26.207 119.682 300.559  1.00  0.00     0.214 C 
ATOM      5  C   UNL     1      24.814 119.691 299.913  1.00  0.00     0.339 C 
ATOM      6  O   UNL     1      23.809 119.424 300.872  1.00  0.00    -0.332 OA
ENDROOT
BRANCH   1   7
ATOM      7  C   UNL     1      22.422 120.795 302.273  1.00  0.00     0.198 C 
BRANCH   7   8
ATOM      8  O   UNL     1      21.747 121.241 301.106  1.00  0.00    -0.347 OA
BRANCH   8   9
ATOM      9  C   UNL     1      20.346 121.001 301.139  1.00  0.00     0.281 C 
ATOM     10  C   UNL     1      17.669 123.426 300.501  1.00  0.00     0.041 C 
ATOM     11  C   UNL     1      18.325 122.186 301.117  1.00  0.00     0.150 C 
ATOM     12  C   UNL     1      17.609 120.888 300.631  1.00  0.00     0.174 C 
ATOM     13  O   UNL     1      19.709 122.215 300.783  1.00  0.00    -0.344 OA
ATOM     14  C   UNL     1      18.490 120.169 299.583  1.00  0.00     0.179 C 
ATOM     15  C   UNL     1      19.926 119.903 300.117  1.00  0.00     0.202 C 
BRANCH  12  16
ATOM     16  O   UNL     1      17.402 120.044 301.742  1.00  0.00    -0.388 OA
ATOM     17  H   UNL     1      18.258 119.572 301.919  1.00  0.00     0.211 HD
ENDBRANCH  12  16
BRANCH  14  18
ATOM     18  O   UNL     1      17.885 118.995 299.089  1.00  0.00    -0.387 OA
ATOM     19  H   UNL     1      18.493 118.229 299.265  1.00  0.00     0.211 HD
ENDBRANCH  14  18
BRANCH  15  20
ATOM     20  O   UNL     1      20.032 118.614 300.675  1.00  0.00    -0.385 OA
ATOM     21  H   UNL     1      19.451 118.576 301.477  1.00  0.00     0.211 HD
ENDBRANCH  15  20
ENDBRANCH   8   9
ENDBRANCH   7   8
ENDBRANCH   1   7
BRANCH   2  22
ATOM     22  O   UNL     1      24.559 122.409 301.154  1.00  0.00    -0.387 OA
ATOM     23  H   UNL     1      25.362 122.972 301.003  1.00  0.00     0.211 HD
ENDBRANCH   2  22
BRANCH   3  24
ATOM     24  O   UNL     1      26.978 120.309 302.773  1.00  0.00    -0.387 OA
ATOM     25  H   UNL     1      27.518 119.524 302.486  1.00  0.00     0.211 HD
ENDBRANCH   3  24
BRANCH   5  26
ATOM     26  O   UNL     1      24.762 118.735 298.847  1.00  0.00    -0.454 OA
BRANCH  26  27
ATOM     27  C   UNL     1      23.795 118.723 297.832  1.00  0.00     0.214 A 
ATOM     28  C   UNL     1      24.035 119.344 296.591  1.00  0.00     0.180 A 
ATOM     29  C   UNL     1      22.551 118.114 298.056  1.00  0.00     0.239 A 
ATOM     30  O   UNL     1      23.115 119.276 295.633  1.00  0.00    -0.452 OA
ATOM     31  C   UNL     1      21.597 118.070 297.018  1.00  0.00     0.111 A 
ATOM     32  O   UNL     1      22.301 117.621 299.188  1.00  0.00    -0.285 OA
ATOM     33  C   UNL     1      21.938 118.677 295.785  1.00  0.00     0.146 A 
ATOM     34  C   UNL     1      20.335 117.445 297.151  1.00  0.00     0.134 A 
ATOM     35  C   UNL     1      21.033 118.665 294.718  1.00  0.00     0.094 A 
ATOM     36  C   UNL     1      19.437 117.451 296.073  1.00  0.00     0.093 A 
ATOM     37  C   UNL     1      19.780 118.064 294.864  1.00  0.00     0.123 A 
BRANCH  28  38
ATOM     38  C   UNL     1      25.297 120.060 296.288  1.00  0.00     0.025 A 
ATOM     39  C   UNL     1      25.237 121.409 295.900  1.00  0.00     0.062 A 
ATOM     40  C   UNL     1      26.555 119.442 296.423  1.00  0.00     0.016 A 
ATOM     41  C   UNL     1      26.407 122.125 295.620  1.00  0.00     0.158 A 
ATOM     42  C   UNL     1      27.726 120.157 296.148  1.00  0.00     0.051 A 
ATOM     43  C   UNL     1      27.658 121.498 295.746  1.00  0.00     0.157 A 
BRANCH  41  44
ATOM     44  O   UNL     1      26.304 123.458 295.225  1.00  0.00    -0.504 OA
ATOM     45  H   UNL     1      26.437 124.226 295.874  1.00  0.00     0.293 HD
ENDBRANCH  41  44
BRANCH  43  46
ATOM     46  O   UNL     1      28.825 122.213 295.488  1.00  0.00    -0.504 OA
ATOM     47  H   UNL     1      29.725 121.899 295.835  1.00  0.00     0.293 HD
ENDBRANCH  43  46
ENDBRANCH  28  38
BRANCH  34  48
ATOM     48  O   UNL     1      19.964 116.825 298.346  1.00  0.00    -0.507 OA
ATOM     49  H   UNL     1      19.012 116.872 298.698  1.00  0.00     0.293 HD
ENDBRANCH  34  48
BRANCH  37  50
ATOM     50  O   UNL     1      18.861 118.074 293.817  1.00  0.00    -0.508 OA
ATOM     51  H   UNL     1      17.868 117.962 293.976  1.00  0.00     0.293 HD
ENDBRANCH  37  50
ENDBRANCH  26  27
ENDBRANCH   5  26
BRANCH   4  52
ATOM     52  O   UNL     1      26.440 118.416 301.123  1.00  0.00    -0.384 OA
ATOM     53  H   UNL     1      27.415 118.343 301.281  1.00  0.00     0.211 HD
ENDBRANCH   4  52
TORSDOF 16
ENDMDL
MODEL 7
REMARK VINA RESULT:    -8.030      2.886      7.057
REMARK INTER + INTRA:         -15.999
REMARK INTER:                 -13.131
REMARK INTRA:                  -2.868
REMARK UNBOUND:                -2.806
REMARK SMILES C[C@@H]1O[C@H](OC[C@H]2O[C@H](Oc3c(-c4ccc(O)c(O)c4)oc4cc(O)cc(O)c4c3=O)[C@H](O)[C@H](O)[C@H]2O)[C@@H](O)[C@@H](O)[C@H]1O
REMARK SMILES IDX 7 1 36 2 34 3 32 4 9 5 8 6 6 7 5 8 4 9 1 10 2 11 42 12 3 13
REMARK SMILES IDX 40 14 38 15 43 16 41 18 39 20 37 22 35 24 10 26 11 27 12 28
REMARK SMILES IDX 30 29 21 30 29 31 31 32 22 33 27 34 23 35 26 36 24 37 13 38
REMARK SMILES IDX 20 39 14 40 18 41 15 42 16 43 19 44 17 46 28 48 25 50 33 52
REMARK H PARENT 43 17 41 19 39 21 37 23 35 25 19 45 17 47 28 49 25 51 33 53
REMARK Flexibility Score: inf
ROOT
ATOM      1  C   UNL     1      25.389 119.462 295.770  1.00  0.00     0.180 C 
ATOM      2  C   UNL     1      24.659 120.131 294.562  1.00  0.00     0.177 C 
ATOM      3  C   UNL     1      23.731 119.116 293.845  1.00  0.00     0.180 C 
ATOM      4  C   UNL     1      23.070 118.120 294.838  1.00  0.00     0.214 C 
ATOM      5  C   UNL     1      23.205 118.625 296.282  1.00  0.00     0.339 C 
ATOM      6  O   UNL     1      24.565 118.715 296.662  1.00  0.00    -0.332 OA
ENDROOT
BRANCH   1   7
ATOM      7  C   UNL     1      26.206 120.466 296.616  1.00  0.00     0.198 C 
BRANCH   7   8
ATOM      8  O   UNL     1      25.536 120.963 297.765  1.00  0.00    -0.347 OA
BRANCH   8   9
ATOM      9  C   UNL     1      25.914 120.303 298.966  1.00  0.00     0.281 C 
ATOM     10  C   UNL     1      29.220 118.957 299.808  1.00  0.00     0.041 C 
ATOM     11  C   UNL     1      27.692 119.052 299.840  1.00  0.00     0.150 C 
ATOM     12  C   UNL     1      27.194 119.411 301.275  1.00  0.00     0.174 C 
ATOM     13  O   UNL     1      27.294 120.006 298.860  1.00  0.00    -0.344 OA
ATOM     14  C   UNL     1      26.748 120.891 301.316  1.00  0.00     0.179 C 
ATOM     15  C   UNL     1      25.698 121.210 300.214  1.00  0.00     0.202 C 
BRANCH  12  16
ATOM     16  O   UNL     1      26.105 118.574 301.597  1.00  0.00    -0.388 OA
ATOM     17  H   UNL     1      25.991 117.934 300.847  1.00  0.00     0.211 HD
ENDBRANCH  12  16
BRANCH  14  18
ATOM     18  O   UNL     1      26.305 121.282 302.595  1.00  0.00    -0.387 OA
ATOM     19  H   UNL     1      26.079 120.465 303.114  1.00  0.00     0.211 HD
ENDBRANCH  14  18
BRANCH  15  20
ATOM     20  O   UNL     1      24.384 121.095 300.712  1.00  0.00    -0.385 OA
ATOM     21  H   UNL     1      24.059 120.180 300.514  1.00  0.00     0.211 HD
ENDBRANCH  15  20
ENDBRANCH   8   9
ENDBRANCH   7   8
ENDBRANCH   1   7
BRANCH   2  22
ATOM     22  O   UNL     1      23.919 121.243 295.007  1.00  0.00    -0.387 OA
ATOM     23  H   UNL     1      24.515 121.771 295.600  1.00  0.00     0.211 HD
ENDBRANCH   2  22
BRANCH   3  24
ATOM     24  O   UNL     1      24.469 118.408 292.875  1.00  0.00    -0.387 OA
ATOM     25  H   UNL     1      25.223 118.993 292.595  1.00  0.00     0.211 HD
ENDBRANCH   3  24
BRANCH   5  26
ATOM     26  O   UNL     1      22.487 117.762 297.172  1.00  0.00    -0.454 OA
BRANCH  26  27
ATOM     27  C   UNL     1      21.732 118.196 298.269  1.00  0.00     0.214 A 
ATOM     28  C   UNL     1      20.360 118.488 298.138  1.00  0.00     0.180 A 
ATOM     29  C   UNL     1      22.347 118.380 299.516  1.00  0.00     0.239 A 
ATOM     30  O   UNL     1      19.660 118.855 299.209  1.00  0.00    -0.452 OA
ATOM     31  C   UNL     1      21.573 118.780 300.626  1.00  0.00     0.111 A 
ATOM     32  O   UNL     1      23.589 118.193 299.625  1.00  0.00    -0.285 OA
ATOM     33  C   UNL     1      20.192 119.006 300.418  1.00  0.00     0.146 A 
ATOM     34  C   UNL     1      22.111 118.954 301.923  1.00  0.00     0.134 A 
ATOM     35  C   UNL     1      19.373 119.404 301.481  1.00  0.00     0.094 A 
ATOM     36  C   UNL     1      21.276 119.361 302.974  1.00  0.00     0.093 A 
ATOM     37  C   UNL     1      19.915 119.593 302.754  1.00  0.00     0.123 A 
BRANCH  28  38
ATOM     38  C   UNL     1      19.640 118.378 296.847  1.00  0.00     0.025 A 
ATOM     39  C   UNL     1      18.774 117.291 296.642  1.00  0.00     0.062 A 
ATOM     40  C   UNL     1      19.762 119.355 295.841  1.00  0.00     0.016 A 
ATOM     41  C   UNL     1      18.063 117.159 295.443  1.00  0.00     0.158 A 
ATOM     42  C   UNL     1      19.049 119.228 294.643  1.00  0.00     0.051 A 
ATOM     43  C   UNL     1      18.200 118.132 294.439  1.00  0.00     0.157 A 
BRANCH  41  44
ATOM     44  O   UNL     1      17.226 116.058 295.274  1.00  0.00    -0.504 OA
ATOM     45  H   UNL     1      16.556 115.775 295.981  1.00  0.00     0.293 HD
ENDBRANCH  41  44
BRANCH  43  46
ATOM     46  O   UNL     1      17.479 118.015 293.253  1.00  0.00    -0.504 OA
ATOM     47  H   UNL     1      16.910 118.778 292.903  1.00  0.00     0.293 HD
ENDBRANCH  43  46
ENDBRANCH  28  38
BRANCH  34  48
ATOM     48  O   UNL     1      23.466 118.730 302.174  1.00  0.00    -0.507 OA
ATOM     49  H   UNL     1      24.167 119.444 301.995  1.00  0.00     0.293 HD
ENDBRANCH  34  48
BRANCH  37  50
ATOM     50  O   UNL     1      19.113 120.018 303.812  1.00  0.00    -0.508 OA
ATOM     51  H   UNL     1      19.153 120.965 304.166  1.00  0.00     0.293 HD
ENDBRANCH  37  50
ENDBRANCH  26  27
ENDBRANCH   5  26
BRANCH   4  52
ATOM     52  O   UNL     1      23.655 116.845 294.745  1.00  0.00    -0.384 OA
ATOM     53  H   UNL     1      22.925 116.183 294.849  1.00  0.00     0.211 HD
ENDBRANCH   4  52
TORSDOF 16
ENDMDL
MODEL 8
REMARK VINA RESULT:    -8.027      2.179      6.508
REMARK INTER + INTRA:         -15.995
REMARK INTER:                 -13.584
REMARK INTRA:                  -2.411
REMARK UNBOUND:                -2.806
REMARK SMILES C[C@@H]1O[C@H](OC[C@H]2O[C@H](Oc3c(-c4ccc(O)c(O)c4)oc4cc(O)cc(O)c4c3=O)[C@H](O)[C@H](O)[C@H]2O)[C@@H](O)[C@@H](O)[C@H]1O
REMARK SMILES IDX 7 1 36 2 34 3 32 4 9 5 8 6 6 7 5 8 4 9 1 10 2 11 42 12 3 13
REMARK SMILES IDX 40 14 38 15 43 16 41 18 39 20 37 22 35 24 10 26 11 27 12 28
REMARK SMILES IDX 30 29 21 30 29 31 31 32 22 33 27 34 23 35 26 36 24 37 13 38
REMARK SMILES IDX 20 39 14 40 18 41 15 42 16 43 19 44 17 46 28 48 25 50 33 52
REMARK H PARENT 43 17 41 19 39 21 37 23 35 25 19 45 17 47 28 49 25 51 33 53
REMARK Flexibility Score: inf
ROOT
ATOM      1  C   UNL     1      26.808 119.393 294.304  1.00  0.00     0.180 C 
ATOM      2  C   UNL     1      25.725 120.223 293.546  1.00  0.00     0.177 C 
ATOM      3  C   UNL     1      24.365 119.477 293.531  1.00  0.00     0.180 C 
ATOM      4  C   UNL     1      24.115 118.684 294.845  1.00  0.00     0.214 C 
ATOM      5  C   UNL     1      25.083 119.141 295.945  1.00  0.00     0.339 C 
ATOM      6  O   UNL     1      26.425 118.882 295.579  1.00  0.00    -0.332 OA
ENDROOT
BRANCH   1   7
ATOM      7  C   UNL     1      28.140 120.157 294.485  1.00  0.00     0.198 C 
BRANCH   7   8
ATOM      8  O   UNL     1      29.229 119.361 294.928  1.00  0.00    -0.347 OA
BRANCH   8   9
ATOM      9  C   UNL     1      29.505 119.506 296.316  1.00  0.00     0.281 C 
ATOM     10  C   UNL     1      30.401 116.851 298.682  1.00  0.00     0.041 C 
ATOM     11  C   UNL     1      29.804 118.186 298.229  1.00  0.00     0.150 C 
ATOM     12  C   UNL     1      30.562 119.379 298.891  1.00  0.00     0.174 C 
ATOM     13  O   UNL     1      29.848 118.222 296.806  1.00  0.00    -0.344 OA
ATOM     14  C   UNL     1      31.483 120.053 297.847  1.00  0.00     0.179 C 
ATOM     15  C   UNL     1      30.703 120.468 296.568  1.00  0.00     0.202 C 
BRANCH  12  16
ATOM     16  O   UNL     1      29.613 120.310 299.363  1.00  0.00    -0.388 OA
ATOM     17  H   UNL     1      28.884 119.795 299.797  1.00  0.00     0.211 HD
ENDBRANCH  12  16
BRANCH  14  18
ATOM     18  O   UNL     1      32.213 121.129 298.393  1.00  0.00    -0.387 OA
ATOM     19  H   UNL     1      32.835 120.772 299.080  1.00  0.00     0.211 HD
ENDBRANCH  14  18
BRANCH  15  20
ATOM     20  O   UNL     1      30.278 121.810 296.642  1.00  0.00    -0.385 OA
ATOM     21  H   UNL     1      30.921 122.306 297.209  1.00  0.00     0.211 HD
ENDBRANCH  15  20
ENDBRANCH   8   9
ENDBRANCH   7   8
ENDBRANCH   1   7
BRANCH   2  22
ATOM     22  O   UNL     1      25.584 121.489 294.148  1.00  0.00    -0.387 OA
ATOM     23  H   UNL     1      24.782 121.446 294.731  1.00  0.00     0.211 HD
ENDBRANCH   2  22
BRANCH   3  24
ATOM     24  O   UNL     1      24.320 118.602 292.427  1.00  0.00    -0.387 OA
ATOM     25  H   UNL     1      23.514 118.030 292.539  1.00  0.00     0.211 HD
ENDBRANCH   3  24
BRANCH   5  26
ATOM     26  O   UNL     1      24.762 118.491 297.182  1.00  0.00    -0.454 OA
BRANCH  26  27
ATOM     27  C   UNL     1      24.448 119.155 298.375  1.00  0.00     0.214 A 
ATOM     28  C   UNL     1      23.109 119.364 298.760  1.00  0.00     0.180 A 
ATOM     29  C   UNL     1      25.474 119.654 299.191  1.00  0.00     0.239 A 
ATOM     30  O   UNL     1      22.844 119.957 299.921  1.00  0.00    -0.452 OA
ATOM     31  C   UNL     1      25.152 120.287 300.410  1.00  0.00     0.111 A 
ATOM     32  O   UNL     1      26.671 119.538 298.817  1.00  0.00    -0.285 OA
ATOM     33  C   UNL     1      23.782 120.413 300.744  1.00  0.00     0.146 A 
ATOM     34  C   UNL     1      26.128 120.786 301.305  1.00  0.00     0.134 A 
ATOM     35  C   UNL     1      23.402 121.031 301.941  1.00  0.00     0.094 A 
ATOM     36  C   UNL     1      25.726 121.410 302.496  1.00  0.00     0.093 A 
ATOM     37  C   UNL     1      24.370 121.539 302.810  1.00  0.00     0.123 A 
BRANCH  28  38
ATOM     38  C   UNL     1      21.962 118.922 297.932  1.00  0.00     0.025 A 
ATOM     39  C   UNL     1      21.416 117.647 298.152  1.00  0.00     0.062 A 
ATOM     40  C   UNL     1      21.374 119.760 296.966  1.00  0.00     0.016 A 
ATOM     41  C   UNL     1      20.322 117.198 297.403  1.00  0.00     0.158 A 
ATOM     42  C   UNL     1      20.278 119.317 296.219  1.00  0.00     0.051 A 
ATOM     43  C   UNL     1      19.748 118.036 296.432  1.00  0.00     0.157 A 
BRANCH  41  44
ATOM     44  O   UNL     1      19.819 115.921 297.642  1.00  0.00    -0.504 OA
ATOM     45  H   UNL     1      20.387 115.183 298.044  1.00  0.00     0.293 HD
ENDBRANCH  41  44
BRANCH  43  46
ATOM     46  O   UNL     1      18.647 117.602 295.699  1.00  0.00    -0.504 OA
ATOM     47  H   UNL     1      18.751 117.220 294.764  1.00  0.00     0.293 HD
ENDBRANCH  43  46
ENDBRANCH  28  38
BRANCH  34  48
ATOM     48  O   UNL     1      27.489 120.672 301.019  1.00  0.00    -0.507 OA
ATOM     49  H   UNL     1      27.900 119.792 300.720  1.00  0.00     0.293 HD
ENDBRANCH  34  48
BRANCH  37  50
ATOM     50  O   UNL     1      23.999 122.183 303.989  1.00  0.00    -0.508 OA
ATOM     51  H   UNL     1      24.610 122.843 304.453  1.00  0.00     0.293 HD
ENDBRANCH  37  50
ENDBRANCH  26  27
ENDBRANCH   5  26
BRANCH   4  52
ATOM     52  O   UNL     1      24.274 117.302 294.643  1.00  0.00    -0.384 OA
ATOM     53  H   UNL     1      25.031 117.011 295.210  1.00  0.00     0.211 HD
ENDBRANCH   4  52
TORSDOF 16
ENDMDL
MODEL 9
REMARK VINA RESULT:    -8.016      2.452      5.081
REMARK INTER + INTRA:         -15.977
REMARK INTER:                 -12.886
REMARK INTRA:                  -3.091
REMARK UNBOUND:                -2.806
REMARK SMILES C[C@@H]1O[C@H](OC[C@H]2O[C@H](Oc3c(-c4ccc(O)c(O)c4)oc4cc(O)cc(O)c4c3=O)[C@H](O)[C@H](O)[C@H]2O)[C@@H](O)[C@@H](O)[C@H]1O
REMARK SMILES IDX 7 1 36 2 34 3 32 4 9 5 8 6 6 7 5 8 4 9 1 10 2 11 42 12 3 13
REMARK SMILES IDX 40 14 38 15 43 16 41 18 39 20 37 22 35 24 10 26 11 27 12 28
REMARK SMILES IDX 30 29 21 30 29 31 31 32 22 33 27 34 23 35 26 36 24 37 13 38
REMARK SMILES IDX 20 39 14 40 18 41 15 42 16 43 19 44 17 46 28 48 25 50 33 52
REMARK H PARENT 43 17 41 19 39 21 37 23 35 25 19 45 17 47 28 49 25 51 33 53
REMARK Flexibility Score: inf
ROOT
ATOM      1  C   UNL     1      22.964 120.736 301.347  1.00  0.00     0.180 C 
ATOM      2  C   UNL     1      22.648 119.270 301.782  1.00  0.00     0.177 C 
ATOM      3  C   UNL     1      21.363 118.751 301.084  1.00  0.00     0.180 C 
ATOM      4  C   UNL     1      21.220 119.296 299.636  1.00  0.00     0.214 C 
ATOM      5  C   UNL     1      22.549 119.890 299.147  1.00  0.00     0.339 C 
ATOM      6  O   UNL     1      22.935 120.993 299.945  1.00  0.00    -0.332 OA
ENDROOT
BRANCH   1   7
ATOM      7  C   UNL     1      24.318 121.250 301.891  1.00  0.00     0.198 C 
BRANCH   7   8
ATOM      8  O   UNL     1      25.311 121.474 300.902  1.00  0.00    -0.347 OA
BRANCH   8   9
ATOM      9  C   UNL     1      26.407 120.571 300.988  1.00  0.00     0.281 C 
ATOM     10  C   UNL     1      26.993 118.043 303.580  1.00  0.00     0.041 C 
ATOM     11  C   UNL     1      27.369 119.063 302.501  1.00  0.00     0.150 C 
ATOM     12  C   UNL     1      28.068 118.356 301.298  1.00  0.00     0.174 C 
ATOM     13  O   UNL     1      26.183 119.756 302.125  1.00  0.00    -0.344 OA
ATOM     14  C   UNL     1      27.086 118.265 300.106  1.00  0.00     0.179 C 
ATOM     15  C   UNL     1      26.498 119.655 299.732  1.00  0.00     0.202 C 
BRANCH  12  16
ATOM     16  O   UNL     1      29.201 119.110 300.927  1.00  0.00    -0.388 OA
ATOM     17  H   UNL     1      29.432 119.693 301.696  1.00  0.00     0.211 HD
ENDBRANCH  12  16
BRANCH  14  18
ATOM     18  O   UNL     1      27.654 117.615 298.992  1.00  0.00    -0.387 OA
ATOM     19  H   UNL     1      26.980 117.593 298.262  1.00  0.00     0.211 HD
ENDBRANCH  14  18
BRANCH  15  20
ATOM     20  O   UNL     1      27.245 120.266 298.705  1.00  0.00    -0.385 OA
ATOM     21  H   UNL     1      28.014 119.677 298.491  1.00  0.00     0.211 HD
ENDBRANCH  15  20
ENDBRANCH   8   9
ENDBRANCH   7   8
ENDBRANCH   1   7
BRANCH   2  22
ATOM     22  O   UNL     1      23.742 118.435 301.481  1.00  0.00    -0.387 OA
ATOM     23  H   UNL     1      23.955 117.926 302.306  1.00  0.00     0.211 HD
ENDBRANCH   2  22
BRANCH   3  24
ATOM     24  O   UNL     1      20.235 119.111 301.846  1.00  0.00    -0.387 OA
ATOM     25  H   UNL     1      19.442 119.035 301.251  1.00  0.00     0.211 HD
ENDBRANCH   3  24
BRANCH   5  26
ATOM     26  O   UNL     1      22.436 120.278 297.771  1.00  0.00    -0.454 OA
BRANCH  26  27
ATOM     27  C   UNL     1      23.199 119.742 296.726  1.00  0.00     0.214 A 
ATOM     28  C   UNL     1      22.679 118.737 295.887  1.00  0.00     0.180 A 
ATOM     29  C   UNL     1      24.516 120.180 296.522  1.00  0.00     0.239 A 
ATOM     30  O   UNL     1      23.412 118.281 294.875  1.00  0.00    -0.452 OA
ATOM     31  C   UNL     1      25.266 119.666 295.443  1.00  0.00     0.111 A 
ATOM     32  O   UNL     1      25.014 121.025 297.314  1.00  0.00    -0.285 OA
ATOM     33  C   UNL     1      24.650 118.693 294.619  1.00  0.00     0.146 A 
ATOM     34  C   UNL     1      26.585 120.080 295.149  1.00  0.00     0.134 A 
ATOM     35  C   UNL     1      25.344 118.146 293.534  1.00  0.00     0.094 A 
ATOM     36  C   UNL     1      27.268 119.514 294.062  1.00  0.00     0.093 A 
ATOM     37  C   UNL     1      26.654 118.546 293.262  1.00  0.00     0.123 A 
BRANCH  28  38
ATOM     38  C   UNL     1      21.320 118.173 296.064  1.00  0.00     0.025 A 
ATOM     39  C   UNL     1      21.148 117.067 296.913  1.00  0.00     0.062 A 
ATOM     40  C   UNL     1      20.191 118.742 295.446  1.00  0.00     0.016 A 
ATOM     41  C   UNL     1      19.878 116.515 297.120  1.00  0.00     0.158 A 
ATOM     42  C   UNL     1      18.920 118.196 295.654  1.00  0.00     0.051 A 
ATOM     43  C   UNL     1      18.758 117.082 296.490  1.00  0.00     0.157 A 
BRANCH  41  44
ATOM     44  O   UNL     1      19.752 115.409 297.959  1.00  0.00    -0.504 OA
ATOM     45  H   UNL     1      20.046 115.431 298.929  1.00  0.00     0.293 HD
ENDBRANCH  41  44
BRANCH  43  46
ATOM     46  O   UNL     1      17.491 116.548 296.709  1.00  0.00    -0.504 OA
ATOM     47  H   UNL     1      17.162 116.333 297.645  1.00  0.00     0.293 HD
ENDBRANCH  43  46
ENDBRANCH  28  38
BRANCH  34  48
ATOM     48  O   UNL     1      27.225 121.045 295.930  1.00  0.00    -0.507 OA
ATOM     49  H   UNL     1      27.023 122.036 295.825  1.00  0.00     0.293 HD
ENDBRANCH  34  48
BRANCH  37  50
ATOM     50  O   UNL     1      27.363 117.985 292.202  1.00  0.00    -0.508 OA
ATOM     51  H   UNL     1      28.336 117.721 292.289  1.00  0.00     0.293 HD
ENDBRANCH  37  50
ENDBRANCH  26  27
ENDBRANCH   5  26
BRANCH   4  52
ATOM     52  O   UNL     1      20.223 120.285 299.561  1.00  0.00    -0.384 OA
ATOM     53  H   UNL     1      20.246 120.784 300.416  1.00  0.00     0.211 HD
ENDBRANCH   4  52
TORSDOF 16
ENDMDL
