MODEL 1
REMARK VINA RESULT:    -5.081      0.000      0.000
REMARK INTER + INTRA:         -11.843
REMARK INTER:                  -9.537
REMARK INTRA:                  -2.305
REMARK UNBOUND:                -2.305
REMARK SMILES O=C([O-])CCCCCCCCCCCCCCC(=O)[O-]
REMARK SMILES IDX 10 1 9 2 8 3 7 4 6 5 5 6 4 7 2 8 1 9 3 10 11 11 12 12 13 13
REMARK SMILES IDX 14 14 15 15 16 16 17 17 18 18 19 19 20 20
REMARK H PARENT
REMARK Flexibility Score: inf
ROOT
ATOM      1  C   UNL     1     119.707 176.366 124.960  1.00  0.00     0.000 C 
ENDROOT
BRANCH   1   2
ATOM      2  C   UNL     1     121.186 176.749 124.801  1.00  0.00     0.000 C 
BRANCH   2   3
ATOM      3  C   UNL     1     121.928 176.818 126.145  1.00  0.00     0.000 C 
BRANCH   3   4
ATOM      4  C   UNL     1     122.021 178.248 126.698  1.00  0.00     0.000 C 
BRANCH   4   5
ATOM      5  C   UNL     1     121.537 178.304 128.155  1.00  0.00     0.000 C 
BRANCH   5   6
ATOM      6  C   UNL     1     120.185 177.594 128.363  1.00  0.00     0.006 C 
BRANCH   6   7
ATOM      7  C   UNL     1     119.594 177.761 129.773  1.00  0.00     0.053 C 
BRANCH   7   8
ATOM      8  C   UNL     1     119.771 176.528 130.604  1.00  0.00     0.041 C 
ATOM      9  O   UNL     1     120.922 176.060 130.809  1.00  0.00    -0.550 OA
ATOM     10  O   UNL     1     118.661 175.875 131.125  1.00  0.00    -0.550 OA
ENDBRANCH   7   8
ENDBRANCH   6   7
ENDBRANCH   5   6
ENDBRANCH   4   5
ENDBRANCH   3   4
ENDBRANCH   2   3
ENDBRANCH   1   2
BRANCH   1  11
ATOM     11  C   UNL     1     118.806 177.304 124.143  1.00  0.00     0.000 C 
BRANCH  11  12
ATOM     12  C   UNL     1     119.113 178.794 124.381  1.00  0.00     0.000 C 
BRANCH  12  13
ATOM     13  C   UNL     1     118.620 179.360 125.725  1.00  0.00     0.000 C 
BRANCH  13  14
ATOM     14  C   UNL     1     117.109 179.171 125.936  1.00  0.00     0.000 C 
BRANCH  14  15
ATOM     15  C   UNL     1     116.761 178.588 127.318  1.00  0.00     0.000 C 
BRANCH  15  16
ATOM     16  C   UNL     1     115.682 177.489 127.315  1.00  0.00     0.006 C 
BRANCH  16  17
ATOM     17  C   UNL     1     115.986 176.353 126.331  1.00  0.00     0.053 C 
BRANCH  17  18
ATOM     18  C   UNL     1     116.748 175.260 127.012  1.00  0.00     0.041 C 
ATOM     19  O   UNL     1     116.974 175.322 128.249  1.00  0.00    -0.550 OA
ATOM     20  O   UNL     1     117.164 174.149 126.291  1.00  0.00    -0.550 OA
ENDBRANCH  17  18
ENDBRANCH  16  17
ENDBRANCH  15  16
ENDBRANCH  14  15
ENDBRANCH  13  14
ENDBRANCH  12  13
ENDBRANCH  11  12
ENDBRANCH   1  11
TORSDOF 15
ENDMDL
MODEL 2
REMARK VINA RESULT:    -5.067      2.473      3.887
REMARK INTER + INTRA:         -11.815
REMARK INTER:                  -9.256
REMARK INTRA:                  -2.559
REMARK UNBOUND:                -2.305
REMARK SMILES O=C([O-])CCCCCCCCCCCCCCC(=O)[O-]
REMARK SMILES IDX 10 1 9 2 8 3 7 4 6 5 5 6 4 7 2 8 1 9 3 10 11 11 12 12 13 13
REMARK SMILES IDX 14 14 15 15 16 16 17 17 18 18 19 19 20 20
REMARK H PARENT
REMARK Flexibility Score: inf
ROOT
ATOM      1  C   UNL     1     121.971 178.553 128.300  1.00  0.00     0.000 C 
ENDROOT
BRANCH   1   2
ATOM      2  C   UNL     1     121.709 178.550 126.787  1.00  0.00     0.000 C 
BRANCH   2   3
ATOM      3  C   UNL     1     121.784 177.142 126.175  1.00  0.00     0.000 C 
BRANCH   3   4
ATOM      4  C   UNL     1     120.871 176.978 124.951  1.00  0.00     0.000 C 
BRANCH   4   5
ATOM      5  C   UNL     1     120.143 175.626 124.989  1.00  0.00     0.000 C 
BRANCH   5   6
ATOM      6  C   UNL     1     120.712 174.670 126.055  1.00  0.00     0.006 C 
BRANCH   6   7
ATOM      7  C   UNL     1     119.699 173.644 126.589  1.00  0.00     0.053 C 
BRANCH   7   8
ATOM      8  C   UNL     1     120.076 173.139 127.948  1.00  0.00     0.041 C 
ATOM      9  O   UNL     1     120.080 173.921 128.936  1.00  0.00    -0.550 OA
ATOM     10  O   UNL     1     120.456 171.814 128.118  1.00  0.00    -0.550 OA
ENDBRANCH   7   8
ENDBRANCH   6   7
ENDBRANCH   5   6
ENDBRANCH   4   5
ENDBRANCH   3   4
ENDBRANCH   2   3
ENDBRANCH   1   2
BRANCH   1  11
ATOM     11  C   UNL     1     121.160 177.451 129.000  1.00  0.00     0.000 C 
BRANCH  11  12
ATOM     12  C   UNL     1     119.791 177.939 129.507  1.00  0.00     0.000 C 
BRANCH  12  13
ATOM     13  C   UNL     1     118.597 177.037 129.144  1.00  0.00     0.000 C 
BRANCH  13  14
ATOM     14  C   UNL     1     118.193 177.144 127.664  1.00  0.00     0.000 C 
BRANCH  14  15
ATOM     15  C   UNL     1     118.146 178.597 127.156  1.00  0.00     0.000 C 
BRANCH  15  16
ATOM     16  C   UNL     1     117.649 178.771 125.709  1.00  0.00     0.006 C 
BRANCH  16  17
ATOM     17  C   UNL     1     116.929 177.528 125.169  1.00  0.00     0.053 C 
BRANCH  17  18
ATOM     18  C   UNL     1     115.466 177.796 125.018  1.00  0.00     0.041 C 
ATOM     19  O   UNL     1     114.702 177.724 126.016  1.00  0.00    -0.550 OA
ATOM     20  O   UNL     1     114.952 178.175 123.784  1.00  0.00    -0.550 OA
ENDBRANCH  17  18
ENDBRANCH  16  17
ENDBRANCH  15  16
ENDBRANCH  14  15
ENDBRANCH  13  14
ENDBRANCH  12  13
ENDBRANCH  11  12
ENDBRANCH   1  11
TORSDOF 15
ENDMDL
MODEL 3
REMARK VINA RESULT:    -5.042      1.948      3.053
REMARK INTER + INTRA:         -11.768
REMARK INTER:                  -9.489
REMARK INTRA:                  -2.280
REMARK UNBOUND:                -2.305
REMARK SMILES O=C([O-])CCCCCCCCCCCCCCC(=O)[O-]
REMARK SMILES IDX 10 1 9 2 8 3 7 4 6 5 5 6 4 7 2 8 1 9 3 10 11 11 12 12 13 13
REMARK SMILES IDX 14 14 15 15 16 16 17 17 18 18 19 19 20 20
REMARK H PARENT
REMARK Flexibility Score: inf
ROOT
ATOM      1  C   UNL     1     122.460 177.526 126.277  1.00  0.00     0.000 C 
ENDROOT
BRANCH   1   2
ATOM      2  C   UNL     1     121.960 178.793 126.987  1.00  0.00     0.000 C 
BRANCH   2   3
ATOM      3  C   UNL     1     121.951 178.649 128.518  1.00  0.00     0.000 C 
BRANCH   3   4
ATOM      4  C   UNL     1     121.189 177.404 128.992  1.00  0.00     0.000 C 
BRANCH   4   5
ATOM      5  C   UNL     1     119.682 177.689 129.091  1.00  0.00     0.000 C 
BRANCH   5   6
ATOM      6  C   UNL     1     118.968 176.782 130.111  1.00  0.00     0.006 C 
BRANCH   6   7
ATOM      7  C   UNL     1     117.941 175.820 129.491  1.00  0.00     0.053 C 
BRANCH   7   8
ATOM      8  C   UNL     1     118.600 174.713 128.728  1.00  0.00     0.041 C 
ATOM      9  O   UNL     1     119.636 174.158 129.182  1.00  0.00    -0.550 OA
ATOM     10  O   UNL     1     118.089 174.314 127.500  1.00  0.00    -0.550 OA
ENDBRANCH   7   8
ENDBRANCH   6   7
ENDBRANCH   5   6
ENDBRANCH   4   5
ENDBRANCH   3   4
ENDBRANCH   2   3
ENDBRANCH   1   2
BRANCH   1  11
ATOM     11  C   UNL     1     121.521 177.138 125.124  1.00  0.00     0.000 C 
BRANCH  11  12
ATOM     12  C   UNL     1     120.282 176.355 125.593  1.00  0.00     0.000 C 
BRANCH  12  13
ATOM     13  C   UNL     1     118.931 176.907 125.102  1.00  0.00     0.000 C 
BRANCH  13  14
ATOM     14  C   UNL     1     118.993 178.397 124.729  1.00  0.00     0.000 C 
BRANCH  14  15
ATOM     15  C   UNL     1     118.468 179.319 125.844  1.00  0.00     0.000 C 
BRANCH  15  16
ATOM     16  C   UNL     1     117.279 178.764 126.650  1.00  0.00     0.006 C 
BRANCH  16  17
ATOM     17  C   UNL     1     115.919 179.198 126.088  1.00  0.00     0.053 C 
BRANCH  17  18
ATOM     18  C   UNL     1     115.321 178.103 125.263  1.00  0.00     0.041 C 
ATOM     19  O   UNL     1     115.434 176.902 125.627  1.00  0.00    -0.550 OA
ATOM     20  O   UNL     1     114.596 178.410 124.119  1.00  0.00    -0.550 OA
ENDBRANCH  17  18
ENDBRANCH  16  17
ENDBRANCH  15  16
ENDBRANCH  14  15
ENDBRANCH  13  14
ENDBRANCH  12  13
ENDBRANCH  11  12
ENDBRANCH   1  11
TORSDOF 15
ENDMDL
MODEL 4
REMARK VINA RESULT:    -5.023      1.428      4.299
REMARK INTER + INTRA:         -11.734
REMARK INTER:                  -9.228
REMARK INTRA:                  -2.505
REMARK UNBOUND:                -2.305
REMARK SMILES O=C([O-])CCCCCCCCCCCCCCC(=O)[O-]
REMARK SMILES IDX 10 1 9 2 8 3 7 4 6 5 5 6 4 7 2 8 1 9 3 10 11 11 12 12 13 13
REMARK SMILES IDX 14 14 15 15 16 16 17 17 18 18 19 19 20 20
REMARK H PARENT
REMARK Flexibility Score: inf
ROOT
ATOM      1  C   UNL     1     120.197 176.871 125.828  1.00  0.00     0.000 C 
ENDROOT
BRANCH   1   2
ATOM      2  C   UNL     1     119.961 177.356 124.390  1.00  0.00     0.000 C 
BRANCH   2   3
ATOM      3  C   UNL     1     118.985 178.540 124.315  1.00  0.00     0.000 C 
BRANCH   3   4
ATOM      4  C   UNL     1     118.931 179.346 125.621  1.00  0.00     0.000 C 
BRANCH   4   5
ATOM      5  C   UNL     1     117.505 179.372 126.191  1.00  0.00     0.000 C 
BRANCH   5   6
ATOM      6  C   UNL     1     117.320 178.412 127.382  1.00  0.00     0.006 C 
BRANCH   6   7
ATOM      7  C   UNL     1     116.105 177.478 127.258  1.00  0.00     0.053 C 
BRANCH   7   8
ATOM      8  C   UNL     1     116.141 176.677 125.993  1.00  0.00     0.041 C 
ATOM      9  O   UNL     1     116.882 175.662 125.904  1.00  0.00    -0.550 OA
ATOM     10  O   UNL     1     115.381 177.070 124.899  1.00  0.00    -0.550 OA
ENDBRANCH   7   8
ENDBRANCH   6   7
ENDBRANCH   5   6
ENDBRANCH   4   5
ENDBRANCH   3   4
ENDBRANCH   2   3
ENDBRANCH   1   2
BRANCH   1  11
ATOM     11  C   UNL     1     121.699 176.739 126.123  1.00  0.00     0.000 C 
BRANCH  11  12
ATOM     12  C   UNL     1     122.331 178.046 126.632  1.00  0.00     0.000 C 
BRANCH  12  13
ATOM     13  C   UNL     1     121.644 178.674 127.858  1.00  0.00     0.000 C 
BRANCH  13  14
ATOM     14  C   UNL     1     121.581 177.722 129.063  1.00  0.00     0.000 C 
BRANCH  14  15
ATOM     15  C   UNL     1     120.315 177.914 129.918  1.00  0.00     0.000 C 
BRANCH  15  16
ATOM     16  C   UNL     1     119.342 176.719 129.928  1.00  0.00     0.006 C 
BRANCH  16  17
ATOM     17  C   UNL     1     119.952 175.445 129.330  1.00  0.00     0.053 C 
BRANCH  17  18
ATOM     18  C   UNL     1     118.907 174.655 128.608  1.00  0.00     0.041 C 
ATOM     19  O   UNL     1     119.229 173.911 127.644  1.00  0.00    -0.550 OA
ATOM     20  O   UNL     1     117.585 174.702 129.030  1.00  0.00    -0.550 OA
ENDBRANCH  17  18
ENDBRANCH  16  17
ENDBRANCH  15  16
ENDBRANCH  14  15
ENDBRANCH  13  14
ENDBRANCH  12  13
ENDBRANCH  11  12
ENDBRANCH   1  11
TORSDOF 15
ENDMDL
MODEL 5
REMARK VINA RESULT:    -4.999      1.572      4.189
REMARK INTER + INTRA:         -11.687
REMARK INTER:                  -9.446
REMARK INTRA:                  -2.241
REMARK UNBOUND:                -2.305
REMARK SMILES O=C([O-])CCCCCCCCCCCCCCC(=O)[O-]
REMARK SMILES IDX 10 1 9 2 8 3 7 4 6 5 5 6 4 7 2 8 1 9 3 10 11 11 12 12 13 13
REMARK SMILES IDX 14 14 15 15 16 16 17 17 18 18 19 19 20 20
REMARK H PARENT
REMARK Flexibility Score: inf
ROOT
ATOM      1  C   UNL     1     121.904 176.802 125.864  1.00  0.00     0.000 C 
ENDROOT
BRANCH   1   2
ATOM      2  C   UNL     1     121.083 176.859 124.567  1.00  0.00     0.000 C 
BRANCH   2   3
ATOM      3  C   UNL     1     119.581 177.053 124.825  1.00  0.00     0.000 C 
BRANCH   3   4
ATOM      4  C   UNL     1     119.078 178.437 124.387  1.00  0.00     0.000 C 
BRANCH   4   5
ATOM      5  C   UNL     1     118.830 179.340 125.605  1.00  0.00     0.000 C 
BRANCH   5   6
ATOM      6  C   UNL     1     118.092 178.615 126.746  1.00  0.00     0.006 C 
BRANCH   6   7
ATOM      7  C   UNL     1     116.610 179.000 126.885  1.00  0.00     0.053 C 
BRANCH   7   8
ATOM      8  C   UNL     1     115.700 177.868 126.518  1.00  0.00     0.041 C 
ATOM      9  O   UNL     1     114.459 177.964 126.708  1.00  0.00    -0.550 OA
ATOM     10  O   UNL     1     116.227 176.693 125.997  1.00  0.00    -0.550 OA
ENDBRANCH   7   8
ENDBRANCH   6   7
ENDBRANCH   5   6
ENDBRANCH   4   5
ENDBRANCH   3   4
ENDBRANCH   2   3
ENDBRANCH   1   2
BRANCH   1  11
ATOM     11  C   UNL     1     122.353 178.207 126.292  1.00  0.00     0.000 C 
BRANCH  11  12
ATOM     12  C   UNL     1     122.050 178.512 127.770  1.00  0.00     0.000 C 
BRANCH  12  13
ATOM     13  C   UNL     1     121.099 177.521 128.465  1.00  0.00     0.000 C 
BRANCH  13  14
ATOM     14  C   UNL     1     120.916 177.815 129.962  1.00  0.00     0.000 C 
BRANCH  14  15
ATOM     15  C   UNL     1     119.451 177.705 130.424  1.00  0.00     0.000 C 
BRANCH  15  16
ATOM     16  C   UNL     1     118.878 176.275 130.454  1.00  0.00     0.006 C 
BRANCH  16  17
ATOM     17  C   UNL     1     117.728 176.069 129.459  1.00  0.00     0.053 C 
BRANCH  17  18
ATOM     18  C   UNL     1     117.974 174.854 128.622  1.00  0.00     0.041 C 
ATOM     19  O   UNL     1     117.418 173.762 128.912  1.00  0.00    -0.550 OA
ATOM     20  O   UNL     1     118.776 174.939 127.492  1.00  0.00    -0.550 OA
ENDBRANCH  17  18
ENDBRANCH  16  17
ENDBRANCH  15  16
ENDBRANCH  14  15
ENDBRANCH  13  14
ENDBRANCH  12  13
ENDBRANCH  11  12
ENDBRANCH   1  11
TORSDOF 15
ENDMDL
MODEL 6
REMARK VINA RESULT:    -4.980      1.951      3.795
REMARK INTER + INTRA:         -11.652
REMARK INTER:                  -9.224
REMARK INTRA:                  -2.428
REMARK UNBOUND:                -2.305
REMARK SMILES O=C([O-])CCCCCCCCCCCCCCC(=O)[O-]
REMARK SMILES IDX 10 1 9 2 8 3 7 4 6 5 5 6 4 7 2 8 1 9 3 10 11 11 12 12 13 13
REMARK SMILES IDX 14 14 15 15 16 16 17 17 18 18 19 19 20 20
REMARK H PARENT
REMARK Flexibility Score: inf
ROOT
ATOM      1  C   UNL     1     122.368 177.304 126.145  1.00  0.00     0.000 C 
ENDROOT
BRANCH   1   2
ATOM      2  C   UNL     1     121.384 177.305 124.966  1.00  0.00     0.000 C 
BRANCH   2   3
ATOM      3  C   UNL     1     120.876 175.898 124.616  1.00  0.00     0.000 C 
BRANCH   3   4
ATOM      4  C   UNL     1     121.171 174.870 125.719  1.00  0.00     0.000 C 
BRANCH   4   5
ATOM      5  C   UNL     1     119.914 174.056 126.059  1.00  0.00     0.000 C 
BRANCH   5   6
ATOM      6  C   UNL     1     118.658 174.934 126.216  1.00  0.00     0.006 C 
BRANCH   6   7
ATOM      7  C   UNL     1     117.475 174.228 126.899  1.00  0.00     0.053 C 
BRANCH   7   8
ATOM      8  C   UNL     1     117.856 173.654 128.228  1.00  0.00     0.041 C 
ATOM      9  O   UNL     1     118.251 174.410 129.156  1.00  0.00    -0.550 OA
ATOM     10  O   UNL     1     117.807 172.282 128.434  1.00  0.00    -0.550 OA
ENDBRANCH   7   8
ENDBRANCH   6   7
ENDBRANCH   5   6
ENDBRANCH   4   5
ENDBRANCH   3   4
ENDBRANCH   2   3
ENDBRANCH   1   2
BRANCH   1  11
ATOM     11  C   UNL     1     122.178 178.553 127.019  1.00  0.00     0.000 C 
BRANCH  11  12
ATOM     12  C   UNL     1     121.710 178.223 128.448  1.00  0.00     0.000 C 
BRANCH  12  13
ATOM     13  C   UNL     1     120.549 177.217 128.544  1.00  0.00     0.000 C 
BRANCH  13  14
ATOM     14  C   UNL     1     119.269 177.833 129.132  1.00  0.00     0.000 C 
BRANCH  14  15
ATOM     15  C   UNL     1     118.138 177.975 128.096  1.00  0.00     0.000 C 
BRANCH  15  16
ATOM     16  C   UNL     1     118.557 178.588 126.747  1.00  0.00     0.006 C 
BRANCH  16  17
ATOM     17  C   UNL     1     117.361 179.017 125.887  1.00  0.00     0.053 C 
BRANCH  17  18
ATOM     18  C   UNL     1     117.003 177.939 124.914  1.00  0.00     0.041 C 
ATOM     19  O   UNL     1     116.091 177.114 125.189  1.00  0.00    -0.550 OA
ATOM     20  O   UNL     1     117.642 177.874 123.682  1.00  0.00    -0.550 OA
ENDBRANCH  17  18
ENDBRANCH  16  17
ENDBRANCH  15  16
ENDBRANCH  14  15
ENDBRANCH  13  14
ENDBRANCH  12  13
ENDBRANCH  11  12
ENDBRANCH   1  11
TORSDOF 15
ENDMDL
MODEL 7
REMARK VINA RESULT:    -4.960      2.556      5.808
REMARK INTER + INTRA:         -11.615
REMARK INTER:                  -9.440
REMARK INTRA:                  -2.174
REMARK UNBOUND:                -2.305
REMARK SMILES O=C([O-])CCCCCCCCCCCCCCC(=O)[O-]
REMARK SMILES IDX 10 1 9 2 8 3 7 4 6 5 5 6 4 7 2 8 1 9 3 10 11 11 12 12 13 13
REMARK SMILES IDX 14 14 15 15 16 16 17 17 18 18 19 19 20 20
REMARK H PARENT
REMARK Flexibility Score: inf
ROOT
ATOM      1  C   UNL     1     116.918 174.971 126.573  1.00  0.00     0.000 C 
ENDROOT
BRANCH   1   2
ATOM      2  C   UNL     1     116.017 176.044 125.943  1.00  0.00     0.000 C 
BRANCH   2   3
ATOM      3  C   UNL     1     115.464 177.036 126.979  1.00  0.00     0.000 C 
BRANCH   3   4
ATOM      4  C   UNL     1     115.732 178.499 126.599  1.00  0.00     0.000 C 
BRANCH   4   5
ATOM      5  C   UNL     1     117.118 178.946 127.088  1.00  0.00     0.000 C 
BRANCH   5   6
ATOM      6  C   UNL     1     118.034 179.414 125.941  1.00  0.00     0.006 C 
BRANCH   6   7
ATOM      7  C   UNL     1     118.943 178.314 125.369  1.00  0.00     0.053 C 
BRANCH   7   8
ATOM      8  C   UNL     1     118.740 178.129 123.897  1.00  0.00     0.041 C 
ATOM      9  O   UNL     1     119.719 178.205 123.107  1.00  0.00    -0.550 OA
ATOM     10  O   UNL     1     117.466 177.905 123.392  1.00  0.00    -0.550 OA
ENDBRANCH   7   8
ENDBRANCH   6   7
ENDBRANCH   5   6
ENDBRANCH   4   5
ENDBRANCH   3   4
ENDBRANCH   2   3
ENDBRANCH   1   2
BRANCH   1  11
ATOM     11  C   UNL     1     117.098 175.220 128.078  1.00  0.00     0.000 C 
BRANCH  11  12
ATOM     12  C   UNL     1     118.493 175.764 128.437  1.00  0.00     0.000 C 
BRANCH  12  13
ATOM     13  C   UNL     1     118.687 176.151 129.914  1.00  0.00     0.000 C 
BRANCH  13  14
ATOM     14  C   UNL     1     119.808 177.183 130.121  1.00  0.00     0.000 C 
BRANCH  14  15
ATOM     15  C   UNL     1     120.208 177.907 128.822  1.00  0.00     0.000 C 
BRANCH  15  16
ATOM     16  C   UNL     1     121.719 177.939 128.527  1.00  0.00     0.006 C 
BRANCH  16  17
ATOM     17  C   UNL     1     122.047 178.515 127.143  1.00  0.00     0.053 C 
BRANCH  17  18
ATOM     18  C   UNL     1     122.445 177.422 126.203  1.00  0.00     0.041 C 
ATOM     19  O   UNL     1     123.552 177.473 125.605  1.00  0.00    -0.550 OA
ATOM     20  O   UNL     1     121.616 176.322 126.025  1.00  0.00    -0.550 OA
ENDBRANCH  17  18
ENDBRANCH  16  17
ENDBRANCH  15  16
ENDBRANCH  14  15
ENDBRANCH  13  14
ENDBRANCH  12  13
ENDBRANCH  11  12
ENDBRANCH   1  11
TORSDOF 15
ENDMDL
MODEL 8
REMARK VINA RESULT:    -4.960      2.299      5.180
REMARK INTER + INTRA:         -11.614
REMARK INTER:                  -9.289
REMARK INTRA:                  -2.325
REMARK UNBOUND:                -2.305
REMARK SMILES O=C([O-])CCCCCCCCCCCCCCC(=O)[O-]
REMARK SMILES IDX 10 1 9 2 8 3 7 4 6 5 5 6 4 7 2 8 1 9 3 10 11 11 12 12 13 13
REMARK SMILES IDX 14 14 15 15 16 16 17 17 18 18 19 19 20 20
REMARK H PARENT
REMARK Flexibility Score: inf
ROOT
ATOM      1  C   UNL     1     121.897 178.107 128.754  1.00  0.00     0.000 C 
ENDROOT
BRANCH   1   2
ATOM      2  C   UNL     1     120.717 177.125 128.773  1.00  0.00     0.000 C 
BRANCH   2   3
ATOM      3  C   UNL     1     119.365 177.826 128.980  1.00  0.00     0.000 C 
BRANCH   3   4
ATOM      4  C   UNL     1     118.345 177.483 127.885  1.00  0.00     0.000 C 
BRANCH   4   5
ATOM      5  C   UNL     1     117.848 178.755 127.181  1.00  0.00     0.000 C 
BRANCH   5   6
ATOM      6  C   UNL     1     117.868 178.635 125.646  1.00  0.00     0.006 C 
BRANCH   6   7
ATOM      7  C   UNL     1     117.107 177.417 125.097  1.00  0.00     0.053 C 
BRANCH   7   8
ATOM      8  C   UNL     1     115.690 177.753 124.746  1.00  0.00     0.041 C 
ATOM      9  O   UNL     1     114.829 177.901 125.653  1.00  0.00    -0.550 OA
ATOM     10  O   UNL     1     115.312 177.872 123.415  1.00  0.00    -0.550 OA
ENDBRANCH   7   8
ENDBRANCH   6   7
ENDBRANCH   5   6
ENDBRANCH   4   5
ENDBRANCH   3   4
ENDBRANCH   2   3
ENDBRANCH   1   2
BRANCH   1  11
ATOM     11  C   UNL     1     121.896 178.942 127.465  1.00  0.00     0.000 C 
BRANCH  11  12
ATOM     12  C   UNL     1     121.580 178.110 126.208  1.00  0.00     0.000 C 
BRANCH  12  13
ATOM     13  C   UNL     1     122.732 177.225 125.699  1.00  0.00     0.000 C 
BRANCH  13  14
ATOM     14  C   UNL     1     122.253 175.858 125.183  1.00  0.00     0.000 C 
BRANCH  14  15
ATOM     15  C   UNL     1     120.763 175.848 124.795  1.00  0.00     0.000 C 
BRANCH  15  16
ATOM     16  C   UNL     1     119.889 174.845 125.570  1.00  0.00     0.006 C 
BRANCH  16  17
ATOM     17  C   UNL     1     120.665 174.086 126.654  1.00  0.00     0.053 C 
BRANCH  17  18
ATOM     18  C   UNL     1     119.720 173.404 127.592  1.00  0.00     0.041 C 
ATOM     19  O   UNL     1     118.713 172.794 127.145  1.00  0.00    -0.550 OA
ATOM     20  O   UNL     1     119.979 173.399 128.957  1.00  0.00    -0.550 OA
ENDBRANCH  17  18
ENDBRANCH  16  17
ENDBRANCH  15  16
ENDBRANCH  14  15
ENDBRANCH  13  14
ENDBRANCH  12  13
ENDBRANCH  11  12
ENDBRANCH   1  11
TORSDOF 15
ENDMDL
MODEL 9
REMARK VINA RESULT:    -4.956      1.763      3.672
REMARK INTER + INTRA:         -11.607
REMARK INTER:                  -9.401
REMARK INTRA:                  -2.206
REMARK UNBOUND:                -2.305
REMARK SMILES O=C([O-])CCCCCCCCCCCCCCC(=O)[O-]
REMARK SMILES IDX 10 1 9 2 8 3 7 4 6 5 5 6 4 7 2 8 1 9 3 10 11 11 12 12 13 13
REMARK SMILES IDX 14 14 15 15 16 16 17 17 18 18 19 19 20 20
REMARK H PARENT
REMARK Flexibility Score: inf
ROOT
ATOM      1  C   UNL     1     121.742 178.626 127.170  1.00  0.00     0.000 C 
ENDROOT
BRANCH   1   2
ATOM      2  C   UNL     1     121.941 178.210 128.635  1.00  0.00     0.000 C 
BRANCH   2   3
ATOM      3  C   UNL     1     120.621 177.839 129.331  1.00  0.00     0.000 C 
BRANCH   3   4
ATOM      4  C   UNL     1     120.836 177.006 130.603  1.00  0.00     0.000 C 
BRANCH   4   5
ATOM      5  C   UNL     1     119.548 176.268 130.997  1.00  0.00     0.000 C 
BRANCH   5   6
ATOM      6  C   UNL     1     118.472 176.313 129.895  1.00  0.00     0.006 C 
BRANCH   6   7
ATOM      7  C   UNL     1     118.109 174.938 129.309  1.00  0.00     0.053 C 
BRANCH   7   8
ATOM      8  C   UNL     1     118.861 174.651 128.047  1.00  0.00     0.041 C 
ATOM      9  O   UNL     1     120.091 174.378 128.088  1.00  0.00    -0.550 OA
ATOM     10  O   UNL     1     118.214 174.716 126.820  1.00  0.00    -0.550 OA
ENDBRANCH   7   8
ENDBRANCH   6   7
ENDBRANCH   5   6
ENDBRANCH   4   5
ENDBRANCH   3   4
ENDBRANCH   2   3
ENDBRANCH   1   2
BRANCH   1  11
ATOM     11  C   UNL     1     122.434 177.637 126.220  1.00  0.00     0.000 C 
BRANCH  11  12
ATOM     12  C   UNL     1     121.490 176.538 125.702  1.00  0.00     0.000 C 
BRANCH  12  13
ATOM     13  C   UNL     1     120.792 176.848 124.365  1.00  0.00     0.000 C 
BRANCH  13  14
ATOM     14  C   UNL     1     119.296 177.165 124.530  1.00  0.00     0.000 C 
BRANCH  14  15
ATOM     15  C   UNL     1     118.985 178.670 124.437  1.00  0.00     0.000 C 
BRANCH  15  16
ATOM     16  C   UNL     1     118.484 179.318 125.741  1.00  0.00     0.006 C 
BRANCH  16  17
ATOM     17  C   UNL     1     118.023 178.291 126.783  1.00  0.00     0.053 C 
BRANCH  17  18
ATOM     18  C   UNL     1     116.530 178.264 126.865  1.00  0.00     0.041 C 
ATOM     19  O   UNL     1     115.949 177.374 127.540  1.00  0.00    -0.550 OA
ATOM     20  O   UNL     1     115.782 179.252 126.238  1.00  0.00    -0.550 OA
ENDBRANCH  17  18
ENDBRANCH  16  17
ENDBRANCH  15  16
ENDBRANCH  14  15
ENDBRANCH  13  14
ENDBRANCH  12  13
ENDBRANCH  11  12
ENDBRANCH   1  11
TORSDOF 15
ENDMDL
