MODEL 1
REMARK VINA RESULT:    -6.413      0.000      0.000
REMARK INTER + INTRA:          -7.672
REMARK INTER:                  -7.537
REMARK INTRA:                  -0.134
REMARK UNBOUND:                -0.134
REMARK SMILES O=C([O-])C=Cc1ccc(O)c(O)c1
REMARK SMILES IDX 6 1 13 2 7 3 11 4 8 5 9 6 5 7 4 8 2 9 1 10 3 11 12 12 10 14
REMARK H PARENT 12 13 10 15
REMARK Flexibility Score: inf
ROOT
ATOM      1  C   UNL     1      15.938  26.229   0.302  1.00  0.00    -0.022 A 
ATOM      2  C   UNL     1      15.748  27.111  -0.777  1.00  0.00     0.058 A 
ATOM      3  C   UNL     1      16.223  26.763   1.573  1.00  0.00     0.012 A 
ATOM      4  C   UNL     1      15.814  28.499  -0.589  1.00  0.00     0.157 A 
ATOM      5  C   UNL     1      16.289  28.146   1.761  1.00  0.00     0.051 A 
ATOM      6  C   UNL     1      16.083  29.018   0.687  1.00  0.00     0.157 A 
ENDROOT
BRANCH   1   7
ATOM      7  C   UNL     1      15.868  24.768   0.046  1.00  0.00     0.010 C 
ATOM      8  C   UNL     1      15.393  23.881   0.929  1.00  0.00     0.025 C 
BRANCH   8   9
ATOM      9  C   UNL     1      15.331  22.441   0.628  1.00  0.00     0.064 C 
ATOM     10  O   UNL     1      16.341  21.720   0.837  1.00  0.00    -0.545 OA
ATOM     11  O   UNL     1      14.176  21.864   0.113  1.00  0.00    -0.545 OA
ENDBRANCH   8   9
ENDBRANCH   1   7
BRANCH   4  12
ATOM     12  O   UNL     1      15.614  29.362  -1.665  1.00  0.00    -0.504 OA
ATOM     13  H   UNL     1      14.708  29.455  -2.110  1.00  0.00     0.293 HD
ENDBRANCH   4  12
BRANCH   6  14
ATOM     14  O   UNL     1      16.154  30.393   0.908  1.00  0.00    -0.504 OA
ATOM     15  H   UNL     1      15.677  30.838   1.683  1.00  0.00     0.293 HD
ENDBRANCH   6  14
TORSDOF 4
ENDMDL
MODEL 2
REMARK VINA RESULT:    -6.411      2.320      5.546
REMARK INTER + INTRA:          -7.670
REMARK INTER:                  -7.541
REMARK INTRA:                  -0.129
REMARK UNBOUND:                -0.134
REMARK SMILES O=C([O-])C=Cc1ccc(O)c(O)c1
REMARK SMILES IDX 6 1 13 2 7 3 11 4 8 5 9 6 5 7 4 8 2 9 1 10 3 11 12 12 10 14
REMARK H PARENT 12 13 10 15
REMARK Flexibility Score: inf
ROOT
ATOM      1  C   UNL     1      16.592  26.777   1.244  1.00  0.00    -0.022 A 
ATOM      2  C   UNL     1      15.637  27.073   0.256  1.00  0.00     0.058 A 
ATOM      3  C   UNL     1      16.619  25.481   1.795  1.00  0.00     0.012 A 
ATOM      4  C   UNL     1      14.744  26.092  -0.197  1.00  0.00     0.157 A 
ATOM      5  C   UNL     1      15.729  24.502   1.344  1.00  0.00     0.051 A 
ATOM      6  C   UNL     1      14.793  24.799   0.349  1.00  0.00     0.157 A 
ENDROOT
BRANCH   1   7
ATOM      7  C   UNL     1      17.507  27.855   1.695  1.00  0.00     0.010 C 
ATOM      8  C   UNL     1      18.430  28.424   0.909  1.00  0.00     0.025 C 
BRANCH   8   9
ATOM      9  C   UNL     1      19.309  29.499   1.396  1.00  0.00     0.064 C 
ATOM     10  O   UNL     1      19.362  29.748   2.629  1.00  0.00    -0.545 OA
ATOM     11  O   UNL     1      20.082  30.248   0.516  1.00  0.00    -0.545 OA
ENDBRANCH   8   9
ENDBRANCH   1   7
BRANCH   4  12
ATOM     12  O   UNL     1      13.810  26.397  -1.185  1.00  0.00    -0.504 OA
ATOM     13  H   UNL     1      13.451  27.337  -1.305  1.00  0.00     0.293 HD
ENDBRANCH   4  12
BRANCH   6  14
ATOM     14  O   UNL     1      13.919  23.801  -0.079  1.00  0.00    -0.504 OA
ATOM     15  H   UNL     1      13.533  23.115   0.559  1.00  0.00     0.293 HD
ENDBRANCH   6  14
TORSDOF 4
ENDMDL
MODEL 3
REMARK VINA RESULT:    -6.315      2.596      6.317
REMARK INTER + INTRA:          -7.557
REMARK INTER:                  -7.421
REMARK INTRA:                  -0.136
REMARK UNBOUND:                -0.134
REMARK SMILES O=C([O-])C=Cc1ccc(O)c(O)c1
REMARK SMILES IDX 6 1 13 2 7 3 11 4 8 5 9 6 5 7 4 8 2 9 1 10 3 11 12 12 10 14
REMARK H PARENT 12 13 10 15
REMARK Flexibility Score: inf
ROOT
ATOM      1  C   UNL     1      18.105  26.603   0.467  1.00  0.00    -0.022 A 
ATOM      2  C   UNL     1      18.463  25.877  -0.683  1.00  0.00     0.058 A 
ATOM      3  C   UNL     1      17.639  25.900   1.595  1.00  0.00     0.012 A 
ATOM      4  C   UNL     1      18.387  24.477  -0.700  1.00  0.00     0.157 A 
ATOM      5  C   UNL     1      17.562  24.505   1.578  1.00  0.00     0.051 A 
ATOM      6  C   UNL     1      17.936  23.788   0.437  1.00  0.00     0.157 A 
ENDROOT
BRANCH   1   7
ATOM      7  C   UNL     1      18.195  28.083   0.429  1.00  0.00     0.010 C 
ATOM      8  C   UNL     1      18.414  28.843   1.510  1.00  0.00     0.025 C 
BRANCH   8   9
ATOM      9  C   UNL     1      18.508  30.309   1.423  1.00  0.00     0.064 C 
ATOM     10  O   UNL     1      17.474  31.008   1.584  1.00  0.00    -0.545 OA
ATOM     11  O   UNL     1      19.722  30.937   1.165  1.00  0.00    -0.545 OA
ENDBRANCH   8   9
ENDBRANCH   1   7
BRANCH   4  12
ATOM     12  O   UNL     1      18.755  23.769  -1.844  1.00  0.00    -0.504 OA
ATOM     13  H   UNL     1      18.369  22.856  -2.050  1.00  0.00     0.293 HD
ENDBRANCH   4  12
BRANCH   6  14
ATOM     14  O   UNL     1      17.848  22.397   0.452  1.00  0.00    -0.504 OA
ATOM     15  H   UNL     1      17.608  21.883   1.292  1.00  0.00     0.293 HD
ENDBRANCH   6  14
TORSDOF 4
ENDMDL
MODEL 4
REMARK VINA RESULT:    -6.147      2.708      2.809
REMARK INTER + INTRA:          -7.359
REMARK INTER:                  -7.230
REMARK INTRA:                  -0.129
REMARK UNBOUND:                -0.134
REMARK SMILES O=C([O-])C=Cc1ccc(O)c(O)c1
REMARK SMILES IDX 6 1 13 2 7 3 11 4 8 5 9 6 5 7 4 8 2 9 1 10 3 11 12 12 10 14
REMARK H PARENT 12 13 10 15
REMARK Flexibility Score: inf
ROOT
ATOM      1  C   UNL     1      17.448  25.975   0.867  1.00  0.00    -0.022 A 
ATOM      2  C   UNL     1      18.468  25.782  -0.080  1.00  0.00     0.058 A 
ATOM      3  C   UNL     1      17.372  27.209   1.541  1.00  0.00     0.012 A 
ATOM      4  C   UNL     1      19.380  26.807  -0.372  1.00  0.00     0.157 A 
ATOM      5  C   UNL     1      18.280  28.231   1.251  1.00  0.00     0.051 A 
ATOM      6  C   UNL     1      19.283  28.038   0.296  1.00  0.00     0.157 A 
ENDROOT
BRANCH   1   7
ATOM      7  C   UNL     1      16.516  24.854   1.146  1.00  0.00     0.010 C 
ATOM      8  C   UNL     1      15.702  24.317   0.228  1.00  0.00     0.025 C 
BRANCH   8   9
ATOM      9  C   UNL     1      14.802  23.198   0.546  1.00  0.00     0.064 C 
ATOM     10  O   UNL     1      14.782  22.730   1.715  1.00  0.00    -0.545 OA
ATOM     11  O   UNL     1      13.972  22.645  -0.423  1.00  0.00    -0.545 OA
ENDBRANCH   8   9
ENDBRANCH   1   7
BRANCH   4  12
ATOM     12  O   UNL     1      20.381  26.605  -1.322  1.00  0.00    -0.504 OA
ATOM     13  H   UNL     1      21.120  25.928  -1.177  1.00  0.00     0.293 HD
ENDBRANCH   4  12
BRANCH   6  14
ATOM     14  O   UNL     1      20.173  29.077   0.029  1.00  0.00    -0.504 OA
ATOM     15  H   UNL     1      19.889  29.913  -0.469  1.00  0.00     0.293 HD
ENDBRANCH   6  14
TORSDOF 4
ENDMDL
MODEL 5
REMARK VINA RESULT:    -5.908      2.273      6.110
REMARK INTER + INTRA:          -7.079
REMARK INTER:                  -6.948
REMARK INTRA:                  -0.130
REMARK UNBOUND:                -0.134
REMARK SMILES O=C([O-])C=Cc1ccc(O)c(O)c1
REMARK SMILES IDX 6 1 13 2 7 3 11 4 8 5 9 6 5 7 4 8 2 9 1 10 3 11 12 12 10 14
REMARK H PARENT 12 13 10 15
REMARK Flexibility Score: inf
ROOT
ATOM      1  C   UNL     1      17.132  26.322   1.198  1.00  0.00    -0.022 A 
ATOM      2  C   UNL     1      17.927  25.176   1.016  1.00  0.00     0.058 A 
ATOM      3  C   UNL     1      15.742  26.222   0.997  1.00  0.00     0.012 A 
ATOM      4  C   UNL     1      17.347  23.948   0.667  1.00  0.00     0.157 A 
ATOM      5  C   UNL     1      15.163  24.999   0.648  1.00  0.00     0.051 A 
ATOM      6  C   UNL     1      15.958  23.860   0.484  1.00  0.00     0.157 A 
ENDROOT
BRANCH   1   7
ATOM      7  C   UNL     1      17.798  27.598   1.558  1.00  0.00     0.010 C 
ATOM      8  C   UNL     1      18.748  28.178   0.813  1.00  0.00     0.025 C 
BRANCH   8   9
ATOM      9  C   UNL     1      19.372  29.452   1.204  1.00  0.00     0.064 C 
ATOM     10  O   UNL     1      19.192  29.901   2.366  1.00  0.00    -0.545 OA
ATOM     11  O   UNL     1      20.157  30.171   0.309  1.00  0.00    -0.545 OA
ENDBRANCH   8   9
ENDBRANCH   1   7
BRANCH   4  12
ATOM     12  O   UNL     1      18.146  22.818   0.499  1.00  0.00    -0.504 OA
ATOM     13  H   UNL     1      17.952  22.133  -0.221  1.00  0.00     0.293 HD
ENDBRANCH   4  12
BRANCH   6  14
ATOM     14  O   UNL     1      15.350  22.654   0.137  1.00  0.00    -0.504 OA
ATOM     15  H   UNL     1      14.366  22.597  -0.099  1.00  0.00     0.293 HD
ENDBRANCH   6  14
TORSDOF 4
ENDMDL
MODEL 6
REMARK VINA RESULT:    -5.840     10.286     12.745
REMARK INTER + INTRA:          -6.998
REMARK INTER:                  -6.873
REMARK INTRA:                  -0.125
REMARK UNBOUND:                -0.134
REMARK SMILES O=C([O-])C=Cc1ccc(O)c(O)c1
REMARK SMILES IDX 6 1 13 2 7 3 11 4 8 5 9 6 5 7 4 8 2 9 1 10 3 11 12 12 10 14
REMARK H PARENT 12 13 10 15
REMARK Flexibility Score: inf
ROOT
ATOM      1  C   UNL     1      22.670  35.289   4.558  1.00  0.00    -0.022 A 
ATOM      2  C   UNL     1      23.282  34.102   4.998  1.00  0.00     0.058 A 
ATOM      3  C   UNL     1      22.931  36.485   5.254  1.00  0.00     0.012 A 
ATOM      4  C   UNL     1      24.159  34.110   6.093  1.00  0.00     0.157 A 
ATOM      5  C   UNL     1      23.804  36.494   6.345  1.00  0.00     0.051 A 
ATOM      6  C   UNL     1      24.422  35.312   6.767  1.00  0.00     0.157 A 
ENDROOT
BRANCH   1   7
ATOM      7  C   UNL     1      21.743  35.224   3.401  1.00  0.00     0.010 C 
ATOM      8  C   UNL     1      22.119  34.870   2.165  1.00  0.00     0.025 C 
BRANCH   8   9
ATOM      9  C   UNL     1      21.162  34.808   1.049  1.00  0.00     0.064 C 
ATOM     10  O   UNL     1      20.431  33.792   0.915  1.00  0.00    -0.545 OA
ATOM     11  O   UNL     1      21.052  35.853   0.139  1.00  0.00    -0.545 OA
ENDBRANCH   8   9
ENDBRANCH   1   7
BRANCH   4  12
ATOM     12  O   UNL     1      24.767  32.927   6.512  1.00  0.00    -0.504 OA
ATOM     13  H   UNL     1      24.238  32.190   6.964  1.00  0.00     0.293 HD
ENDBRANCH   4  12
BRANCH   6  14
ATOM     14  O   UNL     1      25.288  35.354   7.859  1.00  0.00    -0.504 OA
ATOM     15  H   UNL     1      26.221  34.959   7.820  1.00  0.00     0.293 HD
ENDBRANCH   6  14
TORSDOF 4
ENDMDL
MODEL 7
REMARK VINA RESULT:    -5.741      2.465      2.901
REMARK INTER + INTRA:          -6.882
REMARK INTER:                  -6.751
REMARK INTRA:                  -0.131
REMARK UNBOUND:                -0.134
REMARK SMILES O=C([O-])C=Cc1ccc(O)c(O)c1
REMARK SMILES IDX 6 1 13 2 7 3 11 4 8 5 9 6 5 7 4 8 2 9 1 10 3 11 12 12 10 14
REMARK H PARENT 12 13 10 15
REMARK Flexibility Score: inf
ROOT
ATOM      1  C   UNL     1      17.694  26.067   0.623  1.00  0.00    -0.022 A 
ATOM      2  C   UNL     1      17.541  27.292   1.296  1.00  0.00     0.058 A 
ATOM      3  C   UNL     1      18.720  25.942  -0.333  1.00  0.00     0.012 A 
ATOM      4  C   UNL     1      18.410  28.363   1.043  1.00  0.00     0.157 A 
ATOM      5  C   UNL     1      19.586  27.009  -0.586  1.00  0.00     0.051 A 
ATOM      6  C   UNL     1      19.438  28.219   0.099  1.00  0.00     0.157 A 
ENDROOT
BRANCH   1   7
ATOM      7  C   UNL     1      16.741  24.969   0.920  1.00  0.00     0.010 C 
ATOM      8  C   UNL     1      15.763  24.587   0.089  1.00  0.00     0.025 C 
BRANCH   8   9
ATOM      9  C   UNL     1      14.848  23.483   0.421  1.00  0.00     0.064 C 
ATOM     10  O   UNL     1      14.809  23.042   1.599  1.00  0.00    -0.545 OA
ATOM     11  O   UNL     1      14.025  22.917  -0.546  1.00  0.00    -0.545 OA
ENDBRANCH   8   9
ENDBRANCH   1   7
BRANCH   4  12
ATOM     12  O   UNL     1      18.252  29.569   1.726  1.00  0.00    -0.504 OA
ATOM     13  H   UNL     1      18.706  29.738   2.616  1.00  0.00     0.293 HD
ENDBRANCH   4  12
BRANCH   6  14
ATOM     14  O   UNL     1      20.319  29.265  -0.175  1.00  0.00    -0.504 OA
ATOM     15  H   UNL     1      20.884  29.696   0.547  1.00  0.00     0.293 HD
ENDBRANCH   6  14
TORSDOF 4
ENDMDL
MODEL 8
REMARK VINA RESULT:    -5.715      1.287      5.813
REMARK INTER + INTRA:          -6.852
REMARK INTER:                  -6.707
REMARK INTRA:                  -0.145
REMARK UNBOUND:                -0.134
REMARK SMILES O=C([O-])C=Cc1ccc(O)c(O)c1
REMARK SMILES IDX 6 1 13 2 7 3 11 4 8 5 9 6 5 7 4 8 2 9 1 10 3 11 12 12 10 14
REMARK H PARENT 12 13 10 15
REMARK Flexibility Score: inf
ROOT
ATOM      1  C   UNL     1      15.785  25.632   0.482  1.00  0.00    -0.022 A 
ATOM      2  C   UNL     1      14.722  25.125  -0.286  1.00  0.00     0.058 A 
ATOM      3  C   UNL     1      16.561  24.736   1.243  1.00  0.00     0.012 A 
ATOM      4  C   UNL     1      14.452  23.749  -0.317  1.00  0.00     0.157 A 
ATOM      5  C   UNL     1      16.293  23.365   1.212  1.00  0.00     0.051 A 
ATOM      6  C   UNL     1      15.243  22.866   0.433  1.00  0.00     0.157 A 
ENDROOT
BRANCH   1   7
ATOM      7  C   UNL     1      16.022  27.097   0.488  1.00  0.00     0.010 C 
ATOM      8  C   UNL     1      16.899  27.706   1.297  1.00  0.00     0.025 C 
BRANCH   8   9
ATOM      9  C   UNL     1      17.110  29.162   1.260  1.00  0.00     0.064 C 
ATOM     10  O   UNL     1      16.200  29.910   0.816  1.00  0.00    -0.545 OA
ATOM     11  O   UNL     1      18.299  29.727   1.706  1.00  0.00    -0.545 OA
ENDBRANCH   8   9
ENDBRANCH   1   7
BRANCH   4  12
ATOM     12  O   UNL     1      13.401  23.260  -1.091  1.00  0.00    -0.504 OA
ATOM     13  H   UNL     1      12.738  22.589  -0.721  1.00  0.00     0.293 HD
ENDBRANCH   4  12
BRANCH   6  14
ATOM     14  O   UNL     1      15.001  21.493   0.423  1.00  0.00    -0.504 OA
ATOM     15  H   UNL     1      14.841  20.969   1.276  1.00  0.00     0.293 HD
ENDBRANCH   6  14
TORSDOF 4
ENDMDL
MODEL 9
REMARK VINA RESULT:    -5.705      2.499      6.087
REMARK INTER + INTRA:          -6.840
REMARK INTER:                  -6.707
REMARK INTRA:                  -0.133
REMARK UNBOUND:                -0.134
REMARK SMILES O=C([O-])C=Cc1ccc(O)c(O)c1
REMARK SMILES IDX 6 1 13 2 7 3 11 4 8 5 9 6 5 7 4 8 2 9 1 10 3 11 12 12 10 14
REMARK H PARENT 12 13 10 15
REMARK Flexibility Score: inf
ROOT
ATOM      1  C   UNL     1      16.886  24.422   0.665  1.00  0.00    -0.022 A 
ATOM      2  C   UNL     1      17.197  23.054   0.569  1.00  0.00     0.058 A 
ATOM      3  C   UNL     1      15.533  24.806   0.740  1.00  0.00     0.012 A 
ATOM      4  C   UNL     1      16.183  22.085   0.574  1.00  0.00     0.157 A 
ATOM      5  C   UNL     1      14.522  23.842   0.745  1.00  0.00     0.051 A 
ATOM      6  C   UNL     1      14.839  22.482   0.665  1.00  0.00     0.157 A 
ENDROOT
BRANCH   1   7
ATOM      7  C   UNL     1      17.996  25.406   0.645  1.00  0.00     0.010 C 
ATOM      8  C   UNL     1      18.015  26.490  -0.141  1.00  0.00     0.025 C 
BRANCH   8   9
ATOM      9  C   UNL     1      19.133  27.447  -0.119  1.00  0.00     0.064 C 
ATOM     10  O   UNL     1      19.961  27.456  -1.067  1.00  0.00    -0.545 OA
ATOM     11  O   UNL     1      19.292  28.342   0.933  1.00  0.00    -0.545 OA
ENDBRANCH   8   9
ENDBRANCH   1   7
BRANCH   4  12
ATOM     12  O   UNL     1      16.506  20.732   0.489  1.00  0.00    -0.504 OA
ATOM     13  H   UNL     1      16.091  20.046   1.109  1.00  0.00     0.293 HD
ENDBRANCH   4  12
BRANCH   6  14
ATOM     14  O   UNL     1      13.808  21.544   0.673  1.00  0.00    -0.504 OA
ATOM     15  H   UNL     1      12.899  21.749   1.073  1.00  0.00     0.293 HD
ENDBRANCH   6  14
TORSDOF 4
ENDMDL
