MODEL 1
REMARK VINA RESULT:    -4.142      0.000      0.000
REMARK INTER + INTRA:          -4.521
REMARK INTER:                  -4.506
REMARK INTRA:                  -0.015
REMARK UNBOUND:                -0.015
REMARK SMILES OCc1ccco1
REMARK SMILES IDX 2 1 3 2 5 3 6 4 4 5 7 6 1 7
REMARK H PARENT 1 8
REMARK Flexibility Score: inf
ROOT
ATOM      1  C   UNL     1      32.955  24.239  23.697  1.00  0.00     0.231 C 
ENDROOT
BRANCH   1   2
ATOM      2  C   UNL     1      33.410  23.255  24.726  1.00  0.00     0.129 A 
ATOM      3  C   UNL     1      33.503  21.538  26.093  1.00  0.00     0.042 A 
ATOM      4  C   UNL     1      34.674  22.269  26.131  1.00  0.00     0.195 A 
ATOM      5  C   UNL     1      32.685  22.173  25.184  1.00  0.00     0.048 A 
ATOM      6  O   UNL     1      34.589  23.284  25.302  1.00  0.00    -0.467 OA
ENDBRANCH   1   2
BRANCH   1   7
ATOM      7  O   UNL     1      31.559  24.346  23.717  1.00  0.00    -0.388 OA
ATOM      8  H   UNL     1      31.349  25.300  23.892  1.00  0.00     0.211 HD
ENDBRANCH   1   7
TORSDOF 2
ENDMDL
MODEL 2
REMARK VINA RESULT:    -3.807     17.320     17.682
REMARK INTER + INTRA:          -4.155
REMARK INTER:                  -4.139
REMARK INTRA:                  -0.016
REMARK UNBOUND:                -0.015
REMARK SMILES OCc1ccco1
REMARK SMILES IDX 2 1 3 2 5 3 6 4 4 5 7 6 1 7
REMARK H PARENT 1 8
REMARK Flexibility Score: inf
ROOT
ATOM      1  C   UNL     1      28.904  34.655  37.263  1.00  0.00     0.231 C 
ENDROOT
BRANCH   1   2
ATOM      2  C   UNL     1      29.346  35.709  36.300  1.00  0.00     0.129 A 
ATOM      3  C   UNL     1      30.111  37.580  35.441  1.00  0.00     0.042 A 
ATOM      4  C   UNL     1      29.859  36.646  34.456  1.00  0.00     0.195 A 
ATOM      5  C   UNL     1      29.783  36.975  36.635  1.00  0.00     0.048 A 
ATOM      6  O   UNL     1      29.408  35.540  35.000  1.00  0.00    -0.467 OA
ENDBRANCH   1   2
BRANCH   1   7
ATOM      7  O   UNL     1      27.602  34.240  36.957  1.00  0.00    -0.388 OA
ATOM      8  H   UNL     1      27.587  34.046  35.983  1.00  0.00     0.211 HD
ENDBRANCH   1   7
TORSDOF 2
ENDMDL
MODEL 3
REMARK VINA RESULT:    -3.790      9.131     10.111
REMARK INTER + INTRA:          -4.137
REMARK INTER:                  -4.121
REMARK INTRA:                  -0.016
REMARK UNBOUND:                -0.015
REMARK SMILES OCc1ccco1
REMARK SMILES IDX 2 1 3 2 5 3 6 4 4 5 7 6 1 7
REMARK H PARENT 1 8
REMARK Flexibility Score: inf
ROOT
ATOM      1  C   UNL     1      32.772  23.574  36.196  1.00  0.00     0.231 C 
ENDROOT
BRANCH   1   2
ATOM      2  C   UNL     1      33.764  23.583  35.077  1.00  0.00     0.129 A 
ATOM      3  C   UNL     1      35.616  23.788  33.915  1.00  0.00     0.042 A 
ATOM      4  C   UNL     1      34.591  23.293  33.134  1.00  0.00     0.195 A 
ATOM      5  C   UNL     1      35.084  23.974  35.173  1.00  0.00     0.048 A 
ATOM      6  O   UNL     1      33.500  23.178  33.857  1.00  0.00    -0.467 OA
ENDBRANCH   1   2
BRANCH   1   7
ATOM      7  O   UNL     1      31.665  24.364  35.863  1.00  0.00    -0.388 OA
ATOM      8  H   UNL     1      30.958  24.157  36.527  1.00  0.00     0.211 HD
ENDBRANCH   1   7
TORSDOF 2
ENDMDL
MODEL 4
REMARK VINA RESULT:    -3.789     10.709     11.909
REMARK INTER + INTRA:          -4.136
REMARK INTER:                  -4.122
REMARK INTRA:                  -0.014
REMARK UNBOUND:                -0.015
REMARK SMILES OCc1ccco1
REMARK SMILES IDX 2 1 3 2 5 3 6 4 4 5 7 6 1 7
REMARK H PARENT 1 8
REMARK Flexibility Score: inf
ROOT
ATOM      1  C   UNL     1      22.654  24.536  24.180  1.00  0.00     0.231 C 
ENDROOT
BRANCH   1   2
ATOM      2  C   UNL     1      22.289  24.968  22.796  1.00  0.00     0.129 A 
ATOM      3  C   UNL     1      22.080  25.062  20.612  1.00  0.00     0.042 A 
ATOM      4  C   UNL     1      21.378  26.081  21.223  1.00  0.00     0.195 A 
ATOM      5  C   UNL     1      22.667  24.339  21.628  1.00  0.00     0.048 A 
ATOM      6  O   UNL     1      21.518  25.996  22.526  1.00  0.00    -0.467 OA
ENDBRANCH   1   2
BRANCH   1   7
ATOM      7  O   UNL     1      23.678  25.349  24.682  1.00  0.00    -0.388 OA
ATOM      8  H   UNL     1      23.238  26.089  25.176  1.00  0.00     0.211 HD
ENDBRANCH   1   7
TORSDOF 2
ENDMDL
MODEL 5
REMARK VINA RESULT:    -3.745      8.996      9.949
REMARK INTER + INTRA:          -4.088
REMARK INTER:                  -4.071
REMARK INTRA:                  -0.017
REMARK UNBOUND:                -0.015
REMARK SMILES OCc1ccco1
REMARK SMILES IDX 2 1 3 2 5 3 6 4 4 5 7 6 1 7
REMARK H PARENT 1 8
REMARK Flexibility Score: inf
ROOT
ATOM      1  C   UNL     1      34.951  23.336  33.295  1.00  0.00     0.231 C 
ENDROOT
BRANCH   1   2
ATOM      2  C   UNL     1      34.083  23.508  34.499  1.00  0.00     0.129 A 
ATOM      3  C   UNL     1      33.354  24.020  36.507  1.00  0.00     0.042 A 
ATOM      4  C   UNL     1      32.337  23.513  35.723  1.00  0.00     0.195 A 
ATOM      5  C   UNL     1      34.483  24.021  35.716  1.00  0.00     0.048 A 
ATOM      6  O   UNL     1      32.802  23.220  34.529  1.00  0.00    -0.467 OA
ENDBRANCH   1   2
BRANCH   1   7
ATOM      7  O   UNL     1      34.410  24.034  32.208  1.00  0.00    -0.388 OA
ATOM      8  H   UNL     1      34.498  23.442  31.417  1.00  0.00     0.211 HD
ENDBRANCH   1   7
TORSDOF 2
ENDMDL
MODEL 6
REMARK VINA RESULT:    -3.717     11.423     12.501
REMARK INTER + INTRA:          -4.058
REMARK INTER:                  -4.038
REMARK INTRA:                  -0.020
REMARK UNBOUND:                -0.015
REMARK SMILES OCc1ccco1
REMARK SMILES IDX 2 1 3 2 5 3 6 4 4 5 7 6 1 7
REMARK H PARENT 1 8
REMARK Flexibility Score: inf
ROOT
ATOM      1  C   UNL     1      19.726  26.592  23.894  1.00  0.00     0.231 C 
ENDROOT
BRANCH   1   2
ATOM      2  C   UNL     1      21.013  25.881  23.628  1.00  0.00     0.129 A 
ATOM      3  C   UNL     1      22.765  25.015  22.626  1.00  0.00     0.042 A 
ATOM      4  C   UNL     1      22.846  24.857  23.996  1.00  0.00     0.195 A 
ATOM      5  C   UNL     1      21.582  25.680  22.387  1.00  0.00     0.048 A 
ATOM      6  O   UNL     1      21.788  25.387  24.565  1.00  0.00    -0.467 OA
ENDBRANCH   1   2
BRANCH   1   7
ATOM      7  O   UNL     1      19.806  27.296  25.102  1.00  0.00    -0.388 OA
ATOM      8  H   UNL     1      20.030  26.632  25.804  1.00  0.00     0.211 HD
ENDBRANCH   1   7
TORSDOF 2
ENDMDL
MODEL 7
REMARK VINA RESULT:    -3.649     11.080     11.908
REMARK INTER + INTRA:          -3.984
REMARK INTER:                  -3.968
REMARK INTRA:                  -0.017
REMARK UNBOUND:                -0.015
REMARK SMILES OCc1ccco1
REMARK SMILES IDX 2 1 3 2 5 3 6 4 4 5 7 6 1 7
REMARK H PARENT 1 8
REMARK Flexibility Score: inf
ROOT
ATOM      1  C   UNL     1      32.856  23.510  35.487  1.00  0.00     0.231 C 
ENDROOT
BRANCH   1   2
ATOM      2  C   UNL     1      33.690  24.325  36.422  1.00  0.00     0.129 A 
ATOM      3  C   UNL     1      35.345  25.464  37.310  1.00  0.00     0.042 A 
ATOM      4  C   UNL     1      34.228  25.495  38.120  1.00  0.00     0.195 A 
ATOM      5  C   UNL     1      34.999  24.710  36.210  1.00  0.00     0.048 A 
ATOM      6  O   UNL     1      33.257  24.810  37.562  1.00  0.00    -0.467 OA
ENDBRANCH   1   2
BRANCH   1   7
ATOM      7  O   UNL     1      31.760  24.261  35.044  1.00  0.00    -0.388 OA
ATOM      8  H   UNL     1      31.709  24.137  34.060  1.00  0.00     0.211 HD
ENDBRANCH   1   7
TORSDOF 2
ENDMDL
MODEL 8
REMARK VINA RESULT:    -3.537     17.285     17.557
REMARK INTER + INTRA:          -3.862
REMARK INTER:                  -3.848
REMARK INTRA:                  -0.014
REMARK UNBOUND:                -0.015
REMARK SMILES OCc1ccco1
REMARK SMILES IDX 2 1 3 2 5 3 6 4 4 5 7 6 1 7
REMARK H PARENT 1 8
REMARK Flexibility Score: inf
ROOT
ATOM      1  C   UNL     1      30.227  37.331  33.647  1.00  0.00     0.231 C 
ENDROOT
BRANCH   1   2
ATOM      2  C   UNL     1      29.914  36.749  34.988  1.00  0.00     0.129 A 
ATOM      3  C   UNL     1      29.509  36.518  37.134  1.00  0.00     0.042 A 
ATOM      4  C   UNL     1      29.370  35.316  36.469  1.00  0.00     0.195 A 
ATOM      5  C   UNL     1      29.858  37.446  36.178  1.00  0.00     0.048 A 
ATOM      6  O   UNL     1      29.614  35.487  35.190  1.00  0.00    -0.467 OA
ENDBRANCH   1   2
BRANCH   1   7
ATOM      7  O   UNL     1      29.086  37.940  33.110  1.00  0.00    -0.388 OA
ATOM      8  H   UNL     1      28.547  37.217  32.694  1.00  0.00     0.211 HD
ENDBRANCH   1   7
TORSDOF 2
ENDMDL
MODEL 9
REMARK VINA RESULT:    -3.512     12.171     12.921
REMARK INTER + INTRA:          -3.835
REMARK INTER:                  -3.817
REMARK INTRA:                  -0.018
REMARK UNBOUND:                -0.015
REMARK SMILES OCc1ccco1
REMARK SMILES IDX 2 1 3 2 5 3 6 4 4 5 7 6 1 7
REMARK H PARENT 1 8
REMARK Flexibility Score: inf
ROOT
ATOM      1  C   UNL     1      23.978  19.271  30.654  1.00  0.00     0.231 C 
ENDROOT
BRANCH   1   2
ATOM      2  C   UNL     1      23.142  19.944  31.694  1.00  0.00     0.129 A 
ATOM      3  C   UNL     1      21.782  20.314  33.379  1.00  0.00     0.042 A 
ATOM      4  C   UNL     1      22.301  21.496  32.890  1.00  0.00     0.195 A 
ATOM      5  C   UNL     1      22.326  19.309  32.609  1.00  0.00     0.048 A 
ATOM      6  O   UNL     1      23.112  21.242  31.888  1.00  0.00    -0.467 OA
ENDBRANCH   1   2
BRANCH   1   7
ATOM      7  O   UNL     1      25.284  19.777  30.687  1.00  0.00    -0.388 OA
ATOM      8  H   UNL     1      25.620  19.759  29.753  1.00  0.00     0.211 HD
ENDBRANCH   1   7
TORSDOF 2
ENDMDL
