MODEL 1
REMARK VINA RESULT:    -5.305      0.000      0.000
REMARK INTER + INTRA:          -6.125
REMARK INTER:                  -6.391
REMARK INTRA:                   0.266
REMARK UNBOUND:                 0.266
REMARK SMILES O=c1c(O)c(-c2ccc(O)c(O)c2)oc2cc(O)cc(O)c12
REMARK SMILES IDX 5 1 3 2 2 3 1 4 22 5 20 6 19 7 17 8 16 9 15 10 14 11 6 12
REMARK SMILES IDX 7 13 8 14 9 15 13 16 11 17 10 18 12 20 4 22 21 24 18 26
REMARK H PARENT 10 19 12 21 4 23 21 25 18 27
REMARK Flexibility Score: inf
ROOT
ATOM      1  C   UNL     1       8.180   5.027  50.900  1.00  0.00     0.180 A 
ATOM      2  C   UNL     1       7.556   3.810  51.221  1.00  0.00     0.208 A 
ATOM      3  C   UNL     1       6.154   3.741  51.217  1.00  0.00     0.238 A 
ATOM      4  O   UNL     1       5.603   2.630  51.432  1.00  0.00    -0.285 OA
ATOM      5  C   UNL     1       5.391   4.904  50.947  1.00  0.00     0.111 A 
ATOM      6  C   UNL     1       3.964   4.962  50.961  1.00  0.00     0.134 A 
ATOM      7  C   UNL     1       3.317   6.141  50.574  1.00  0.00     0.093 A 
ATOM      8  C   UNL     1       4.042   7.284  50.238  1.00  0.00     0.123 A 
ATOM      9  C   UNL     1       5.436   7.256  50.274  1.00  0.00     0.094 A 
ATOM     10  C   UNL     1       6.111   6.083  50.618  1.00  0.00     0.146 A 
ATOM     11  O   UNL     1       7.439   6.094  50.620  1.00  0.00    -0.452 OA
ENDROOT
BRANCH   1  12
ATOM     12  C   UNL     1       9.653   5.174  50.869  1.00  0.00     0.025 A 
ATOM     13  C   UNL     1      10.239   6.051  49.945  1.00  0.00     0.016 A 
ATOM     14  C   UNL     1      11.626   6.190  49.885  1.00  0.00     0.051 A 
ATOM     15  C   UNL     1      12.457   5.447  50.732  1.00  0.00     0.157 A 
ATOM     16  C   UNL     1      10.483   4.409  51.705  1.00  0.00     0.062 A 
ATOM     17  C   UNL     1      11.877   4.539  51.650  1.00  0.00     0.158 A 
BRANCH  15  18
ATOM     18  O   UNL     1      13.836   5.637  50.627  1.00  0.00    -0.504 OA
ATOM     19  H   UNL     1      14.503   5.330  51.319  1.00  0.00     0.293 HD
ENDBRANCH  15  18
BRANCH  17  20
ATOM     20  O   UNL     1      12.640   3.749  52.512  1.00  0.00    -0.504 OA
ATOM     21  H   UNL     1      12.252   3.192  53.259  1.00  0.00     0.293 HD
ENDBRANCH  17  20
ENDBRANCH   1  12
BRANCH   2  22
ATOM     22  O   UNL     1       8.325   2.692  51.558  1.00  0.00    -0.502 OA
ATOM     23  H   UNL     1       9.178   2.762  52.098  1.00  0.00     0.293 HD
ENDBRANCH   2  22
BRANCH   6  24
ATOM     24  O   UNL     1       3.142   3.906  51.366  1.00  0.00    -0.507 OA
ATOM     25  H   UNL     1       3.397   2.931  51.338  1.00  0.00     0.293 HD
ENDBRANCH   6  24
BRANCH   8  26
ATOM     26  O   UNL     1       3.364   8.446  49.875  1.00  0.00    -0.508 OA
ATOM     27  H   UNL     1       2.352   8.498  49.897  1.00  0.00     0.293 HD
ENDBRANCH   8  26
TORSDOF 6
ENDMDL
MODEL 2
REMARK VINA RESULT:    -5.195      2.361      4.243
REMARK INTER + INTRA:          -5.992
REMARK INTER:                  -5.802
REMARK INTRA:                  -0.190
REMARK UNBOUND:                 0.266
REMARK SMILES O=c1c(O)c(-c2ccc(O)c(O)c2)oc2cc(O)cc(O)c12
REMARK SMILES IDX 5 1 3 2 2 3 1 4 22 5 20 6 19 7 17 8 16 9 15 10 14 11 6 12
REMARK SMILES IDX 7 13 8 14 9 15 13 16 11 17 10 18 12 20 4 22 21 24 18 26
REMARK H PARENT 10 19 12 21 4 23 21 25 18 27
REMARK Flexibility Score: inf
ROOT
ATOM      1  C   UNL     1       5.248   4.551  50.768  1.00  0.00     0.180 A 
ATOM      2  C   UNL     1       5.034   5.911  50.485  1.00  0.00     0.208 A 
ATOM      3  C   UNL     1       3.717   6.379  50.350  1.00  0.00     0.238 A 
ATOM      4  O   UNL     1       3.530   7.611  50.171  1.00  0.00    -0.285 OA
ATOM      5  C   UNL     1       2.633   5.471  50.442  1.00  0.00     0.111 A 
ATOM      6  C   UNL     1       1.260   5.827  50.276  1.00  0.00     0.134 A 
ATOM      7  C   UNL     1       0.266   4.865  50.495  1.00  0.00     0.093 A 
ATOM      8  C   UNL     1       0.595   3.548  50.810  1.00  0.00     0.123 A 
ATOM      9  C   UNL     1       1.936   3.176  50.921  1.00  0.00     0.094 A 
ATOM     10  C   UNL     1       2.949   4.121  50.746  1.00  0.00     0.146 A 
ATOM     11  O   UNL     1       4.210   3.730  50.881  1.00  0.00    -0.452 OA
ENDROOT
BRANCH   1  12
ATOM     12  C   UNL     1       6.606   3.986  50.940  1.00  0.00     0.025 A 
ATOM     13  C   UNL     1       7.056   2.994  50.058  1.00  0.00     0.016 A 
ATOM     14  C   UNL     1       8.325   2.433  50.213  1.00  0.00     0.051 A 
ATOM     15  C   UNL     1       9.163   2.839  51.258  1.00  0.00     0.157 A 
ATOM     16  C   UNL     1       7.434   4.381  52.004  1.00  0.00     0.062 A 
ATOM     17  C   UNL     1       8.708   3.821  52.170  1.00  0.00     0.158 A 
BRANCH  15  18
ATOM     18  O   UNL     1      10.422   2.244  51.355  1.00  0.00    -0.504 OA
ATOM     19  H   UNL     1      10.889   1.782  50.588  1.00  0.00     0.293 HD
ENDBRANCH  15  18
BRANCH  17  20
ATOM     20  O   UNL     1       9.477   4.261  53.249  1.00  0.00    -0.504 OA
ATOM     21  H   UNL     1       9.390   5.175  53.670  1.00  0.00     0.293 HD
ENDBRANCH  17  20
ENDBRANCH   1  12
BRANCH   2  22
ATOM     22  O   UNL     1       6.120   6.776  50.323  1.00  0.00    -0.502 OA
ATOM     23  H   UNL     1       6.063   7.765  50.530  1.00  0.00     0.293 HD
ENDBRANCH   2  22
BRANCH   6  24
ATOM     24  O   UNL     1       0.821   7.093  49.876  1.00  0.00    -0.507 OA
ATOM     25  H   UNL     1       1.410   7.812  49.486  1.00  0.00     0.293 HD
ENDBRANCH   6  24
BRANCH   8  26
ATOM     26  O   UNL     1      -0.419   2.613  51.003  1.00  0.00    -0.508 OA
ATOM     27  H   UNL     1      -1.350   2.756  50.630  1.00  0.00     0.293 HD
ENDBRANCH   8  26
TORSDOF 6
ENDMDL
MODEL 3
REMARK VINA RESULT:    -5.014      1.001      6.691
REMARK INTER + INTRA:          -5.774
REMARK INTER:                  -6.248
REMARK INTRA:                   0.474
REMARK UNBOUND:                 0.266
REMARK SMILES O=c1c(O)c(-c2ccc(O)c(O)c2)oc2cc(O)cc(O)c12
REMARK SMILES IDX 5 1 3 2 2 3 1 4 22 5 20 6 19 7 17 8 16 9 15 10 14 11 6 12
REMARK SMILES IDX 7 13 8 14 9 15 13 16 11 17 10 18 12 20 4 22 21 24 18 26
REMARK H PARENT 10 19 12 21 4 23 21 25 18 27
REMARK Flexibility Score: inf
ROOT
ATOM      1  C   UNL     1       7.559   5.083  50.958  1.00  0.00     0.180 A 
ATOM      2  C   UNL     1       7.909   3.901  51.633  1.00  0.00     0.208 A 
ATOM      3  C   UNL     1       9.267   3.610  51.838  1.00  0.00     0.238 A 
ATOM      4  O   UNL     1       9.572   2.589  52.508  1.00  0.00    -0.285 OA
ATOM      5  C   UNL     1      10.260   4.476  51.316  1.00  0.00     0.111 A 
ATOM      6  C   UNL     1      11.667   4.256  51.424  1.00  0.00     0.134 A 
ATOM      7  C   UNL     1      12.556   5.235  50.962  1.00  0.00     0.093 A 
ATOM      8  C   UNL     1      12.093   6.393  50.338  1.00  0.00     0.123 A 
ATOM      9  C   UNL     1      10.721   6.592  50.178  1.00  0.00     0.094 A 
ATOM     10  C   UNL     1       9.808   5.653  50.663  1.00  0.00     0.146 A 
ATOM     11  O   UNL     1       8.512   5.891  50.508  1.00  0.00    -0.452 OA
ENDROOT
BRANCH   1  12
ATOM     12  C   UNL     1       6.149   5.465  50.717  1.00  0.00     0.025 A 
ATOM     13  C   UNL     1       5.862   6.694  50.107  1.00  0.00     0.016 A 
ATOM     14  C   UNL     1       4.540   7.083  49.889  1.00  0.00     0.051 A 
ATOM     15  C   UNL     1       3.478   6.263  50.288  1.00  0.00     0.157 A 
ATOM     16  C   UNL     1       5.086   4.648  51.140  1.00  0.00     0.062 A 
ATOM     17  C   UNL     1       3.756   5.032  50.928  1.00  0.00     0.158 A 
BRANCH  15  18
ATOM     18  O   UNL     1       2.179   6.706  50.034  1.00  0.00    -0.504 OA
ATOM     19  H   UNL     1       1.765   7.520  50.466  1.00  0.00     0.293 HD
ENDBRANCH  15  18
BRANCH  17  20
ATOM     20  O   UNL     1       2.750   4.171  51.374  1.00  0.00    -0.504 OA
ATOM     21  H   UNL     1       2.907   3.400  52.007  1.00  0.00     0.293 HD
ENDBRANCH  17  20
ENDBRANCH   1  12
BRANCH   2  22
ATOM     22  O   UNL     1       6.916   3.022  52.074  1.00  0.00    -0.502 OA
ATOM     23  H   UNL     1       6.721   2.870  53.056  1.00  0.00     0.293 HD
ENDBRANCH   2  22
BRANCH   6  24
ATOM     24  O   UNL     1      12.241   3.095  51.949  1.00  0.00    -0.507 OA
ATOM     25  H   UNL     1      13.213   2.840  51.865  1.00  0.00     0.293 HD
ENDBRANCH   6  24
BRANCH   8  26
ATOM     26  O   UNL     1      13.007   7.336  49.875  1.00  0.00    -0.508 OA
ATOM     27  H   UNL     1      13.034   8.277  50.251  1.00  0.00     0.293 HD
ENDBRANCH   8  26
TORSDOF 6
ENDMDL
MODEL 4
REMARK VINA RESULT:    -5.004      1.360      7.329
REMARK INTER + INTRA:          -5.762
REMARK INTER:                  -6.227
REMARK INTRA:                   0.464
REMARK UNBOUND:                 0.266
REMARK SMILES O=c1c(O)c(-c2ccc(O)c(O)c2)oc2cc(O)cc(O)c12
REMARK SMILES IDX 5 1 3 2 2 3 1 4 22 5 20 6 19 7 17 8 16 9 15 10 14 11 6 12
REMARK SMILES IDX 7 13 8 14 9 15 13 16 11 17 10 18 12 20 4 22 21 24 18 26
REMARK H PARENT 10 19 12 21 4 23 21 25 18 27
REMARK Flexibility Score: inf
ROOT
ATOM      1  C   UNL     1       7.464   5.274  50.845  1.00  0.00     0.180 A 
ATOM      2  C   UNL     1       8.155   6.407  50.383  1.00  0.00     0.208 A 
ATOM      3  C   UNL     1       9.557   6.428  50.458  1.00  0.00     0.238 A 
ATOM      4  O   UNL     1      10.173   7.413  49.974  1.00  0.00    -0.285 OA
ATOM      5  C   UNL     1      10.248   5.340  51.046  1.00  0.00     0.111 A 
ATOM      6  C   UNL     1      11.664   5.274  51.217  1.00  0.00     0.134 A 
ATOM      7  C   UNL     1      12.246   4.102  51.715  1.00  0.00     0.093 A 
ATOM      8  C   UNL     1      11.461   3.019  52.109  1.00  0.00     0.123 A 
ATOM      9  C   UNL     1      10.072   3.094  51.999  1.00  0.00     0.094 A 
ATOM     10  C   UNL     1       9.464   4.234  51.470  1.00  0.00     0.146 A 
ATOM     11  O   UNL     1       8.141   4.255  51.363  1.00  0.00    -0.452 OA
ENDROOT
BRANCH   1  12
ATOM     12  C   UNL     1       5.988   5.172  50.786  1.00  0.00     0.025 A 
ATOM     13  C   UNL     1       5.369   3.950  51.086  1.00  0.00     0.016 A 
ATOM     14  C   UNL     1       3.981   3.827  51.016  1.00  0.00     0.051 A 
ATOM     15  C   UNL     1       3.184   4.911  50.632  1.00  0.00     0.157 A 
ATOM     16  C   UNL     1       5.195   6.258  50.378  1.00  0.00     0.062 A 
ATOM     17  C   UNL     1       3.801   6.141  50.302  1.00  0.00     0.158 A 
BRANCH  15  18
ATOM     18  O   UNL     1       1.801   4.724  50.590  1.00  0.00    -0.504 OA
ATOM     19  H   UNL     1       1.344   4.010  50.042  1.00  0.00     0.293 HD
ENDBRANCH  15  18
BRANCH  17  20
ATOM     20  O   UNL     1       3.075   7.261  49.890  1.00  0.00    -0.504 OA
ATOM     21  H   UNL     1       3.396   8.213  49.996  1.00  0.00     0.293 HD
ENDBRANCH  17  20
ENDBRANCH   1  12
BRANCH   2  22
ATOM     22  O   UNL     1       7.451   7.502  49.875  1.00  0.00    -0.502 OA
ATOM     23  H   UNL     1       6.441   7.514  49.802  1.00  0.00     0.293 HD
ENDBRANCH   2  22
BRANCH   6  24
ATOM     24  O   UNL     1      12.537   6.330  50.938  1.00  0.00    -0.507 OA
ATOM     25  H   UNL     1      12.784   6.647  50.013  1.00  0.00     0.293 HD
ENDBRANCH   6  24
BRANCH   8  26
ATOM     26  O   UNL     1      12.073   1.876  52.617  1.00  0.00    -0.508 OA
ATOM     27  H   UNL     1      13.066   1.711  52.503  1.00  0.00     0.293 HD
ENDBRANCH   8  26
TORSDOF 6
ENDMDL
MODEL 5
REMARK VINA RESULT:    -4.627      1.787      7.502
REMARK INTER + INTRA:          -5.308
REMARK INTER:                  -5.800
REMARK INTRA:                   0.492
REMARK UNBOUND:                 0.266
REMARK SMILES O=c1c(O)c(-c2ccc(O)c(O)c2)oc2cc(O)cc(O)c12
REMARK SMILES IDX 5 1 3 2 2 3 1 4 22 5 20 6 19 7 17 8 16 9 15 10 14 11 6 12
REMARK SMILES IDX 7 13 8 14 9 15 13 16 11 17 10 18 12 20 4 22 21 24 18 26
REMARK H PARENT 10 19 12 21 4 23 21 25 18 27
REMARK Flexibility Score: inf
ROOT
ATOM      1  C   UNL     1       5.168   5.253  50.600  1.00  0.00     0.180 A 
ATOM      2  C   UNL     1       5.741   6.484  50.241  1.00  0.00     0.208 A 
ATOM      3  C   UNL     1       7.138   6.619  50.269  1.00  0.00     0.238 A 
ATOM      4  O   UNL     1       7.648   7.700  49.875  1.00  0.00    -0.285 OA
ATOM      5  C   UNL     1       7.942   5.539  50.710  1.00  0.00     0.111 A 
ATOM      6  C   UNL     1       9.365   5.579  50.822  1.00  0.00     0.134 A 
ATOM      7  C   UNL     1      10.063   4.415  51.168  1.00  0.00     0.093 A 
ATOM      8  C   UNL     1       9.389   3.233  51.469  1.00  0.00     0.123 A 
ATOM      9  C   UNL     1       7.995   3.197  51.416  1.00  0.00     0.094 A 
ATOM     10  C   UNL     1       7.273   4.331  51.036  1.00  0.00     0.146 A 
ATOM     11  O   UNL     1       5.949   4.247  50.979  1.00  0.00    -0.452 OA
ENDROOT
BRANCH   1  12
ATOM     12  C   UNL     1       3.704   5.029  50.582  1.00  0.00     0.025 A 
ATOM     13  C   UNL     1       2.874   5.954  49.932  1.00  0.00     0.016 A 
ATOM     14  C   UNL     1       1.490   5.773  49.920  1.00  0.00     0.051 A 
ATOM     15  C   UNL     1       0.905   4.678  50.566  1.00  0.00     0.157 A 
ATOM     16  C   UNL     1       3.121   3.941  51.252  1.00  0.00     0.062 A 
ATOM     17  C   UNL     1       1.732   3.753  51.248  1.00  0.00     0.158 A 
BRANCH  15  18
ATOM     18  O   UNL     1      -0.483   4.551  50.511  1.00  0.00    -0.504 OA
ATOM     19  H   UNL     1      -1.011   4.489  49.652  1.00  0.00     0.293 HD
ENDBRANCH  15  18
BRANCH  17  20
ATOM     20  O   UNL     1       1.222   2.649  51.933  1.00  0.00    -0.504 OA
ATOM     21  H   UNL     1       0.715   1.895  51.492  1.00  0.00     0.293 HD
ENDBRANCH  17  20
ENDBRANCH   1  12
BRANCH   2  22
ATOM     22  O   UNL     1       4.927   7.562  49.882  1.00  0.00    -0.502 OA
ATOM     23  H   UNL     1       3.939   7.456  49.690  1.00  0.00     0.293 HD
ENDBRANCH   2  22
BRANCH   6  24
ATOM     24  O   UNL     1      10.134   6.731  50.631  1.00  0.00    -0.507 OA
ATOM     25  H   UNL     1      11.016   6.919  51.082  1.00  0.00     0.293 HD
ENDBRANCH   6  24
BRANCH   8  26
ATOM     26  O   UNL     1      10.115   2.099  51.826  1.00  0.00    -0.508 OA
ATOM     27  H   UNL     1       9.674   1.190  51.906  1.00  0.00     0.293 HD
ENDBRANCH   8  26
TORSDOF 6
ENDMDL
MODEL 6
REMARK VINA RESULT:    -3.540      3.161      5.954
REMARK INTER + INTRA:          -3.998
REMARK INTER:                  -3.961
REMARK INTRA:                  -0.037
REMARK UNBOUND:                 0.266
REMARK SMILES O=c1c(O)c(-c2ccc(O)c(O)c2)oc2cc(O)cc(O)c12
REMARK SMILES IDX 5 1 3 2 2 3 1 4 22 5 20 6 19 7 17 8 16 9 15 10 14 11 6 12
REMARK SMILES IDX 7 13 8 14 9 15 13 16 11 17 10 18 12 20 4 22 21 24 18 26
REMARK H PARENT 10 19 12 21 4 23 21 25 18 27
REMARK Flexibility Score: inf
ROOT
ATOM      1  C   UNL     1       3.096   4.523  50.567  1.00  0.00     0.180 A 
ATOM      2  C   UNL     1       2.702   5.850  50.328  1.00  0.00     0.208 A 
ATOM      3  C   UNL     1       1.333   6.150  50.246  1.00  0.00     0.238 A 
ATOM      4  O   UNL     1       0.986   7.352  50.107  1.00  0.00    -0.285 OA
ATOM      5  C   UNL     1       0.376   5.110  50.347  1.00  0.00     0.111 A 
ATOM      6  C   UNL     1      -1.036   5.292  50.233  1.00  0.00     0.134 A 
ATOM      7  C   UNL     1      -1.892   4.207  50.456  1.00  0.00     0.093 A 
ATOM      8  C   UNL     1      -1.388   2.935  50.725  1.00  0.00     0.123 A 
ATOM      9  C   UNL     1      -0.009   2.735  50.784  1.00  0.00     0.094 A 
ATOM     10  C   UNL     1       0.870   3.805  50.604  1.00  0.00     0.146 A 
ATOM     11  O   UNL     1       2.175   3.574  50.690  1.00  0.00    -0.452 OA
ENDROOT
BRANCH   1  12
ATOM     12  C   UNL     1       4.520   4.131  50.682  1.00  0.00     0.025 A 
ATOM     13  C   UNL     1       4.995   3.037  49.945  1.00  0.00     0.016 A 
ATOM     14  C   UNL     1       6.328   2.638  50.053  1.00  0.00     0.051 A 
ATOM     15  C   UNL     1       7.209   3.311  50.907  1.00  0.00     0.157 A 
ATOM     16  C   UNL     1       5.394   4.796  51.558  1.00  0.00     0.062 A 
ATOM     17  C   UNL     1       6.733   4.400  51.675  1.00  0.00     0.158 A 
BRANCH  15  18
ATOM     18  O   UNL     1       8.531   2.867  50.965  1.00  0.00    -0.504 OA
ATOM     19  H   UNL     1       9.104   2.905  51.795  1.00  0.00     0.293 HD
ENDBRANCH  15  18
BRANCH  17  20
ATOM     20  O   UNL     1       7.546   5.107  52.565  1.00  0.00    -0.504 OA
ATOM     21  H   UNL     1       8.501   5.371  52.369  1.00  0.00     0.293 HD
ENDBRANCH  17  20
ENDBRANCH   1  12
BRANCH   2  22
ATOM     22  O   UNL     1       3.664   6.849  50.156  1.00  0.00    -0.502 OA
ATOM     23  H   UNL     1       4.633   6.642  49.947  1.00  0.00     0.293 HD
ENDBRANCH   2  22
BRANCH   6  24
ATOM     24  O   UNL     1      -1.644   6.501  49.881  1.00  0.00    -0.507 OA
ATOM     25  H   UNL     1      -2.255   6.633  49.090  1.00  0.00     0.293 HD
ENDBRANCH   6  24
BRANCH   8  26
ATOM     26  O   UNL     1      -2.270   1.875  50.924  1.00  0.00    -0.508 OA
ATOM     27  H   UNL     1      -2.960   1.621  50.227  1.00  0.00     0.293 HD
ENDBRANCH   8  26
TORSDOF 6
ENDMDL
MODEL 7
REMARK VINA RESULT:    -3.079      1.357      6.800
REMARK INTER + INTRA:          -3.443
REMARK INTER:                  -3.898
REMARK INTRA:                   0.455
REMARK UNBOUND:                 0.266
REMARK SMILES O=c1c(O)c(-c2ccc(O)c(O)c2)oc2cc(O)cc(O)c12
REMARK SMILES IDX 5 1 3 2 2 3 1 4 22 5 20 6 19 7 17 8 16 9 15 10 14 11 6 12
REMARK SMILES IDX 7 13 8 14 9 15 13 16 11 17 10 18 12 20 4 22 21 24 18 26
REMARK H PARENT 10 19 12 21 4 23 21 25 18 27
REMARK Flexibility Score: inf
ROOT
ATOM      1  C   UNL     1       6.080   5.195  50.509  1.00  0.00     0.180 A 
ATOM      2  C   UNL     1       6.103   3.808  50.733  1.00  0.00     0.208 A 
ATOM      3  C   UNL     1       7.339   3.168  50.915  1.00  0.00     0.238 A 
ATOM      4  O   UNL     1       7.349   1.940  51.189  1.00  0.00    -0.285 OA
ATOM      5  C   UNL     1       8.541   3.912  50.814  1.00  0.00     0.111 A 
ATOM      6  C   UNL     1       9.852   3.359  50.934  1.00  0.00     0.134 A 
ATOM      7  C   UNL     1      10.964   4.210  50.923  1.00  0.00     0.093 A 
ATOM      8  C   UNL     1      10.819   5.582  50.730  1.00  0.00     0.123 A 
ATOM      9  C   UNL     1       9.547   6.127  50.555  1.00  0.00     0.094 A 
ATOM     10  C   UNL     1       8.415   5.310  50.601  1.00  0.00     0.146 A 
ATOM     11  O   UNL     1       7.222   5.872  50.451  1.00  0.00    -0.452 OA
ENDROOT
BRANCH   1  12
ATOM     12  C   UNL     1       4.816   5.943  50.323  1.00  0.00     0.025 A 
ATOM     13  C   UNL     1       4.833   7.344  50.352  1.00  0.00     0.016 A 
ATOM     14  C   UNL     1       3.650   8.069  50.199  1.00  0.00     0.051 A 
ATOM     15  C   UNL     1       2.426   7.411  50.030  1.00  0.00     0.157 A 
ATOM     16  C   UNL     1       3.587   5.278  50.175  1.00  0.00     0.062 A 
ATOM     17  C   UNL     1       2.393   5.997  50.025  1.00  0.00     0.158 A 
BRANCH  15  18
ATOM     18  O   UNL     1       1.280   8.193  49.875  1.00  0.00    -0.504 OA
ATOM     19  H   UNL     1       1.205   9.153  50.179  1.00  0.00     0.293 HD
ENDBRANCH  15  18
BRANCH  17  20
ATOM     20  O   UNL     1       1.209   5.270  49.882  1.00  0.00    -0.504 OA
ATOM     21  H   UNL     1       0.716   5.161  49.007  1.00  0.00     0.293 HD
ENDBRANCH  17  20
ENDBRANCH   1  12
BRANCH   2  22
ATOM     22  O   UNL     1       4.911   3.079  50.754  1.00  0.00    -0.502 OA
ATOM     23  H   UNL     1       4.890   2.069  50.680  1.00  0.00     0.293 HD
ENDBRANCH   2  22
BRANCH   6  24
ATOM     24  O   UNL     1      10.118   1.990  51.043  1.00  0.00    -0.507 OA
ATOM     25  H   UNL     1      10.729   1.470  50.434  1.00  0.00     0.293 HD
ENDBRANCH   6  24
BRANCH   8  26
ATOM     26  O   UNL     1      11.949   6.396  50.706  1.00  0.00    -0.508 OA
ATOM     27  H   UNL     1      12.816   6.112  51.147  1.00  0.00     0.293 HD
ENDBRANCH   8  26
TORSDOF 6
ENDMDL
