MODEL 1
REMARK VINA RESULT:    11.692      0.000      0.000
REMARK INTER + INTRA:          15.584
REMARK INTER:                  16.134
REMARK INTRA:                  -0.551
REMARK UNBOUND:                -0.551
REMARK SMILES CCCCc1cccc(O)c1CCCC
REMARK SMILES IDX 5 1 11 2 9 3 8 4 7 5 6 6 4 7 3 8 2 9 1 10 12 11 13 12 14 13
REMARK SMILES IDX 15 14 10 15
REMARK H PARENT 10 16
REMARK Flexibility Score: inf
ROOT
ATOM      1  C   UNL     1       7.010  42.167  24.361  1.00  0.00    -0.041 A 
ATOM      2  C   UNL     1       5.928  43.006  23.948  1.00  0.00    -0.003 A 
ATOM      3  C   UNL     1       4.619  42.717  24.429  1.00  0.00     0.119 A 
ATOM      4  C   UNL     1       4.416  41.666  25.325  1.00  0.00     0.046 A 
ATOM      5  C   UNL     1       5.478  40.875  25.745  1.00  0.00     0.004 A 
ATOM      6  C   UNL     1       6.760  41.116  25.263  1.00  0.00     0.004 A 
ENDROOT
BRANCH   1   7
ATOM      7  C   UNL     1       8.436  42.317  23.851  1.00  0.00     0.036 C 
BRANCH   7   8
ATOM      8  C   UNL     1       9.169  40.979  23.641  1.00  0.00     0.004 C 
BRANCH   8   9
ATOM      9  C   UNL     1      10.689  41.112  23.451  1.00  0.00    -0.003 C 
ATOM     10  C   UNL     1      11.086  42.417  22.763  1.00  0.00     0.004 C 
ENDBRANCH   8   9
ENDBRANCH   7   8
ENDBRANCH   1   7
BRANCH   2  11
ATOM     11  C   UNL     1       6.148  44.214  23.052  1.00  0.00     0.040 C 
BRANCH  11  12
ATOM     12  C   UNL     1       6.592  45.439  23.876  1.00  0.00     0.005 C 
BRANCH  12  13
ATOM     13  C   UNL     1       6.104  46.764  23.270  1.00  0.00    -0.003 C 
ATOM     14  C   UNL     1       5.864  47.843  24.325  1.00  0.00     0.004 C 
ENDBRANCH  12  13
ENDBRANCH  11  12
ENDBRANCH   2  11
BRANCH   3  15
ATOM     15  O   UNL     1       3.491  43.445  24.039  1.00  0.00    -0.508 OA
ATOM     16  H   UNL     1       2.550  43.079  24.036  1.00  0.00     0.293 HD
ENDBRANCH   3  15
TORSDOF 7
ENDMDL
MODEL 2
REMARK VINA RESULT:    12.769      1.410      4.796
REMARK INTER + INTRA:          17.070
REMARK INTER:                  17.589
REMARK INTRA:                  -0.520
REMARK UNBOUND:                -0.551
REMARK SMILES CCCCc1cccc(O)c1CCCC
REMARK SMILES IDX 5 1 11 2 9 3 8 4 7 5 6 6 4 7 3 8 2 9 1 10 12 11 13 12 14 13
REMARK SMILES IDX 15 14 10 15
REMARK H PARENT 10 16
REMARK Flexibility Score: inf
ROOT
ATOM      1  C   UNL     1       5.720  43.362  23.703  1.00  0.00    -0.041 A 
ATOM      2  C   UNL     1       6.685  42.570  24.401  1.00  0.00    -0.003 A 
ATOM      3  C   UNL     1       6.228  41.651  25.389  1.00  0.00     0.119 A 
ATOM      4  C   UNL     1       4.861  41.497  25.625  1.00  0.00     0.046 A 
ATOM      5  C   UNL     1       3.929  42.247  24.920  1.00  0.00     0.004 A 
ATOM      6  C   UNL     1       4.352  43.175  23.975  1.00  0.00     0.004 A 
ENDROOT
BRANCH   1   7
ATOM      7  C   UNL     1       6.085  44.437  22.690  1.00  0.00     0.036 C 
BRANCH   7   8
ATOM      8  C   UNL     1       6.782  45.664  23.306  1.00  0.00     0.004 C 
BRANCH   8   9
ATOM      9  C   UNL     1       5.887  46.909  23.424  1.00  0.00    -0.003 C 
ATOM     10  C   UNL     1       6.088  47.658  24.741  1.00  0.00     0.004 C 
ENDBRANCH   8   9
ENDBRANCH   7   8
ENDBRANCH   1   7
BRANCH   2  11
ATOM     11  C   UNL     1       8.170  42.655  24.086  1.00  0.00     0.040 C 
BRANCH  11  12
ATOM     12  C   UNL     1       8.604  41.503  23.159  1.00  0.00     0.005 C 
BRANCH  12  13
ATOM     13  C   UNL     1       9.973  40.921  23.544  1.00  0.00    -0.003 C 
ATOM     14  C   UNL     1      11.138  41.807  23.101  1.00  0.00     0.004 C 
ENDBRANCH  12  13
ENDBRANCH  11  12
ENDBRANCH   2  11
BRANCH   3  15
ATOM     15  O   UNL     1       7.098  40.875  26.162  1.00  0.00    -0.508 OA
ATOM     16  H   UNL     1       7.408  41.122  27.091  1.00  0.00     0.293 HD
ENDBRANCH   3  15
TORSDOF 7
ENDMDL
