MODEL 1
REMARK VINA RESULT:    -3.313      0.000      0.000
REMARK INTER + INTRA:          -4.223
REMARK INTER:                  -4.087
REMARK INTRA:                  -0.135
REMARK UNBOUND:                -0.135
REMARK SMILES CCCCCC(=O)[O-]
REMARK SMILES IDX 4 1 5 2 6 3 7 4 8 5 3 6 2 7 1 8
REMARK H PARENT
REMARK Flexibility Score: inf
ROOT
ATOM      1  C   UNL     1     -43.518 -29.039  -0.344  1.00  0.00     0.006 C 
ENDROOT
BRANCH   1   2
ATOM      2  C   UNL     1     -44.860 -28.781   0.354  1.00  0.00     0.053 C 
BRANCH   2   3
ATOM      3  C   UNL     1     -45.507 -27.550  -0.198  1.00  0.00     0.041 C 
ATOM      4  O   UNL     1     -45.742 -26.566   0.553  1.00  0.00    -0.550 OA
ATOM      5  O   UNL     1     -45.806 -27.469  -1.552  1.00  0.00    -0.550 OA
ENDBRANCH   2   3
ENDBRANCH   1   2
BRANCH   1   6
ATOM      6  C   UNL     1     -42.584 -27.820  -0.297  1.00  0.00     0.000 C 
BRANCH   6   7
ATOM      7  C   UNL     1     -41.100 -28.214  -0.270  1.00  0.00    -0.003 C 
ATOM      8  C   UNL     1     -40.923 -29.656   0.195  1.00  0.00     0.004 C 
ENDBRANCH   6   7
ENDBRANCH   1   6
TORSDOF 4
ENDMDL
MODEL 2
REMARK VINA RESULT:    -3.255      1.610      2.007
REMARK INTER + INTRA:          -4.152
REMARK INTER:                  -4.105
REMARK INTRA:                  -0.047
REMARK UNBOUND:                -0.135
REMARK SMILES CCCCCC(=O)[O-]
REMARK SMILES IDX 4 1 5 2 6 3 7 4 8 5 3 6 2 7 1 8
REMARK H PARENT
REMARK Flexibility Score: inf
ROOT
ATOM      1  C   UNL     1     -43.819 -27.125  -0.059  1.00  0.00     0.006 C 
ENDROOT
BRANCH   1   2
ATOM      2  C   UNL     1     -45.239 -27.413   0.445  1.00  0.00     0.053 C 
BRANCH   2   3
ATOM      3  C   UNL     1     -45.594 -26.487   1.566  1.00  0.00     0.041 C 
ATOM      4  O   UNL     1     -45.413 -25.247   1.446  1.00  0.00    -0.550 OA
ATOM      5  O   UNL     1     -46.172 -26.991   2.725  1.00  0.00    -0.550 OA
ENDBRANCH   2   3
ENDBRANCH   1   2
BRANCH   1   6
ATOM      6  C   UNL     1     -43.026 -28.407  -0.354  1.00  0.00     0.000 C 
BRANCH   6   7
ATOM      7  C   UNL     1     -41.508 -28.172  -0.371  1.00  0.00    -0.003 C 
ATOM      8  C   UNL     1     -40.752 -29.444  -0.001  1.00  0.00     0.004 C 
ENDBRANCH   6   7
ENDBRANCH   1   6
TORSDOF 4
ENDMDL
MODEL 3
REMARK VINA RESULT:    -3.042      4.156      5.432
REMARK INTER + INTRA:          -3.888
REMARK INTER:                  -3.822
REMARK INTRA:                  -0.067
REMARK UNBOUND:                -0.135
REMARK SMILES CCCCCC(=O)[O-]
REMARK SMILES IDX 4 1 5 2 6 3 7 4 8 5 3 6 2 7 1 8
REMARK H PARENT
REMARK Flexibility Score: inf
ROOT
ATOM      1  C   UNL     1     -46.370 -26.786   3.859  1.00  0.00     0.006 C 
ENDROOT
BRANCH   1   2
ATOM      2  C   UNL     1     -46.277 -27.234   2.395  1.00  0.00     0.053 C 
BRANCH   2   3
ATOM      3  C   UNL     1     -45.916 -26.078   1.516  1.00  0.00     0.041 C 
ATOM      4  O   UNL     1     -44.757 -25.986   1.033  1.00  0.00    -0.550 OA
ATOM      5  O   UNL     1     -46.876 -25.128   1.190  1.00  0.00    -0.550 OA
ENDBRANCH   2   3
ENDBRANCH   1   2
BRANCH   1   6
ATOM      6  C   UNL     1     -46.611 -27.958   4.822  1.00  0.00     0.000 C 
BRANCH   6   7
ATOM      7  C   UNL     1     -45.614 -27.978   5.991  1.00  0.00    -0.003 C 
ATOM      8  C   UNL     1     -45.599 -26.638   6.721  1.00  0.00     0.004 C 
ENDBRANCH   6   7
ENDBRANCH   1   6
TORSDOF 4
ENDMDL
MODEL 4
REMARK VINA RESULT:    -2.986     22.924     23.917
REMARK INTER + INTRA:          -3.820
REMARK INTER:                  -3.655
REMARK INTRA:                  -0.165
REMARK UNBOUND:                -0.135
REMARK SMILES CCCCCC(=O)[O-]
REMARK SMILES IDX 4 1 5 2 6 3 7 4 8 5 3 6 2 7 1 8
REMARK H PARENT
REMARK Flexibility Score: inf
ROOT
ATOM      1  C   UNL     1     -29.112 -10.717  -9.174  1.00  0.00     0.006 C 
ENDROOT
BRANCH   1   2
ATOM      2  C   UNL     1     -29.118 -10.263  -7.709  1.00  0.00     0.053 C 
BRANCH   2   3
ATOM      3  C   UNL     1     -28.201 -11.118  -6.892  1.00  0.00     0.041 C 
ATOM      4  O   UNL     1     -27.242 -10.598  -6.263  1.00  0.00    -0.550 OA
ATOM      5  O   UNL     1     -28.436 -12.483  -6.786  1.00  0.00    -0.550 OA
ENDBRANCH   2   3
ENDBRANCH   1   2
BRANCH   1   6
ATOM      6  C   UNL     1     -30.418 -11.418  -9.581  1.00  0.00     0.000 C 
BRANCH   6   7
ATOM      7  C   UNL     1     -31.615 -10.981  -8.724  1.00  0.00    -0.003 C 
ATOM      8  C   UNL     1     -32.799 -10.582  -9.600  1.00  0.00     0.004 C 
ENDBRANCH   6   7
ENDBRANCH   1   6
TORSDOF 4
ENDMDL
MODEL 5
REMARK VINA RESULT:    -2.965      4.262      5.391
REMARK INTER + INTRA:          -3.794
REMARK INTER:                  -3.714
REMARK INTRA:                  -0.080
REMARK UNBOUND:                -0.135
REMARK SMILES CCCCCC(=O)[O-]
REMARK SMILES IDX 4 1 5 2 6 3 7 4 8 5 3 6 2 7 1 8
REMARK H PARENT
REMARK Flexibility Score: inf
ROOT
ATOM      1  C   UNL     1     -46.415 -26.919   3.838  1.00  0.00     0.006 C 
ENDROOT
BRANCH   1   2
ATOM      2  C   UNL     1     -46.625 -27.163   2.338  1.00  0.00     0.053 C 
BRANCH   2   3
ATOM      3  C   UNL     1     -46.175 -25.976   1.547  1.00  0.00     0.041 C 
ATOM      4  O   UNL     1     -46.997 -25.077   1.230  1.00  0.00    -0.550 OA
ATOM      5  O   UNL     1     -44.836 -25.838   1.203  1.00  0.00    -0.550 OA
ENDBRANCH   2   3
ENDBRANCH   1   2
BRANCH   1   6
ATOM      6  C   UNL     1     -46.006 -28.192   4.593  1.00  0.00     0.000 C 
BRANCH   6   7
ATOM      7  C   UNL     1     -45.916 -27.977   6.111  1.00  0.00    -0.003 C 
ATOM      8  C   UNL     1     -45.651 -26.511   6.442  1.00  0.00     0.004 C 
ENDBRANCH   6   7
ENDBRANCH   1   6
TORSDOF 4
ENDMDL
MODEL 6
REMARK VINA RESULT:    -2.873      2.874      4.370
REMARK INTER + INTRA:          -3.681
REMARK INTER:                  -3.606
REMARK INTRA:                  -0.075
REMARK UNBOUND:                -0.135
REMARK SMILES CCCCCC(=O)[O-]
REMARK SMILES IDX 4 1 5 2 6 3 7 4 8 5 3 6 2 7 1 8
REMARK H PARENT
REMARK Flexibility Score: inf
ROOT
ATOM      1  C   UNL     1     -45.100 -26.259   1.190  1.00  0.00     0.006 C 
ENDROOT
BRANCH   1   2
ATOM      2  C   UNL     1     -44.719 -27.552   0.457  1.00  0.00     0.053 C 
BRANCH   2   3
ATOM      3  C   UNL     1     -43.515 -27.329  -0.404  1.00  0.00     0.041 C 
ATOM      4  O   UNL     1     -42.413 -27.856  -0.102  1.00  0.00    -0.550 OA
ATOM      5  O   UNL     1     -43.625 -26.579  -1.569  1.00  0.00    -0.550 OA
ENDBRANCH   2   3
ENDBRANCH   1   2
BRANCH   1   6
ATOM      6  C   UNL     1     -46.397 -26.400   2.002  1.00  0.00     0.000 C 
BRANCH   6   7
ATOM      7  C   UNL     1     -46.284 -27.449   3.118  1.00  0.00    -0.003 C 
ATOM      8  C   UNL     1     -46.251 -26.786   4.492  1.00  0.00     0.004 C 
ENDBRANCH   6   7
ENDBRANCH   1   6
TORSDOF 4
ENDMDL
MODEL 7
REMARK VINA RESULT:    -2.873      5.284      6.378
REMARK INTER + INTRA:          -3.681
REMARK INTER:                  -3.564
REMARK INTRA:                  -0.116
REMARK UNBOUND:                -0.135
REMARK SMILES CCCCCC(=O)[O-]
REMARK SMILES IDX 4 1 5 2 6 3 7 4 8 5 3 6 2 7 1 8
REMARK H PARENT
REMARK Flexibility Score: inf
ROOT
ATOM      1  C   UNL     1     -46.187 -28.031   4.416  1.00  0.00     0.006 C 
ENDROOT
BRANCH   1   2
ATOM      2  C   UNL     1     -46.202 -26.695   5.170  1.00  0.00     0.053 C 
BRANCH   2   3
ATOM      3  C   UNL     1     -45.655 -26.868   6.552  1.00  0.00     0.041 C 
ATOM      4  O   UNL     1     -45.787 -25.952   7.405  1.00  0.00    -0.550 OA
ATOM      5  O   UNL     1     -45.044 -28.062   6.912  1.00  0.00    -0.550 OA
ENDBRANCH   2   3
ENDBRANCH   1   2
BRANCH   1   6
ATOM      6  C   UNL     1     -46.367 -27.856   2.900  1.00  0.00     0.000 C 
BRANCH   6   7
ATOM      7  C   UNL     1     -46.486 -26.382   2.485  1.00  0.00    -0.003 C 
ATOM      8  C   UNL     1     -45.309 -25.962   1.609  1.00  0.00     0.004 C 
ENDBRANCH   6   7
ENDBRANCH   1   6
TORSDOF 4
ENDMDL
MODEL 8
REMARK VINA RESULT:    -2.852      5.583      6.878
REMARK INTER + INTRA:          -3.655
REMARK INTER:                  -3.590
REMARK INTRA:                  -0.065
REMARK UNBOUND:                -0.135
REMARK SMILES CCCCCC(=O)[O-]
REMARK SMILES IDX 4 1 5 2 6 3 7 4 8 5 3 6 2 7 1 8
REMARK H PARENT
REMARK Flexibility Score: inf
ROOT
ATOM      1  C   UNL     1     -46.222 -26.745   4.657  1.00  0.00     0.006 C 
ENDROOT
BRANCH   1   2
ATOM      2  C   UNL     1     -47.055 -26.218   5.832  1.00  0.00     0.053 C 
BRANCH   2   3
ATOM      3  C   UNL     1     -46.202 -26.073   7.054  1.00  0.00     0.041 C 
ATOM      4  O   UNL     1     -45.067 -26.616   7.102  1.00  0.00    -0.550 OA
ATOM      5  O   UNL     1     -46.640 -25.296   8.118  1.00  0.00    -0.550 OA
ENDBRANCH   2   3
ENDBRANCH   1   2
BRANCH   1   6
ATOM      6  C   UNL     1     -47.007 -26.759   3.336  1.00  0.00     0.000 C 
BRANCH   6   7
ATOM      7  C   UNL     1     -46.130 -27.132   2.131  1.00  0.00    -0.003 C 
ATOM      8  C   UNL     1     -45.373 -25.915   1.606  1.00  0.00     0.004 C 
ENDBRANCH   6   7
ENDBRANCH   1   6
TORSDOF 4
ENDMDL
MODEL 9
REMARK VINA RESULT:    -2.794      3.336      4.742
REMARK INTER + INTRA:          -3.583
REMARK INTER:                  -3.440
REMARK INTRA:                  -0.143
REMARK UNBOUND:                -0.135
REMARK SMILES CCCCCC(=O)[O-]
REMARK SMILES IDX 4 1 5 2 6 3 7 4 8 5 3 6 2 7 1 8
REMARK H PARENT
REMARK Flexibility Score: inf
ROOT
ATOM      1  C   UNL     1     -46.717 -26.512   2.513  1.00  0.00     0.006 C 
ENDROOT
BRANCH   1   2
ATOM      2  C   UNL     1     -45.487 -26.030   1.733  1.00  0.00     0.053 C 
BRANCH   2   3
ATOM      3  C   UNL     1     -45.053 -27.070   0.748  1.00  0.00     0.041 C 
ATOM      4  O   UNL     1     -44.199 -26.791  -0.134  1.00  0.00    -0.550 OA
ATOM      5  O   UNL     1     -45.554 -28.363   0.837  1.00  0.00    -0.550 OA
ENDBRANCH   2   3
ENDBRANCH   1   2
BRANCH   1   6
ATOM      6  C   UNL     1     -46.410 -26.780   3.994  1.00  0.00     0.000 C 
BRANCH   6   7
ATOM      7  C   UNL     1     -46.233 -28.275   4.300  1.00  0.00    -0.003 C 
ATOM      8  C   UNL     1     -45.584 -28.481   5.666  1.00  0.00     0.004 C 
ENDBRANCH   6   7
ENDBRANCH   1   6
TORSDOF 4
ENDMDL
