MODEL 1
REMARK VINA RESULT:    -4.443      0.000      0.000
REMARK INTER + INTRA:          -8.293
REMARK INTER:                  -7.041
REMARK INTRA:                  -1.252
REMARK UNBOUND:                -1.252
REMARK SMILES CCCCCCCCCCCC(=O)[O-]
REMARK SMILES IDX 7 1 8 2 9 3 10 4 11 5 12 6 13 7 14 8 6 9 5 10 4 11 3 12 2 13
REMARK SMILES IDX 1 14
REMARK H PARENT
REMARK Flexibility Score: inf
ROOT
ATOM      1  C   UNL     1       4.997  48.376   8.393  1.00  0.00     0.000 C 
ENDROOT
BRANCH   1   2
ATOM      2  C   UNL     1       5.358  47.302   9.432  1.00  0.00     0.000 C 
BRANCH   2   3
ATOM      3  C   UNL     1       4.290  46.203   9.545  1.00  0.00     0.000 C 
BRANCH   3   4
ATOM      4  C   UNL     1       3.653  46.200  10.942  1.00  0.00     0.006 C 
BRANCH   4   5
ATOM      5  C   UNL     1       4.078  44.982  11.773  1.00  0.00     0.053 C 
BRANCH   5   6
ATOM      6  C   UNL     1       3.428  43.723  11.286  1.00  0.00     0.041 C 
ATOM      7  O   UNL     1       2.249  43.446  11.631  1.00  0.00    -0.550 OA
ATOM      8  O   UNL     1       4.135  42.839  10.482  1.00  0.00    -0.550 OA
ENDBRANCH   5   6
ENDBRANCH   4   5
ENDBRANCH   3   4
ENDBRANCH   2   3
ENDBRANCH   1   2
BRANCH   1   9
ATOM      9  C   UNL     1       3.654  48.098   7.696  1.00  0.00     0.000 C 
BRANCH   9  10
ATOM     10  C   UNL     1       2.660  49.261   7.843  1.00  0.00    -0.000 C 
BRANCH  10  11
ATOM     11  C   UNL     1       1.226  48.786   8.126  1.00  0.00    -0.000 C 
BRANCH  11  12
ATOM     12  C   UNL     1       1.049  47.314   7.736  1.00  0.00    -0.000 C 
BRANCH  12  13
ATOM     13  C   UNL     1       0.592  46.478   8.937  1.00  0.00    -0.003 C 
ATOM     14  C   UNL     1       0.880  44.996   8.718  1.00  0.00     0.004 C 
ENDBRANCH  12  13
ENDBRANCH  11  12
ENDBRANCH  10  11
ENDBRANCH   9  10
ENDBRANCH   1   9
TORSDOF 10
ENDMDL
MODEL 2
REMARK VINA RESULT:    -4.443      3.066      5.056
REMARK INTER + INTRA:          -8.293
REMARK INTER:                  -7.187
REMARK INTRA:                  -1.106
REMARK UNBOUND:                -1.252
REMARK SMILES CCCCCCCCCCCC(=O)[O-]
REMARK SMILES IDX 7 1 8 2 9 3 10 4 11 5 12 6 13 7 14 8 6 9 5 10 4 11 3 12 2 13
REMARK SMILES IDX 1 14
REMARK H PARENT
REMARK Flexibility Score: inf
ROOT
ATOM      1  C   UNL     1       4.477  45.141  11.757  1.00  0.00     0.000 C 
ENDROOT
BRANCH   1   2
ATOM      2  C   UNL     1       3.932  46.410  11.080  1.00  0.00     0.000 C 
BRANCH   2   3
ATOM      3  C   UNL     1       4.728  46.803   9.826  1.00  0.00     0.000 C 
BRANCH   3   4
ATOM      4  C   UNL     1       3.788  47.255   8.700  1.00  0.00     0.006 C 
BRANCH   4   5
ATOM      5  C   UNL     1       4.306  48.505   7.976  1.00  0.00     0.053 C 
BRANCH   5   6
ATOM      6  C   UNL     1       3.199  49.466   7.664  1.00  0.00     0.041 C 
ATOM      7  O   UNL     1       3.451  50.688   7.498  1.00  0.00    -0.550 OA
ATOM      8  O   UNL     1       1.887  49.018   7.592  1.00  0.00    -0.550 OA
ENDBRANCH   5   6
ENDBRANCH   4   5
ENDBRANCH   3   4
ENDBRANCH   2   3
ENDBRANCH   1   2
BRANCH   1   9
ATOM      9  C   UNL     1       3.566  43.920  11.543  1.00  0.00     0.000 C 
BRANCH   9  10
ATOM     10  C   UNL     1       3.784  43.253  10.176  1.00  0.00    -0.000 C 
BRANCH  10  11
ATOM     11  C   UNL     1       2.510  43.224   9.318  1.00  0.00    -0.000 C 
BRANCH  11  12
ATOM     12  C   UNL     1       1.471  44.220   9.845  1.00  0.00    -0.000 C 
BRANCH  12  13
ATOM     13  C   UNL     1       0.856  45.033   8.700  1.00  0.00    -0.003 C 
ATOM     14  C   UNL     1      -0.018  46.164   9.234  1.00  0.00     0.004 C 
ENDBRANCH  12  13
ENDBRANCH  11  12
ENDBRANCH  10  11
ENDBRANCH   9  10
ENDBRANCH   1   9
TORSDOF 10
ENDMDL
MODEL 3
REMARK VINA RESULT:    -4.431      2.084      4.210
REMARK INTER + INTRA:          -8.273
REMARK INTER:                  -7.224
REMARK INTRA:                  -1.049
REMARK UNBOUND:                -1.252
REMARK SMILES CCCCCCCCCCCC(=O)[O-]
REMARK SMILES IDX 7 1 8 2 9 3 10 4 11 5 12 6 13 7 14 8 6 9 5 10 4 11 3 12 2 13
REMARK SMILES IDX 1 14
REMARK H PARENT
REMARK Flexibility Score: inf
ROOT
ATOM      1  C   UNL     1       0.657  47.140   7.612  1.00  0.00     0.000 C 
ENDROOT
BRANCH   1   2
ATOM      2  C   UNL     1       1.558  48.052   8.462  1.00  0.00     0.000 C 
BRANCH   2   3
ATOM      3  C   UNL     1       2.616  48.788   7.626  1.00  0.00     0.000 C 
BRANCH   3   4
ATOM      4  C   UNL     1       4.032  48.444   8.109  1.00  0.00     0.006 C 
BRANCH   4   5
ATOM      5  C   UNL     1       4.087  47.092   8.832  1.00  0.00     0.053 C 
BRANCH   5   6
ATOM      6  C   UNL     1       5.199  47.043   9.836  1.00  0.00     0.041 C 
ATOM      7  O   UNL     1       5.024  46.472  10.945  1.00  0.00    -0.550 OA
ATOM      8  O   UNL     1       6.413  47.657   9.561  1.00  0.00    -0.550 OA
ENDBRANCH   5   6
ENDBRANCH   4   5
ENDBRANCH   3   4
ENDBRANCH   2   3
ENDBRANCH   1   2
BRANCH   1   9
ATOM      9  C   UNL     1       0.363  45.794   8.298  1.00  0.00     0.000 C 
BRANCH   9  10
ATOM     10  C   UNL     1       0.622  45.836   9.813  1.00  0.00    -0.000 C 
BRANCH  10  11
ATOM     11  C   UNL     1       1.669  44.807  10.266  1.00  0.00    -0.000 C 
BRANCH  11  12
ATOM     12  C   UNL     1       1.873  43.725   9.199  1.00  0.00    -0.000 C 
BRANCH  12  13
ATOM     13  C   UNL     1       2.815  42.625   9.702  1.00  0.00    -0.003 C 
ATOM     14  C   UNL     1       4.145  43.210  10.168  1.00  0.00     0.004 C 
ENDBRANCH  12  13
ENDBRANCH  11  12
ENDBRANCH  10  11
ENDBRANCH   9  10
ENDBRANCH   1   9
TORSDOF 10
ENDMDL
MODEL 4
REMARK VINA RESULT:    -4.386      2.663      4.869
REMARK INTER + INTRA:          -8.201
REMARK INTER:                  -7.307
REMARK INTRA:                  -0.894
REMARK UNBOUND:                -1.252
REMARK SMILES CCCCCCCCCCCC(=O)[O-]
REMARK SMILES IDX 7 1 8 2 9 3 10 4 11 5 12 6 13 7 14 8 6 9 5 10 4 11 3 12 2 13
REMARK SMILES IDX 1 14
REMARK H PARENT
REMARK Flexibility Score: inf
ROOT
ATOM      1  C   UNL     1       5.059  47.001   9.734  1.00  0.00     0.000 C 
ENDROOT
BRANCH   1   2
ATOM      2  C   UNL     1       3.944  47.262   8.708  1.00  0.00     0.000 C 
BRANCH   2   3
ATOM      3  C   UNL     1       4.135  48.583   7.947  1.00  0.00     0.000 C 
BRANCH   3   4
ATOM      4  C   UNL     1       2.787  49.283   7.719  1.00  0.00     0.006 C 
BRANCH   4   5
ATOM      5  C   UNL     1       1.704  48.790   8.688  1.00  0.00     0.053 C 
BRANCH   5   6
ATOM      6  C   UNL     1       0.501  48.272   7.960  1.00  0.00     0.041 C 
ATOM      7  O   UNL     1      -0.579  48.917   7.985  1.00  0.00    -0.550 OA
ATOM      8  O   UNL     1       0.564  47.060   7.285  1.00  0.00    -0.550 OA
ENDBRANCH   5   6
ENDBRANCH   4   5
ENDBRANCH   3   4
ENDBRANCH   2   3
ENDBRANCH   1   2
BRANCH   1   9
ATOM      9  C   UNL     1       4.540  46.304  11.004  1.00  0.00     0.000 C 
BRANCH   9  10
ATOM     10  C   UNL     1       3.013  46.129  11.000  1.00  0.00    -0.000 C 
BRANCH  10  11
ATOM     11  C   UNL     1       2.576  44.709  11.392  1.00  0.00    -0.000 C 
BRANCH  11  12
ATOM     12  C   UNL     1       3.792  43.806  11.629  1.00  0.00    -0.000 C 
BRANCH  12  13
ATOM     13  C   UNL     1       4.044  42.894  10.423  1.00  0.00    -0.003 C 
ATOM     14  C   UNL     1       2.834  42.864   9.492  1.00  0.00     0.004 C 
ENDBRANCH  12  13
ENDBRANCH  11  12
ENDBRANCH  10  11
ENDBRANCH   9  10
ENDBRANCH   1   9
TORSDOF 10
ENDMDL
MODEL 5
REMARK VINA RESULT:    -4.364      2.881      5.600
REMARK INTER + INTRA:          -8.166
REMARK INTER:                  -6.960
REMARK INTRA:                  -1.206
REMARK UNBOUND:                -1.252
REMARK SMILES CCCCCCCCCCCC(=O)[O-]
REMARK SMILES IDX 7 1 8 2 9 3 10 4 11 5 12 6 13 7 14 8 6 9 5 10 4 11 3 12 2 13
REMARK SMILES IDX 1 14
REMARK H PARENT
REMARK Flexibility Score: inf
ROOT
ATOM      1  C   UNL     1       1.766  43.954   9.773  1.00  0.00     0.000 C 
ENDROOT
BRANCH   1   2
ATOM      2  C   UNL     1       1.079  44.982   8.858  1.00  0.00     0.000 C 
BRANCH   2   3
ATOM      3  C   UNL     1       0.831  46.327   9.557  1.00  0.00     0.000 C 
BRANCH   3   4
ATOM      4  C   UNL     1       0.593  47.442   8.529  1.00  0.00     0.006 C 
BRANCH   4   5
ATOM      5  C   UNL     1       1.849  47.753   7.705  1.00  0.00     0.053 C 
BRANCH   5   6
ATOM      6  C   UNL     1       2.386  49.120   8.001  1.00  0.00     0.041 C 
ATOM      7  O   UNL     1       1.741  49.904   8.745  1.00  0.00    -0.550 OA
ATOM      8  O   UNL     1       3.580  49.539   7.429  1.00  0.00    -0.550 OA
ENDBRANCH   5   6
ENDBRANCH   4   5
ENDBRANCH   3   4
ENDBRANCH   2   3
ENDBRANCH   1   2
BRANCH   1   9
ATOM      9  C   UNL     1       1.591  44.282  11.266  1.00  0.00     0.000 C 
BRANCH   9  10
ATOM     10  C   UNL     1       2.916  44.225  12.043  1.00  0.00    -0.000 C 
BRANCH  10  11
ATOM     11  C   UNL     1       4.134  44.557  11.167  1.00  0.00    -0.000 C 
BRANCH  11  12
ATOM     12  C   UNL     1       4.305  46.074  11.016  1.00  0.00    -0.000 C 
BRANCH  12  13
ATOM     13  C   UNL     1       4.579  46.455   9.557  1.00  0.00    -0.003 C 
ATOM     14  C   UNL     1       5.717  47.467   9.456  1.00  0.00     0.004 C 
ENDBRANCH  12  13
ENDBRANCH  11  12
ENDBRANCH  10  11
ENDBRANCH   9  10
ENDBRANCH   1   9
TORSDOF 10
ENDMDL
MODEL 6
REMARK VINA RESULT:    -4.363      2.508      4.673
REMARK INTER + INTRA:          -8.166
REMARK INTER:                  -7.042
REMARK INTRA:                  -1.124
REMARK UNBOUND:                -1.252
REMARK SMILES CCCCCCCCCCCC(=O)[O-]
REMARK SMILES IDX 7 1 8 2 9 3 10 4 11 5 12 6 13 7 14 8 6 9 5 10 4 11 3 12 2 13
REMARK SMILES IDX 1 14
REMARK H PARENT
REMARK Flexibility Score: inf
ROOT
ATOM      1  C   UNL     1       3.955  43.959  10.590  1.00  0.00     0.000 C 
ENDROOT
BRANCH   1   2
ATOM      2  C   UNL     1       2.498  43.481  10.471  1.00  0.00     0.000 C 
BRANCH   2   3
ATOM      3  C   UNL     1       1.501  44.439  11.140  1.00  0.00     0.000 C 
BRANCH   3   4
ATOM      4  C   UNL     1       0.728  45.247  10.088  1.00  0.00     0.006 C 
BRANCH   4   5
ATOM      5  C   UNL     1       0.906  44.682   8.673  1.00  0.00     0.053 C 
BRANCH   5   6
ATOM      6  C   UNL     1       0.122  45.459   7.660  1.00  0.00     0.041 C 
ATOM      7  O   UNL     1       0.134  46.718   7.682  1.00  0.00    -0.550 OA
ATOM      8  O   UNL     1      -0.646  44.794   6.714  1.00  0.00    -0.550 OA
ENDBRANCH   5   6
ENDBRANCH   4   5
ENDBRANCH   3   4
ENDBRANCH   2   3
ENDBRANCH   1   2
BRANCH   1   9
ATOM      9  C   UNL     1       4.100  45.184  11.510  1.00  0.00     0.000 C 
BRANCH   9  10
ATOM     10  C   UNL     1       4.627  46.422  10.765  1.00  0.00    -0.000 C 
BRANCH  10  11
ATOM     11  C   UNL     1       4.364  46.363   9.253  1.00  0.00    -0.000 C 
BRANCH  11  12
ATOM     12  C   UNL     1       3.421  47.490   8.816  1.00  0.00    -0.000 C 
BRANCH  12  13
ATOM     13  C   UNL     1       4.165  48.533   7.974  1.00  0.00    -0.003 C 
ATOM     14  C   UNL     1       3.242  49.683   7.580  1.00  0.00     0.004 C 
ENDBRANCH  12  13
ENDBRANCH  11  12
ENDBRANCH  10  11
ENDBRANCH   9  10
ENDBRANCH   1   9
TORSDOF 10
ENDMDL
MODEL 7
REMARK VINA RESULT:    -4.354      2.452      4.185
REMARK INTER + INTRA:          -8.151
REMARK INTER:                  -7.038
REMARK INTRA:                  -1.113
REMARK UNBOUND:                -1.252
REMARK SMILES CCCCCCCCCCCC(=O)[O-]
REMARK SMILES IDX 7 1 8 2 9 3 10 4 11 5 12 6 13 7 14 8 6 9 5 10 4 11 3 12 2 13
REMARK SMILES IDX 1 14
REMARK H PARENT
REMARK Flexibility Score: inf
ROOT
ATOM      1  C   UNL     1       2.630  43.339  10.610  1.00  0.00     0.000 C 
ENDROOT
BRANCH   1   2
ATOM      2  C   UNL     1       4.054  43.874  10.835  1.00  0.00     0.000 C 
BRANCH   2   3
ATOM      3  C   UNL     1       4.092  45.078  11.789  1.00  0.00     0.000 C 
BRANCH   3   4
ATOM      4  C   UNL     1       4.093  46.398  11.004  1.00  0.00     0.006 C 
BRANCH   4   5
ATOM      5  C   UNL     1       4.653  46.232   9.586  1.00  0.00     0.053 C 
BRANCH   5   6
ATOM      6  C   UNL     1       5.409  47.446   9.140  1.00  0.00     0.041 C 
ATOM      7  O   UNL     1       4.867  48.281   8.370  1.00  0.00    -0.550 OA
ATOM      8  O   UNL     1       6.723  47.637   9.547  1.00  0.00    -0.550 OA
ENDBRANCH   5   6
ENDBRANCH   4   5
ENDBRANCH   3   4
ENDBRANCH   2   3
ENDBRANCH   1   2
BRANCH   1   9
ATOM      9  C   UNL     1       2.276  43.212   9.118  1.00  0.00     0.000 C 
BRANCH   9  10
ATOM     10  C   UNL     1       1.145  44.164   8.696  1.00  0.00    -0.000 C 
BRANCH  10  11
ATOM     11  C   UNL     1       0.940  45.319   9.688  1.00  0.00    -0.000 C 
BRANCH  11  12
ATOM     12  C   UNL     1      -0.013  46.374   9.112  1.00  0.00    -0.000 C 
BRANCH  12  13
ATOM     13  C   UNL     1       0.482  46.878   7.751  1.00  0.00    -0.003 C 
ATOM     14  C   UNL     1       1.526  47.978   7.917  1.00  0.00     0.004 C 
ENDBRANCH  12  13
ENDBRANCH  11  12
ENDBRANCH  10  11
ENDBRANCH   9  10
ENDBRANCH   1   9
TORSDOF 10
ENDMDL
MODEL 8
REMARK VINA RESULT:    -4.350      2.693      5.586
REMARK INTER + INTRA:          -8.144
REMARK INTER:                  -7.110
REMARK INTRA:                  -1.034
REMARK UNBOUND:                -1.252
REMARK SMILES CCCCCCCCCCCC(=O)[O-]
REMARK SMILES IDX 7 1 8 2 9 3 10 4 11 5 12 6 13 7 14 8 6 9 5 10 4 11 3 12 2 13
REMARK SMILES IDX 1 14
REMARK H PARENT
REMARK Flexibility Score: inf
ROOT
ATOM      1  C   UNL     1       2.535  43.265   9.141  1.00  0.00     0.000 C 
ENDROOT
BRANCH   1   2
ATOM      2  C   UNL     1       1.428  44.317   9.325  1.00  0.00     0.000 C 
BRANCH   2   3
ATOM      3  C   UNL     1       0.619  44.559   8.042  1.00  0.00     0.000 C 
BRANCH   3   4
ATOM      4  C   UNL     1       0.218  46.036   7.918  1.00  0.00     0.006 C 
BRANCH   4   5
ATOM      5  C   UNL     1       1.115  46.955   8.757  1.00  0.00     0.053 C 
BRANCH   5   6
ATOM      6  C   UNL     1       1.679  48.078   7.942  1.00  0.00     0.041 C 
ATOM      7  O   UNL     1       0.961  49.070   7.649  1.00  0.00    -0.550 OA
ATOM      8  O   UNL     1       2.986  48.014   7.476  1.00  0.00    -0.550 OA
ENDBRANCH   5   6
ENDBRANCH   4   5
ENDBRANCH   3   4
ENDBRANCH   2   3
ENDBRANCH   1   2
BRANCH   1   9
ATOM      9  C   UNL     1       3.125  42.788  10.480  1.00  0.00     0.000 C 
BRANCH   9  10
ATOM     10  C   UNL     1       2.464  43.467  11.691  1.00  0.00    -0.000 C 
BRANCH  10  11
ATOM     11  C   UNL     1       3.448  44.326  12.500  1.00  0.00    -0.000 C 
BRANCH  11  12
ATOM     12  C   UNL     1       4.490  44.977  11.584  1.00  0.00    -0.000 C 
BRANCH  12  13
ATOM     13  C   UNL     1       3.968  46.298  11.007  1.00  0.00    -0.003 C 
ATOM     14  C   UNL     1       4.997  46.940  10.080  1.00  0.00     0.004 C 
ENDBRANCH  12  13
ENDBRANCH  11  12
ENDBRANCH  10  11
ENDBRANCH   9  10
ENDBRANCH   1   9
TORSDOF 10
ENDMDL
MODEL 9
REMARK VINA RESULT:    -4.320      1.802      3.847
REMARK INTER + INTRA:          -8.098
REMARK INTER:                  -6.983
REMARK INTRA:                  -1.115
REMARK UNBOUND:                -1.252
REMARK SMILES CCCCCCCCCCCC(=O)[O-]
REMARK SMILES IDX 7 1 8 2 9 3 10 4 11 5 12 6 13 7 14 8 6 9 5 10 4 11 3 12 2 13
REMARK SMILES IDX 1 14
REMARK H PARENT
REMARK Flexibility Score: inf
ROOT
ATOM      1  C   UNL     1       1.886  43.629   9.934  1.00  0.00     0.000 C 
ENDROOT
BRANCH   1   2
ATOM      2  C   UNL     1       1.982  44.345  11.291  1.00  0.00     0.000 C 
BRANCH   2   3
ATOM      3  C   UNL     1       3.184  43.878  12.126  1.00  0.00     0.000 C 
BRANCH   3   4
ATOM      4  C   UNL     1       4.322  44.907  12.072  1.00  0.00     0.006 C 
BRANCH   4   5
ATOM      5  C   UNL     1       3.906  46.198  11.356  1.00  0.00     0.053 C 
BRANCH   5   6
ATOM      6  C   UNL     1       4.697  46.419  10.103  1.00  0.00     0.041 C 
ATOM      7  O   UNL     1       4.445  45.747   9.069  1.00  0.00    -0.550 OA
ATOM      8  O   UNL     1       5.734  47.343  10.087  1.00  0.00    -0.550 OA
ENDBRANCH   5   6
ENDBRANCH   4   5
ENDBRANCH   3   4
ENDBRANCH   2   3
ENDBRANCH   1   2
BRANCH   1   9
ATOM      9  C   UNL     1       1.129  44.457   8.881  1.00  0.00     0.000 C 
BRANCH   9  10
ATOM     10  C   UNL     1       0.821  45.884   9.363  1.00  0.00    -0.000 C 
BRANCH  10  11
ATOM     11  C   UNL     1       1.024  46.939   8.265  1.00  0.00    -0.000 C 
BRANCH  11  12
ATOM     12  C   UNL     1       1.732  48.180   8.820  1.00  0.00    -0.000 C 
BRANCH  12  13
ATOM     13  C   UNL     1       2.292  49.048   7.687  1.00  0.00    -0.003 C 
ATOM     14  C   UNL     1       3.816  48.978   7.640  1.00  0.00     0.004 C 
ENDBRANCH  12  13
ENDBRANCH  11  12
ENDBRANCH  10  11
ENDBRANCH   9  10
ENDBRANCH   1   9
TORSDOF 10
ENDMDL
