MODEL 1
REMARK VINA RESULT:    -5.782      0.000      0.000
REMARK INTER + INTRA:          -6.383
REMARK INTER:                  -6.120
REMARK INTRA:                  -0.262
REMARK UNBOUND:                -0.262
REMARK SMILES CC1=C[C@H]2C(=C(C)CC[C@H]2C(C)C)CC1
REMARK SMILES IDX 1 1 2 2 3 3 4 4 10 5 9 6 8 7 6 8 5 9 14 10 15 11 7 12 11 13
REMARK SMILES IDX 12 14 13 15
REMARK H PARENT
REMARK Flexibility Score: inf
ROOT
ATOM      1  C   UNL     1      -0.660  -0.043  15.958  1.00  0.00     0.039 C 
ATOM      2  C   UNL     1       0.389  -1.105  15.773  1.00  0.00    -0.076 C 
ATOM      3  C   UNL     1       0.741  -1.871  16.834  1.00  0.00    -0.020 C 
ATOM      4  C   UNL     1       1.738  -3.016  16.717  1.00  0.00     0.041 C 
ATOM      5  C   UNL     1       2.462  -3.387  18.048  1.00  0.00     0.003 C 
ATOM      6  C   UNL     1       3.546  -2.331  18.327  1.00  0.00     0.009 C 
ATOM      7  C   UNL     1       4.592  -2.351  17.210  1.00  0.00     0.031 C 
ATOM      8  C   UNL     1       3.982  -2.276  15.826  1.00  0.00    -0.073 C 
ATOM      9  C   UNL     1       2.702  -2.683  15.592  1.00  0.00    -0.064 C 
ATOM     10  C   UNL     1       1.993  -2.435  14.282  1.00  0.00     0.036 C 
ATOM     11  C   UNL     1       1.112  -1.188  14.433  1.00  0.00     0.035 C 
ATOM     12  C   UNL     1       4.878  -1.814  14.701  1.00  0.00     0.039 C 
ENDROOT
BRANCH   5  13
ATOM     13  C   UNL     1       1.513  -3.618  19.275  1.00  0.00    -0.013 C 
ATOM     14  C   UNL     1       2.302  -3.730  20.594  1.00  0.00     0.007 C 
ATOM     15  C   UNL     1       0.661  -4.891  19.110  1.00  0.00     0.007 C 
ENDBRANCH   5  13
TORSDOF 1
ENDMDL
MODEL 2
REMARK VINA RESULT:    -5.743      1.350      5.108
REMARK INTER + INTRA:          -6.341
REMARK INTER:                  -6.065
REMARK INTRA:                  -0.276
REMARK UNBOUND:                -0.262
REMARK SMILES CC1=C[C@H]2C(=C(C)CC[C@H]2C(C)C)CC1
REMARK SMILES IDX 1 1 2 2 3 3 4 4 10 5 9 6 8 7 6 8 5 9 14 10 15 11 7 12 11 13
REMARK SMILES IDX 12 14 13 15
REMARK H PARENT
REMARK Flexibility Score: inf
ROOT
ATOM      1  C   UNL     1       6.001  -2.238  18.647  1.00  0.00     0.039 C 
ATOM      2  C   UNL     1       4.626  -2.785  18.377  1.00  0.00    -0.076 C 
ATOM      3  C   UNL     1       4.099  -2.650  17.135  1.00  0.00    -0.020 C 
ATOM      4  C   UNL     1       2.747  -3.240  16.755  1.00  0.00     0.041 C 
ATOM      5  C   UNL     1       2.038  -2.527  15.563  1.00  0.00     0.003 C 
ATOM      6  C   UNL     1       1.438  -1.204  16.070  1.00  0.00     0.009 C 
ATOM      7  C   UNL     1       0.377  -1.489  17.135  1.00  0.00     0.031 C 
ATOM      8  C   UNL     1       0.868  -2.416  18.227  1.00  0.00    -0.073 C 
ATOM      9  C   UNL     1       1.891  -3.290  18.008  1.00  0.00    -0.064 C 
ATOM     10  C   UNL     1       2.543  -4.079  19.119  1.00  0.00     0.036 C 
ATOM     11  C   UNL     1       3.827  -3.353  19.544  1.00  0.00     0.035 C 
ATOM     12  C   UNL     1       0.121  -2.392  19.540  1.00  0.00     0.039 C 
ENDROOT
BRANCH   5  13
ATOM     13  C   UNL     1       2.926  -2.337  14.284  1.00  0.00    -0.013 C 
ATOM     14  C   UNL     1       3.115  -0.848  13.936  1.00  0.00     0.007 C 
ATOM     15  C   UNL     1       2.324  -3.050  13.057  1.00  0.00     0.007 C 
ENDBRANCH   5  13
TORSDOF 1
ENDMDL
MODEL 3
REMARK VINA RESULT:    -5.709      1.862      5.428
REMARK INTER + INTRA:          -6.305
REMARK INTER:                  -6.042
REMARK INTRA:                  -0.264
REMARK UNBOUND:                -0.262
REMARK SMILES CC1=C[C@H]2C(=C(C)CC[C@H]2C(C)C)CC1
REMARK SMILES IDX 1 1 2 2 3 3 4 4 10 5 9 6 8 7 6 8 5 9 14 10 15 11 7 12 11 13
REMARK SMILES IDX 12 14 13 15
REMARK H PARENT
REMARK Flexibility Score: inf
ROOT
ATOM      1  C   UNL     1       6.339  -1.383  20.316  1.00  0.00     0.039 C 
ATOM      2  C   UNL     1       5.468  -2.466  19.742  1.00  0.00    -0.076 C 
ATOM      3  C   UNL     1       4.722  -2.195  18.643  1.00  0.00    -0.020 C 
ATOM      4  C   UNL     1       3.872  -3.253  17.953  1.00  0.00     0.041 C 
ATOM      5  C   UNL     1       2.671  -2.690  17.133  1.00  0.00     0.003 C 
ATOM      6  C   UNL     1       1.557  -2.281  18.111  1.00  0.00     0.009 C 
ATOM      7  C   UNL     1       1.058  -3.509  18.876  1.00  0.00     0.031 C 
ATOM      8  C   UNL     1       2.180  -4.314  19.500  1.00  0.00    -0.073 C 
ATOM      9  C   UNL     1       3.448  -4.267  19.001  1.00  0.00    -0.064 C 
ATOM     10  C   UNL     1       4.627  -4.887  19.712  1.00  0.00     0.036 C 
ATOM     11  C   UNL     1       5.357  -3.787  20.496  1.00  0.00     0.035 C 
ATOM     12  C   UNL     1       1.816  -5.234  20.641  1.00  0.00     0.039 C 
ENDROOT
BRANCH   5  13
ATOM     13  C   UNL     1       3.038  -1.548  16.122  1.00  0.00    -0.013 C 
ATOM     14  C   UNL     1       1.785  -0.806  15.620  1.00  0.00     0.007 C 
ATOM     15  C   UNL     1       3.807  -2.087  14.900  1.00  0.00     0.007 C 
ENDBRANCH   5  13
TORSDOF 1
ENDMDL
MODEL 4
REMARK VINA RESULT:    -5.675      1.555      4.054
REMARK INTER + INTRA:          -6.270
REMARK INTER:                  -6.009
REMARK INTRA:                  -0.260
REMARK UNBOUND:                -0.262
REMARK SMILES CC1=C[C@H]2C(=C(C)CC[C@H]2C(C)C)CC1
REMARK SMILES IDX 1 1 2 2 3 3 4 4 10 5 9 6 8 7 6 8 5 9 14 10 15 11 7 12 11 13
REMARK SMILES IDX 12 14 13 15
REMARK H PARENT
REMARK Flexibility Score: inf
ROOT
ATOM      1  C   UNL     1       3.134  -2.253  14.009  1.00  0.00     0.039 C 
ATOM      2  C   UNL     1       2.744  -2.243  15.462  1.00  0.00    -0.076 C 
ATOM      3  C   UNL     1       3.715  -2.119  16.401  1.00  0.00    -0.020 C 
ATOM      4  C   UNL     1       3.403  -2.025  17.888  1.00  0.00     0.041 C 
ATOM      5  C   UNL     1       4.563  -2.478  18.826  1.00  0.00     0.003 C 
ATOM      6  C   UNL     1       4.622  -4.016  18.827  1.00  0.00     0.009 C 
ATOM      7  C   UNL     1       3.320  -4.585  19.394  1.00  0.00     0.031 C 
ATOM      8  C   UNL     1       2.084  -4.003  18.741  1.00  0.00    -0.073 C 
ATOM      9  C   UNL     1       2.109  -2.779  18.142  1.00  0.00    -0.064 C 
ATOM     10  C   UNL     1       0.965  -2.255  17.306  1.00  0.00     0.036 C 
ATOM     11  C   UNL     1       1.288  -2.507  15.827  1.00  0.00     0.035 C 
ATOM     12  C   UNL     1       0.804  -4.796  18.856  1.00  0.00     0.039 C 
ENDROOT
BRANCH   5  13
ATOM     13  C   UNL     1       5.955  -1.820  18.522  1.00  0.00    -0.013 C 
ATOM     14  C   UNL     1       6.955  -2.841  17.946  1.00  0.00     0.007 C 
ATOM     15  C   UNL     1       6.578  -1.187  19.781  1.00  0.00     0.007 C 
ENDBRANCH   5  13
TORSDOF 1
ENDMDL
MODEL 5
REMARK VINA RESULT:    -5.630      1.975      4.294
REMARK INTER + INTRA:          -6.222
REMARK INTER:                  -6.006
REMARK INTRA:                  -0.216
REMARK UNBOUND:                -0.262
REMARK SMILES CC1=C[C@H]2C(=C(C)CC[C@H]2C(C)C)CC1
REMARK SMILES IDX 1 1 2 2 3 3 4 4 10 5 9 6 8 7 6 8 5 9 14 10 15 11 7 12 11 13
REMARK SMILES IDX 12 14 13 15
REMARK H PARENT
REMARK Flexibility Score: inf
ROOT
ATOM      1  C   UNL     1       6.830  -2.470  15.212  1.00  0.00     0.039 C 
ATOM      2  C   UNL     1       5.599  -2.222  16.040  1.00  0.00    -0.076 C 
ATOM      3  C   UNL     1       5.648  -2.453  17.375  1.00  0.00    -0.020 C 
ATOM      4  C   UNL     1       4.472  -2.158  18.296  1.00  0.00     0.041 C 
ATOM      5  C   UNL     1       4.453  -2.993  19.614  1.00  0.00     0.003 C 
ATOM      6  C   UNL     1       3.975  -4.417  19.285  1.00  0.00     0.009 C 
ATOM      7  C   UNL     1       2.544  -4.374  18.744  1.00  0.00     0.031 C 
ATOM      8  C   UNL     1       2.365  -3.375  17.620  1.00  0.00    -0.073 C 
ATOM      9  C   UNL     1       3.196  -2.303  17.486  1.00  0.00    -0.064 C 
ATOM     10  C   UNL     1       3.181  -1.405  16.271  1.00  0.00     0.036 C 
ATOM     11  C   UNL     1       4.305  -1.848  15.325  1.00  0.00     0.035 C 
ATOM     12  C   UNL     1       1.178  -3.570  16.706  1.00  0.00     0.039 C 
ENDROOT
BRANCH   5  13
ATOM     13  C   UNL     1       5.795  -2.977  20.426  1.00  0.00    -0.013 C 
ATOM     14  C   UNL     1       5.685  -3.799  21.725  1.00  0.00     0.007 C 
ATOM     15  C   UNL     1       6.229  -1.545  20.791  1.00  0.00     0.007 C 
ENDBRANCH   5  13
TORSDOF 1
ENDMDL
MODEL 6
REMARK VINA RESULT:    -5.546      1.715      3.700
REMARK INTER + INTRA:          -6.133
REMARK INTER:                  -5.858
REMARK INTRA:                  -0.275
REMARK UNBOUND:                -0.262
REMARK SMILES CC1=C[C@H]2C(=C(C)CC[C@H]2C(C)C)CC1
REMARK SMILES IDX 1 1 2 2 3 3 4 4 10 5 9 6 8 7 6 8 5 9 14 10 15 11 7 12 11 13
REMARK SMILES IDX 12 14 13 15
REMARK H PARENT
REMARK Flexibility Score: inf
ROOT
ATOM      1  C   UNL     1       0.219  -4.056  13.217  1.00  0.00     0.039 C 
ATOM      2  C   UNL     1       0.381  -2.859  14.113  1.00  0.00    -0.076 C 
ATOM      3  C   UNL     1       1.252  -2.928  15.149  1.00  0.00    -0.020 C 
ATOM      4  C   UNL     1       1.532  -1.740  16.059  1.00  0.00     0.041 C 
ATOM      5  C   UNL     1       2.049  -2.117  17.482  1.00  0.00     0.003 C 
ATOM      6  C   UNL     1       0.859  -2.614  18.321  1.00  0.00     0.009 C 
ATOM      7  C   UNL     1      -0.167  -1.491  18.485  1.00  0.00     0.031 C 
ATOM      8  C   UNL     1      -0.551  -0.842  17.171  1.00  0.00    -0.073 C 
ATOM      9  C   UNL     1       0.285  -0.874  16.094  1.00  0.00    -0.064 C 
ATOM     10  C   UNL     1      -0.141  -0.424  14.717  1.00  0.00     0.036 C 
ATOM     11  C   UNL     1      -0.539  -1.662  13.901  1.00  0.00     0.035 C 
ATOM     12  C   UNL     1      -1.858  -0.086  17.131  1.00  0.00     0.039 C 
ENDROOT
BRANCH   5  13
ATOM     13  C   UNL     1       3.262  -3.112  17.502  1.00  0.00    -0.013 C 
ATOM     14  C   UNL     1       2.926  -4.405  18.270  1.00  0.00     0.007 C 
ATOM     15  C   UNL     1       4.514  -2.479  18.139  1.00  0.00     0.007 C 
ENDBRANCH   5  13
TORSDOF 1
ENDMDL
MODEL 7
REMARK VINA RESULT:    -5.497      1.325      2.562
REMARK INTER + INTRA:          -6.080
REMARK INTER:                  -5.818
REMARK INTRA:                  -0.263
REMARK UNBOUND:                -0.262
REMARK SMILES CC1=C[C@H]2C(=C(C)CC[C@H]2C(C)C)CC1
REMARK SMILES IDX 1 1 2 2 3 3 4 4 10 5 9 6 8 7 6 8 5 9 14 10 15 11 7 12 11 13
REMARK SMILES IDX 12 14 13 15
REMARK H PARENT
REMARK Flexibility Score: inf
ROOT
ATOM      1  C   UNL     1      -1.268   0.276  16.295  1.00  0.00     0.039 C 
ATOM      2  C   UNL     1      -0.521  -0.804  15.561  1.00  0.00    -0.076 C 
ATOM      3  C   UNL     1       0.552  -1.381  16.157  1.00  0.00    -0.020 C 
ATOM      4  C   UNL     1       1.318  -2.531  15.518  1.00  0.00     0.041 C 
ATOM      5  C   UNL     1       2.796  -2.672  15.995  1.00  0.00     0.003 C 
ATOM      6  C   UNL     1       3.640  -1.586  15.306  1.00  0.00     0.009 C 
ATOM      7  C   UNL     1       3.622  -1.796  13.790  1.00  0.00     0.031 C 
ATOM      8  C   UNL     1       2.223  -1.956  13.231  1.00  0.00    -0.073 C 
ATOM      9  C   UNL     1       1.194  -2.394  14.011  1.00  0.00    -0.064 C 
ATOM     10  C   UNL     1      -0.245  -2.370  13.552  1.00  0.00     0.036 C 
ATOM     11  C   UNL     1      -0.917  -1.113  14.122  1.00  0.00     0.035 C 
ATOM     12  C   UNL     1       2.036  -1.692  11.756  1.00  0.00     0.039 C 
ENDROOT
BRANCH   5  13
ATOM     13  C   UNL     1       2.990  -2.691  17.552  1.00  0.00    -0.013 C 
ATOM     14  C   UNL     1       4.405  -2.234  17.957  1.00  0.00     0.007 C 
ATOM     15  C   UNL     1       2.743  -4.092  18.144  1.00  0.00     0.007 C 
ENDBRANCH   5  13
TORSDOF 1
ENDMDL
MODEL 8
REMARK VINA RESULT:    -5.470      1.069      4.267
REMARK INTER + INTRA:          -6.052
REMARK INTER:                  -5.789
REMARK INTRA:                  -0.263
REMARK UNBOUND:                -0.262
REMARK SMILES CC1=C[C@H]2C(=C(C)CC[C@H]2C(C)C)CC1
REMARK SMILES IDX 1 1 2 2 3 3 4 4 10 5 9 6 8 7 6 8 5 9 14 10 15 11 7 12 11 13
REMARK SMILES IDX 12 14 13 15
REMARK H PARENT
REMARK Flexibility Score: inf
ROOT
ATOM      1  C   UNL     1       1.263  -4.861  18.731  1.00  0.00     0.039 C 
ATOM      2  C   UNL     1       1.927  -3.643  18.148  1.00  0.00    -0.076 C 
ATOM      3  C   UNL     1       1.253  -2.902  17.235  1.00  0.00    -0.020 C 
ATOM      4  C   UNL     1       1.820  -1.615  16.651  1.00  0.00     0.041 C 
ATOM      5  C   UNL     1       1.248  -1.227  15.254  1.00  0.00     0.003 C 
ATOM      6  C   UNL     1       1.902  -2.124  14.189  1.00  0.00     0.009 C 
ATOM      7  C   UNL     1       3.412  -1.875  14.155  1.00  0.00     0.031 C 
ATOM      8  C   UNL     1       4.055  -1.950  15.524  1.00  0.00    -0.073 C 
ATOM      9  C   UNL     1       3.335  -1.727  16.659  1.00  0.00    -0.064 C 
ATOM     10  C   UNL     1       3.885  -1.994  18.041  1.00  0.00     0.036 C 
ATOM     11  C   UNL     1       3.382  -3.367  18.508  1.00  0.00     0.035 C 
ATOM     12  C   UNL     1       5.545  -2.199  15.573  1.00  0.00     0.039 C 
ENDROOT
BRANCH   5  13
ATOM     13  C   UNL     1      -0.318  -1.220  15.160  1.00  0.00    -0.013 C 
ATOM     14  C   UNL     1      -0.804  -1.413  13.710  1.00  0.00     0.007 C 
ATOM     15  C   UNL     1      -0.921   0.090  15.703  1.00  0.00     0.007 C 
ENDBRANCH   5  13
TORSDOF 1
ENDMDL
MODEL 9
REMARK VINA RESULT:    -5.329      1.682      2.718
REMARK INTER + INTRA:          -5.903
REMARK INTER:                  -5.681
REMARK INTRA:                  -0.222
REMARK UNBOUND:                -0.262
REMARK SMILES CC1=C[C@H]2C(=C(C)CC[C@H]2C(C)C)CC1
REMARK SMILES IDX 1 1 2 2 3 3 4 4 10 5 9 6 8 7 6 8 5 9 14 10 15 11 7 12 11 13
REMARK SMILES IDX 12 14 13 15
REMARK H PARENT
REMARK Flexibility Score: inf
ROOT
ATOM      1  C   UNL     1      -1.253  -0.896  19.184  1.00  0.00     0.039 C 
ATOM      2  C   UNL     1      -0.242  -1.853  18.614  1.00  0.00    -0.076 C 
ATOM      3  C   UNL     1       0.091  -2.957  19.327  1.00  0.00    -0.020 C 
ATOM      4  C   UNL     1       1.047  -4.015  18.792  1.00  0.00     0.041 C 
ATOM      5  C   UNL     1       1.769  -4.854  19.891  1.00  0.00     0.003 C 
ATOM      6  C   UNL     1       2.890  -3.998  20.505  1.00  0.00     0.009 C 
ATOM      7  C   UNL     1       3.926  -3.651  19.433  1.00  0.00     0.031 C 
ATOM      8  C   UNL     1       3.308  -3.073  18.177  1.00  0.00    -0.073 C 
ATOM      9  C   UNL     1       2.013  -3.332  17.840  1.00  0.00    -0.064 C 
ATOM     10  C   UNL     1       1.303  -2.615  16.716  1.00  0.00     0.036 C 
ATOM     11  C   UNL     1       0.466  -1.477  17.317  1.00  0.00     0.035 C 
ATOM     12  C   UNL     1       4.211  -2.268  17.272  1.00  0.00     0.039 C 
ENDROOT
BRANCH   5  13
ATOM     13  C   UNL     1       0.822  -5.478  20.975  1.00  0.00    -0.013 C 
ATOM     14  C   UNL     1       1.608  -6.298  22.015  1.00  0.00     0.007 C 
ATOM     15  C   UNL     1      -0.249  -6.390  20.345  1.00  0.00     0.007 C 
ENDBRANCH   5  13
TORSDOF 1
ENDMDL
