MODEL 1
REMARK VINA RESULT:    -2.551      0.000      0.000
REMARK INTER + INTRA:          -5.596
REMARK INTER:                  -4.640
REMARK INTRA:                  -0.956
REMARK UNBOUND:                -0.956
REMARK SMILES CCCCCCCCCCCCCCCC(=O)[O-]
REMARK SMILES IDX 9 1 10 2 11 3 12 4 13 5 14 6 15 7 16 8 17 9 18 10 8 11 7 12
REMARK SMILES IDX 6 13 5 14 4 15 3 16 2 17 1 18
REMARK H PARENT
REMARK Flexibility Score: inf
ROOT
ATOM      1  C   UNL     1      -9.195  16.507 -13.655  1.00  0.00     0.000 C 
ENDROOT
BRANCH   1   2
ATOM      2  C   UNL     1      -8.046  16.258 -14.651  1.00  0.00     0.000 C 
BRANCH   2   3
ATOM      3  C   UNL     1      -7.265  17.536 -14.999  1.00  0.00     0.000 C 
BRANCH   3   4
ATOM      4  C   UNL     1      -5.742  17.372 -14.839  1.00  0.00     0.000 C 
BRANCH   4   5
ATOM      5  C   UNL     1      -5.005  18.595 -14.265  1.00  0.00     0.000 C 
BRANCH   5   6
ATOM      6  C   UNL     1      -5.316  19.897 -15.024  1.00  0.00     0.006 C 
BRANCH   6   7
ATOM      7  C   UNL     1      -5.511  21.087 -14.076  1.00  0.00     0.053 C 
BRANCH   7   8
ATOM      8  C   UNL     1      -6.471  20.767 -12.971  1.00  0.00     0.041 C 
ATOM      9  O   UNL     1      -6.104  20.846 -11.769  1.00  0.00    -0.550 OA
ATOM     10  O   UNL     1      -7.763  20.354 -13.270  1.00  0.00    -0.550 OA
ENDBRANCH   7   8
ENDBRANCH   6   7
ENDBRANCH   5   6
ENDBRANCH   4   5
ENDBRANCH   3   4
ENDBRANCH   2   3
ENDBRANCH   1   2
BRANCH   1  11
ATOM     11  C   UNL     1      -8.791  16.494 -12.169  1.00  0.00     0.000 C 
BRANCH  11  12
ATOM     12  C   UNL     1      -7.405  15.881 -11.928  1.00  0.00    -0.000 C 
BRANCH  12  13
ATOM     13  C   UNL     1      -7.523  14.458 -11.368  1.00  0.00    -0.000 C 
BRANCH  13  14
ATOM     14  C   UNL     1      -7.394  13.415 -12.484  1.00  0.00    -0.000 C 
BRANCH  14  15
ATOM     15  C   UNL     1      -6.279  13.798 -13.469  1.00  0.00    -0.000 C 
BRANCH  15  16
ATOM     16  C   UNL     1      -6.640  13.490 -14.933  1.00  0.00    -0.000 C 
BRANCH  16  17
ATOM     17  C   UNL     1      -7.616  12.314 -15.125  1.00  0.00    -0.003 C 
ATOM     18  C   UNL     1      -9.082  12.745 -15.101  1.00  0.00     0.004 C 
ENDBRANCH  16  17
ENDBRANCH  15  16
ENDBRANCH  14  15
ENDBRANCH  13  14
ENDBRANCH  12  13
ENDBRANCH  11  12
ENDBRANCH   1  11
TORSDOF 14
ENDMDL
MODEL 2
REMARK VINA RESULT:    -1.742      2.668      5.915
REMARK INTER + INTRA:          -4.123
REMARK INTER:                  -2.693
REMARK INTRA:                  -1.430
REMARK UNBOUND:                -0.956
REMARK SMILES CCCCCCCCCCCCCCCC(=O)[O-]
REMARK SMILES IDX 9 1 10 2 11 3 12 4 13 5 14 6 15 7 16 8 17 9 18 10 8 11 7 12
REMARK SMILES IDX 6 13 5 14 4 15 3 16 2 17 1 18
REMARK H PARENT
REMARK Flexibility Score: inf
ROOT
ATOM      1  C   UNL     1      -8.408  16.472 -12.298  1.00  0.00     0.000 C 
ENDROOT
BRANCH   1   2
ATOM      2  C   UNL     1      -7.314  15.573 -11.692  1.00  0.00     0.000 C 
BRANCH   2   3
ATOM      3  C   UNL     1      -7.687  14.081 -11.707  1.00  0.00     0.000 C 
BRANCH   3   4
ATOM      4  C   UNL     1      -6.576  13.191 -12.294  1.00  0.00     0.000 C 
BRANCH   4   5
ATOM      5  C   UNL     1      -5.751  13.827 -13.427  1.00  0.00     0.000 C 
BRANCH   5   6
ATOM      6  C   UNL     1      -6.401  13.662 -14.812  1.00  0.00     0.006 C 
BRANCH   6   7
ATOM      7  C   UNL     1      -7.506  12.598 -14.809  1.00  0.00     0.053 C 
BRANCH   7   8
ATOM      8  C   UNL     1      -8.863  13.205 -15.001  1.00  0.00     0.041 C 
ATOM      9  O   UNL     1      -8.997  14.456 -15.046  1.00  0.00    -0.550 OA
ATOM     10  O   UNL     1      -9.982  12.389 -15.102  1.00  0.00    -0.550 OA
ENDBRANCH   7   8
ENDBRANCH   6   7
ENDBRANCH   5   6
ENDBRANCH   4   5
ENDBRANCH   3   4
ENDBRANCH   2   3
ENDBRANCH   1   2
BRANCH   1  11
ATOM     11  C   UNL     1      -8.533  17.872 -11.667  1.00  0.00     0.000 C 
BRANCH  11  12
ATOM     12  C   UNL     1      -8.603  18.998 -12.708  1.00  0.00    -0.000 C 
BRANCH  12  13
ATOM     13  C   UNL     1      -7.247  19.700 -12.851  1.00  0.00    -0.000 C 
BRANCH  13  14
ATOM     14  C   UNL     1      -7.160  20.463 -14.178  1.00  0.00    -0.000 C 
BRANCH  14  15
ATOM     15  C   UNL     1      -6.106  19.838 -15.103  1.00  0.00    -0.000 C 
BRANCH  15  16
ATOM     16  C   UNL     1      -4.999  19.095 -14.335  1.00  0.00    -0.000 C 
BRANCH  16  17
ATOM     17  C   UNL     1      -5.220  17.578 -14.189  1.00  0.00    -0.003 C 
ATOM     18  C   UNL     1      -6.302  17.039 -15.124  1.00  0.00     0.004 C 
ENDBRANCH  16  17
ENDBRANCH  15  16
ENDBRANCH  14  15
ENDBRANCH  13  14
ENDBRANCH  12  13
ENDBRANCH  11  12
ENDBRANCH   1  11
TORSDOF 14
ENDMDL
MODEL 3
REMARK VINA RESULT:    -1.244      2.852      6.130
REMARK INTER + INTRA:          -3.219
REMARK INTER:                  -3.326
REMARK INTRA:                   0.107
REMARK UNBOUND:                -0.956
REMARK SMILES CCCCCCCCCCCCCCCC(=O)[O-]
REMARK SMILES IDX 9 1 10 2 11 3 12 4 13 5 14 6 15 7 16 8 17 9 18 10 8 11 7 12
REMARK SMILES IDX 6 13 5 14 4 15 3 16 2 17 1 18
REMARK H PARENT
REMARK Flexibility Score: inf
ROOT
ATOM      1  C   UNL     1      -7.545  15.406 -12.818  1.00  0.00     0.000 C 
ENDROOT
BRANCH   1   2
ATOM      2  C   UNL     1      -6.082  15.828 -13.058  1.00  0.00     0.000 C 
BRANCH   2   3
ATOM      3  C   UNL     1      -5.637  15.647 -14.518  1.00  0.00     0.000 C 
BRANCH   3   4
ATOM      4  C   UNL     1      -5.111  14.230 -14.814  1.00  0.00     0.000 C 
BRANCH   4   5
ATOM      5  C   UNL     1      -5.257  13.219 -13.662  1.00  0.00     0.000 C 
BRANCH   5   6
ATOM      6  C   UNL     1      -6.568  12.417 -13.728  1.00  0.00     0.006 C 
BRANCH   6   7
ATOM      7  C   UNL     1      -7.208  12.466 -15.122  1.00  0.00     0.053 C 
BRANCH   7   8
ATOM      8  C   UNL     1      -8.575  13.080 -15.085  1.00  0.00     0.041 C 
ATOM      9  O   UNL     1      -8.707  14.329 -14.993  1.00  0.00    -0.550 OA
ATOM     10  O   UNL     1      -9.703  12.271 -15.125  1.00  0.00    -0.550 OA
ENDBRANCH   7   8
ENDBRANCH   6   7
ENDBRANCH   5   6
ENDBRANCH   4   5
ENDBRANCH   3   4
ENDBRANCH   2   3
ENDBRANCH   1   2
BRANCH   1  11
ATOM     11  C   UNL     1      -8.290  16.206 -11.734  1.00  0.00     0.000 C 
BRANCH  11  12
ATOM     12  C   UNL     1      -8.258  17.722 -11.975  1.00  0.00    -0.000 C 
BRANCH  12  13
ATOM     13  C   UNL     1      -8.143  18.038 -13.471  1.00  0.00    -0.000 C 
BRANCH  13  14
ATOM     14  C   UNL     1      -8.475  19.509 -13.751  1.00  0.00    -0.000 C 
BRANCH  14  15
ATOM     15  C   UNL     1      -7.459  20.127 -14.721  1.00  0.00    -0.000 C 
BRANCH  15  16
ATOM     16  C   UNL     1      -6.240  19.220 -14.972  1.00  0.00    -0.000 C 
BRANCH  16  17
ATOM     17  C   UNL     1      -4.955  19.645 -14.238  1.00  0.00    -0.003 C 
ATOM     18  C   UNL     1      -5.210  20.667 -13.131  1.00  0.00     0.004 C 
ENDBRANCH  16  17
ENDBRANCH  15  16
ENDBRANCH  14  15
ENDBRANCH  13  14
ENDBRANCH  12  13
ENDBRANCH  11  12
ENDBRANCH   1  11
TORSDOF 14
ENDMDL
MODEL 4
REMARK VINA RESULT:    -0.952      3.255      6.201
REMARK INTER + INTRA:          -2.687
REMARK INTER:                  -1.094
REMARK INTRA:                  -1.593
REMARK UNBOUND:                -0.956
REMARK SMILES CCCCCCCCCCCCCCCC(=O)[O-]
REMARK SMILES IDX 9 1 10 2 11 3 12 4 13 5 14 6 15 7 16 8 17 9 18 10 8 11 7 12
REMARK SMILES IDX 6 13 5 14 4 15 3 16 2 17 1 18
REMARK H PARENT
REMARK Flexibility Score: inf
ROOT
ATOM      1  C   UNL     1      -7.810  16.825 -12.676  1.00  0.00     0.000 C 
ENDROOT
BRANCH   1   2
ATOM      2  C   UNL     1      -8.408  16.803 -14.096  1.00  0.00     0.000 C 
BRANCH   2   3
ATOM      3  C   UNL     1      -8.059  15.524 -14.874  1.00  0.00     0.000 C 
BRANCH   3   4
ATOM      4  C   UNL     1      -8.489  14.239 -14.142  1.00  0.00     0.000 C 
BRANCH   4   5
ATOM      5  C   UNL     1      -7.763  12.955 -14.582  1.00  0.00     0.000 C 
BRANCH   5   6
ATOM      6  C   UNL     1      -6.347  13.219 -15.124  1.00  0.00     0.006 C 
BRANCH   6   7
ATOM      7  C   UNL     1      -5.338  13.489 -14.000  1.00  0.00     0.053 C 
BRANCH   7   8
ATOM      8  C   UNL     1      -5.107  12.271 -13.158  1.00  0.00     0.041 C 
ATOM      9  O   UNL     1      -5.146  11.124 -13.676  1.00  0.00    -0.550 OA
ATOM     10  O   UNL     1      -4.875  12.402 -11.794  1.00  0.00    -0.550 OA
ENDBRANCH   7   8
ENDBRANCH   6   7
ENDBRANCH   5   6
ENDBRANCH   4   5
ENDBRANCH   3   4
ENDBRANCH   2   3
ENDBRANCH   1   2
BRANCH   1  11
ATOM     11  C   UNL     1      -7.984  18.150 -11.910  1.00  0.00     0.000 C 
BRANCH  11  12
ATOM     12  C   UNL     1      -8.598  19.265 -12.768  1.00  0.00    -0.000 C 
BRANCH  12  13
ATOM     13  C   UNL     1      -7.829  20.580 -12.593  1.00  0.00    -0.000 C 
BRANCH  13  14
ATOM     14  C   UNL     1      -6.331  20.381 -12.858  1.00  0.00    -0.000 C 
BRANCH  14  15
ATOM     15  C   UNL     1      -5.969  20.785 -14.294  1.00  0.00    -0.000 C 
BRANCH  15  16
ATOM     16  C   UNL     1      -5.297  19.648 -15.085  1.00  0.00    -0.000 C 
BRANCH  16  17
ATOM     17  C   UNL     1      -4.888  18.427 -14.241  1.00  0.00    -0.003 C 
ATOM     18  C   UNL     1      -5.071  17.102 -14.980  1.00  0.00     0.004 C 
ENDBRANCH  16  17
ENDBRANCH  15  16
ENDBRANCH  14  15
ENDBRANCH  13  14
ENDBRANCH  12  13
ENDBRANCH  11  12
ENDBRANCH   1  11
TORSDOF 14
ENDMDL
