MODEL 1
REMARK VINA RESULT:    -3.988      0.000      0.000
REMARK INTER + INTRA:          -8.806
REMARK INTER:                  -7.018
REMARK INTRA:                  -1.788
REMARK UNBOUND:                -1.788
REMARK SMILES CCCCCCC=CCCCCCCCC(=O)[O-]
REMARK SMILES IDX 10 1 11 2 12 3 13 4 14 5 15 6 16 7 17 8 18 9 9 10 8 11 7 12
REMARK SMILES IDX 6 13 5 14 4 15 3 16 2 17 1 18
REMARK H PARENT
REMARK Flexibility Score: inf
ROOT
ATOM      1  C   UNL     1     -12.753  -8.728  13.525  1.00  0.00     0.004 C 
ENDROOT
BRANCH   1   2
ATOM      2  C   UNL     1     -12.390  -8.377  14.979  1.00  0.00     0.000 C 
BRANCH   2   3
ATOM      3  C   UNL     1     -10.874  -8.369  15.231  1.00  0.00     0.000 C 
BRANCH   3   4
ATOM      4  C   UNL     1     -10.523  -8.748  16.686  1.00  0.00     0.000 C 
BRANCH   4   5
ATOM      5  C   UNL     1     -11.617  -8.372  17.700  1.00  0.00     0.006 C 
BRANCH   5   6
ATOM      6  C   UNL     1     -11.172  -8.559  19.154  1.00  0.00     0.053 C 
BRANCH   6   7
ATOM      7  C   UNL     1     -10.155  -7.527  19.527  1.00  0.00     0.041 C 
ATOM      8  O   UNL     1     -10.477  -6.312  19.586  1.00  0.00    -0.550 OA
ATOM      9  O   UNL     1      -8.837  -7.902  19.760  1.00  0.00    -0.550 OA
ENDBRANCH   6   7
ENDBRANCH   5   6
ENDBRANCH   4   5
ENDBRANCH   3   4
ENDBRANCH   2   3
ENDBRANCH   1   2
BRANCH   1  10
ATOM     10  C   UNL     1     -11.535  -8.797  12.581  1.00  0.00     0.027 C 
BRANCH  10  11
ATOM     11  C   UNL     1     -11.929  -8.730  11.125  1.00  0.00    -0.031 C 
ATOM     12  C   UNL     1     -11.943  -7.603  10.389  1.00  0.00    -0.031 C 
BRANCH  12  13
ATOM     13  C   UNL     1     -11.489  -6.253  10.884  1.00  0.00     0.027 C 
BRANCH  13  14
ATOM     14  C   UNL     1     -12.698  -5.386  11.263  1.00  0.00     0.004 C 
BRANCH  14  15
ATOM     15  C   UNL     1     -12.736  -5.053  12.763  1.00  0.00     0.000 C 
BRANCH  15  16
ATOM     16  C   UNL     1     -11.359  -5.200  13.435  1.00  0.00    -0.000 C 
BRANCH  16  17
ATOM     17  C   UNL     1     -11.209  -4.302  14.673  1.00  0.00    -0.003 C 
ATOM     18  C   UNL     1     -12.469  -3.488  14.965  1.00  0.00     0.004 C 
ENDBRANCH  16  17
ENDBRANCH  15  16
ENDBRANCH  14  15
ENDBRANCH  13  14
ENDBRANCH  12  13
ENDBRANCH  10  11
ENDBRANCH   1  10
TORSDOF 13
ENDMDL
MODEL 2
REMARK VINA RESULT:    -3.947      1.413      2.795
REMARK INTER + INTRA:          -8.734
REMARK INTER:                  -7.505
REMARK INTRA:                  -1.228
REMARK UNBOUND:                -1.788
REMARK SMILES CCCCCCC=CCCCCCCCC(=O)[O-]
REMARK SMILES IDX 10 1 11 2 12 3 13 4 14 5 15 6 16 7 17 8 18 9 9 10 8 11 7 12
REMARK SMILES IDX 6 13 5 14 4 15 3 16 2 17 1 18
REMARK H PARENT
REMARK Flexibility Score: inf
ROOT
ATOM      1  C   UNL     1     -10.304  -7.608  16.348  1.00  0.00     0.004 C 
ENDROOT
BRANCH   1   2
ATOM      2  C   UNL     1     -10.903  -8.696  17.258  1.00  0.00     0.000 C 
BRANCH   2   3
ATOM      3  C   UNL     1     -11.689  -8.115  18.444  1.00  0.00     0.000 C 
BRANCH   3   4
ATOM      4  C   UNL     1     -11.339  -8.817  19.774  1.00  0.00     0.000 C 
BRANCH   4   5
ATOM      5  C   UNL     1     -10.016  -8.337  20.394  1.00  0.00     0.006 C 
BRANCH   5   6
ATOM      6  C   UNL     1      -9.894  -6.809  20.430  1.00  0.00     0.053 C 
BRANCH   6   7
ATOM      7  C   UNL     1      -9.193  -6.370  21.677  1.00  0.00     0.041 C 
ATOM      8  O   UNL     1      -7.971  -6.624  21.840  1.00  0.00    -0.550 OA
ATOM      9  O   UNL     1      -9.902  -5.723  22.681  1.00  0.00    -0.550 OA
ENDBRANCH   6   7
ENDBRANCH   5   6
ENDBRANCH   4   5
ENDBRANCH   3   4
ENDBRANCH   2   3
ENDBRANCH   1   2
BRANCH   1  10
ATOM     10  C   UNL     1     -10.760  -7.709  14.878  1.00  0.00     0.027 C 
BRANCH  10  11
ATOM     11  C   UNL     1     -12.110  -8.370  14.736  1.00  0.00    -0.031 C 
ATOM     12  C   UNL     1     -12.765  -8.525  13.571  1.00  0.00    -0.031 C 
BRANCH  12  13
ATOM     13  C   UNL     1     -12.214  -8.138  12.222  1.00  0.00     0.027 C 
BRANCH  13  14
ATOM     14  C   UNL     1     -13.124  -7.104  11.546  1.00  0.00     0.004 C 
BRANCH  14  15
ATOM     15  C   UNL     1     -12.551  -5.680  11.615  1.00  0.00     0.000 C 
BRANCH  15  16
ATOM     16  C   UNL     1     -13.106  -4.878  12.807  1.00  0.00    -0.000 C 
BRANCH  16  17
ATOM     17  C   UNL     1     -12.051  -4.643  13.899  1.00  0.00    -0.003 C 
ATOM     18  C   UNL     1     -12.384  -3.447  14.791  1.00  0.00     0.004 C 
ENDBRANCH  16  17
ENDBRANCH  15  16
ENDBRANCH  14  15
ENDBRANCH  13  14
ENDBRANCH  12  13
ENDBRANCH  10  11
ENDBRANCH   1  10
TORSDOF 13
ENDMDL
MODEL 3
REMARK VINA RESULT:    -3.889     12.911     15.330
REMARK INTER + INTRA:          -8.632
REMARK INTER:                  -6.201
REMARK INTRA:                  -2.431
REMARK UNBOUND:                -1.788
REMARK SMILES CCCCCCC=CCCCCCCCC(=O)[O-]
REMARK SMILES IDX 10 1 11 2 12 3 13 4 14 5 15 6 16 7 17 8 18 9 9 10 8 11 7 12
REMARK SMILES IDX 6 13 5 14 4 15 3 16 2 17 1 18
REMARK H PARENT
REMARK Flexibility Score: inf
ROOT
ATOM      1  C   UNL     1       0.371   0.629  16.033  1.00  0.00     0.004 C 
ENDROOT
BRANCH   1   2
ATOM      2  C   UNL     1      -0.587   0.375  14.855  1.00  0.00     0.000 C 
BRANCH   2   3
ATOM      3  C   UNL     1      -0.981   1.665  14.117  1.00  0.00     0.000 C 
BRANCH   3   4
ATOM      4  C   UNL     1      -2.460   1.654  13.676  1.00  0.00     0.000 C 
BRANCH   4   5
ATOM      5  C   UNL     1      -2.953   3.009  13.142  1.00  0.00     0.006 C 
BRANCH   5   6
ATOM      6  C   UNL     1      -1.884   4.105  13.218  1.00  0.00     0.053 C 
BRANCH   6   7
ATOM      7  C   UNL     1      -2.500   5.409  13.618  1.00  0.00     0.041 C 
ATOM      8  O   UNL     1      -3.512   5.429  14.366  1.00  0.00    -0.550 OA
ATOM      9  O   UNL     1      -1.985   6.602  13.125  1.00  0.00    -0.550 OA
ENDBRANCH   6   7
ENDBRANCH   5   6
ENDBRANCH   4   5
ENDBRANCH   3   4
ENDBRANCH   2   3
ENDBRANCH   1   2
BRANCH   1  10
ATOM     10  C   UNL     1       1.491   1.641  15.715  1.00  0.00     0.027 C 
BRANCH  10  11
ATOM     11  C   UNL     1       1.797   2.549  16.881  1.00  0.00    -0.031 C 
ATOM     12  C   UNL     1       1.246   3.763  17.069  1.00  0.00    -0.031 C 
BRANCH  12  13
ATOM     13  C   UNL     1       0.179   4.363  16.189  1.00  0.00     0.027 C 
BRANCH  13  14
ATOM     14  C   UNL     1      -1.128   4.540  16.973  1.00  0.00     0.004 C 
BRANCH  14  15
ATOM     15  C   UNL     1      -1.772   3.198  17.355  1.00  0.00     0.000 C 
BRANCH  15  16
ATOM     16  C   UNL     1      -3.289   3.177  17.095  1.00  0.00    -0.000 C 
BRANCH  16  17
ATOM     17  C   UNL     1      -3.843   1.750  16.957  1.00  0.00    -0.003 C 
ATOM     18  C   UNL     1      -4.102   1.086  18.309  1.00  0.00     0.004 C 
ENDBRANCH  16  17
ENDBRANCH  15  16
ENDBRANCH  14  15
ENDBRANCH  13  14
ENDBRANCH  12  13
ENDBRANCH  10  11
ENDBRANCH   1  10
TORSDOF 13
ENDMDL
MODEL 4
REMARK VINA RESULT:    -3.847     14.828     16.662
REMARK INTER + INTRA:          -8.559
REMARK INTER:                  -6.978
REMARK INTRA:                  -1.581
REMARK UNBOUND:                -1.788
REMARK SMILES CCCCCCC=CCCCCCCCC(=O)[O-]
REMARK SMILES IDX 10 1 11 2 12 3 13 4 14 5 15 6 16 7 17 8 18 9 9 10 8 11 7 12
REMARK SMILES IDX 6 13 5 14 4 15 3 16 2 17 1 18
REMARK H PARENT
REMARK Flexibility Score: inf
ROOT
ATOM      1  C   UNL     1       0.316   0.118  16.557  1.00  0.00     0.004 C 
ENDROOT
BRANCH   1   2
ATOM      2  C   UNL     1       0.688   0.306  15.075  1.00  0.00     0.000 C 
BRANCH   2   3
ATOM      3  C   UNL     1       2.041  -0.330  14.715  1.00  0.00     0.000 C 
BRANCH   3   4
ATOM      4  C   UNL     1       3.151   0.728  14.536  1.00  0.00     0.000 C 
BRANCH   4   5
ATOM      5  C   UNL     1       4.467   0.151  13.987  1.00  0.00     0.006 C 
BRANCH   5   6
ATOM      6  C   UNL     1       4.427  -1.372  13.816  1.00  0.00     0.053 C 
BRANCH   6   7
ATOM      7  C   UNL     1       5.810  -1.916  13.645  1.00  0.00     0.041 C 
ATOM      8  O   UNL     1       6.095  -3.066  14.068  1.00  0.00    -0.550 OA
ATOM      9  O   UNL     1       6.798  -1.131  13.062  1.00  0.00    -0.550 OA
ENDBRANCH   6   7
ENDBRANCH   5   6
ENDBRANCH   4   5
ENDBRANCH   3   4
ENDBRANCH   2   3
ENDBRANCH   1   2
BRANCH   1  10
ATOM     10  C   UNL     1       0.165   1.444  17.332  1.00  0.00     0.027 C 
BRANCH  10  11
ATOM     11  C   UNL     1       1.494   2.098  17.622  1.00  0.00    -0.031 C 
ATOM     12  C   UNL     1       1.828   3.347  17.247  1.00  0.00    -0.031 C 
BRANCH  12  13
ATOM     13  C   UNL     1       0.897   4.310  16.555  1.00  0.00     0.027 C 
BRANCH  13  14
ATOM     14  C   UNL     1       1.198   4.361  15.050  1.00  0.00     0.004 C 
BRANCH  14  15
ATOM     15  C   UNL     1       0.035   3.828  14.198  1.00  0.00     0.000 C 
BRANCH  15  16
ATOM     16  C   UNL     1      -1.328   4.380  14.650  1.00  0.00    -0.000 C 
BRANCH  16  17
ATOM     17  C   UNL     1      -2.086   5.080  13.511  1.00  0.00    -0.003 C 
ATOM     18  C   UNL     1      -3.385   5.734  13.983  1.00  0.00     0.004 C 
ENDBRANCH  16  17
ENDBRANCH  15  16
ENDBRANCH  14  15
ENDBRANCH  13  14
ENDBRANCH  12  13
ENDBRANCH  10  11
ENDBRANCH   1  10
TORSDOF 13
ENDMDL
MODEL 5
REMARK VINA RESULT:    -3.846     16.721     17.776
REMARK INTER + INTRA:          -8.557
REMARK INTER:                  -6.530
REMARK INTRA:                  -2.027
REMARK UNBOUND:                -1.788
REMARK SMILES CCCCCCC=CCCCCCCCC(=O)[O-]
REMARK SMILES IDX 10 1 11 2 12 3 13 4 14 5 15 6 16 7 17 8 18 9 9 10 8 11 7 12
REMARK SMILES IDX 6 13 5 14 4 15 3 16 2 17 1 18
REMARK H PARENT
REMARK Flexibility Score: inf
ROOT
ATOM      1  C   UNL     1       6.381  -6.342  13.344  1.00  0.00     0.004 C 
ENDROOT
BRANCH   1   2
ATOM      2  C   UNL     1       7.007  -7.204  14.455  1.00  0.00     0.000 C 
BRANCH   2   3
ATOM      3  C   UNL     1       6.046  -8.276  14.993  1.00  0.00     0.000 C 
BRANCH   3   4
ATOM      4  C   UNL     1       5.585  -7.974  16.435  1.00  0.00     0.000 C 
BRANCH   4   5
ATOM      5  C   UNL     1       6.635  -7.228  17.274  1.00  0.00     0.006 C 
BRANCH   5   6
ATOM      6  C   UNL     1       6.013  -6.287  18.312  1.00  0.00     0.053 C 
BRANCH   6   7
ATOM      7  C   UNL     1       6.355  -6.737  19.697  1.00  0.00     0.041 C 
ATOM      8  O   UNL     1       7.124  -7.718  19.873  1.00  0.00    -0.550 OA
ATOM      9  O   UNL     1       5.785  -6.104  20.794  1.00  0.00    -0.550 OA
ENDBRANCH   6   7
ENDBRANCH   5   6
ENDBRANCH   4   5
ENDBRANCH   3   4
ENDBRANCH   2   3
ENDBRANCH   1   2
BRANCH   1  10
ATOM     10  C   UNL     1       6.719  -4.841  13.458  1.00  0.00     0.027 C 
BRANCH  10  11
ATOM     11  C   UNL     1       6.774  -4.368  14.890  1.00  0.00    -0.031 C 
ATOM     12  C   UNL     1       5.760  -3.759  15.532  1.00  0.00    -0.031 C 
BRANCH  12  13
ATOM     13  C   UNL     1       4.390  -3.531  14.946  1.00  0.00     0.027 C 
BRANCH  13  14
ATOM     14  C   UNL     1       4.039  -2.037  14.965  1.00  0.00     0.004 C 
BRANCH  14  15
ATOM     15  C   UNL     1       4.328  -1.347  13.623  1.00  0.00     0.000 C 
BRANCH  15  16
ATOM     16  C   UNL     1       5.790  -0.881  13.502  1.00  0.00    -0.000 C 
BRANCH  16  17
ATOM     17  C   UNL     1       6.485  -1.439  12.251  1.00  0.00    -0.003 C 
ATOM     18  C   UNL     1       5.507  -2.105  11.282  1.00  0.00     0.004 C 
ENDBRANCH  16  17
ENDBRANCH  15  16
ENDBRANCH  14  15
ENDBRANCH  13  14
ENDBRANCH  12  13
ENDBRANCH  10  11
ENDBRANCH   1  10
TORSDOF 13
ENDMDL
MODEL 6
REMARK VINA RESULT:    -3.815      3.068      6.869
REMARK INTER + INTRA:          -8.502
REMARK INTER:                  -6.534
REMARK INTRA:                  -1.969
REMARK UNBOUND:                -1.788
REMARK SMILES CCCCCCC=CCCCCCCCC(=O)[O-]
REMARK SMILES IDX 10 1 11 2 12 3 13 4 14 5 15 6 16 7 17 8 18 9 9 10 8 11 7 12
REMARK SMILES IDX 6 13 5 14 4 15 3 16 2 17 1 18
REMARK H PARENT
REMARK Flexibility Score: inf
ROOT
ATOM      1  C   UNL     1      -9.686  -8.045  16.215  1.00  0.00     0.004 C 
ENDROOT
BRANCH   1   2
ATOM      2  C   UNL     1     -10.899  -7.537  15.415  1.00  0.00     0.000 C 
BRANCH   2   3
ATOM      3  C   UNL     1     -11.023  -8.199  14.033  1.00  0.00     0.000 C 
BRANCH   3   4
ATOM      4  C   UNL     1     -12.475  -8.618  13.717  1.00  0.00     0.000 C 
BRANCH   4   5
ATOM      5  C   UNL     1     -13.098  -7.841  12.546  1.00  0.00     0.006 C 
BRANCH   5   6
ATOM      6  C   UNL     1     -12.122  -6.852  11.898  1.00  0.00     0.053 C 
BRANCH   6   7
ATOM      7  C   UNL     1     -12.620  -5.450  12.050  1.00  0.00     0.041 C 
ATOM      8  O   UNL     1     -12.918  -5.003  13.188  1.00  0.00    -0.550 OA
ATOM      9  O   UNL     1     -12.803  -4.651  10.928  1.00  0.00    -0.550 OA
ENDBRANCH   6   7
ENDBRANCH   5   6
ENDBRANCH   4   5
ENDBRANCH   3   4
ENDBRANCH   2   3
ENDBRANCH   1   2
BRANCH   1  10
ATOM     10  C   UNL     1     -10.051  -9.060  17.317  1.00  0.00     0.027 C 
BRANCH  10  11
ATOM     11  C   UNL     1     -11.322  -8.691  18.044  1.00  0.00    -0.031 C 
ATOM     12  C   UNL     1     -11.429  -8.570  19.381  1.00  0.00    -0.031 C 
BRANCH  12  13
ATOM     13  C   UNL     1     -10.278  -8.702  20.346  1.00  0.00     0.027 C 
BRANCH  13  14
ATOM     14  C   UNL     1      -9.796  -7.317  20.800  1.00  0.00     0.004 C 
BRANCH  14  15
ATOM     15  C   UNL     1      -8.446  -6.930  20.176  1.00  0.00     0.000 C 
BRANCH  15  16
ATOM     16  C   UNL     1      -8.587  -5.851  19.088  1.00  0.00    -0.000 C 
BRANCH  16  17
ATOM     17  C   UNL     1      -9.843  -4.986  19.275  1.00  0.00    -0.003 C 
ATOM     18  C   UNL     1     -10.765  -5.015  18.057  1.00  0.00     0.004 C 
ENDBRANCH  16  17
ENDBRANCH  15  16
ENDBRANCH  14  15
ENDBRANCH  13  14
ENDBRANCH  12  13
ENDBRANCH  10  11
ENDBRANCH   1  10
TORSDOF 13
ENDMDL
MODEL 7
REMARK VINA RESULT:    -3.782     12.339     14.990
REMARK INTER + INTRA:          -8.444
REMARK INTER:                  -7.129
REMARK INTRA:                  -1.314
REMARK UNBOUND:                -1.788
REMARK SMILES CCCCCCC=CCCCCCCCC(=O)[O-]
REMARK SMILES IDX 10 1 11 2 12 3 13 4 14 5 15 6 16 7 17 8 18 9 9 10 8 11 7 12
REMARK SMILES IDX 6 13 5 14 4 15 3 16 2 17 1 18
REMARK H PARENT
REMARK Flexibility Score: inf
ROOT
ATOM      1  C   UNL     1      -2.566   2.754  12.388  1.00  0.00     0.004 C 
ENDROOT
BRANCH   1   2
ATOM      2  C   UNL     1      -1.872   1.937  11.283  1.00  0.00     0.000 C 
BRANCH   2   3
ATOM      3  C   UNL     1      -2.757   1.740  10.041  1.00  0.00     0.000 C 
BRANCH   3   4
ATOM      4  C   UNL     1      -4.207   1.365  10.414  1.00  0.00     0.000 C 
BRANCH   4   5
ATOM      5  C   UNL     1      -5.177   1.397   9.220  1.00  0.00     0.006 C 
BRANCH   5   6
ATOM      6  C   UNL     1      -4.926   0.266   8.217  1.00  0.00     0.053 C 
BRANCH   6   7
ATOM      7  C   UNL     1      -6.186  -0.500   7.966  1.00  0.00     0.041 C 
ATOM      8  O   UNL     1      -7.287   0.103   7.876  1.00  0.00    -0.550 OA
ATOM      9  O   UNL     1      -6.152  -1.887   7.882  1.00  0.00    -0.550 OA
ENDBRANCH   6   7
ENDBRANCH   5   6
ENDBRANCH   4   5
ENDBRANCH   3   4
ENDBRANCH   2   3
ENDBRANCH   1   2
BRANCH   1  10
ATOM     10  C   UNL     1      -1.626   3.738  13.114  1.00  0.00     0.027 C 
BRANCH  10  11
ATOM     11  C   UNL     1      -2.377   4.852  13.803  1.00  0.00    -0.031 C 
ATOM     12  C   UNL     1      -2.856   4.786  15.060  1.00  0.00    -0.031 C 
BRANCH  12  13
ATOM     13  C   UNL     1      -2.642   3.624  15.997  1.00  0.00     0.027 C 
BRANCH  13  14
ATOM     14  C   UNL     1      -1.409   3.866  16.879  1.00  0.00     0.004 C 
BRANCH  14  15
ATOM     15  C   UNL     1      -0.420   2.690  16.843  1.00  0.00     0.000 C 
BRANCH  15  16
ATOM     16  C   UNL     1       0.727   2.914  15.842  1.00  0.00    -0.000 C 
BRANCH  16  17
ATOM     17  C   UNL     1       1.112   4.396  15.711  1.00  0.00    -0.003 C 
ATOM     18  C   UNL     1       1.578   4.761  14.302  1.00  0.00     0.004 C 
ENDBRANCH  16  17
ENDBRANCH  15  16
ENDBRANCH  14  15
ENDBRANCH  13  14
ENDBRANCH  12  13
ENDBRANCH  10  11
ENDBRANCH   1  10
TORSDOF 13
ENDMDL
MODEL 8
REMARK VINA RESULT:    -3.781      1.165      3.652
REMARK INTER + INTRA:          -8.442
REMARK INTER:                  -7.051
REMARK INTRA:                  -1.391
REMARK UNBOUND:                -1.788
REMARK SMILES CCCCCCC=CCCCCCCCC(=O)[O-]
REMARK SMILES IDX 10 1 11 2 12 3 13 4 14 5 15 6 16 7 17 8 18 9 9 10 8 11 7 12
REMARK SMILES IDX 6 13 5 14 4 15 3 16 2 17 1 18
REMARK H PARENT
REMARK Flexibility Score: inf
ROOT
ATOM      1  C   UNL     1     -10.500  -5.672  15.712  1.00  0.00     0.004 C 
ENDROOT
BRANCH   1   2
ATOM      2  C   UNL     1     -10.149  -7.145  15.437  1.00  0.00     0.000 C 
BRANCH   2   3
ATOM      3  C   UNL     1     -11.222  -8.120  15.947  1.00  0.00     0.000 C 
BRANCH   3   4
ATOM      4  C   UNL     1     -10.838  -8.751  17.303  1.00  0.00     0.000 C 
BRANCH   4   5
ATOM      5  C   UNL     1     -11.622  -8.174  18.494  1.00  0.00     0.006 C 
BRANCH   5   6
ATOM      6  C   UNL     1     -11.179  -8.758  19.840  1.00  0.00     0.053 C 
BRANCH   6   7
ATOM      7  C   UNL     1     -10.191  -7.852  20.504  1.00  0.00     0.041 C 
ATOM      8  O   UNL     1     -10.142  -6.633  20.195  1.00  0.00    -0.550 OA
ATOM      9  O   UNL     1      -9.289  -8.365  21.428  1.00  0.00    -0.550 OA
ENDBRANCH   6   7
ENDBRANCH   5   6
ENDBRANCH   4   5
ENDBRANCH   3   4
ENDBRANCH   2   3
ENDBRANCH   1   2
BRANCH   1  10
ATOM     10  C   UNL     1     -10.624  -4.815  14.435  1.00  0.00     0.027 C 
BRANCH  10  11
ATOM     11  C   UNL     1     -12.053  -4.435  14.131  1.00  0.00    -0.031 C 
ATOM     12  C   UNL     1     -12.784  -4.954  13.126  1.00  0.00    -0.031 C 
BRANCH  12  13
ATOM     13  C   UNL     1     -12.314  -6.052  12.206  1.00  0.00     0.027 C 
BRANCH  13  14
ATOM     14  C   UNL     1     -12.810  -7.418  12.702  1.00  0.00     0.004 C 
BRANCH  14  15
ATOM     15  C   UNL     1     -11.958  -8.582  12.173  1.00  0.00     0.000 C 
BRANCH  15  16
ATOM     16  C   UNL     1     -12.320  -8.970  10.728  1.00  0.00    -0.000 C 
BRANCH  16  17
ATOM     17  C   UNL     1     -11.111  -8.910   9.782  1.00  0.00    -0.003 C 
ATOM     18  C   UNL     1     -11.032  -7.593   9.010  1.00  0.00     0.004 C 
ENDBRANCH  16  17
ENDBRANCH  15  16
ENDBRANCH  14  15
ENDBRANCH  13  14
ENDBRANCH  12  13
ENDBRANCH  10  11
ENDBRANCH   1  10
TORSDOF 13
ENDMDL
MODEL 9
REMARK VINA RESULT:    -3.757     17.076     17.882
REMARK INTER + INTRA:          -8.401
REMARK INTER:                  -7.289
REMARK INTRA:                  -1.112
REMARK UNBOUND:                -1.788
REMARK SMILES CCCCCCC=CCCCCCCCC(=O)[O-]
REMARK SMILES IDX 10 1 11 2 12 3 13 4 14 5 15 6 16 7 17 8 18 9 9 10 8 11 7 12
REMARK SMILES IDX 6 13 5 14 4 15 3 16 2 17 1 18
REMARK H PARENT
REMARK Flexibility Score: inf
ROOT
ATOM      1  C   UNL     1       5.947  -6.112  13.469  1.00  0.00     0.004 C 
ENDROOT
BRANCH   1   2
ATOM      2  C   UNL     1       6.740  -7.076  14.370  1.00  0.00     0.000 C 
BRANCH   2   3
ATOM      3  C   UNL     1       5.861  -8.176  14.987  1.00  0.00     0.000 C 
BRANCH   3   4
ATOM      4  C   UNL     1       5.550  -7.906  16.475  1.00  0.00     0.000 C 
BRANCH   4   5
ATOM      5  C   UNL     1       6.628  -7.072  17.187  1.00  0.00     0.006 C 
BRANCH   5   6
ATOM      6  C   UNL     1       6.070  -6.243  18.350  1.00  0.00     0.053 C 
BRANCH   6   7
ATOM      7  C   UNL     1       6.747  -6.617  19.631  1.00  0.00     0.041 C 
ATOM      8  O   UNL     1       7.070  -7.813  19.850  1.00  0.00    -0.550 OA
ATOM      9  O   UNL     1       6.976  -5.652  20.604  1.00  0.00    -0.550 OA
ENDBRANCH   6   7
ENDBRANCH   5   6
ENDBRANCH   4   5
ENDBRANCH   3   4
ENDBRANCH   2   3
ENDBRANCH   1   2
BRANCH   1  10
ATOM     10  C   UNL     1       6.752  -5.587  12.262  1.00  0.00     0.027 C 
BRANCH  10  11
ATOM     11  C   UNL     1       5.866  -5.190  11.106  1.00  0.00    -0.031 C 
ATOM     12  C   UNL     1       6.009  -4.061  10.388  1.00  0.00    -0.031 C 
BRANCH  12  13
ATOM     13  C   UNL     1       7.125  -3.063  10.575  1.00  0.00     0.027 C 
BRANCH  13  14
ATOM     14  C   UNL     1       6.604  -1.800  11.274  1.00  0.00     0.004 C 
BRANCH  14  15
ATOM     15  C   UNL     1       7.075  -1.696  12.733  1.00  0.00     0.000 C 
BRANCH  15  16
ATOM     16  C   UNL     1       5.942  -1.963  13.739  1.00  0.00    -0.000 C 
BRANCH  16  17
ATOM     17  C   UNL     1       4.909  -0.825  13.777  1.00  0.00    -0.003 C 
ATOM     18  C   UNL     1       3.611  -1.231  14.473  1.00  0.00     0.004 C 
ENDBRANCH  16  17
ENDBRANCH  15  16
ENDBRANCH  14  15
ENDBRANCH  13  14
ENDBRANCH  12  13
ENDBRANCH  10  11
ENDBRANCH   1  10
TORSDOF 13
ENDMDL
