MODEL 1
REMARK VINA RESULT:    -2.323      0.000      0.000
REMARK INTER + INTRA:          -2.323
REMARK INTER:                  -2.323
REMARK INTRA:                   0.000
REMARK UNBOUND:                 0.000
REMARK SMILES CC(=O)[O-]
REMARK SMILES IDX 1 1 2 2 3 3 4 4
REMARK H PARENT
REMARK Flexibility Score: inf
ROOT
ATOM      1  C   UNL     1      27.361 -13.228  15.791  1.00  0.00     0.063 C 
ATOM      2  C   UNL     1      28.034 -14.251  14.942  1.00  0.00     0.038 C 
ATOM      3  O   UNL     1      28.862 -15.051  15.452  1.00  0.00    -0.550 OA
ATOM      4  O   UNL     1      27.711 -14.361  13.596  1.00  0.00    -0.550 OA
ENDROOT
TORSDOF 0
ENDMDL
MODEL 2
REMARK VINA RESULT:    -2.262      1.346      1.975
REMARK INTER + INTRA:          -2.262
REMARK INTER:                  -2.262
REMARK INTRA:                   0.000
REMARK UNBOUND:                 0.000
REMARK SMILES CC(=O)[O-]
REMARK SMILES IDX 1 1 2 2 3 3 4 4
REMARK H PARENT
REMARK Flexibility Score: inf
ROOT
ATOM      1  C   UNL     1      27.277 -14.352  13.653  1.00  0.00     0.063 C 
ATOM      2  C   UNL     1      27.926 -14.266  14.991  1.00  0.00     0.038 C 
ATOM      3  O   UNL     1      27.537 -13.411  15.829  1.00  0.00    -0.550 OA
ATOM      4  O   UNL     1      28.927 -15.165  15.338  1.00  0.00    -0.550 OA
ENDROOT
TORSDOF 0
ENDMDL
MODEL 3
REMARK VINA RESULT:    -2.246      2.147      2.708
REMARK INTER + INTRA:          -2.246
REMARK INTER:                  -2.246
REMARK INTRA:                   0.000
REMARK UNBOUND:                 0.000
REMARK SMILES CC(=O)[O-]
REMARK SMILES IDX 1 1 2 2 3 3 4 4
REMARK H PARENT
REMARK Flexibility Score: inf
ROOT
ATOM      1  C   UNL     1      28.392 -14.556  15.246  1.00  0.00     0.063 C 
ATOM      2  C   UNL     1      28.213 -13.417  16.189  1.00  0.00     0.038 C 
ATOM      3  O   UNL     1      27.062 -12.961  16.419  1.00  0.00    -0.550 OA
ATOM      4  O   UNL     1      29.309 -12.889  16.859  1.00  0.00    -0.550 OA
ENDROOT
TORSDOF 0
ENDMDL
MODEL 4
REMARK VINA RESULT:    -2.242      1.505      2.036
REMARK INTER + INTRA:          -2.242
REMARK INTER:                  -2.242
REMARK INTRA:                   0.000
REMARK UNBOUND:                 0.000
REMARK SMILES CC(=O)[O-]
REMARK SMILES IDX 1 1 2 2 3 3 4 4
REMARK H PARENT
REMARK Flexibility Score: inf
ROOT
ATOM      1  C   UNL     1      28.747 -14.830  15.388  1.00  0.00     0.063 C 
ATOM      2  C   UNL     1      27.602 -14.163  14.705  1.00  0.00     0.038 C 
ATOM      3  O   UNL     1      27.260 -14.522  13.548  1.00  0.00    -0.550 OA
ATOM      4  O   UNL     1      26.875 -13.180  15.365  1.00  0.00    -0.550 OA
ENDROOT
TORSDOF 0
ENDMDL
MODEL 5
REMARK VINA RESULT:    -2.197     16.460     16.978
REMARK INTER + INTRA:          -2.197
REMARK INTER:                  -2.197
REMARK INTRA:                   0.000
REMARK UNBOUND:                 0.000
REMARK SMILES CC(=O)[O-]
REMARK SMILES IDX 1 1 2 2 3 3 4 4
REMARK H PARENT
REMARK Flexibility Score: inf
ROOT
ATOM      1  C   UNL     1      43.065 -22.510  20.598  1.00  0.00     0.063 C 
ATOM      2  C   UNL     1      42.142 -22.203  19.469  1.00  0.00     0.038 C 
ATOM      3  O   UNL     1      40.897 -22.313  19.622  1.00  0.00    -0.550 OA
ATOM      4  O   UNL     1      42.650 -21.743  18.261  1.00  0.00    -0.550 OA
ENDROOT
TORSDOF 0
ENDMDL
MODEL 6
REMARK VINA RESULT:    -2.182     16.298     16.883
REMARK INTER + INTRA:          -2.182
REMARK INTER:                  -2.182
REMARK INTRA:                   0.000
REMARK UNBOUND:                 0.000
REMARK SMILES CC(=O)[O-]
REMARK SMILES IDX 1 1 2 2 3 3 4 4
REMARK H PARENT
REMARK Flexibility Score: inf
ROOT
ATOM      1  C   UNL     1      42.999 -22.499  20.440  1.00  0.00     0.063 C 
ATOM      2  C   UNL     1      42.145 -22.108  19.283  1.00  0.00     0.038 C 
ATOM      3  O   UNL     1      42.676 -21.746  18.200  1.00  0.00    -0.550 OA
ATOM      4  O   UNL     1      40.763 -22.193  19.378  1.00  0.00    -0.550 OA
ENDROOT
TORSDOF 0
ENDMDL
MODEL 7
REMARK VINA RESULT:    -2.134     10.969     11.623
REMARK INTER + INTRA:          -2.134
REMARK INTER:                  -2.134
REMARK INTRA:                   0.000
REMARK UNBOUND:                 0.000
REMARK SMILES CC(=O)[O-]
REMARK SMILES IDX 1 1 2 2 3 3 4 4
REMARK H PARENT
REMARK Flexibility Score: inf
ROOT
ATOM      1  C   UNL     1      31.069 -16.977  25.601  1.00  0.00     0.063 C 
ATOM      2  C   UNL     1      30.960 -18.410  25.206  1.00  0.00     0.038 C 
ATOM      3  O   UNL     1      30.630 -18.719  24.031  1.00  0.00    -0.550 OA
ATOM      4  O   UNL     1      31.273 -19.409  26.118  1.00  0.00    -0.550 OA
ENDROOT
TORSDOF 0
ENDMDL
MODEL 8
REMARK VINA RESULT:    -2.120      3.369      3.584
REMARK INTER + INTRA:          -2.120
REMARK INTER:                  -2.120
REMARK INTRA:                   0.000
REMARK UNBOUND:                 0.000
REMARK SMILES CC(=O)[O-]
REMARK SMILES IDX 1 1 2 2 3 3 4 4
REMARK H PARENT
REMARK Flexibility Score: inf
ROOT
ATOM      1  C   UNL     1      27.995  -9.448  15.806  1.00  0.00     0.063 C 
ATOM      2  C   UNL     1      27.623 -10.788  15.272  1.00  0.00     0.038 C 
ATOM      3  O   UNL     1      27.930 -11.830  15.909  1.00  0.00    -0.550 OA
ATOM      4  O   UNL     1      26.890 -10.890  14.097  1.00  0.00    -0.550 OA
ENDROOT
TORSDOF 0
ENDMDL
MODEL 9
REMARK VINA RESULT:    -2.110      3.528      3.726
REMARK INTER + INTRA:          -2.110
REMARK INTER:                  -2.110
REMARK INTRA:                   0.000
REMARK UNBOUND:                 0.000
REMARK SMILES CC(=O)[O-]
REMARK SMILES IDX 1 1 2 2 3 3 4 4
REMARK H PARENT
REMARK Flexibility Score: inf
ROOT
ATOM      1  C   UNL     1      27.050 -11.246  13.977  1.00  0.00     0.063 C 
ATOM      2  C   UNL     1      27.573 -11.006  15.352  1.00  0.00     0.038 C 
ATOM      3  O   UNL     1      28.101 -11.947  16.000  1.00  0.00    -0.550 OA
ATOM      4  O   UNL     1      27.528  -9.731  15.901  1.00  0.00    -0.550 OA
ENDROOT
TORSDOF 0
ENDMDL
