MODEL 1
REMARK VINA RESULT:    -5.882      0.000      0.000
REMARK INTER + INTRA:          -6.651
REMARK INTER:                  -6.398
REMARK INTRA:                  -0.254
REMARK UNBOUND:                -0.254
REMARK SMILES O=C([O-])c1ccccc1O
REMARK SMILES IDX 4 1 9 2 5 3 8 4 6 5 7 6 2 7 1 8 3 9 10 10
REMARK H PARENT 10 11
REMARK Flexibility Score: inf
ROOT
ATOM      1  C   UNL     1     152.069 155.666 159.833  1.00  0.00     0.039 A 
ATOM      2  C   UNL     1     152.571 155.742 158.513  1.00  0.00     0.124 A 
ATOM      3  C   UNL     1     151.014 156.521 160.208  1.00  0.00     0.014 A 
ATOM      4  C   UNL     1     152.017 156.659 157.605  1.00  0.00     0.047 A 
ATOM      5  C   UNL     1     150.471 157.429 159.295  1.00  0.00     0.001 A 
ATOM      6  C   UNL     1     150.973 157.497 157.996  1.00  0.00     0.004 A 
ENDROOT
BRANCH   1   7
ATOM      7  C   UNL     1     152.625 154.710 160.826  1.00  0.00     0.075 C 
ATOM      8  O   UNL     1     152.834 155.077 162.014  1.00  0.00    -0.545 OA
ATOM      9  O   UNL     1     152.927 153.401 160.472  1.00  0.00    -0.545 OA
ENDBRANCH   1   7
BRANCH   2  10
ATOM     10  O   UNL     1     153.614 154.916 158.096  1.00  0.00    -0.507 OA
ATOM     11  H   UNL     1     153.486 154.222 157.368  1.00  0.00     0.293 HD
ENDBRANCH   2  10
TORSDOF 2
ENDMDL
MODEL 2
REMARK VINA RESULT:    -5.717      1.198      2.350
REMARK INTER + INTRA:          -6.472
REMARK INTER:                  -6.274
REMARK INTRA:                  -0.198
REMARK UNBOUND:                -0.254
REMARK SMILES O=C([O-])c1ccccc1O
REMARK SMILES IDX 4 1 9 2 5 3 8 4 6 5 7 6 2 7 1 8 3 9 10 10
REMARK H PARENT 10 11
REMARK Flexibility Score: inf
ROOT
ATOM      1  C   UNL     1     152.736 155.305 159.687  1.00  0.00     0.039 A 
ATOM      2  C   UNL     1     151.939 156.392 160.116  1.00  0.00     0.124 A 
ATOM      3  C   UNL     1     152.899 155.088 158.305  1.00  0.00     0.014 A 
ATOM      4  C   UNL     1     151.329 157.230 159.169  1.00  0.00     0.047 A 
ATOM      5  C   UNL     1     152.286 155.928 157.372  1.00  0.00     0.001 A 
ATOM      6  C   UNL     1     151.502 156.997 157.804  1.00  0.00     0.004 A 
ENDROOT
BRANCH   1   7
ATOM      7  C   UNL     1     153.400 154.394 160.655  1.00  0.00     0.075 C 
ATOM      8  O   UNL     1     154.384 153.692 160.296  1.00  0.00    -0.545 OA
ATOM      9  O   UNL     1     152.958 154.294 161.969  1.00  0.00    -0.545 OA
ENDBRANCH   1   7
BRANCH   2  10
ATOM     10  O   UNL     1     151.748 156.647 161.474  1.00  0.00    -0.507 OA
ATOM     11  H   UNL     1     151.685 155.897 162.154  1.00  0.00     0.293 HD
ENDBRANCH   2  10
TORSDOF 2
ENDMDL
MODEL 3
REMARK VINA RESULT:    -5.438     15.147     16.100
REMARK INTER + INTRA:          -6.168
REMARK INTER:                  -5.918
REMARK INTRA:                  -0.251
REMARK UNBOUND:                -0.254
REMARK SMILES O=C([O-])c1ccccc1O
REMARK SMILES IDX 4 1 9 2 5 3 8 4 6 5 7 6 2 7 1 8 3 9 10 10
REMARK H PARENT 10 11
REMARK Flexibility Score: inf
ROOT
ATOM      1  C   UNL     1     150.903 169.179 150.943  1.00  0.00     0.039 A 
ATOM      2  C   UNL     1     150.853 168.514 149.696  1.00  0.00     0.124 A 
ATOM      3  C   UNL     1     149.872 170.080 151.273  1.00  0.00     0.014 A 
ATOM      4  C   UNL     1     149.788 168.758 148.814  1.00  0.00     0.047 A 
ATOM      5  C   UNL     1     148.818 170.315 150.387  1.00  0.00     0.001 A 
ATOM      6  C   UNL     1     148.776 169.655 149.160  1.00  0.00     0.004 A 
ENDROOT
BRANCH   1   7
ATOM      7  C   UNL     1     152.011 168.949 151.906  1.00  0.00     0.075 C 
ATOM      8  O   UNL     1     151.774 168.871 153.142  1.00  0.00    -0.545 OA
ATOM      9  O   UNL     1     153.325 168.816 151.473  1.00  0.00    -0.545 OA
ENDBRANCH   1   7
BRANCH   2  10
ATOM     10  O   UNL     1     151.851 167.612 149.325  1.00  0.00    -0.507 OA
ATOM     11  H   UNL     1     152.759 167.926 149.003  1.00  0.00     0.293 HD
ENDBRANCH   2  10
TORSDOF 2
ENDMDL
MODEL 4
REMARK VINA RESULT:    -5.432      1.705      3.123
REMARK INTER + INTRA:          -6.161
REMARK INTER:                  -5.927
REMARK INTRA:                  -0.235
REMARK UNBOUND:                -0.254
REMARK SMILES O=C([O-])c1ccccc1O
REMARK SMILES IDX 4 1 9 2 5 3 8 4 6 5 7 6 2 7 1 8 3 9 10 10
REMARK H PARENT 10 11
REMARK Flexibility Score: inf
ROOT
ATOM      1  C   UNL     1     151.309 157.102 158.685  1.00  0.00     0.039 A 
ATOM      2  C   UNL     1     150.793 156.734 159.950  1.00  0.00     0.124 A 
ATOM      3  C   UNL     1     150.599 158.039 157.909  1.00  0.00     0.014 A 
ATOM      4  C   UNL     1     149.592 157.300 160.408  1.00  0.00     0.047 A 
ATOM      5  C   UNL     1     149.405 158.595 158.376  1.00  0.00     0.001 A 
ATOM      6  C   UNL     1     148.903 158.225 159.623  1.00  0.00     0.004 A 
ENDROOT
BRANCH   1   7
ATOM      7  C   UNL     1     152.576 156.528 158.162  1.00  0.00     0.075 C 
ATOM      8  O   UNL     1     153.660 156.710 158.781  1.00  0.00    -0.545 OA
ATOM      9  O   UNL     1     152.598 155.784 156.989  1.00  0.00    -0.545 OA
ENDBRANCH   1   7
BRANCH   2  10
ATOM     10  O   UNL     1     151.461 155.811 160.754  1.00  0.00    -0.507 OA
ATOM     11  H   UNL     1     151.363 155.813 161.763  1.00  0.00     0.293 HD
ENDBRANCH   2  10
TORSDOF 2
ENDMDL
MODEL 5
REMARK VINA RESULT:    -5.278      2.026      3.992
REMARK INTER + INTRA:          -5.994
REMARK INTER:                  -5.768
REMARK INTRA:                  -0.226
REMARK UNBOUND:                -0.254
REMARK SMILES O=C([O-])c1ccccc1O
REMARK SMILES IDX 4 1 9 2 5 3 8 4 6 5 7 6 2 7 1 8 3 9 10 10
REMARK H PARENT 10 11
REMARK Flexibility Score: inf
ROOT
ATOM      1  C   UNL     1     152.700 155.383 159.270  1.00  0.00     0.039 A 
ATOM      2  C   UNL     1     152.030 155.742 160.463  1.00  0.00     0.124 A 
ATOM      3  C   UNL     1     153.777 154.477 159.342  1.00  0.00     0.014 A 
ATOM      4  C   UNL     1     152.444 155.197 161.689  1.00  0.00     0.047 A 
ATOM      5  C   UNL     1     154.179 153.943 160.569  1.00  0.00     0.001 A 
ATOM      6  C   UNL     1     153.514 154.302 161.740  1.00  0.00     0.004 A 
ENDROOT
BRANCH   1   7
ATOM      7  C   UNL     1     152.294 155.935 157.951  1.00  0.00     0.075 C 
ATOM      8  O   UNL     1     151.825 157.102 157.868  1.00  0.00    -0.545 OA
ATOM      9  O   UNL     1     152.421 155.185 156.788  1.00  0.00    -0.545 OA
ENDBRANCH   1   7
BRANCH   2  10
ATOM     10  O   UNL     1     150.959 156.634 160.441  1.00  0.00    -0.507 OA
ATOM     11  H   UNL     1     150.952 157.444 159.832  1.00  0.00     0.293 HD
ENDBRANCH   2  10
TORSDOF 2
ENDMDL
MODEL 6
REMARK VINA RESULT:    -5.267      1.929      3.450
REMARK INTER + INTRA:          -5.982
REMARK INTER:                  -5.767
REMARK INTRA:                  -0.215
REMARK UNBOUND:                -0.254
REMARK SMILES O=C([O-])c1ccccc1O
REMARK SMILES IDX 4 1 9 2 5 3 8 4 6 5 7 6 2 7 1 8 3 9 10 10
REMARK H PARENT 10 11
REMARK Flexibility Score: inf
ROOT
ATOM      1  C   UNL     1     152.179 155.838 159.854  1.00  0.00     0.039 A 
ATOM      2  C   UNL     1     153.084 155.046 159.110  1.00  0.00     0.124 A 
ATOM      3  C   UNL     1     152.150 155.700 161.256  1.00  0.00     0.014 A 
ATOM      4  C   UNL     1     153.933 154.144 159.772  1.00  0.00     0.047 A 
ATOM      5  C   UNL     1     153.000 154.799 161.902  1.00  0.00     0.001 A 
ATOM      6  C   UNL     1     153.889 154.022 161.161  1.00  0.00     0.004 A 
ENDROOT
BRANCH   1   7
ATOM      7  C   UNL     1     151.264 156.806 159.195  1.00  0.00     0.075 C 
ATOM      8  O   UNL     1     150.201 157.168 159.768  1.00  0.00    -0.545 OA
ATOM      9  O   UNL     1     151.555 157.330 157.941  1.00  0.00    -0.545 OA
ENDBRANCH   1   7
BRANCH   2  10
ATOM     10  O   UNL     1     153.149 155.148 157.721  1.00  0.00    -0.507 OA
ATOM     11  H   UNL     1     153.683 155.878 157.264  1.00  0.00     0.293 HD
ENDBRANCH   2  10
TORSDOF 2
ENDMDL
MODEL 7
REMARK VINA RESULT:    -5.260     15.793     16.460
REMARK INTER + INTRA:          -5.975
REMARK INTER:                  -5.721
REMARK INTRA:                  -0.254
REMARK UNBOUND:                -0.254
REMARK SMILES O=C([O-])c1ccccc1O
REMARK SMILES IDX 4 1 9 2 5 3 8 4 6 5 7 6 2 7 1 8 3 9 10 10
REMARK H PARENT 10 11
REMARK Flexibility Score: inf
ROOT
ATOM      1  C   UNL     1     150.171 169.756 151.155  1.00  0.00     0.039 A 
ATOM      2  C   UNL     1     151.009 168.841 150.475  1.00  0.00     0.124 A 
ATOM      3  C   UNL     1     148.991 170.194 150.522  1.00  0.00     0.014 A 
ATOM      4  C   UNL     1     150.658 168.389 149.193  1.00  0.00     0.047 A 
ATOM      5  C   UNL     1     148.653 169.737 149.246  1.00  0.00     0.001 A 
ATOM      6  C   UNL     1     149.485 168.836 148.583  1.00  0.00     0.004 A 
ENDROOT
BRANCH   1   7
ATOM      7  C   UNL     1     150.504 170.259 152.513  1.00  0.00     0.075 C 
ATOM      8  O   UNL     1     149.612 170.333 153.400  1.00  0.00    -0.545 OA
ATOM      9  O   UNL     1     151.796 170.657 152.835  1.00  0.00    -0.545 OA
ENDBRANCH   1   7
BRANCH   2  10
ATOM     10  O   UNL     1     152.187 168.379 151.061  1.00  0.00    -0.507 OA
ATOM     11  H   UNL     1     152.177 167.809 151.900  1.00  0.00     0.293 HD
ENDBRANCH   2  10
TORSDOF 2
ENDMDL
MODEL 8
REMARK VINA RESULT:    -5.174     15.860     16.977
REMARK INTER + INTRA:          -5.882
REMARK INTER:                  -5.646
REMARK INTRA:                  -0.235
REMARK UNBOUND:                -0.254
REMARK SMILES O=C([O-])c1ccccc1O
REMARK SMILES IDX 4 1 9 2 5 3 8 4 6 5 7 6 2 7 1 8 3 9 10 10
REMARK H PARENT 10 11
REMARK Flexibility Score: inf
ROOT
ATOM      1  C   UNL     1     150.213 170.243 151.702  1.00  0.00     0.039 A 
ATOM      2  C   UNL     1     149.041 170.737 151.083  1.00  0.00     0.124 A 
ATOM      3  C   UNL     1     150.938 169.219 151.062  1.00  0.00     0.014 A 
ATOM      4  C   UNL     1     148.622 170.206 149.852  1.00  0.00     0.047 A 
ATOM      5  C   UNL     1     150.511 168.699 149.838  1.00  0.00     0.001 A 
ATOM      6  C   UNL     1     149.354 169.192 149.235  1.00  0.00     0.004 A 
ENDROOT
BRANCH   1   7
ATOM      7  C   UNL     1     150.693 170.777 153.003  1.00  0.00     0.075 C 
ATOM      8  O   UNL     1     150.834 170.009 153.993  1.00  0.00    -0.545 OA
ATOM      9  O   UNL     1     150.996 172.124 153.160  1.00  0.00    -0.545 OA
ENDBRANCH   1   7
BRANCH   2  10
ATOM     10  O   UNL     1     148.291 171.751 151.678  1.00  0.00    -0.507 OA
ATOM     11  H   UNL     1     147.676 172.348 151.137  1.00  0.00     0.293 HD
ENDBRANCH   2  10
TORSDOF 2
ENDMDL
MODEL 9
REMARK VINA RESULT:    -5.148     10.666     11.660
REMARK INTER + INTRA:          -5.853
REMARK INTER:                  -5.614
REMARK INTRA:                  -0.239
REMARK UNBOUND:                -0.254
REMARK SMILES O=C([O-])c1ccccc1O
REMARK SMILES IDX 4 1 9 2 5 3 8 4 6 5 7 6 2 7 1 8 3 9 10 10
REMARK H PARENT 10 11
REMARK Flexibility Score: inf
ROOT
ATOM      1  C   UNL     1     149.760 159.749 149.023  1.00  0.00     0.039 A 
ATOM      2  C   UNL     1     151.063 160.197 149.343  1.00  0.00     0.124 A 
ATOM      3  C   UNL     1     148.706 160.038 149.913  1.00  0.00     0.014 A 
ATOM      4  C   UNL     1     151.285 160.916 150.529  1.00  0.00     0.047 A 
ATOM      5  C   UNL     1     148.941 160.753 151.090  1.00  0.00     0.001 A 
ATOM      6  C   UNL     1     150.228 161.190 151.397  1.00  0.00     0.004 A 
ENDROOT
BRANCH   1   7
ATOM      7  C   UNL     1     149.480 158.987 147.779  1.00  0.00     0.075 C 
ATOM      8  O   UNL     1     150.302 158.127 147.361  1.00  0.00    -0.545 OA
ATOM      9  O   UNL     1     148.316 159.202 147.051  1.00  0.00    -0.545 OA
ENDBRANCH   1   7
BRANCH   2  10
ATOM     10  O   UNL     1     152.137 159.936 148.493  1.00  0.00    -0.507 OA
ATOM     11  H   UNL     1     152.725 159.118 148.613  1.00  0.00     0.293 HD
ENDBRANCH   2  10
TORSDOF 2
ENDMDL
