MODEL 1
REMARK VINA RESULT:    -5.512      0.000      0.000
REMARK INTER + INTRA:          -5.930
REMARK INTER:                  -5.835
REMARK INTRA:                  -0.096
REMARK UNBOUND:                -0.096
REMARK SMILES C=C(C)[C@H]1CC=C(C)C(=O)C1
REMARK SMILES IDX 8 1 7 2 6 3 5 4 4 5 11 6 9 7 10 8 2 9 1 10 3 11
REMARK H PARENT
REMARK Flexibility Score: inf
ROOT
ATOM      1  C   UNL     1      15.001 -33.684  21.448  1.00  0.00     0.048 C 
ATOM      2  C   UNL     1      14.179 -32.539  21.972  1.00  0.00    -0.012 C 
ATOM      3  C   UNL     1      14.392 -32.076  23.216  1.00  0.00    -0.019 C 
ATOM      4  C   UNL     1      13.585 -30.944  23.796  1.00  0.00     0.036 C 
ATOM      5  C   UNL     1      13.168 -29.943  22.702  1.00  0.00     0.025 C 
ATOM      6  C   UNL     1      12.420 -30.672  21.569  1.00  0.00     0.089 C 
ATOM      7  C   UNL     1      13.223 -31.843  21.074  1.00  0.00     0.158 C 
ATOM      8  O   UNL     1      13.047 -32.255  19.895  1.00  0.00    -0.295 OA
ENDROOT
BRANCH   5   9
ATOM      9  C   UNL     1      12.342 -28.797  23.273  1.00  0.00    -0.077 C 
ATOM     10  C   UNL     1      11.023 -28.699  23.033  1.00  0.00     0.008 C 
ATOM     11  C   UNL     1      13.000 -27.746  24.128  1.00  0.00     0.039 C 
ENDBRANCH   5   9
TORSDOF 1
ENDMDL
MODEL 2
REMARK VINA RESULT:    -5.169      1.543      2.185
REMARK INTER + INTRA:          -5.567
REMARK INTER:                  -5.471
REMARK INTRA:                  -0.096
REMARK UNBOUND:                -0.096
REMARK SMILES C=C(C)[C@H]1CC=C(C)C(=O)C1
REMARK SMILES IDX 8 1 7 2 6 3 5 4 4 5 11 6 9 7 10 8 2 9 1 10 3 11
REMARK H PARENT
REMARK Flexibility Score: inf
ROOT
ATOM      1  C   UNL     1      14.641 -33.037  20.875  1.00  0.00     0.048 C 
ATOM      2  C   UNL     1      14.086 -31.732  21.375  1.00  0.00    -0.012 C 
ATOM      3  C   UNL     1      12.770 -31.620  21.630  1.00  0.00    -0.019 C 
ATOM      4  C   UNL     1      12.158 -30.332  22.115  1.00  0.00     0.036 C 
ATOM      5  C   UNL     1      13.147 -29.545  22.996  1.00  0.00     0.025 C 
ATOM      6  C   UNL     1      14.470 -29.314  22.240  1.00  0.00     0.089 C 
ATOM      7  C   UNL     1      15.004 -30.613  21.703  1.00  0.00     0.158 C 
ATOM      8  O   UNL     1      16.242 -30.729  21.496  1.00  0.00    -0.295 OA
ENDROOT
BRANCH   5   9
ATOM      9  C   UNL     1      12.545 -28.234  23.486  1.00  0.00    -0.077 C 
ATOM     10  C   UNL     1      13.262 -27.365  24.219  1.00  0.00     0.008 C 
ATOM     11  C   UNL     1      11.118 -27.886  23.148  1.00  0.00     0.039 C 
ENDBRANCH   5   9
TORSDOF 1
ENDMDL
MODEL 3
REMARK VINA RESULT:    -5.157      1.427      2.072
REMARK INTER + INTRA:          -5.555
REMARK INTER:                  -5.459
REMARK INTRA:                  -0.096
REMARK UNBOUND:                -0.096
REMARK SMILES C=C(C)[C@H]1CC=C(C)C(=O)C1
REMARK SMILES IDX 8 1 7 2 6 3 5 4 4 5 11 6 9 7 10 8 2 9 1 10 3 11
REMARK H PARENT
REMARK Flexibility Score: inf
ROOT
ATOM      1  C   UNL     1      16.667 -34.754  22.753  1.00  0.00     0.048 C 
ATOM      2  C   UNL     1      15.509 -33.795  22.715  1.00  0.00    -0.012 C 
ATOM      3  C   UNL     1      15.013 -33.300  23.862  1.00  0.00    -0.019 C 
ATOM      4  C   UNL     1      13.843 -32.350  23.882  1.00  0.00     0.036 C 
ATOM      5  C   UNL     1      13.836 -31.452  22.631  1.00  0.00     0.025 C 
ATOM      6  C   UNL     1      13.867 -32.314  21.354  1.00  0.00     0.089 C 
ATOM      7  C   UNL     1      14.998 -33.302  21.411  1.00  0.00     0.158 C 
ATOM      8  O   UNL     1      15.487 -33.739  20.334  1.00  0.00    -0.295 OA
ENDROOT
BRANCH   5   9
ATOM      9  C   UNL     1      12.652 -30.493  22.633  1.00  0.00    -0.077 C 
ATOM     10  C   UNL     1      11.617 -30.659  21.792  1.00  0.00     0.008 C 
ATOM     11  C   UNL     1      12.623 -29.331  23.592  1.00  0.00     0.039 C 
ENDBRANCH   5   9
TORSDOF 1
ENDMDL
MODEL 4
REMARK VINA RESULT:    -5.131      1.687      2.086
REMARK INTER + INTRA:          -5.527
REMARK INTER:                  -5.437
REMARK INTRA:                  -0.090
REMARK UNBOUND:                -0.096
REMARK SMILES C=C(C)[C@H]1CC=C(C)C(=O)C1
REMARK SMILES IDX 8 1 7 2 6 3 5 4 4 5 11 6 9 7 10 8 2 9 1 10 3 11
REMARK H PARENT
REMARK Flexibility Score: inf
ROOT
ATOM      1  C   UNL     1      16.140 -32.613  21.528  1.00  0.00     0.048 C 
ATOM      2  C   UNL     1      15.326 -31.501  22.131  1.00  0.00    -0.012 C 
ATOM      3  C   UNL     1      15.395 -30.264  21.609  1.00  0.00    -0.019 C 
ATOM      4  C   UNL     1      14.616 -29.110  22.184  1.00  0.00     0.036 C 
ATOM      5  C   UNL     1      13.274 -29.586  22.772  1.00  0.00     0.025 C 
ATOM      6  C   UNL     1      13.509 -30.704  23.805  1.00  0.00     0.089 C 
ATOM      7  C   UNL     1      14.359 -31.796  23.217  1.00  0.00     0.158 C 
ATOM      8  O   UNL     1      14.268 -32.964  23.684  1.00  0.00    -0.295 OA
ENDROOT
BRANCH   5   9
ATOM      9  C   UNL     1      12.479 -28.430  23.367  1.00  0.00    -0.077 C 
ATOM     10  C   UNL     1      11.152 -28.324  23.180  1.00  0.00     0.008 C 
ATOM     11  C   UNL     1      13.179 -27.377  24.188  1.00  0.00     0.039 C 
ENDBRANCH   5   9
TORSDOF 1
ENDMDL
MODEL 5
REMARK VINA RESULT:    -5.049      1.651      2.487
REMARK INTER + INTRA:          -5.439
REMARK INTER:                  -5.343
REMARK INTRA:                  -0.096
REMARK UNBOUND:                -0.096
REMARK SMILES C=C(C)[C@H]1CC=C(C)C(=O)C1
REMARK SMILES IDX 8 1 7 2 6 3 5 4 4 5 11 6 9 7 10 8 2 9 1 10 3 11
REMARK H PARENT
REMARK Flexibility Score: inf
ROOT
ATOM      1  C   UNL     1      15.298 -34.422  21.261  1.00  0.00     0.048 C 
ATOM      2  C   UNL     1      14.671 -33.102  21.616  1.00  0.00    -0.012 C 
ATOM      3  C   UNL     1      13.865 -32.486  20.734  1.00  0.00    -0.019 C 
ATOM      4  C   UNL     1      13.226 -31.154  21.030  1.00  0.00     0.036 C 
ATOM      5  C   UNL     1      12.918 -31.009  22.533  1.00  0.00     0.025 C 
ATOM      6  C   UNL     1      14.193 -31.243  23.365  1.00  0.00     0.089 C 
ATOM      7  C   UNL     1      14.844 -32.543  22.980  1.00  0.00     0.158 C 
ATOM      8  O   UNL     1      15.572 -33.138  23.820  1.00  0.00    -0.295 OA
ENDROOT
BRANCH   5   9
ATOM      9  C   UNL     1      12.281 -29.662  22.849  1.00  0.00    -0.077 C 
ATOM     10  C   UNL     1      12.950 -28.715  23.530  1.00  0.00     0.008 C 
ATOM     11  C   UNL     1      10.875 -29.367  22.395  1.00  0.00     0.039 C 
ENDBRANCH   5   9
TORSDOF 1
ENDMDL
MODEL 6
REMARK VINA RESULT:    -5.028      1.767      4.821
REMARK INTER + INTRA:          -5.418
REMARK INTER:                  -5.324
REMARK INTRA:                  -0.094
REMARK UNBOUND:                -0.096
REMARK SMILES C=C(C)[C@H]1CC=C(C)C(=O)C1
REMARK SMILES IDX 8 1 7 2 6 3 5 4 4 5 11 6 9 7 10 8 2 9 1 10 3 11
REMARK H PARENT
REMARK Flexibility Score: inf
ROOT
ATOM      1  C   UNL     1      12.875 -29.358  23.837  1.00  0.00     0.048 C 
ATOM      2  C   UNL     1      13.679 -30.534  23.355  1.00  0.00    -0.012 C 
ATOM      3  C   UNL     1      13.512 -31.738  23.929  1.00  0.00    -0.019 C 
ATOM      4  C   UNL     1      14.304 -32.945  23.498  1.00  0.00     0.036 C 
ATOM      5  C   UNL     1      14.628 -32.887  21.993  1.00  0.00     0.025 C 
ATOM      6  C   UNL     1      15.344 -31.566  21.651  1.00  0.00     0.089 C 
ATOM      7  C   UNL     1      14.562 -30.392  22.170  1.00  0.00     0.158 C 
ATOM      8  O   UNL     1      14.692 -29.270  21.609  1.00  0.00    -0.295 OA
ENDROOT
BRANCH   5   9
ATOM      9  C   UNL     1      15.438 -34.097  21.545  1.00  0.00    -0.077 C 
ATOM     10  C   UNL     1      16.437 -34.587  22.298  1.00  0.00     0.008 C 
ATOM     11  C   UNL     1      15.125 -34.771  20.234  1.00  0.00     0.039 C 
ENDBRANCH   5   9
TORSDOF 1
ENDMDL
MODEL 7
REMARK VINA RESULT:    -5.017      1.419      4.287
REMARK INTER + INTRA:          -5.406
REMARK INTER:                  -5.310
REMARK INTRA:                  -0.096
REMARK UNBOUND:                -0.096
REMARK SMILES C=C(C)[C@H]1CC=C(C)C(=O)C1
REMARK SMILES IDX 8 1 7 2 6 3 5 4 4 5 11 6 9 7 10 8 2 9 1 10 3 11
REMARK H PARENT
REMARK Flexibility Score: inf
ROOT
ATOM      1  C   UNL     1      11.798 -28.714  23.615  1.00  0.00     0.048 C 
ATOM      2  C   UNL     1      12.735 -29.641  22.891  1.00  0.00    -0.012 C 
ATOM      3  C   UNL     1      14.040 -29.660  23.216  1.00  0.00    -0.019 C 
ATOM      4  C   UNL     1      15.025 -30.555  22.512  1.00  0.00     0.036 C 
ATOM      5  C   UNL     1      14.359 -31.872  22.069  1.00  0.00     0.025 C 
ATOM      6  C   UNL     1      13.117 -31.579  21.206  1.00  0.00     0.089 C 
ATOM      7  C   UNL     1      12.199 -30.618  21.911  1.00  0.00     0.158 C 
ATOM      8  O   UNL     1      10.970 -30.625  21.631  1.00  0.00    -0.295 OA
ENDROOT
BRANCH   5   9
ATOM      9  C   UNL     1      15.342 -32.784  21.345  1.00  0.00    -0.077 C 
ATOM     10  C   UNL     1      14.977 -34.004  20.914  1.00  0.00     0.008 C 
ATOM     11  C   UNL     1      16.755 -32.324  21.096  1.00  0.00     0.039 C 
ENDBRANCH   5   9
TORSDOF 1
ENDMDL
MODEL 8
REMARK VINA RESULT:    -4.890      2.848      4.718
REMARK INTER + INTRA:          -5.271
REMARK INTER:                  -5.175
REMARK INTRA:                  -0.096
REMARK UNBOUND:                -0.096
REMARK SMILES C=C(C)[C@H]1CC=C(C)C(=O)C1
REMARK SMILES IDX 8 1 7 2 6 3 5 4 4 5 11 6 9 7 10 8 2 9 1 10 3 11
REMARK H PARENT
REMARK Flexibility Score: inf
ROOT
ATOM      1  C   UNL     1      12.403 -29.151  24.040  1.00  0.00     0.048 C 
ATOM      2  C   UNL     1      13.579 -29.607  23.221  1.00  0.00    -0.012 C 
ATOM      3  C   UNL     1      14.228 -28.729  22.437  1.00  0.00    -0.019 C 
ATOM      4  C   UNL     1      15.401 -29.135  21.583  1.00  0.00     0.036 C 
ATOM      5  C   UNL     1      16.211 -30.261  22.253  1.00  0.00     0.025 C 
ATOM      6  C   UNL     1      15.294 -31.452  22.591  1.00  0.00     0.089 C 
ATOM      7  C   UNL     1      14.095 -30.991  23.373  1.00  0.00     0.158 C 
ATOM      8  O   UNL     1      13.508 -31.805  24.134  1.00  0.00    -0.295 OA
ENDROOT
BRANCH   5   9
ATOM      9  C   UNL     1      17.394 -30.691  21.395  1.00  0.00    -0.077 C 
ATOM     10  C   UNL     1      17.431 -31.899  20.808  1.00  0.00     0.008 C 
ATOM     11  C   UNL     1      18.555 -29.752  21.186  1.00  0.00     0.039 C 
ENDBRANCH   5   9
TORSDOF 1
ENDMDL
MODEL 9
REMARK VINA RESULT:    -4.859      2.310      2.741
REMARK INTER + INTRA:          -5.238
REMARK INTER:                  -5.145
REMARK INTRA:                  -0.093
REMARK UNBOUND:                -0.096
REMARK SMILES C=C(C)[C@H]1CC=C(C)C(=O)C1
REMARK SMILES IDX 8 1 7 2 6 3 5 4 4 5 11 6 9 7 10 8 2 9 1 10 3 11
REMARK H PARENT
REMARK Flexibility Score: inf
ROOT
ATOM      1  C   UNL     1      17.843 -31.707  23.540  1.00  0.00     0.048 C 
ATOM      2  C   UNL     1      16.425 -31.340  23.197  1.00  0.00    -0.012 C 
ATOM      3  C   UNL     1      15.405 -31.966  23.811  1.00  0.00    -0.019 C 
ATOM      4  C   UNL     1      13.967 -31.650  23.492  1.00  0.00     0.036 C 
ATOM      5  C   UNL     1      13.797 -30.167  23.111  1.00  0.00     0.025 C 
ATOM      6  C   UNL     1      14.745 -29.800  21.953  1.00  0.00     0.089 C 
ATOM      7  C   UNL     1      16.156 -30.206  22.277  1.00  0.00     0.158 C 
ATOM      8  O   UNL     1      17.113 -29.596  21.728  1.00  0.00    -0.295 OA
ENDROOT
BRANCH   5   9
ATOM      9  C   UNL     1      12.348 -29.835  22.776  1.00  0.00    -0.077 C 
ATOM     10  C   UNL     1      11.640 -30.585  21.913  1.00  0.00     0.008 C 
ATOM     11  C   UNL     1      11.678 -28.647  23.417  1.00  0.00     0.039 C 
ENDBRANCH   5   9
TORSDOF 1
ENDMDL
