MODEL 1
REMARK VINA RESULT:    -2.925      0.000      0.000
REMARK INTER + INTRA:          -2.840
REMARK INTER:                  -3.609
REMARK INTRA:                   0.768
REMARK UNBOUND:                 0.768
REMARK SMILES CC1=CC=CC(C)(C)CC1=O
REMARK SMILES IDX 1 1 2 2 3 3 10 4 11 5 9 6 4 8 5 9 6 10 7 11 8 12
REMARK H PARENT
REMARK Flexibility Score: 80.00
ROOT
ATOM      1  C   UNL     1      27.095  42.467  19.148  1.00  0.00     0.048 C 
ATOM      2  C   UNL     1      27.424  41.056  19.574  1.00  0.00    -0.008 C 
ATOM      3  C   UNL     1      27.730  40.165  18.607  1.00  0.00     0.007 C 
ENDROOT
BRANCH   2   4
ATOM      4  C   UNL     1      27.311  40.742  21.021  1.00  0.00     0.159 C 
ATOM      5  O   UNL     1      26.767  41.586  21.786  1.00  0.00    -0.295 OA
BRANCH   4   6
ATOM      6  C   UNL     1      27.822  39.474  21.634  1.00  0.00     0.091 CG0
ATOM      7  G   UNL     1      27.187  38.205  21.026  1.00  0.00     0.000 G0
ENDBRANCH   4   6
ENDBRANCH   2   4
BRANCH   3   8
ATOM      8  C   UNL     1      28.065  38.726  18.709  1.00  0.00    -0.003 C 
ATOM      9  C   UNL     1      27.835  37.875  19.718  1.00  0.00    -0.020 C 
BRANCH   9  10
ATOM     10  C   UNL     1      27.184  38.206  21.039  1.00  0.00    -0.010 CG0
ATOM     11  C   UNL     1      25.654  38.345  20.855  1.00  0.00     0.016 C 
ATOM     12  C   UNL     1      27.441  37.033  22.014  1.00  0.00     0.016 C 
ATOM     13  G   UNL     1      27.830  39.477  21.635  1.00  0.00     0.000 G0
ENDBRANCH   9  10
ENDBRANCH   3   8
TORSDOF 0
ENDMDL
MODEL 2
REMARK VINA RESULT:    -2.758      2.087      4.225
REMARK INTER + INTRA:          -2.634
REMARK INTER:                  -3.389
REMARK INTRA:                   0.755
REMARK UNBOUND:                 0.768
REMARK SMILES CC1=CC=CC(C)(C)CC1=O
REMARK SMILES IDX 1 1 2 2 3 3 10 4 11 5 9 6 4 8 5 9 6 10 7 11 8 12
REMARK H PARENT
REMARK Flexibility Score: 80.00
ROOT
ATOM      1  C   UNL     1      25.817  38.495  20.584  1.00  0.00     0.048 C 
ATOM      2  C   UNL     1      26.477  39.835  20.810  1.00  0.00    -0.008 C 
ATOM      3  C   UNL     1      25.790  40.760  21.515  1.00  0.00     0.007 C 
ENDROOT
BRANCH   2   4
ATOM      4  C   UNL     1      27.800  40.053  20.174  1.00  0.00     0.159 C 
ATOM      5  O   UNL     1      28.220  39.207  19.338  1.00  0.00    -0.295 OA
BRANCH   4   6
ATOM      6  C   UNL     1      28.680  41.226  20.480  1.00  0.00     0.091 CG0
ATOM      7  G   UNL     1      28.003  42.586  20.200  1.00  0.00     0.000 G0
ENDBRANCH   4   6
ENDBRANCH   2   4
BRANCH   3   8
ATOM      8  C   UNL     1      26.157  42.150  21.872  1.00  0.00    -0.003 C 
ATOM      9  C   UNL     1      27.080  42.948  21.320  1.00  0.00    -0.020 C 
BRANCH   9  10
ATOM     10  C   UNL     1      28.011  42.591  20.186  1.00  0.00    -0.010 CG0
ATOM     11  C   UNL     1      27.243  42.617  18.844  1.00  0.00     0.016 C 
ATOM     12  C   UNL     1      29.125  43.662  20.117  1.00  0.00     0.016 C 
ATOM     13  G   UNL     1      28.674  41.225  20.466  1.00  0.00     0.000 G0
ENDBRANCH   9  10
ENDBRANCH   3   8
TORSDOF 0
ENDMDL
MODEL 3
REMARK VINA RESULT:    -2.757      1.786      3.737
REMARK INTER + INTRA:          -2.633
REMARK INTER:                  -3.395
REMARK INTRA:                   0.761
REMARK UNBOUND:                 0.768
REMARK SMILES CC1=CC=CC(C)(C)CC1=O
REMARK SMILES IDX 1 1 2 2 3 3 10 4 11 5 9 6 4 8 5 9 6 10 7 11 8 12
REMARK H PARENT
REMARK Flexibility Score: 80.00
ROOT
ATOM      1  C   UNL     1      26.432  36.150  22.412  1.00  0.00     0.048 C 
ATOM      2  C   UNL     1      26.992  37.213  21.496  1.00  0.00    -0.008 C 
ATOM      3  C   UNL     1      28.307  37.501  21.602  1.00  0.00     0.007 C 
ENDROOT
BRANCH   2   4
ATOM      4  C   UNL     1      26.033  37.909  20.602  1.00  0.00     0.159 C 
ATOM      5  O   UNL     1      24.797  37.714  20.767  1.00  0.00    -0.295 OA
BRANCH   4   6
ATOM      6  C   UNL     1      26.452  38.828  19.496  1.00  0.00     0.091 CG0
ATOM      7  G   UNL     1      27.285  40.032  19.987  1.00  0.00     0.000 G0
ENDBRANCH   4   6
ENDBRANCH   2   4
BRANCH   3   8
ATOM      8  C   UNL     1      29.125  38.497  20.871  1.00  0.00    -0.003 C 
ATOM      9  C   UNL     1      28.727  39.579  20.189  1.00  0.00    -0.020 C 
BRANCH   9  10
ATOM     10  C   UNL     1      27.303  40.031  19.976  1.00  0.00    -0.010 CG0
ATOM     11  C   UNL     1      26.758  40.686  21.268  1.00  0.00     0.016 C 
ATOM     12  C   UNL     1      27.295  41.102  18.861  1.00  0.00     0.016 C 
ATOM     13  G   UNL     1      26.442  38.839  19.505  1.00  0.00     0.000 G0
ENDBRANCH   9  10
ENDBRANCH   3   8
TORSDOF 0
ENDMDL
MODEL 4
REMARK VINA RESULT:    -2.739     14.122     15.388
REMARK INTER + INTRA:          -2.611
REMARK INTER:                  -3.370
REMARK INTRA:                   0.759
REMARK UNBOUND:                 0.768
REMARK SMILES CC1=CC=CC(C)(C)CC1=O
REMARK SMILES IDX 1 1 2 2 3 3 10 4 11 5 9 6 4 8 5 9 6 10 7 11 8 12
REMARK H PARENT
REMARK Flexibility Score: 80.00
ROOT
ATOM      1  C   UNL     1      22.316  26.536  28.425  1.00  0.00     0.048 C 
ATOM      2  C   UNL     1      23.819  26.434  28.316  1.00  0.00    -0.008 C 
ATOM      3  C   UNL     1      24.356  25.201  28.192  1.00  0.00     0.007 C 
ENDROOT
BRANCH   2   4
ATOM      4  C   UNL     1      24.593  27.696  28.430  1.00  0.00     0.159 C 
ATOM      5  O   UNL     1      23.995  28.745  28.798  1.00  0.00    -0.295 OA
BRANCH   4   6
ATOM      6  C   UNL     1      26.054  27.801  28.117  1.00  0.00     0.091 CG0
ATOM      7  G   UNL     1      26.931  26.870  28.984  1.00  0.00     0.000 G0
ENDBRANCH   4   6
ENDBRANCH   2   4
BRANCH   3   8
ATOM      8  C   UNL     1      25.774  24.786  28.092  1.00  0.00    -0.003 C 
ATOM      9  C   UNL     1      26.879  25.466  28.428  1.00  0.00    -0.020 C 
BRANCH   9  10
ATOM     10  C   UNL     1      26.934  26.871  28.978  1.00  0.00    -0.010 CG0
ATOM     11  C   UNL     1      26.530  26.870  30.471  1.00  0.00     0.016 C 
ATOM     12  C   UNL     1      28.394  27.372  28.881  1.00  0.00     0.016 C 
ATOM     13  G   UNL     1      26.048  27.801  28.122  1.00  0.00     0.000 G0
ENDBRANCH   9  10
ENDBRANCH   3   8
TORSDOF 0
ENDMDL
MODEL 5
REMARK VINA RESULT:    -2.734      2.187      3.962
REMARK INTER + INTRA:          -2.604
REMARK INTER:                  -3.370
REMARK INTRA:                   0.766
REMARK UNBOUND:                 0.768
REMARK SMILES CC1=CC=CC(C)(C)CC1=O
REMARK SMILES IDX 1 1 2 2 3 3 10 4 11 5 9 6 4 8 5 9 6 10 7 11 8 12
REMARK H PARENT
REMARK Flexibility Score: 80.00
ROOT
ATOM      1  C   UNL     1      27.328  39.084  18.808  1.00  0.00     0.048 C 
ATOM      2  C   UNL     1      27.175  40.461  19.409  1.00  0.00    -0.008 C 
ATOM      3  C   UNL     1      27.609  41.513  18.683  1.00  0.00     0.007 C 
ENDROOT
BRANCH   2   4
ATOM      4  C   UNL     1      26.625  40.541  20.786  1.00  0.00     0.159 C 
ATOM      5  O   UNL     1      26.509  39.478  21.456  1.00  0.00    -0.295 OA
BRANCH   4   6
ATOM      6  C   UNL     1      26.184  41.821  21.426  1.00  0.00     0.091 CG0
ATOM      7  G   UNL     1      27.311  42.872  21.526  1.00  0.00     0.000 G0
ENDBRANCH   4   6
ENDBRANCH   2   4
BRANCH   3   8
ATOM      8  C   UNL     1      27.618  42.958  19.010  1.00  0.00    -0.003 C 
ATOM      9  C   UNL     1      27.513  43.553  20.206  1.00  0.00    -0.020 C 
BRANCH   9  10
ATOM     10  C   UNL     1      27.328  42.865  21.537  1.00  0.00    -0.010 CG0
ATOM     11  C   UNL     1      28.667  42.246  22.003  1.00  0.00     0.016 C 
ATOM     12  C   UNL     1      26.908  43.927  22.579  1.00  0.00     0.016 C 
ATOM     13  G   UNL     1      26.195  41.821  21.431  1.00  0.00     0.000 G0
ENDBRANCH   9  10
ENDBRANCH   3   8
TORSDOF 0
ENDMDL
MODEL 6
REMARK VINA RESULT:    -2.727      1.738      2.613
REMARK INTER + INTRA:          -2.596
REMARK INTER:                  -3.359
REMARK INTRA:                   0.763
REMARK UNBOUND:                 0.768
REMARK SMILES CC1=CC=CC(C)(C)CC1=O
REMARK SMILES IDX 1 1 2 2 3 3 10 4 11 5 9 6 4 8 5 9 6 10 7 11 8 12
REMARK H PARENT
REMARK Flexibility Score: 80.00
ROOT
ATOM      1  C   UNL     1      26.620  41.280  20.587  1.00  0.00     0.048 C 
ATOM      2  C   UNL     1      26.607  39.779  20.419  1.00  0.00    -0.008 C 
ATOM      3  C   UNL     1      25.497  39.115  20.807  1.00  0.00     0.007 C 
ENDROOT
BRANCH   2   4
ATOM      4  C   UNL     1      27.849  39.145  19.908  1.00  0.00     0.159 C 
ATOM      5  O   UNL     1      28.893  39.847  19.808  1.00  0.00    -0.295 OA
BRANCH   4   6
ATOM      6  C   UNL     1      27.931  37.710  19.490  1.00  0.00     0.091 CG0
ATOM      7  G   UNL     1      27.549  36.724  20.615  1.00  0.00     0.000 G0
ENDBRANCH   4   6
ENDBRANCH   2   4
BRANCH   3   8
ATOM      8  C   UNL     1      25.201  37.664  20.790  1.00  0.00    -0.003 C 
ATOM      9  C   UNL     1      26.051  36.630  20.724  1.00  0.00    -0.020 C 
BRANCH   9  10
ATOM     10  C   UNL     1      27.555  36.710  20.618  1.00  0.00    -0.010 CG0
ATOM     11  C   UNL     1      28.162  37.084  21.992  1.00  0.00     0.016 C 
ATOM     12  C   UNL     1      28.089  35.313  20.227  1.00  0.00     0.016 C 
ATOM     13  G   UNL     1      27.946  37.705  19.504  1.00  0.00     0.000 G0
ENDBRANCH   9  10
ENDBRANCH   3   8
TORSDOF 0
ENDMDL
MODEL 7
REMARK VINA RESULT:    -2.676     14.964     15.817
REMARK INTER + INTRA:          -2.533
REMARK INTER:                  -3.292
REMARK INTRA:                   0.759
REMARK UNBOUND:                 0.768
REMARK SMILES CC1=CC=CC(C)(C)CC1=O
REMARK SMILES IDX 1 1 2 2 3 3 10 4 11 5 9 6 4 8 5 9 6 10 7 11 8 12
REMARK H PARENT
REMARK Flexibility Score: 80.00
ROOT
ATOM      1  C   UNL     1      23.066  26.907  28.234  1.00  0.00     0.048 C 
ATOM      2  C   UNL     1      24.499  26.867  28.710  1.00  0.00    -0.008 C 
ATOM      3  C   UNL     1      25.055  28.028  29.120  1.00  0.00     0.007 C 
ENDROOT
BRANCH   2   4
ATOM      4  C   UNL     1      25.206  25.565  28.618  1.00  0.00     0.159 C 
ATOM      5  O   UNL     1      24.671  24.627  27.966  1.00  0.00    -0.295 OA
BRANCH   4   6
ATOM      6  C   UNL     1      26.527  25.295  29.272  1.00  0.00     0.091 CG0
ATOM      7  G   UNL     1      27.654  26.226  28.777  1.00  0.00     0.000 G0
ENDBRANCH   4   6
ENDBRANCH   2   4
BRANCH   3   8
ATOM      8  C   UNL     1      26.426  28.306  29.609  1.00  0.00    -0.003 C 
ATOM      9  C   UNL     1      27.539  27.575  29.464  1.00  0.00    -0.020 C 
BRANCH   9  10
ATOM     10  C   UNL     1      27.649  26.238  28.770  1.00  0.00    -0.010 CG0
ATOM     11  C   UNL     1      27.627  26.435  27.236  1.00  0.00     0.016 C 
ATOM     12  C   UNL     1      29.009  25.606  29.149  1.00  0.00     0.016 C 
ATOM     13  G   UNL     1      26.527  25.299  29.266  1.00  0.00     0.000 G0
ENDBRANCH   9  10
ENDBRANCH   3   8
TORSDOF 0
ENDMDL
MODEL 8
REMARK VINA RESULT:    -2.626     13.060     14.408
REMARK INTER + INTRA:          -2.471
REMARK INTER:                  -3.218
REMARK INTRA:                   0.746
REMARK UNBOUND:                 0.768
REMARK SMILES CC1=CC=CC(C)(C)CC1=O
REMARK SMILES IDX 1 1 2 2 3 3 10 4 11 5 9 6 4 8 5 9 6 10 7 11 8 12
REMARK H PARENT
REMARK Flexibility Score: 80.00
ROOT
ATOM      1  C   UNL     1      25.437  29.485  30.603  1.00  0.00     0.048 C 
ATOM      2  C   UNL     1      26.250  28.590  29.698  1.00  0.00    -0.008 C 
ATOM      3  C   UNL     1      27.594  28.706  29.746  1.00  0.00     0.007 C 
ENDROOT
BRANCH   2   4
ATOM      4  C   UNL     1      25.500  27.704  28.773  1.00  0.00     0.159 C 
ATOM      5  O   UNL     1      24.260  27.884  28.629  1.00  0.00    -0.295 OA
BRANCH   4   6
ATOM      6  C   UNL     1      26.136  26.588  28.001  1.00  0.00     0.091 CG0
ATOM      7  G   UNL     1      27.253  27.066  27.047  1.00  0.00     0.000 G0
ENDBRANCH   4   6
ENDBRANCH   2   4
BRANCH   3   8
ATOM      8  C   UNL     1      28.640  27.996  28.972  1.00  0.00    -0.003 C 
ATOM      9  C   UNL     1      28.523  27.311  27.827  1.00  0.00    -0.020 C 
BRANCH   9  10
ATOM     10  C   UNL     1      27.251  27.074  27.049  1.00  0.00    -0.010 CG0
ATOM     11  C   UNL     1      26.866  28.350  26.264  1.00  0.00     0.016 C 
ATOM     12  C   UNL     1      27.512  25.945  26.025  1.00  0.00     0.016 C 
ATOM     13  G   UNL     1      26.134  26.605  28.008  1.00  0.00     0.000 G0
ENDBRANCH   9  10
ENDBRANCH   3   8
TORSDOF 0
ENDMDL
MODEL 9
REMARK VINA RESULT:    -2.475     13.736     15.411
REMARK INTER + INTRA:          -2.286
REMARK INTER:                  -3.037
REMARK INTRA:                   0.751
REMARK UNBOUND:                 0.768
REMARK SMILES CC1=CC=CC(C)(C)CC1=O
REMARK SMILES IDX 1 1 2 2 3 3 10 4 11 5 9 6 4 8 5 9 6 10 7 11 8 12
REMARK H PARENT
REMARK Flexibility Score: 80.00
ROOT
ATOM      1  C   UNL     1      28.370  29.886  29.069  1.00  0.00     0.048 C 
ATOM      2  C   UNL     1      28.178  28.388  29.079  1.00  0.00    -0.008 C 
ATOM      3  C   UNL     1      28.965  27.650  28.266  1.00  0.00     0.007 C 
ENDROOT
BRANCH   2   4
ATOM      4  C   UNL     1      27.084  27.851  29.927  1.00  0.00     0.159 C 
ATOM      5  O   UNL     1      26.256  28.657  30.433  1.00  0.00    -0.295 OA
BRANCH   4   6
ATOM      6  C   UNL     1      26.913  26.395  30.231  1.00  0.00     0.091 CG0
ATOM      7  G   UNL     1      26.736  25.525  28.967  1.00  0.00     0.000 G0
ENDBRANCH   4   6
ENDBRANCH   2   4
BRANCH   3   8
ATOM      8  C   UNL     1      28.994  26.186  28.040  1.00  0.00    -0.003 C 
ATOM      9  C   UNL     1      28.056  25.271  28.318  1.00  0.00    -0.020 C 
BRANCH   9  10
ATOM     10  C   UNL     1      26.721  25.525  28.974  1.00  0.00    -0.010 CG0
ATOM     11  C   UNL     1      25.740  26.147  27.952  1.00  0.00     0.016 C 
ATOM     12  C   UNL     1      26.136  24.168  29.429  1.00  0.00     0.016 C 
ATOM     13  G   UNL     1      26.915  26.409  30.226  1.00  0.00     0.000 G0
ENDBRANCH   9  10
ENDBRANCH   3   8
TORSDOF 0
ENDMDL
