MODEL 1
REMARK VINA RESULT:    -4.697      0.000      0.000
REMARK INTER + INTRA:          -7.249
REMARK INTER:                  -6.344
REMARK INTRA:                  -0.905
REMARK UNBOUND:                -0.905
REMARK SMILES CC(=O)CCC=C(C)CCC=C(C)C
REMARK SMILES IDX 7 1 6 2 8 3 9 4 10 5 11 6 13 7 12 8 14 9 5 10 4 11 2 12 3 13
REMARK SMILES IDX 1 14
REMARK H PARENT
REMARK Flexibility Score: inf
ROOT
ATOM      1  C   UNL     1      18.401  26.350  27.943  1.00  0.00    -0.077 C 
ATOM      2  C   UNL     1      17.544  25.303  27.935  1.00  0.00    -0.028 C 
ATOM      3  C   UNL     1      17.966  27.740  27.540  1.00  0.00     0.039 C 
ENDROOT
BRANCH   1   4
ATOM      4  C   UNL     1      19.839  26.118  28.355  1.00  0.00     0.034 C 
BRANCH   4   5
ATOM      5  C   UNL     1      20.251  24.662  28.111  1.00  0.00     0.032 C 
BRANCH   5   6
ATOM      6  C   UNL     1      20.927  24.501  26.770  1.00  0.00    -0.028 C 
ATOM      7  C   UNL     1      19.270  22.779  26.045  1.00  0.00     0.039 C 
ATOM      8  C   UNL     1      20.486  23.644  25.823  1.00  0.00    -0.080 C 
ATOM      9  C   UNL     1      21.211  23.534  24.507  1.00  0.00     0.039 C 
ENDBRANCH   5   6
ENDBRANCH   4   5
ENDBRANCH   1   4
BRANCH   2  10
ATOM     10  C   UNL     1      16.079  25.398  27.585  1.00  0.00     0.035 C 
BRANCH  10  11
ATOM     11  C   UNL     1      15.311  24.191  28.140  1.00  0.00     0.079 C 
BRANCH  11  12
ATOM     12  C   UNL     1      15.130  23.057  27.155  1.00  0.00     0.130 C 
ATOM     13  O   UNL     1      14.661  22.005  27.561  1.00  0.00    -0.300 OA
ATOM     14  C   UNL     1      15.496  23.171  25.700  1.00  0.00     0.087 C 
ENDBRANCH  11  12
ENDBRANCH  10  11
ENDBRANCH   2  10
TORSDOF 6
ENDMDL
MODEL 2
REMARK VINA RESULT:    -4.532      2.002      4.656
REMARK INTER + INTRA:          -7.026
REMARK INTER:                  -6.276
REMARK INTRA:                  -0.750
REMARK UNBOUND:                -0.905
REMARK SMILES CC(=O)CCC=C(C)CCC=C(C)C
REMARK SMILES IDX 7 1 6 2 8 3 9 4 10 5 11 6 13 7 12 8 14 9 5 10 4 11 2 12 3 13
REMARK SMILES IDX 1 14
REMARK H PARENT
REMARK Flexibility Score: inf
ROOT
ATOM      1  C   UNL     1      17.495  26.440  28.090  1.00  0.00    -0.077 C 
ATOM      2  C   UNL     1      18.389  25.425  28.042  1.00  0.00    -0.028 C 
ATOM      3  C   UNL     1      17.879  27.859  27.742  1.00  0.00     0.039 C 
ENDROOT
BRANCH   1   4
ATOM      4  C   UNL     1      16.073  26.145  28.517  1.00  0.00     0.034 C 
BRANCH   4   5
ATOM      5  C   UNL     1      15.334  25.342  27.440  1.00  0.00     0.032 C 
BRANCH   5   6
ATOM      6  C   UNL     1      15.102  23.917  27.881  1.00  0.00    -0.028 C 
ATOM      7  C   UNL     1      15.384  23.060  25.552  1.00  0.00     0.039 C 
ATOM      8  C   UNL     1      15.123  22.870  27.026  1.00  0.00    -0.080 C 
ATOM      9  C   UNL     1      14.883  21.473  27.536  1.00  0.00     0.039 C 
ENDBRANCH   5   6
ENDBRANCH   4   5
ENDBRANCH   1   4
BRANCH   2  10
ATOM     10  C   UNL     1      19.824  25.570  27.598  1.00  0.00     0.035 C 
BRANCH  10  11
ATOM     11  C   UNL     1      20.481  24.192  27.435  1.00  0.00     0.079 C 
BRANCH  11  12
ATOM     12  C   UNL     1      20.149  23.491  26.136  1.00  0.00     0.130 C 
ATOM     13  O   UNL     1      20.865  23.695  25.167  1.00  0.00    -0.300 OA
ATOM     14  C   UNL     1      18.983  22.552  25.987  1.00  0.00     0.087 C 
ENDBRANCH  11  12
ENDBRANCH  10  11
ENDBRANCH   2  10
TORSDOF 6
ENDMDL
MODEL 3
REMARK VINA RESULT:    -4.516      1.866      3.617
REMARK INTER + INTRA:          -7.005
REMARK INTER:                  -6.184
REMARK INTRA:                  -0.821
REMARK UNBOUND:                -0.905
REMARK SMILES CC(=O)CCC=C(C)CCC=C(C)C
REMARK SMILES IDX 7 1 6 2 8 3 9 4 10 5 11 6 13 7 12 8 14 9 5 10 4 11 2 12 3 13
REMARK SMILES IDX 1 14
REMARK H PARENT
REMARK Flexibility Score: inf
ROOT
ATOM      1  C   UNL     1      20.282  23.660  26.138  1.00  0.00    -0.077 C 
ATOM      2  C   UNL     1      19.441  22.698  25.693  1.00  0.00    -0.028 C 
ATOM      3  C   UNL     1      19.930  24.548  27.309  1.00  0.00     0.039 C 
ENDROOT
BRANCH   1   4
ATOM      4  C   UNL     1      21.607  23.860  25.435  1.00  0.00     0.034 C 
BRANCH   4   5
ATOM      5  C   UNL     1      21.402  24.069  23.930  1.00  0.00     0.032 C 
BRANCH   5   6
ATOM      6  C   UNL     1      22.210  23.082  23.123  1.00  0.00    -0.028 C 
ATOM      7  C   UNL     1      20.149  22.023  22.193  1.00  0.00     0.039 C 
ATOM      8  C   UNL     1      21.646  22.145  22.329  1.00  0.00    -0.080 C 
ATOM      9  C   UNL     1      22.516  21.191  21.552  1.00  0.00     0.039 C 
ENDBRANCH   5   6
ENDBRANCH   4   5
ENDBRANCH   1   4
BRANCH   2  10
ATOM     10  C   UNL     1      18.111  22.365  26.323  1.00  0.00     0.035 C 
BRANCH  10  11
ATOM     11  C   UNL     1      16.991  22.405  25.274  1.00  0.00     0.079 C 
BRANCH  11  12
ATOM     12  C   UNL     1      15.675  22.951  25.785  1.00  0.00     0.130 C 
ATOM     13  O   UNL     1      14.641  22.531  25.288  1.00  0.00    -0.300 OA
ATOM     14  C   UNL     1      15.585  23.981  26.878  1.00  0.00     0.087 C 
ENDBRANCH  11  12
ENDBRANCH  10  11
ENDBRANCH   2  10
TORSDOF 6
ENDMDL
MODEL 4
REMARK VINA RESULT:    -4.473      5.251      7.087
REMARK INTER + INTRA:          -6.947
REMARK INTER:                  -6.364
REMARK INTRA:                  -0.583
REMARK UNBOUND:                -0.905
REMARK SMILES CC(=O)CCC=C(C)CCC=C(C)C
REMARK SMILES IDX 7 1 6 2 8 3 9 4 10 5 11 6 13 7 12 8 14 9 5 10 4 11 2 12 3 13
REMARK SMILES IDX 1 14
REMARK H PARENT
REMARK Flexibility Score: inf
ROOT
ATOM      1  C   UNL     1      15.039  20.463  29.924  1.00  0.00    -0.077 C 
ATOM      2  C   UNL     1      14.566  21.586  30.512  1.00  0.00    -0.028 C 
ATOM      3  C   UNL     1      14.868  20.203  28.446  1.00  0.00     0.039 C 
ENDROOT
BRANCH   1   4
ATOM      4  C   UNL     1      15.750  19.433  30.776  1.00  0.00     0.034 C 
BRANCH   4   5
ATOM      5  C   UNL     1      16.025  18.156  29.974  1.00  0.00     0.032 C 
BRANCH   5   6
ATOM      6  C   UNL     1      16.120  16.950  30.879  1.00  0.00    -0.028 C 
ATOM      7  C   UNL     1      18.438  16.442  30.099  1.00  0.00     0.039 C 
ATOM      8  C   UNL     1      17.217  16.163  30.940  1.00  0.00    -0.080 C 
ATOM      9  C   UNL     1      17.243  14.975  31.867  1.00  0.00     0.039 C 
ENDBRANCH   5   6
ENDBRANCH   4   5
ENDBRANCH   1   4
BRANCH   2  10
ATOM     10  C   UNL     1      13.875  22.710  29.778  1.00  0.00     0.035 C 
BRANCH  10  11
ATOM     11  C   UNL     1      14.842  23.880  29.546  1.00  0.00     0.079 C 
BRANCH  11  12
ATOM     12  C   UNL     1      14.919  24.353  28.111  1.00  0.00     0.130 C 
ATOM     13  O   UNL     1      14.373  25.406  27.818  1.00  0.00    -0.300 OA
ATOM     14  C   UNL     1      15.638  23.588  27.034  1.00  0.00     0.087 C 
ENDBRANCH  11  12
ENDBRANCH  10  11
ENDBRANCH   2  10
TORSDOF 6
ENDMDL
MODEL 5
REMARK VINA RESULT:    -4.451      2.882      5.518
REMARK INTER + INTRA:          -6.917
REMARK INTER:                  -5.936
REMARK INTRA:                  -0.981
REMARK UNBOUND:                -0.905
REMARK SMILES CC(=O)CCC=C(C)CCC=C(C)C
REMARK SMILES IDX 7 1 6 2 8 3 9 4 10 5 11 6 13 7 12 8 14 9 5 10 4 11 2 12 3 13
REMARK SMILES IDX 1 14
REMARK H PARENT
REMARK Flexibility Score: inf
ROOT
ATOM      1  C   UNL     1      17.744  26.059  27.935  1.00  0.00    -0.077 C 
ATOM      2  C   UNL     1      18.603  25.025  27.785  1.00  0.00    -0.028 C 
ATOM      3  C   UNL     1      18.109  27.465  27.519  1.00  0.00     0.039 C 
ENDROOT
BRANCH   1   4
ATOM      4  C   UNL     1      16.385  25.802  28.548  1.00  0.00     0.034 C 
BRANCH   4   5
ATOM      5  C   UNL     1      15.393  25.301  27.492  1.00  0.00     0.032 C 
BRANCH   5   6
ATOM      6  C   UNL     1      14.882  23.921  27.830  1.00  0.00    -0.028 C 
ATOM      7  C   UNL     1      16.164  22.892  25.950  1.00  0.00     0.039 C 
ATOM      8  C   UNL     1      15.228  22.818  27.131  1.00  0.00    -0.080 C 
ATOM      9  C   UNL     1      14.679  21.471  27.525  1.00  0.00     0.039 C 
ENDBRANCH   5   6
ENDBRANCH   4   5
ENDBRANCH   1   4
BRANCH   2  10
ATOM     10  C   UNL     1      19.970  25.131  27.154  1.00  0.00     0.035 C 
BRANCH  10  11
ATOM     11  C   UNL     1      21.066  25.081  28.228  1.00  0.00     0.079 C 
BRANCH  11  12
ATOM     12  C   UNL     1      21.588  26.436  28.652  1.00  0.00     0.130 C 
ATOM     13  O   UNL     1      22.530  26.914  28.037  1.00  0.00    -0.300 OA
ATOM     14  C   UNL     1      20.996  27.222  29.790  1.00  0.00     0.087 C 
ENDBRANCH  11  12
ENDBRANCH  10  11
ENDBRANCH   2  10
TORSDOF 6
ENDMDL
MODEL 6
REMARK VINA RESULT:    -4.392      5.727      7.495
REMARK INTER + INTRA:          -6.837
REMARK INTER:                  -6.212
REMARK INTRA:                  -0.625
REMARK UNBOUND:                -0.905
REMARK SMILES CC(=O)CCC=C(C)CCC=C(C)C
REMARK SMILES IDX 7 1 6 2 8 3 9 4 10 5 11 6 13 7 12 8 14 9 5 10 4 11 2 12 3 13
REMARK SMILES IDX 1 14
REMARK H PARENT
REMARK Flexibility Score: inf
ROOT
ATOM      1  C   UNL     1      15.035  20.075  29.736  1.00  0.00    -0.077 C 
ATOM      2  C   UNL     1      15.019  20.518  31.014  1.00  0.00    -0.028 C 
ATOM      3  C   UNL     1      14.390  20.854  28.614  1.00  0.00     0.039 C 
ENDROOT
BRANCH   1   4
ATOM      4  C   UNL     1      15.708  18.755  29.425  1.00  0.00     0.034 C 
BRANCH   4   5
ATOM      5  C   UNL     1      16.174  18.062  30.710  1.00  0.00     0.032 C 
BRANCH   5   6
ATOM      6  C   UNL     1      17.316  17.112  30.438  1.00  0.00    -0.028 C 
ATOM      7  C   UNL     1      16.212  15.280  31.728  1.00  0.00     0.039 C 
ATOM      8  C   UNL     1      17.341  15.842  30.899  1.00  0.00    -0.080 C 
ATOM      9  C   UNL     1      18.514  14.949  30.589  1.00  0.00     0.039 C 
ENDBRANCH   5   6
ENDBRANCH   4   5
ENDBRANCH   1   4
BRANCH   2  10
ATOM     10  C   UNL     1      14.419  21.830  31.458  1.00  0.00     0.035 C 
BRANCH  10  11
ATOM     11  C   UNL     1      15.500  22.916  31.546  1.00  0.00     0.079 C 
BRANCH  11  12
ATOM     12  C   UNL     1      15.136  24.217  30.865  1.00  0.00     0.130 C 
ATOM     13  O   UNL     1      14.620  25.099  31.535  1.00  0.00    -0.300 OA
ATOM     14  C   UNL     1      15.385  24.474  29.404  1.00  0.00     0.087 C 
ENDBRANCH  11  12
ENDBRANCH  10  11
ENDBRANCH   2  10
TORSDOF 6
ENDMDL
MODEL 7
REMARK VINA RESULT:    -4.299      3.320      6.619
REMARK INTER + INTRA:          -6.711
REMARK INTER:                  -6.037
REMARK INTRA:                  -0.675
REMARK UNBOUND:                -0.905
REMARK SMILES CC(=O)CCC=C(C)CCC=C(C)C
REMARK SMILES IDX 7 1 6 2 8 3 9 4 10 5 11 6 13 7 12 8 14 9 5 10 4 11 2 12 3 13
REMARK SMILES IDX 1 14
REMARK H PARENT
REMARK Flexibility Score: inf
ROOT
ATOM      1  C   UNL     1      19.026  28.329  28.407  1.00  0.00    -0.077 C 
ATOM      2  C   UNL     1      20.099  27.665  28.896  1.00  0.00    -0.028 C 
ATOM      3  C   UNL     1      17.793  27.604  27.919  1.00  0.00     0.039 C 
ENDROOT
BRANCH   1   4
ATOM      4  C   UNL     1      19.068  29.841  28.335  1.00  0.00     0.034 C 
BRANCH   4   5
ATOM      5  C   UNL     1      18.695  30.463  29.685  1.00  0.00     0.032 C 
BRANCH   5   6
ATOM      6  C   UNL     1      18.045  31.814  29.506  1.00  0.00    -0.028 C 
ATOM      7  C   UNL     1      15.758  30.845  29.769  1.00  0.00     0.039 C 
ATOM      8  C   UNL     1      16.707  31.996  29.542  1.00  0.00    -0.080 C 
ATOM      9  C   UNL     1      16.126  33.374  29.355  1.00  0.00     0.039 C 
ENDBRANCH   5   6
ENDBRANCH   4   5
ENDBRANCH   1   4
BRANCH   2  10
ATOM     10  C   UNL     1      20.176  26.167  29.060  1.00  0.00     0.035 C 
BRANCH  10  11
ATOM     11  C   UNL     1      21.028  25.544  27.944  1.00  0.00     0.079 C 
BRANCH  11  12
ATOM     12  C   UNL     1      20.266  24.623  27.017  1.00  0.00     0.130 C 
ATOM     13  O   UNL     1      19.092  24.392  27.265  1.00  0.00    -0.300 OA
ATOM     14  C   UNL     1      20.887  23.984  25.805  1.00  0.00     0.087 C 
ENDBRANCH  11  12
ENDBRANCH  10  11
ENDBRANCH   2  10
TORSDOF 6
ENDMDL
MODEL 8
REMARK VINA RESULT:    -4.287      4.828      7.941
REMARK INTER + INTRA:          -6.695
REMARK INTER:                  -5.520
REMARK INTRA:                  -1.175
REMARK UNBOUND:                -0.905
REMARK SMILES CC(=O)CCC=C(C)CCC=C(C)C
REMARK SMILES IDX 7 1 6 2 8 3 9 4 10 5 11 6 13 7 12 8 14 9 5 10 4 11 2 12 3 13
REMARK SMILES IDX 1 14
REMARK H PARENT
REMARK Flexibility Score: inf
ROOT
ATOM      1  C   UNL     1      18.583  31.942  29.806  1.00  0.00    -0.077 C 
ATOM      2  C   UNL     1      18.587  30.826  29.042  1.00  0.00    -0.028 C 
ATOM      3  C   UNL     1      19.180  31.962  31.193  1.00  0.00     0.039 C 
ENDROOT
BRANCH   1   4
ATOM      4  C   UNL     1      17.950  33.204  29.258  1.00  0.00     0.034 C 
BRANCH   4   5
ATOM      5  C   UNL     1      16.475  32.970  28.912  1.00  0.00     0.032 C 
BRANCH   5   6
ATOM      6  C   UNL     1      15.627  32.878  30.157  1.00  0.00    -0.028 C 
ATOM      7  C   UNL     1      14.951  30.533  29.627  1.00  0.00     0.039 C 
ATOM      8  C   UNL     1      14.928  31.770  30.490  1.00  0.00    -0.080 C 
ATOM      9  C   UNL     1      14.101  31.749  31.749  1.00  0.00     0.039 C 
ENDBRANCH   5   6
ENDBRANCH   4   5
ENDBRANCH   1   4
BRANCH   2  10
ATOM     10  C   UNL     1      19.216  29.515  29.446  1.00  0.00     0.035 C 
BRANCH  10  11
ATOM     11  C   UNL     1      18.163  28.570  30.042  1.00  0.00     0.079 C 
BRANCH  11  12
ATOM     12  C   UNL     1      17.422  27.736  29.019  1.00  0.00     0.130 C 
ATOM     13  O   UNL     1      16.360  27.227  29.345  1.00  0.00    -0.300 OA
ATOM     14  C   UNL     1      17.931  27.511  27.622  1.00  0.00     0.087 C 
ENDBRANCH  11  12
ENDBRANCH  10  11
ENDBRANCH   2  10
TORSDOF 6
ENDMDL
MODEL 9
REMARK VINA RESULT:    -4.239      4.727      6.644
REMARK INTER + INTRA:          -6.631
REMARK INTER:                  -5.999
REMARK INTRA:                  -0.632
REMARK UNBOUND:                -0.905
REMARK SMILES CC(=O)CCC=C(C)CCC=C(C)C
REMARK SMILES IDX 7 1 6 2 8 3 9 4 10 5 11 6 13 7 12 8 14 9 5 10 4 11 2 12 3 13
REMARK SMILES IDX 1 14
REMARK H PARENT
REMARK Flexibility Score: inf
ROOT
ATOM      1  C   UNL     1      19.239  29.095  28.595  1.00  0.00    -0.077 C 
ATOM      2  C   UNL     1      18.676  30.295  28.861  1.00  0.00    -0.028 C 
ATOM      3  C   UNL     1      20.671  28.785  28.966  1.00  0.00     0.039 C 
ENDROOT
BRANCH   1   4
ATOM      4  C   UNL     1      18.415  28.036  27.895  1.00  0.00     0.034 C 
BRANCH   4   5
ATOM      5  C   UNL     1      18.611  26.666  28.552  1.00  0.00     0.032 C 
BRANCH   5   6
ATOM      6  C   UNL     1      18.928  25.605  27.526  1.00  0.00    -0.028 C 
ATOM      7  C   UNL     1      21.142  25.126  28.578  1.00  0.00     0.039 C 
ATOM      8  C   UNL     1      20.080  24.899  27.531  1.00  0.00    -0.080 C 
ATOM      9  C   UNL     1      20.330  23.854  26.474  1.00  0.00     0.039 C 
ENDBRANCH   5   6
ENDBRANCH   4   5
ENDBRANCH   1   4
BRANCH   2  10
ATOM     10  C   UNL     1      19.368  31.423  29.587  1.00  0.00     0.035 C 
BRANCH  10  11
ATOM     11  C   UNL     1      18.357  32.246  30.399  1.00  0.00     0.079 C 
BRANCH  11  12
ATOM     12  C   UNL     1      17.643  33.318  29.606  1.00  0.00     0.130 C 
ATOM     13  O   UNL     1      18.238  34.359  29.371  1.00  0.00    -0.300 OA
ATOM     14  C   UNL     1      16.239  33.157  29.090  1.00  0.00     0.087 C 
ENDBRANCH  11  12
ENDBRANCH  10  11
ENDBRANCH   2  10
TORSDOF 6
ENDMDL
