MODEL 1
REMARK VINA RESULT:    -3.464      0.000      0.000
REMARK INTER + INTRA:          -5.421
REMARK INTER:                  -4.882
REMARK INTRA:                  -0.539
REMARK UNBOUND:                -0.539
REMARK SMILES CCCCCCCCC=O
REMARK SMILES IDX 5 1 4 2 3 3 2 4 1 5 6 6 7 7 8 8 9 9 10 10
REMARK H PARENT
REMARK Flexibility Score: inf
ROOT
ATOM      1  C   UNL     1       0.287   6.566   6.019  1.00  0.00     0.000 C 
ENDROOT
BRANCH   1   2
ATOM      2  C   UNL     1       1.604   6.934   5.319  1.00  0.00    -0.000 C 
BRANCH   2   3
ATOM      3  C   UNL     1       2.419   7.976   6.100  1.00  0.00    -0.000 C 
BRANCH   3   4
ATOM      4  C   UNL     1       3.359   8.789   5.198  1.00  0.00    -0.003 C 
ATOM      5  C   UNL     1       2.571   9.702   4.264  1.00  0.00     0.004 C 
ENDBRANCH   3   4
ENDBRANCH   2   3
ENDBRANCH   1   2
BRANCH   1   6
ATOM      6  C   UNL     1      -0.912   6.798   5.092  1.00  0.00     0.000 C 
BRANCH   6   7
ATOM      7  C   UNL     1      -0.476   7.476   3.787  1.00  0.00     0.008 C 
BRANCH   7   8
ATOM      8  C   UNL     1      -1.077   6.765   2.570  1.00  0.00     0.072 C 
BRANCH   8   9
ATOM      9  C   UNL     1      -1.011   5.276   2.731  1.00  0.00     0.224 C 
ATOM     10  O   UNL     1       0.035   4.679   2.533  1.00  0.00    -0.303 OA
ENDBRANCH   8   9
ENDBRANCH   7   8
ENDBRANCH   6   7
ENDBRANCH   1   6
TORSDOF 7
ENDMDL
MODEL 2
REMARK VINA RESULT:    -3.311     13.058     14.025
REMARK INTER + INTRA:          -5.205
REMARK INTER:                  -4.906
REMARK INTRA:                  -0.300
REMARK UNBOUND:                -0.539
REMARK SMILES CCCCCCCCC=O
REMARK SMILES IDX 5 1 4 2 3 3 2 4 1 5 6 6 7 7 8 8 9 9 10 10
REMARK H PARENT
REMARK Flexibility Score: inf
ROOT
ATOM      1  C   UNL     1       8.895  -3.487  -0.289  1.00  0.00     0.000 C 
ENDROOT
BRANCH   1   2
ATOM      2  C   UNL     1       7.667  -2.915   0.437  1.00  0.00    -0.000 C 
BRANCH   2   3
ATOM      3  C   UNL     1       8.001  -2.384   1.839  1.00  0.00    -0.000 C 
BRANCH   3   4
ATOM      4  C   UNL     1       6.751  -1.967   2.627  1.00  0.00    -0.003 C 
ATOM      5  C   UNL     1       7.105  -0.980   3.736  1.00  0.00     0.004 C 
ENDBRANCH   3   4
ENDBRANCH   2   3
ENDBRANCH   1   2
BRANCH   1   6
ATOM      6  C   UNL     1       8.601  -4.884  -0.849  1.00  0.00     0.000 C 
BRANCH   6   7
ATOM      7  C   UNL     1       8.343  -5.888   0.280  1.00  0.00     0.008 C 
BRANCH   7   8
ATOM      8  C   UNL     1       7.543  -7.092  -0.226  1.00  0.00     0.072 C 
BRANCH   8   9
ATOM      9  C   UNL     1       6.155  -7.093   0.340  1.00  0.00     0.224 C 
ATOM     10  O   UNL     1       5.803  -6.218   1.115  1.00  0.00    -0.303 OA
ENDBRANCH   8   9
ENDBRANCH   7   8
ENDBRANCH   6   7
ENDBRANCH   1   6
TORSDOF 7
ENDMDL
MODEL 3
REMARK VINA RESULT:    -3.307      1.704      2.910
REMARK INTER + INTRA:          -5.200
REMARK INTER:                  -4.742
REMARK INTRA:                  -0.458
REMARK UNBOUND:                -0.539
REMARK SMILES CCCCCCCCC=O
REMARK SMILES IDX 5 1 4 2 3 3 2 4 1 5 6 6 7 7 8 8 9 9 10 10
REMARK H PARENT
REMARK Flexibility Score: inf
ROOT
ATOM      1  C   UNL     1       0.861   8.268   4.465  1.00  0.00     0.000 C 
ENDROOT
BRANCH   1   2
ATOM      2  C   UNL     1       0.629   8.781   5.895  1.00  0.00    -0.000 C 
BRANCH   2   3
ATOM      3  C   UNL     1      -0.832   8.638   6.346  1.00  0.00    -0.000 C 
BRANCH   3   4
ATOM      4  C   UNL     1      -1.045   7.448   7.293  1.00  0.00    -0.003 C 
ATOM      5  C   UNL     1       0.190   6.553   7.339  1.00  0.00     0.004 C 
ENDBRANCH   3   4
ENDBRANCH   2   3
ENDBRANCH   1   2
BRANCH   1   6
ATOM      6  C   UNL     1      -0.257   8.736   3.526  1.00  0.00     0.000 C 
BRANCH   6   7
ATOM      7  C   UNL     1      -1.025   7.543   2.946  1.00  0.00     0.008 C 
BRANCH   7   8
ATOM      8  C   UNL     1      -0.490   6.220   3.505  1.00  0.00     0.072 C 
BRANCH   8   9
ATOM      9  C   UNL     1      -0.567   5.132   2.478  1.00  0.00     0.224 C 
ATOM     10  O   UNL     1      -1.375   5.199   1.565  1.00  0.00    -0.303 OA
ENDBRANCH   8   9
ENDBRANCH   7   8
ENDBRANCH   6   7
ENDBRANCH   1   6
TORSDOF 7
ENDMDL
MODEL 4
REMARK VINA RESULT:    -3.259     15.234     16.188
REMARK INTER + INTRA:          -5.133
REMARK INTER:                  -4.860
REMARK INTRA:                  -0.272
REMARK UNBOUND:                -0.539
REMARK SMILES CCCCCCCCC=O
REMARK SMILES IDX 5 1 4 2 3 3 2 4 1 5 6 6 7 7 8 8 9 9 10 10
REMARK H PARENT
REMARK Flexibility Score: inf
ROOT
ATOM      1  C   UNL     1       8.913   0.970  -7.028  1.00  0.00     0.000 C 
ENDROOT
BRANCH   1   2
ATOM      2  C   UNL     1       7.636   0.156  -7.287  1.00  0.00    -0.000 C 
BRANCH   2   3
ATOM      3  C   UNL     1       6.867   0.640  -8.526  1.00  0.00    -0.000 C 
BRANCH   3   4
ATOM      4  C   UNL     1       5.452   0.048  -8.613  1.00  0.00    -0.003 C 
ATOM      5  C   UNL     1       5.467  -1.452  -8.336  1.00  0.00     0.004 C 
ENDBRANCH   3   4
ENDBRANCH   2   3
ENDBRANCH   1   2
BRANCH   1   6
ATOM      6  C   UNL     1       9.191   1.940  -8.182  1.00  0.00     0.000 C 
BRANCH   6   7
ATOM      7  C   UNL     1      10.546   2.635  -8.005  1.00  0.00     0.008 C 
BRANCH   7   8
ATOM      8  C   UNL     1      10.649   3.295  -6.625  1.00  0.00     0.072 C 
BRANCH   8   9
ATOM      9  C   UNL     1      11.278   4.651  -6.724  1.00  0.00     0.224 C 
ATOM     10  O   UNL     1      10.971   5.535  -5.941  1.00  0.00    -0.303 OA
ENDBRANCH   8   9
ENDBRANCH   7   8
ENDBRANCH   6   7
ENDBRANCH   1   6
TORSDOF 7
ENDMDL
MODEL 5
REMARK VINA RESULT:    -3.257      2.097      3.721
REMARK INTER + INTRA:          -5.130
REMARK INTER:                  -4.473
REMARK INTRA:                  -0.656
REMARK UNBOUND:                -0.539
REMARK SMILES CCCCCCCCC=O
REMARK SMILES IDX 5 1 4 2 3 3 2 4 1 5 6 6 7 7 8 8 9 9 10 10
REMARK H PARENT
REMARK Flexibility Score: inf
ROOT
ATOM      1  C   UNL     1      -0.387   7.427   6.507  1.00  0.00     0.000 C 
ENDROOT
BRANCH   1   2
ATOM      2  C   UNL     1      -1.436   8.526   6.277  1.00  0.00    -0.000 C 
BRANCH   2   3
ATOM      3  C   UNL     1      -2.850   8.090   6.690  1.00  0.00    -0.000 C 
BRANCH   3   4
ATOM      4  C   UNL     1      -3.748   7.774   5.484  1.00  0.00    -0.003 C 
ATOM      5  C   UNL     1      -3.732   8.918   4.474  1.00  0.00     0.004 C 
ENDBRANCH   3   4
ENDBRANCH   2   3
ENDBRANCH   1   2
BRANCH   1   6
ATOM      6  C   UNL     1      -0.248   6.533   5.269  1.00  0.00     0.000 C 
BRANCH   6   7
ATOM      7  C   UNL     1      -0.014   7.371   4.007  1.00  0.00     0.008 C 
BRANCH   7   8
ATOM      8  C   UNL     1      -1.008   6.994   2.904  1.00  0.00     0.072 C 
BRANCH   8   9
ATOM      9  C   UNL     1      -0.885   5.546   2.540  1.00  0.00     0.224 C 
ATOM     10  O   UNL     1      -1.290   5.141   1.463  1.00  0.00    -0.303 OA
ENDBRANCH   8   9
ENDBRANCH   7   8
ENDBRANCH   6   7
ENDBRANCH   1   6
TORSDOF 7
ENDMDL
MODEL 6
REMARK VINA RESULT:    -3.204     14.842     15.235
REMARK INTER + INTRA:          -5.055
REMARK INTER:                  -4.860
REMARK INTRA:                  -0.195
REMARK UNBOUND:                -0.539
REMARK SMILES CCCCCCCCC=O
REMARK SMILES IDX 5 1 4 2 3 3 2 4 1 5 6 6 7 7 8 8 9 9 10 10
REMARK H PARENT
REMARK Flexibility Score: inf
ROOT
ATOM      1  C   UNL     1       7.842  -0.235  -7.280  1.00  0.00     0.000 C 
ENDROOT
BRANCH   1   2
ATOM      2  C   UNL     1       8.724   0.944  -6.841  1.00  0.00    -0.000 C 
BRANCH   2   3
ATOM      3  C   UNL     1       9.259   1.758  -8.029  1.00  0.00    -0.000 C 
BRANCH   3   4
ATOM      4  C   UNL     1      10.277   2.827  -7.604  1.00  0.00    -0.003 C 
ATOM      5  C   UNL     1      10.714   2.624  -6.157  1.00  0.00     0.004 C 
ENDBRANCH   3   4
ENDBRANCH   2   3
ENDBRANCH   1   2
BRANCH   1   6
ATOM      6  C   UNL     1       6.558   0.262  -7.956  1.00  0.00     0.000 C 
BRANCH   6   7
ATOM      7  C   UNL     1       5.683  -0.913  -8.408  1.00  0.00     0.008 C 
BRANCH   7   8
ATOM      8  C   UNL     1       4.230  -0.472  -8.609  1.00  0.00     0.072 C 
BRANCH   8   9
ATOM      9  C   UNL     1       3.279  -1.466  -8.014  1.00  0.00     0.224 C 
ATOM     10  O   UNL     1       2.245  -1.094  -7.485  1.00  0.00    -0.303 OA
ENDBRANCH   8   9
ENDBRANCH   7   8
ENDBRANCH   6   7
ENDBRANCH   1   6
TORSDOF 7
ENDMDL
MODEL 7
REMARK VINA RESULT:    -3.162      2.748      4.220
REMARK INTER + INTRA:          -4.995
REMARK INTER:                  -4.472
REMARK INTRA:                  -0.523
REMARK UNBOUND:                -0.539
REMARK SMILES CCCCCCCCC=O
REMARK SMILES IDX 5 1 4 2 3 3 2 4 1 5 6 6 7 7 8 8 9 9 10 10
REMARK H PARENT
REMARK Flexibility Score: inf
ROOT
ATOM      1  C   UNL     1      -0.048   6.873   6.087  1.00  0.00     0.000 C 
ENDROOT
BRANCH   1   2
ATOM      2  C   UNL     1       0.353   6.493   4.654  1.00  0.00    -0.000 C 
BRANCH   2   3
ATOM      3  C   UNL     1      -0.277   7.415   3.599  1.00  0.00    -0.000 C 
BRANCH   3   4
ATOM      4  C   UNL     1      -1.090   6.643   2.548  1.00  0.00    -0.003 C 
ATOM      5  C   UNL     1      -0.681   5.174   2.508  1.00  0.00     0.004 C 
ENDBRANCH   3   4
ENDBRANCH   2   3
ENDBRANCH   1   2
BRANCH   1   6
ATOM      6  C   UNL     1      -0.911   8.140   6.099  1.00  0.00     0.000 C 
BRANCH   6   7
ATOM      7  C   UNL     1      -1.998   8.057   7.177  1.00  0.00     0.008 C 
BRANCH   7   8
ATOM      8  C   UNL     1      -3.368   8.439   6.606  1.00  0.00     0.072 C 
BRANCH   8   9
ATOM      9  C   UNL     1      -3.512   7.968   5.191  1.00  0.00     0.224 C 
ATOM     10  O   UNL     1      -3.952   8.715   4.332  1.00  0.00    -0.303 OA
ENDBRANCH   8   9
ENDBRANCH   7   8
ENDBRANCH   6   7
ENDBRANCH   1   6
TORSDOF 7
ENDMDL
MODEL 8
REMARK VINA RESULT:    -3.129     14.981     15.374
REMARK INTER + INTRA:          -4.949
REMARK INTER:                  -4.593
REMARK INTRA:                  -0.356
REMARK UNBOUND:                -0.539
REMARK SMILES CCCCCCCCC=O
REMARK SMILES IDX 5 1 4 2 3 3 2 4 1 5 6 6 7 7 8 8 9 9 10 10
REMARK H PARENT
REMARK Flexibility Score: inf
ROOT
ATOM      1  C   UNL     1       7.514  -0.932  -7.490  1.00  0.00     0.000 C 
ENDROOT
BRANCH   1   2
ATOM      2  C   UNL     1       7.788   0.553  -7.211  1.00  0.00    -0.000 C 
BRANCH   2   3
ATOM      3  C   UNL     1       9.158   0.790  -6.558  1.00  0.00    -0.000 C 
BRANCH   3   4
ATOM      4  C   UNL     1       9.998   1.835  -7.307  1.00  0.00    -0.003 C 
ATOM      5  C   UNL     1       9.442   2.089  -8.704  1.00  0.00     0.004 C 
ENDBRANCH   3   4
ENDBRANCH   2   3
ENDBRANCH   1   2
BRANCH   1   6
ATOM      6  C   UNL     1       6.180  -1.117  -8.224  1.00  0.00     0.000 C 
BRANCH   6   7
ATOM      7  C   UNL     1       5.545   0.238  -8.561  1.00  0.00     0.008 C 
BRANCH   7   8
ATOM      8  C   UNL     1       4.026   0.110  -8.714  1.00  0.00     0.072 C 
BRANCH   8   9
ATOM      9  C   UNL     1       3.452   1.314  -9.397  1.00  0.00     0.224 C 
ATOM     10  O   UNL     1       2.466   1.872  -8.943  1.00  0.00    -0.303 OA
ENDBRANCH   8   9
ENDBRANCH   7   8
ENDBRANCH   6   7
ENDBRANCH   1   6
TORSDOF 7
ENDMDL
MODEL 9
REMARK VINA RESULT:    -3.118     15.461     16.234
REMARK INTER + INTRA:          -4.933
REMARK INTER:                  -4.148
REMARK INTRA:                  -0.784
REMARK UNBOUND:                -0.539
REMARK SMILES CCCCCCCCC=O
REMARK SMILES IDX 5 1 4 2 3 3 2 4 1 5 6 6 7 7 8 8 9 9 10 10
REMARK H PARENT
REMARK Flexibility Score: inf
ROOT
ATOM      1  C   UNL     1       8.111  -0.811  -7.252  1.00  0.00     0.000 C 
ENDROOT
BRANCH   1   2
ATOM      2  C   UNL     1       9.374  -0.364  -6.500  1.00  0.00    -0.000 C 
BRANCH   2   3
ATOM      3  C   UNL     1       9.406   1.150  -6.244  1.00  0.00    -0.000 C 
BRANCH   3   4
ATOM      4  C   UNL     1      10.649   1.826  -6.842  1.00  0.00    -0.003 C 
ATOM      5  C   UNL     1      10.362   3.279  -7.209  1.00  0.00     0.004 C 
ENDBRANCH   3   4
ENDBRANCH   2   3
ENDBRANCH   1   2
BRANCH   1   6
ATOM      6  C   UNL     1       7.228   0.391  -7.606  1.00  0.00     0.000 C 
BRANCH   6   7
ATOM      7  C   UNL     1       7.103   0.554  -9.126  1.00  0.00     0.008 C 
BRANCH   7   8
ATOM      8  C   UNL     1       7.904   1.764  -9.618  1.00  0.00     0.072 C 
BRANCH   8   9
ATOM      9  C   UNL     1       9.165   1.331 -10.302  1.00  0.00     0.224 C 
ATOM     10  O   UNL     1      10.016   2.150 -10.607  1.00  0.00    -0.303 OA
ENDBRANCH   8   9
ENDBRANCH   7   8
ENDBRANCH   6   7
ENDBRANCH   1   6
TORSDOF 7
ENDMDL
