MODEL 1
REMARK VINA RESULT:    -4.857      0.000      0.000
REMARK INTER + INTRA:          -4.999
REMARK INTER:                  -4.999
REMARK INTRA:                   0.000
REMARK UNBOUND:                 0.000
REMARK SMILES Nc1ncnc2nc[nH]c12
REMARK SMILES IDX 8 1 7 2 6 3 5 4 4 5 3 6 2 7 10 8 9 9 1 11
REMARK H PARENT 9 10 1 12 1 13
REMARK Flexibility Score: inf
ROOT
ATOM      1  C   UNL     1      28.557  19.098   5.461  1.00  0.00     0.199 A 
ATOM      2  N   UNL     1      27.447  18.701   4.781  1.00  0.00    -0.217 NA
ATOM      3  C   UNL     1      26.609  19.733   4.976  1.00  0.00     0.182 A 
ATOM      4  N   UNL     1      25.345  19.847   4.503  1.00  0.00    -0.215 NA
ATOM      5  C   UNL     1      24.642  20.981   4.809  1.00  0.00     0.226 A 
ATOM      6  N   UNL     1      25.211  21.968   5.573  1.00  0.00    -0.217 NA
ATOM      7  C   UNL     1      26.487  21.853   6.050  1.00  0.00     0.152 A 
ATOM      8  C   UNL     1      27.189  20.694   5.732  1.00  0.00     0.127 A 
ATOM      9  N   UNL     1      28.431  20.312   6.052  1.00  0.00    -0.340 N 
ATOM     10  H   UNL     1      29.143  20.820   6.622  1.00  0.00     0.168 HD
ENDROOT
BRANCH   7  11
ATOM     11  N   UNL     1      27.058  22.895   6.845  1.00  0.00    -0.382 N 
ATOM     12  H   UNL     1      27.319  22.710   7.838  1.00  0.00     0.158 HD
ATOM     13  H   UNL     1      27.222  23.848   6.454  1.00  0.00     0.158 HD
ENDBRANCH   7  11
TORSDOF 1
ENDMDL
MODEL 2
REMARK VINA RESULT:    -4.369      1.819      1.854
REMARK INTER + INTRA:          -4.496
REMARK INTER:                  -4.496
REMARK INTRA:                   0.000
REMARK UNBOUND:                 0.000
REMARK SMILES Nc1ncnc2nc[nH]c12
REMARK SMILES IDX 8 1 7 2 6 3 5 4 4 5 3 6 2 7 10 8 9 9 1 11
REMARK H PARENT 9 10 1 12 1 13
REMARK Flexibility Score: inf
ROOT
ATOM      1  C   UNL     1      29.575  21.776   3.922  1.00  0.00     0.199 A 
ATOM      2  N   UNL     1      28.810  20.823   3.325  1.00  0.00    -0.217 NA
ATOM      3  C   UNL     1      27.671  20.885   4.036  1.00  0.00     0.182 A 
ATOM      4  N   UNL     1      26.560  20.133   3.850  1.00  0.00    -0.215 NA
ATOM      5  C   UNL     1      25.493  20.343   4.679  1.00  0.00     0.226 A 
ATOM      6  N   UNL     1      25.555  21.292   5.668  1.00  0.00    -0.217 NA
ATOM      7  C   UNL     1      26.675  22.052   5.856  1.00  0.00     0.152 A 
ATOM      8  C   UNL     1      27.753  21.826   5.005  1.00  0.00     0.127 A 
ATOM      9  N   UNL     1      28.958  22.407   4.952  1.00  0.00    -0.340 N 
ATOM     10  H   UNL     1      29.343  23.168   5.555  1.00  0.00     0.168 HD
ENDROOT
BRANCH   7  11
ATOM     11  N   UNL     1      26.717  23.034   6.893  1.00  0.00    -0.382 N 
ATOM     12  H   UNL     1      27.586  23.162   7.457  1.00  0.00     0.158 HD
ATOM     13  H   UNL     1      25.891  23.635   7.106  1.00  0.00     0.158 HD
ENDBRANCH   7  11
TORSDOF 1
ENDMDL
MODEL 3
REMARK VINA RESULT:    -4.027     18.890     18.977
REMARK INTER + INTRA:          -4.145
REMARK INTER:                  -4.145
REMARK INTRA:                   0.000
REMARK UNBOUND:                 0.000
REMARK SMILES Nc1ncnc2nc[nH]c12
REMARK SMILES IDX 8 1 7 2 6 3 5 4 4 5 3 6 2 7 10 8 9 9 1 11
REMARK H PARENT 9 10 1 12 1 13
REMARK Flexibility Score: inf
ROOT
ATOM      1  C   UNL     1      37.583  17.762  20.887  1.00  0.00     0.199 A 
ATOM      2  N   UNL     1      38.011  19.040  20.695  1.00  0.00    -0.217 NA
ATOM      3  C   UNL     1      37.029  19.758  21.265  1.00  0.00     0.182 A 
ATOM      4  N   UNL     1      36.960  21.108  21.352  1.00  0.00    -0.215 NA
ATOM      5  C   UNL     1      35.875  21.660  21.974  1.00  0.00     0.226 A 
ATOM      6  N   UNL     1      34.888  20.862  22.493  1.00  0.00    -0.217 NA
ATOM      7  C   UNL     1      34.956  19.499  22.406  1.00  0.00     0.152 A 
ATOM      8  C   UNL     1      36.066  18.951  21.770  1.00  0.00     0.127 A 
ATOM      9  N   UNL     1      36.398  17.675  21.541  1.00  0.00    -0.340 N 
ATOM     10  H   UNL     1      35.876  16.809  21.799  1.00  0.00     0.168 HD
ENDROOT
BRANCH   7  11
ATOM     11  N   UNL     1      33.916  18.687  22.954  1.00  0.00    -0.382 N 
ATOM     12  H   UNL     1      33.073  19.133  23.379  1.00  0.00     0.158 HD
ATOM     13  H   UNL     1      33.975  17.645  22.941  1.00  0.00     0.158 HD
ENDBRANCH   7  11
TORSDOF 1
ENDMDL
MODEL 4
REMARK VINA RESULT:    -4.017      1.315      3.141
REMARK INTER + INTRA:          -4.134
REMARK INTER:                  -4.134
REMARK INTRA:                   0.000
REMARK UNBOUND:                 0.000
REMARK SMILES Nc1ncnc2nc[nH]c12
REMARK SMILES IDX 8 1 7 2 6 3 5 4 4 5 3 6 2 7 10 8 9 9 1 11
REMARK H PARENT 9 10 1 12 1 13
REMARK Flexibility Score: inf
ROOT
ATOM      1  C   UNL     1      26.008  21.538   6.257  1.00  0.00     0.199 A 
ATOM      2  N   UNL     1      25.509  21.043   5.091  1.00  0.00    -0.217 NA
ATOM      3  C   UNL     1      26.526  20.288   4.643  1.00  0.00     0.182 A 
ATOM      4  N   UNL     1      26.552  19.562   3.500  1.00  0.00    -0.215 NA
ATOM      5  C   UNL     1      27.685  18.851   3.213  1.00  0.00     0.226 A 
ATOM      6  N   UNL     1      28.760  18.879   4.064  1.00  0.00    -0.217 NA
ATOM      7  C   UNL     1      28.735  19.611   5.218  1.00  0.00     0.152 A 
ATOM      8  C   UNL     1      27.576  20.329   5.497  1.00  0.00     0.127 A 
ATOM      9  N   UNL     1      27.268  21.119   6.533  1.00  0.00    -0.340 N 
ATOM     10  H   UNL     1      27.853  21.364   7.363  1.00  0.00     0.168 HD
ENDROOT
BRANCH   7  11
ATOM     11  N   UNL     1      29.867  19.625   6.090  1.00  0.00    -0.382 N 
ATOM     12  H   UNL     1      30.517  18.809   6.116  1.00  0.00     0.158 HD
ATOM     13  H   UNL     1      30.065  20.440   6.711  1.00  0.00     0.158 HD
ENDBRANCH   7  11
TORSDOF 1
ENDMDL
MODEL 5
REMARK VINA RESULT:    -3.997      1.534      2.213
REMARK INTER + INTRA:          -4.114
REMARK INTER:                  -4.114
REMARK INTRA:                   0.000
REMARK UNBOUND:                 0.000
REMARK SMILES Nc1ncnc2nc[nH]c12
REMARK SMILES IDX 8 1 7 2 6 3 5 4 4 5 3 6 2 7 10 8 9 9 1 11
REMARK H PARENT 9 10 1 12 1 13
REMARK Flexibility Score: inf
ROOT
ATOM      1  C   UNL     1      27.276  19.800   7.103  1.00  0.00     0.199 A 
ATOM      2  N   UNL     1      27.955  19.516   5.958  1.00  0.00    -0.217 NA
ATOM      3  C   UNL     1      27.164  20.058   5.017  1.00  0.00     0.182 A 
ATOM      4  N   UNL     1      27.382  20.057   3.680  1.00  0.00    -0.215 NA
ATOM      5  C   UNL     1      26.457  20.665   2.875  1.00  0.00     0.226 A 
ATOM      6  N   UNL     1      25.344  21.256   3.416  1.00  0.00    -0.217 NA
ATOM      7  C   UNL     1      25.123  21.258   4.766  1.00  0.00     0.152 A 
ATOM      8  C   UNL     1      26.073  20.636   5.571  1.00  0.00     0.127 A 
ATOM      9  N   UNL     1      26.123  20.484   6.900  1.00  0.00    -0.340 N 
ATOM     10  H   UNL     1      25.441  20.810   7.620  1.00  0.00     0.168 HD
ENDROOT
BRANCH   7  11
ATOM     11  N   UNL     1      23.957  21.880   5.306  1.00  0.00    -0.382 N 
ATOM     12  H   UNL     1      23.398  22.540   4.722  1.00  0.00     0.158 HD
ATOM     13  H   UNL     1      23.643  21.691   6.284  1.00  0.00     0.158 HD
ENDBRANCH   7  11
TORSDOF 1
ENDMDL
MODEL 6
REMARK VINA RESULT:    -3.971     18.724     18.950
REMARK INTER + INTRA:          -4.088
REMARK INTER:                  -4.088
REMARK INTRA:                   0.000
REMARK UNBOUND:                 0.000
REMARK SMILES Nc1ncnc2nc[nH]c12
REMARK SMILES IDX 8 1 7 2 6 3 5 4 4 5 3 6 2 7 10 8 9 9 1 11
REMARK H PARENT 9 10 1 12 1 13
REMARK Flexibility Score: inf
ROOT
ATOM      1  C   UNL     1      21.808   9.283  19.174  1.00  0.00     0.199 A 
ATOM      2  N   UNL     1      20.918   9.309  20.203  1.00  0.00    -0.217 NA
ATOM      3  C   UNL     1      21.438  10.254  21.006  1.00  0.00     0.182 A 
ATOM      4  N   UNL     1      20.932  10.677  22.188  1.00  0.00    -0.215 NA
ATOM      5  C   UNL     1      21.607  11.655  22.866  1.00  0.00     0.226 A 
ATOM      6  N   UNL     1      22.764  12.185  22.354  1.00  0.00    -0.217 NA
ATOM      7  C   UNL     1      23.276  11.759  21.160  1.00  0.00     0.152 A 
ATOM      8  C   UNL     1      22.578  10.763  20.482  1.00  0.00     0.127 A 
ATOM      9  N   UNL     1      22.833  10.160  19.315  1.00  0.00    -0.340 N 
ATOM     10  H   UNL     1      23.630  10.319  18.660  1.00  0.00     0.168 HD
ENDROOT
BRANCH   7  11
ATOM     11  N   UNL     1      24.482  12.326  20.646  1.00  0.00    -0.382 N 
ATOM     12  H   UNL     1      25.371  12.242  21.188  1.00  0.00     0.158 HD
ATOM     13  H   UNL     1      24.500  12.829  19.732  1.00  0.00     0.158 HD
ENDBRANCH   7  11
TORSDOF 1
ENDMDL
MODEL 7
REMARK VINA RESULT:    -3.953     18.597     19.062
REMARK INTER + INTRA:          -4.069
REMARK INTER:                  -4.069
REMARK INTRA:                   0.000
REMARK UNBOUND:                 0.000
REMARK SMILES Nc1ncnc2nc[nH]c12
REMARK SMILES IDX 8 1 7 2 6 3 5 4 4 5 3 6 2 7 10 8 9 9 1 11
REMARK H PARENT 9 10 1 12 1 13
REMARK Flexibility Score: inf
ROOT
ATOM      1  C   UNL     1      33.679  21.952  23.054  1.00  0.00     0.199 A 
ATOM      2  N   UNL     1      34.830  22.549  22.639  1.00  0.00    -0.217 NA
ATOM      3  C   UNL     1      35.528  21.510  22.149  1.00  0.00     0.182 A 
ATOM      4  N   UNL     1      36.765  21.555  21.601  1.00  0.00    -0.215 NA
ATOM      5  C   UNL     1      37.316  20.385  21.154  1.00  0.00     0.226 A 
ATOM      6  N   UNL     1      36.626  19.205  21.263  1.00  0.00    -0.217 NA
ATOM      7  C   UNL     1      35.377  19.158  21.816  1.00  0.00     0.152 A 
ATOM      8  C   UNL     1      34.830  20.356  22.266  1.00  0.00     0.127 A 
ATOM      9  N   UNL     1      33.649  20.614  22.840  1.00  0.00    -0.340 N 
ATOM     10  H   UNL     1      32.878  19.949  23.073  1.00  0.00     0.168 HD
ENDROOT
BRANCH   7  11
ATOM     11  N   UNL     1      34.677  17.916  21.918  1.00  0.00    -0.382 N 
ATOM     12  H   UNL     1      34.047  17.606  21.146  1.00  0.00     0.158 HD
ATOM     13  H   UNL     1      34.780  17.302  22.756  1.00  0.00     0.158 HD
ENDBRANCH   7  11
TORSDOF 1
ENDMDL
MODEL 8
REMARK VINA RESULT:    -3.941      1.441      2.458
REMARK INTER + INTRA:          -4.056
REMARK INTER:                  -4.056
REMARK INTRA:                   0.000
REMARK UNBOUND:                 0.000
REMARK SMILES Nc1ncnc2nc[nH]c12
REMARK SMILES IDX 8 1 7 2 6 3 5 4 4 5 3 6 2 7 10 8 9 9 1 11
REMARK H PARENT 9 10 1 12 1 13
REMARK Flexibility Score: inf
ROOT
ATOM      1  C   UNL     1      27.934  18.846   3.202  1.00  0.00     0.199 A 
ATOM      2  N   UNL     1      28.381  18.793   4.486  1.00  0.00    -0.217 NA
ATOM      3  C   UNL     1      27.495  19.574   5.128  1.00  0.00     0.182 A 
ATOM      4  N   UNL     1      27.483  19.863   6.451  1.00  0.00    -0.215 NA
ATOM      5  C   UNL     1      26.494  20.682   6.924  1.00  0.00     0.226 A 
ATOM      6  N   UNL     1      25.546  21.190   6.073  1.00  0.00    -0.217 NA
ATOM      7  C   UNL     1      25.556  20.899   4.738  1.00  0.00     0.152 A 
ATOM      8  C   UNL     1      26.569  20.065   4.272  1.00  0.00     0.127 A 
ATOM      9  N   UNL     1      26.829  19.614   3.039  1.00  0.00    -0.340 N 
ATOM     10  H   UNL     1      26.310  19.803   2.153  1.00  0.00     0.168 HD
ENDROOT
BRANCH   7  11
ATOM     11  N   UNL     1      24.558  21.441   3.871  1.00  0.00    -0.382 N 
ATOM     12  H   UNL     1      23.927  20.803   3.338  1.00  0.00     0.158 HD
ATOM     13  H   UNL     1      24.441  22.471   3.754  1.00  0.00     0.158 HD
ENDBRANCH   7  11
TORSDOF 1
ENDMDL
MODEL 9
REMARK VINA RESULT:    -3.823      1.484      2.940
REMARK INTER + INTRA:          -3.934
REMARK INTER:                  -3.934
REMARK INTRA:                   0.000
REMARK UNBOUND:                 0.000
REMARK SMILES Nc1ncnc2nc[nH]c12
REMARK SMILES IDX 8 1 7 2 6 3 5 4 4 5 3 6 2 7 10 8 9 9 1 11
REMARK H PARENT 9 10 1 12 1 13
REMARK Flexibility Score: inf
ROOT
ATOM      1  C   UNL     1      24.579  21.517   5.724  1.00  0.00     0.199 A 
ATOM      2  N   UNL     1      24.614  20.313   5.090  1.00  0.00    -0.217 NA
ATOM      3  C   UNL     1      25.892  20.243   4.681  1.00  0.00     0.182 A 
ATOM      4  N   UNL     1      26.465  19.230   3.989  1.00  0.00    -0.215 NA
ATOM      5  C   UNL     1      27.788  19.340   3.660  1.00  0.00     0.226 A 
ATOM      6  N   UNL     1      28.506  20.451   4.024  1.00  0.00    -0.217 NA
ATOM      7  C   UNL     1      27.929  21.475   4.723  1.00  0.00     0.152 A 
ATOM      8  C   UNL     1      26.582  21.348   5.050  1.00  0.00     0.127 A 
ATOM      9  N   UNL     1      25.766  22.173   5.716  1.00  0.00    -0.340 N 
ATOM     10  H   UNL     1      25.981  23.105   6.135  1.00  0.00     0.168 HD
ENDROOT
BRANCH   7  11
ATOM     11  N   UNL     1      28.697  22.621   5.091  1.00  0.00    -0.382 N 
ATOM     12  H   UNL     1      28.217  23.492   5.408  1.00  0.00     0.158 HD
ATOM     13  H   UNL     1      29.740  22.613   5.051  1.00  0.00     0.158 HD
ENDBRANCH   7  11
TORSDOF 1
ENDMDL
