MODEL 1
REMARK VINA RESULT:    -4.222      0.000      0.000
REMARK INTER + INTRA:         -10.043
REMARK INTER:                  -7.677
REMARK INTRA:                  -2.366
REMARK UNBOUND:                -2.366
REMARK SMILES CCCCCCCCCCCCCC[C@@H](C)C(=O)[O-]
REMARK SMILES IDX 9 1 10 2 11 3 12 4 13 5 14 6 15 7 16 8 17 9 18 10 19 11 8 12
REMARK SMILES IDX 7 13 6 14 5 15 4 16 3 17 2 18 1 19
REMARK H PARENT
REMARK Flexibility Score: inf
ROOT
ATOM      1  C   UNL     1       7.152  34.170  -2.023  1.00  0.00     0.000 C 
ENDROOT
BRANCH   1   2
ATOM      2  C   UNL     1       8.167  33.051  -2.301  1.00  0.00     0.000 C 
BRANCH   2   3
ATOM      3  C   UNL     1       9.166  32.918  -1.141  1.00  0.00     0.000 C 
BRANCH   3   4
ATOM      4  C   UNL     1       8.975  34.006  -0.067  1.00  0.00     0.000 C 
BRANCH   4   5
ATOM      5  C   UNL     1      10.146  35.005   0.015  1.00  0.00     0.001 C 
BRANCH   5   6
ATOM      6  C   UNL     1       9.956  36.243  -0.894  1.00  0.00     0.009 C 
BRANCH   6   7
ATOM      7  C   UNL     1      10.132  37.585  -0.150  1.00  0.00     0.032 C 
ATOM      8  C   UNL     1      10.049  37.424   1.374  1.00  0.00     0.014 C 
BRANCH   7   9
ATOM      9  C   UNL     1      11.447  38.214  -0.525  1.00  0.00     0.044 C 
ATOM     10  O   UNL     1      12.535  37.671  -0.191  1.00  0.00    -0.550 OA
ATOM     11  O   UNL     1      11.468  39.403  -1.243  1.00  0.00    -0.550 OA
ENDBRANCH   7   9
ENDBRANCH   6   7
ENDBRANCH   5   6
ENDBRANCH   4   5
ENDBRANCH   3   4
ENDBRANCH   2   3
ENDBRANCH   1   2
BRANCH   1  12
ATOM     12  C   UNL     1       5.746  33.842  -2.550  1.00  0.00     0.000 C 
BRANCH  12  13
ATOM     13  C   UNL     1       4.633  34.500  -1.720  1.00  0.00    -0.000 C 
BRANCH  13  14
ATOM     14  C   UNL     1       3.951  35.624  -2.509  1.00  0.00    -0.000 C 
BRANCH  14  15
ATOM     15  C   UNL     1       4.140  36.980  -1.811  1.00  0.00    -0.000 C 
BRANCH  15  16
ATOM     16  C   UNL     1       5.374  37.744  -2.318  1.00  0.00    -0.000 C 
BRANCH  16  17
ATOM     17  C   UNL     1       6.565  37.654  -1.348  1.00  0.00    -0.000 C 
BRANCH  17  18
ATOM     18  C   UNL     1       6.132  37.740   0.124  1.00  0.00    -0.003 C 
ATOM     19  C   UNL     1       6.454  36.471   0.913  1.00  0.00     0.004 C 
ENDBRANCH  17  18
ENDBRANCH  16  17
ENDBRANCH  15  16
ENDBRANCH  14  15
ENDBRANCH  13  14
ENDBRANCH  12  13
ENDBRANCH   1  12
TORSDOF 14
ENDMDL
MODEL 2
REMARK VINA RESULT:    -4.216      2.697      4.578
REMARK INTER + INTRA:         -10.033
REMARK INTER:                  -7.507
REMARK INTRA:                  -2.525
REMARK UNBOUND:                -2.366
REMARK SMILES CCCCCCCCCCCCCC[C@@H](C)C(=O)[O-]
REMARK SMILES IDX 9 1 10 2 11 3 12 4 13 5 14 6 15 7 16 8 17 9 18 10 19 11 8 12
REMARK SMILES IDX 7 13 6 14 5 15 4 16 3 17 2 18 1 19
REMARK H PARENT
REMARK Flexibility Score: inf
ROOT
ATOM      1  C   UNL     1       2.877  36.326  -1.319  1.00  0.00     0.000 C 
ENDROOT
BRANCH   1   2
ATOM      2  C   UNL     1       3.745  35.882  -2.507  1.00  0.00     0.000 C 
BRANCH   2   3
ATOM      3  C   UNL     1       4.522  34.601  -2.170  1.00  0.00     0.000 C 
BRANCH   3   4
ATOM      4  C   UNL     1       6.021  34.710  -2.511  1.00  0.00     0.000 C 
BRANCH   4   5
ATOM      5  C   UNL     1       6.945  34.104  -1.436  1.00  0.00     0.001 C 
BRANCH   5   6
ATOM      6  C   UNL     1       8.165  33.360  -2.029  1.00  0.00     0.009 C 
BRANCH   6   7
ATOM      7  C   UNL     1       9.370  33.288  -1.064  1.00  0.00     0.032 C 
ATOM      8  C   UNL     1       8.976  33.595   0.387  1.00  0.00     0.014 C 
BRANCH   7   9
ATOM      9  C   UNL     1      10.011  31.929  -1.141  1.00  0.00     0.044 C 
ATOM     10  O   UNL     1      10.101  31.204  -0.114  1.00  0.00    -0.550 OA
ATOM     11  O   UNL     1      10.510  31.465  -2.352  1.00  0.00    -0.550 OA
ENDBRANCH   7   9
ENDBRANCH   6   7
ENDBRANCH   5   6
ENDBRANCH   4   5
ENDBRANCH   3   4
ENDBRANCH   2   3
ENDBRANCH   1   2
BRANCH   1  12
ATOM     12  C   UNL     1       3.204  35.561  -0.027  1.00  0.00     0.000 C 
BRANCH  12  13
ATOM     13  C   UNL     1       4.001  36.406   0.978  1.00  0.00    -0.000 C 
BRANCH  13  14
ATOM     14  C   UNL     1       5.312  35.710   1.363  1.00  0.00    -0.000 C 
BRANCH  14  15
ATOM     15  C   UNL     1       6.508  36.661   1.201  1.00  0.00    -0.000 C 
BRANCH  15  16
ATOM     16  C   UNL     1       6.272  37.739   0.131  1.00  0.00    -0.000 C 
BRANCH  16  17
ATOM     17  C   UNL     1       7.368  37.750  -0.949  1.00  0.00    -0.000 C 
BRANCH  17  18
ATOM     18  C   UNL     1       8.780  37.842  -0.352  1.00  0.00    -0.003 C 
ATOM     19  C   UNL     1       9.794  36.965  -1.086  1.00  0.00     0.004 C 
ENDBRANCH  17  18
ENDBRANCH  16  17
ENDBRANCH  15  16
ENDBRANCH  14  15
ENDBRANCH  13  14
ENDBRANCH  12  13
ENDBRANCH   1  12
TORSDOF 14
ENDMDL
MODEL 3
REMARK VINA RESULT:    -4.162      2.093      3.682
REMARK INTER + INTRA:          -9.934
REMARK INTER:                  -7.297
REMARK INTRA:                  -2.636
REMARK UNBOUND:                -2.366
REMARK SMILES CCCCCCCCCCCCCC[C@@H](C)C(=O)[O-]
REMARK SMILES IDX 9 1 10 2 11 3 12 4 13 5 14 6 15 7 16 8 17 9 18 10 19 11 8 12
REMARK SMILES IDX 7 13 6 14 5 15 4 16 3 17 2 18 1 19
REMARK H PARENT
REMARK Flexibility Score: inf
ROOT
ATOM      1  C   UNL     1       4.002  35.598  -2.445  1.00  0.00     0.000 C 
ENDROOT
BRANCH   1   2
ATOM      2  C   UNL     1       4.344  34.113  -2.243  1.00  0.00     0.000 C 
BRANCH   2   3
ATOM      3  C   UNL     1       5.842  33.861  -2.472  1.00  0.00     0.000 C 
BRANCH   3   4
ATOM      4  C   UNL     1       6.633  35.162  -2.706  1.00  0.00     0.000 C 
BRANCH   4   5
ATOM      5  C   UNL     1       7.847  35.323  -1.769  1.00  0.00     0.001 C 
BRANCH   5   6
ATOM      6  C   UNL     1       7.919  34.236  -0.671  1.00  0.00     0.009 C 
BRANCH   6   7
ATOM      7  C   UNL     1       9.265  33.478  -0.643  1.00  0.00     0.032 C 
ATOM      8  C   UNL     1       9.453  32.573  -1.867  1.00  0.00     0.014 C 
BRANCH   7   9
ATOM      9  C   UNL     1      10.405  34.457  -0.553  1.00  0.00     0.044 C 
ATOM     10  O   UNL     1      11.284  34.500  -1.455  1.00  0.00    -0.550 OA
ATOM     11  O   UNL     1      10.495  35.320   0.532  1.00  0.00    -0.550 OA
ENDBRANCH   7   9
ENDBRANCH   6   7
ENDBRANCH   5   6
ENDBRANCH   4   5
ENDBRANCH   3   4
ENDBRANCH   2   3
ENDBRANCH   1   2
BRANCH   1  12
ATOM     12  C   UNL     1       3.339  36.228  -1.211  1.00  0.00     0.000 C 
BRANCH  12  13
ATOM     13  C   UNL     1       3.713  35.510   0.095  1.00  0.00    -0.000 C 
BRANCH  13  14
ATOM     14  C   UNL     1       4.239  36.504   1.137  1.00  0.00    -0.000 C 
BRANCH  14  15
ATOM     15  C   UNL     1       5.558  36.010   1.752  1.00  0.00    -0.000 C 
BRANCH  15  16
ATOM     16  C   UNL     1       6.745  36.935   1.437  1.00  0.00    -0.000 C 
BRANCH  16  17
ATOM     17  C   UNL     1       6.305  38.266   0.804  1.00  0.00    -0.000 C 
BRANCH  17  18
ATOM     18  C   UNL     1       6.910  38.482  -0.592  1.00  0.00    -0.003 C 
ATOM     19  C   UNL     1       5.858  38.809  -1.650  1.00  0.00     0.004 C 
ENDBRANCH  17  18
ENDBRANCH  16  17
ENDBRANCH  15  16
ENDBRANCH  14  15
ENDBRANCH  13  14
ENDBRANCH  12  13
ENDBRANCH   1  12
TORSDOF 14
ENDMDL
MODEL 4
REMARK VINA RESULT:    -4.120      2.580      5.006
REMARK INTER + INTRA:          -9.857
REMARK INTER:                  -7.818
REMARK INTRA:                  -2.039
REMARK UNBOUND:                -2.366
REMARK SMILES CCCCCCCCCCCCCC[C@@H](C)C(=O)[O-]
REMARK SMILES IDX 9 1 10 2 11 3 12 4 13 5 14 6 15 7 16 8 17 9 18 10 19 11 8 12
REMARK SMILES IDX 7 13 6 14 5 15 4 16 3 17 2 18 1 19
REMARK H PARENT
REMARK Flexibility Score: inf
ROOT
ATOM      1  C   UNL     1       4.990  37.248  -2.605  1.00  0.00     0.000 C 
ENDROOT
BRANCH   1   2
ATOM      2  C   UNL     1       4.133  36.317  -1.734  1.00  0.00     0.000 C 
BRANCH   2   3
ATOM      3  C   UNL     1       4.497  34.845  -1.984  1.00  0.00     0.000 C 
BRANCH   3   4
ATOM      4  C   UNL     1       5.950  34.668  -2.465  1.00  0.00     0.000 C 
BRANCH   4   5
ATOM      5  C   UNL     1       6.899  34.124  -1.378  1.00  0.00     0.001 C 
BRANCH   5   6
ATOM      6  C   UNL     1       8.202  33.519  -1.953  1.00  0.00     0.009 C 
BRANCH   6   7
ATOM      7  C   UNL     1       9.335  33.397  -0.910  1.00  0.00     0.032 C 
ATOM      8  C   UNL     1       8.882  33.810   0.497  1.00  0.00     0.014 C 
BRANCH   7   9
ATOM      9  C   UNL     1       9.861  31.987  -0.882  1.00  0.00     0.044 C 
ATOM     10  O   UNL     1      10.435  31.497  -1.892  1.00  0.00    -0.550 OA
ATOM     11  O   UNL     1       9.712  31.214   0.263  1.00  0.00    -0.550 OA
ENDBRANCH   7   9
ENDBRANCH   6   7
ENDBRANCH   5   6
ENDBRANCH   4   5
ENDBRANCH   3   4
ENDBRANCH   2   3
ENDBRANCH   1   2
BRANCH   1  12
ATOM     12  C   UNL     1       5.793  38.264  -1.779  1.00  0.00     0.000 C 
BRANCH  12  13
ATOM     13  C   UNL     1       6.122  37.752  -0.368  1.00  0.00    -0.000 C 
BRANCH  13  14
ATOM     14  C   UNL     1       7.585  38.036  -0.008  1.00  0.00    -0.000 C 
BRANCH  14  15
ATOM     15  C   UNL     1       8.539  37.297  -0.959  1.00  0.00    -0.000 C 
BRANCH  15  16
ATOM     16  C   UNL     1      10.005  37.362  -0.501  1.00  0.00    -0.000 C 
BRANCH  16  17
ATOM     17  C   UNL     1      10.155  37.224   1.024  1.00  0.00    -0.000 C 
BRANCH  17  18
ATOM     18  C   UNL     1      11.010  38.344   1.635  1.00  0.00    -0.003 C 
ATOM     19  C   UNL     1      10.170  39.478   2.223  1.00  0.00     0.004 C 
ENDBRANCH  17  18
ENDBRANCH  16  17
ENDBRANCH  15  16
ENDBRANCH  14  15
ENDBRANCH  13  14
ENDBRANCH  12  13
ENDBRANCH   1  12
TORSDOF 14
ENDMDL
MODEL 5
REMARK VINA RESULT:    -4.055      1.677      2.462
REMARK INTER + INTRA:          -9.739
REMARK INTER:                  -8.042
REMARK INTRA:                  -1.696
REMARK UNBOUND:                -2.366
REMARK SMILES CCCCCCCCCCCCCC[C@@H](C)C(=O)[O-]
REMARK SMILES IDX 9 1 10 2 11 3 12 4 13 5 14 6 15 7 16 8 17 9 18 10 19 11 8 12
REMARK SMILES IDX 7 13 6 14 5 15 4 16 3 17 2 18 1 19
REMARK H PARENT
REMARK Flexibility Score: inf
ROOT
ATOM      1  C   UNL     1       6.609  33.432  -2.862  1.00  0.00     0.000 C 
ENDROOT
BRANCH   1   2
ATOM      2  C   UNL     1       7.880  33.388  -1.998  1.00  0.00     0.000 C 
BRANCH   2   3
ATOM      3  C   UNL     1       7.864  34.506  -0.945  1.00  0.00     0.000 C 
BRANCH   3   4
ATOM      4  C   UNL     1       8.552  35.794  -1.438  1.00  0.00     0.000 C 
BRANCH   4   5
ATOM      5  C   UNL     1       7.760  37.078  -1.120  1.00  0.00     0.001 C 
BRANCH   5   6
ATOM      6  C   UNL     1       8.636  38.201  -0.514  1.00  0.00     0.009 C 
BRANCH   6   7
ATOM      7  C   UNL     1      10.124  37.810  -0.372  1.00  0.00     0.032 C 
ATOM      8  C   UNL     1      11.066  38.893  -0.914  1.00  0.00     0.014 C 
BRANCH   7   9
ATOM      9  C   UNL     1      10.448  37.529   1.071  1.00  0.00     0.044 C 
ATOM     10  O   UNL     1      10.959  38.422   1.798  1.00  0.00    -0.550 OA
ATOM     11  O   UNL     1      10.184  36.275   1.609  1.00  0.00    -0.550 OA
ENDBRANCH   7   9
ENDBRANCH   6   7
ENDBRANCH   5   6
ENDBRANCH   4   5
ENDBRANCH   3   4
ENDBRANCH   2   3
ENDBRANCH   1   2
BRANCH   1  12
ATOM     12  C   UNL     1       5.427  34.103  -2.146  1.00  0.00     0.000 C 
BRANCH  12  13
ATOM     13  C   UNL     1       4.083  33.430  -2.464  1.00  0.00    -0.000 C 
BRANCH  13  14
ATOM     14  C   UNL     1       2.920  34.413  -2.281  1.00  0.00    -0.000 C 
BRANCH  14  15
ATOM     15  C   UNL     1       3.438  35.843  -2.062  1.00  0.00    -0.000 C 
BRANCH  15  16
ATOM     16  C   UNL     1       2.876  36.490  -0.785  1.00  0.00    -0.000 C 
BRANCH  16  17
ATOM     17  C   UNL     1       3.068  35.606   0.460  1.00  0.00    -0.000 C 
BRANCH  17  18
ATOM     18  C   UNL     1       4.449  35.793   1.107  1.00  0.00    -0.003 C 
ATOM     19  C   UNL     1       4.807  37.262   1.326  1.00  0.00     0.004 C 
ENDBRANCH  17  18
ENDBRANCH  16  17
ENDBRANCH  15  16
ENDBRANCH  14  15
ENDBRANCH  13  14
ENDBRANCH  12  13
ENDBRANCH   1  12
TORSDOF 14
ENDMDL
MODEL 6
REMARK VINA RESULT:    -4.051      0.867      3.673
REMARK INTER + INTRA:          -9.733
REMARK INTER:                  -7.686
REMARK INTRA:                  -2.046
REMARK UNBOUND:                -2.366
REMARK SMILES CCCCCCCCCCCCCC[C@@H](C)C(=O)[O-]
REMARK SMILES IDX 9 1 10 2 11 3 12 4 13 5 14 6 15 7 16 8 17 9 18 10 19 11 8 12
REMARK SMILES IDX 7 13 6 14 5 15 4 16 3 17 2 18 1 19
REMARK H PARENT
REMARK Flexibility Score: inf
ROOT
ATOM      1  C   UNL     1       3.875  37.177  -1.751  1.00  0.00     0.000 C 
ENDROOT
BRANCH   1   2
ATOM      2  C   UNL     1       5.007  37.976  -2.416  1.00  0.00     0.000 C 
BRANCH   2   3
ATOM      3  C   UNL     1       6.325  37.802  -1.648  1.00  0.00     0.000 C 
BRANCH   3   4
ATOM      4  C   UNL     1       6.104  37.446  -0.165  1.00  0.00     0.000 C 
BRANCH   4   5
ATOM      5  C   UNL     1       7.395  37.031   0.570  1.00  0.00     0.001 C 
BRANCH   5   6
ATOM      6  C   UNL     1       8.677  37.292  -0.256  1.00  0.00     0.009 C 
BRANCH   6   7
ATOM      7  C   UNL     1       9.908  37.636   0.612  1.00  0.00     0.032 C 
ATOM      8  C   UNL     1      10.302  36.488   1.551  1.00  0.00     0.014 C 
BRANCH   7   9
ATOM      9  C   UNL     1      11.074  37.997  -0.268  1.00  0.00     0.044 C 
ATOM     10  O   UNL     1      12.132  37.312  -0.243  1.00  0.00    -0.550 OA
ATOM     11  O   UNL     1      10.990  39.096  -1.115  1.00  0.00    -0.550 OA
ENDBRANCH   7   9
ENDBRANCH   6   7
ENDBRANCH   5   6
ENDBRANCH   4   5
ENDBRANCH   3   4
ENDBRANCH   2   3
ENDBRANCH   1   2
BRANCH   1  12
ATOM     12  C   UNL     1       3.564  35.863  -2.484  1.00  0.00     0.000 C 
BRANCH  12  13
ATOM     13  C   UNL     1       3.970  34.622  -1.674  1.00  0.00    -0.000 C 
BRANCH  13  14
ATOM     14  C   UNL     1       4.971  33.761  -2.454  1.00  0.00    -0.000 C 
BRANCH  14  15
ATOM     15  C   UNL     1       6.363  34.410  -2.467  1.00  0.00    -0.000 C 
BRANCH  15  16
ATOM     16  C   UNL     1       7.494  33.400  -2.216  1.00  0.00    -0.000 C 
BRANCH  16  17
ATOM     17  C   UNL     1       8.319  33.735  -0.961  1.00  0.00    -0.000 C 
BRANCH  17  18
ATOM     18  C   UNL     1       9.724  33.117  -0.999  1.00  0.00    -0.003 C 
ATOM     19  C   UNL     1      10.823  34.155  -1.228  1.00  0.00     0.004 C 
ENDBRANCH  17  18
ENDBRANCH  16  17
ENDBRANCH  15  16
ENDBRANCH  14  15
ENDBRANCH  13  14
ENDBRANCH  12  13
ENDBRANCH   1  12
TORSDOF 14
ENDMDL
MODEL 7
REMARK VINA RESULT:    -4.039      2.636      5.682
REMARK INTER + INTRA:          -9.711
REMARK INTER:                  -7.049
REMARK INTRA:                  -2.662
REMARK UNBOUND:                -2.366
REMARK SMILES CCCCCCCCCCCCCC[C@@H](C)C(=O)[O-]
REMARK SMILES IDX 9 1 10 2 11 3 12 4 13 5 14 6 15 7 16 8 17 9 18 10 19 11 8 12
REMARK SMILES IDX 7 13 6 14 5 15 4 16 3 17 2 18 1 19
REMARK H PARENT
REMARK Flexibility Score: inf
ROOT
ATOM      1  C   UNL     1       7.108  38.608   1.927  1.00  0.00     0.000 C 
ENDROOT
BRANCH   1   2
ATOM      2  C   UNL     1       6.804  37.137   1.605  1.00  0.00     0.000 C 
BRANCH   2   3
ATOM      3  C   UNL     1       6.277  36.989   0.170  1.00  0.00     0.000 C 
BRANCH   3   4
ATOM      4  C   UNL     1       7.265  37.528  -0.883  1.00  0.00     0.000 C 
BRANCH   4   5
ATOM      5  C   UNL     1       7.919  36.426  -1.740  1.00  0.00     0.001 C 
BRANCH   5   6
ATOM      6  C   UNL     1       7.816  35.018  -1.104  1.00  0.00     0.009 C 
BRANCH   6   7
ATOM      7  C   UNL     1       9.132  34.542  -0.449  1.00  0.00     0.032 C 
ATOM      8  C   UNL     1       8.959  34.212   1.039  1.00  0.00     0.014 C 
BRANCH   7   9
ATOM      9  C   UNL     1       9.665  33.339  -1.179  1.00  0.00     0.044 C 
ATOM     10  O   UNL     1      10.831  32.917  -0.953  1.00  0.00    -0.550 OA
ATOM     11  O   UNL     1       8.870  32.686  -2.114  1.00  0.00    -0.550 OA
ENDBRANCH   7   9
ENDBRANCH   6   7
ENDBRANCH   5   6
ENDBRANCH   4   5
ENDBRANCH   3   4
ENDBRANCH   2   3
ENDBRANCH   1   2
BRANCH   1  12
ATOM     12  C   UNL     1       8.528  38.815   2.476  1.00  0.00     0.000 C 
BRANCH  12  13
ATOM     13  C   UNL     1       9.486  37.680   2.085  1.00  0.00    -0.000 C 
BRANCH  13  14
ATOM     14  C   UNL     1      10.783  38.237   1.485  1.00  0.00    -0.000 C 
BRANCH  14  15
ATOM     15  C   UNL     1      10.927  37.828   0.011  1.00  0.00    -0.000 C 
BRANCH  15  16
ATOM     16  C   UNL     1      11.005  39.036  -0.937  1.00  0.00    -0.000 C 
BRANCH  16  17
ATOM     17  C   UNL     1       9.955  40.112  -0.611  1.00  0.00    -0.000 C 
BRANCH  17  18
ATOM     18  C   UNL     1      10.588  41.477  -0.302  1.00  0.00    -0.003 C 
ATOM     19  C   UNL     1       9.961  42.161   0.913  1.00  0.00     0.004 C 
ENDBRANCH  17  18
ENDBRANCH  16  17
ENDBRANCH  15  16
ENDBRANCH  14  15
ENDBRANCH  13  14
ENDBRANCH  12  13
ENDBRANCH   1  12
TORSDOF 14
ENDMDL
MODEL 8
REMARK VINA RESULT:    -4.026      1.394      3.737
REMARK INTER + INTRA:          -9.686
REMARK INTER:                  -7.215
REMARK INTRA:                  -2.471
REMARK UNBOUND:                -2.366
REMARK SMILES CCCCCCCCCCCCCC[C@@H](C)C(=O)[O-]
REMARK SMILES IDX 9 1 10 2 11 3 12 4 13 5 14 6 15 7 16 8 17 9 18 10 19 11 8 12
REMARK SMILES IDX 7 13 6 14 5 15 4 16 3 17 2 18 1 19
REMARK H PARENT
REMARK Flexibility Score: inf
ROOT
ATOM      1  C   UNL     1       5.829  38.427  -1.768  1.00  0.00     0.000 C 
ENDROOT
BRANCH   1   2
ATOM      2  C   UNL     1       7.066  38.204  -0.884  1.00  0.00     0.000 C 
BRANCH   2   3
ATOM      3  C   UNL     1       6.730  38.439   0.596  1.00  0.00     0.000 C 
BRANCH   3   4
ATOM      4  C   UNL     1       7.220  37.294   1.504  1.00  0.00     0.000 C 
BRANCH   4   5
ATOM      5  C   UNL     1       8.385  36.483   0.902  1.00  0.00     0.001 C 
BRANCH   5   6
ATOM      6  C   UNL     1       9.741  36.760   1.593  1.00  0.00     0.009 C 
BRANCH   6   7
ATOM      7  C   UNL     1      10.685  37.655   0.759  1.00  0.00     0.032 C 
ATOM      8  C   UNL     1      10.568  37.384  -0.747  1.00  0.00     0.014 C 
BRANCH   7   9
ATOM      9  C   UNL     1      10.399  39.105   1.038  1.00  0.00     0.044 C 
ATOM     10  O   UNL     1      10.085  39.889   0.102  1.00  0.00    -0.550 OA
ATOM     11  O   UNL     1      10.483  39.591   2.338  1.00  0.00    -0.550 OA
ENDBRANCH   7   9
ENDBRANCH   6   7
ENDBRANCH   5   6
ENDBRANCH   4   5
ENDBRANCH   3   4
ENDBRANCH   2   3
ENDBRANCH   1   2
BRANCH   1  12
ATOM     12  C   UNL     1       5.354  37.140  -2.461  1.00  0.00     0.000 C 
BRANCH  12  13
ATOM     13  C   UNL     1       4.511  36.247  -1.539  1.00  0.00    -0.000 C 
BRANCH  13  14
ATOM     14  C   UNL     1       5.284  34.984  -1.140  1.00  0.00    -0.000 C 
BRANCH  14  15
ATOM     15  C   UNL     1       5.303  33.964  -2.289  1.00  0.00    -0.000 C 
BRANCH  15  16
ATOM     16  C   UNL     1       6.726  33.633  -2.768  1.00  0.00    -0.000 C 
BRANCH  16  17
ATOM     17  C   UNL     1       7.810  34.324  -1.923  1.00  0.00    -0.000 C 
BRANCH  17  18
ATOM     18  C   UNL     1       8.615  33.330  -1.072  1.00  0.00    -0.003 C 
ATOM     19  C   UNL     1      10.093  33.702  -0.963  1.00  0.00     0.004 C 
ENDBRANCH  17  18
ENDBRANCH  16  17
ENDBRANCH  15  16
ENDBRANCH  14  15
ENDBRANCH  13  14
ENDBRANCH  12  13
ENDBRANCH   1  12
TORSDOF 14
ENDMDL
MODEL 9
REMARK VINA RESULT:    -4.011      3.010      5.474
REMARK INTER + INTRA:          -9.660
REMARK INTER:                  -7.877
REMARK INTRA:                  -1.783
REMARK UNBOUND:                -2.366
REMARK SMILES CCCCCCCCCCCCCC[C@@H](C)C(=O)[O-]
REMARK SMILES IDX 9 1 10 2 11 3 12 4 13 5 14 6 15 7 16 8 17 9 18 10 19 11 8 12
REMARK SMILES IDX 7 13 6 14 5 15 4 16 3 17 2 18 1 19
REMARK H PARENT
REMARK Flexibility Score: inf
ROOT
ATOM      1  C   UNL     1      10.975  34.705  -1.375  1.00  0.00     0.000 C 
ENDROOT
BRANCH   1   2
ATOM      2  C   UNL     1      10.482  33.296  -1.012  1.00  0.00     0.000 C 
BRANCH   2   3
ATOM      3  C   UNL     1       8.951  33.268  -0.883  1.00  0.00     0.000 C 
BRANCH   3   4
ATOM      4  C   UNL     1       8.240  33.322  -2.249  1.00  0.00     0.000 C 
BRANCH   4   5
ATOM      5  C   UNL     1       6.764  33.757  -2.160  1.00  0.00     0.001 C 
BRANCH   5   6
ATOM      6  C   UNL     1       6.521  34.883  -1.126  1.00  0.00     0.009 C 
BRANCH   6   7
ATOM      7  C   UNL     1       5.036  35.290  -0.998  1.00  0.00     0.032 C 
ATOM      8  C   UNL     1       4.774  36.165   0.235  1.00  0.00     0.014 C 
BRANCH   7   9
ATOM      9  C   UNL     1       4.591  36.014  -2.240  1.00  0.00     0.044 C 
ATOM     10  O   UNL     1       5.294  36.939  -2.728  1.00  0.00    -0.550 OA
ATOM     11  O   UNL     1       3.395  35.665  -2.855  1.00  0.00    -0.550 OA
ENDBRANCH   7   9
ENDBRANCH   6   7
ENDBRANCH   5   6
ENDBRANCH   4   5
ENDBRANCH   3   4
ENDBRANCH   2   3
ENDBRANCH   1   2
BRANCH   1  12
ATOM     12  C   UNL     1      10.566  35.763  -0.339  1.00  0.00     0.000 C 
BRANCH  12  13
ATOM     13  C   UNL     1      10.141  37.091  -0.984  1.00  0.00    -0.000 C 
BRANCH  13  14
ATOM     14  C   UNL     1       8.891  37.658  -0.300  1.00  0.00    -0.000 C 
BRANCH  14  15
ATOM     15  C   UNL     1       8.653  36.982   1.059  1.00  0.00    -0.000 C 
BRANCH  15  16
ATOM     16  C   UNL     1       8.969  37.906   2.247  1.00  0.00    -0.000 C 
BRANCH  16  17
ATOM     17  C   UNL     1      10.239  38.746   2.021  1.00  0.00    -0.000 C 
BRANCH  17  18
ATOM     18  C   UNL     1      10.020  40.235   2.328  1.00  0.00    -0.003 C 
ATOM     19  C   UNL     1       9.922  41.093   1.066  1.00  0.00     0.004 C 
ENDBRANCH  17  18
ENDBRANCH  16  17
ENDBRANCH  15  16
ENDBRANCH  14  15
ENDBRANCH  13  14
ENDBRANCH  12  13
ENDBRANCH   1  12
TORSDOF 14
ENDMDL
