MODEL 1
REMARK VINA RESULT:    -4.575      0.000      0.000
REMARK INTER + INTRA:          -6.116
REMARK INTER:                  -5.912
REMARK INTRA:                  -0.204
REMARK UNBOUND:                -0.204
REMARK SMILES CCCCCCC(=O)[O-]
REMARK SMILES IDX 5 1 6 2 7 3 8 4 9 5 4 6 3 7 2 8 1 9
REMARK H PARENT
REMARK Flexibility Score: inf
ROOT
ATOM      1  C   UNL     1      88.088 325.139 193.400  1.00  0.00     0.006 C 
ENDROOT
BRANCH   1   2
ATOM      2  C   UNL     1      87.972 326.536 194.014  1.00  0.00     0.053 C 
BRANCH   2   3
ATOM      3  C   UNL     1      87.911 326.450 195.506  1.00  0.00     0.041 C 
ATOM      4  O   UNL     1      88.968 326.501 196.187  1.00  0.00    -0.550 OA
ATOM      5  O   UNL     1      86.682 326.363 196.148  1.00  0.00    -0.550 OA
ENDBRANCH   2   3
ENDBRANCH   1   2
BRANCH   1   6
ATOM      6  C   UNL     1      86.707 324.584 193.031  1.00  0.00     0.000 C 
BRANCH   6   7
ATOM      7  C   UNL     1      86.776 323.739 191.753  1.00  0.00    -0.000 C 
BRANCH   7   8
ATOM      8  C   UNL     1      88.130 323.910 191.053  1.00  0.00    -0.003 C 
ATOM      9  C   UNL     1      88.154 323.180 189.713  1.00  0.00     0.004 C 
ENDBRANCH   7   8
ENDBRANCH   6   7
ENDBRANCH   1   6
TORSDOF 5
ENDMDL
MODEL 2
REMARK VINA RESULT:    -4.570      1.366      1.818
REMARK INTER + INTRA:          -6.110
REMARK INTER:                  -5.830
REMARK INTRA:                  -0.280
REMARK UNBOUND:                -0.204
REMARK SMILES CCCCCCC(=O)[O-]
REMARK SMILES IDX 5 1 6 2 7 3 8 4 9 5 4 6 3 7 2 8 1 9
REMARK H PARENT
REMARK Flexibility Score: inf
ROOT
ATOM      1  C   UNL     1      86.917 326.419 194.437  1.00  0.00     0.006 C 
ENDROOT
BRANCH   1   2
ATOM      2  C   UNL     1      86.747 326.492 195.957  1.00  0.00     0.053 C 
BRANCH   2   3
ATOM      3  C   UNL     1      87.978 325.996 196.647  1.00  0.00     0.041 C 
ATOM      4  O   UNL     1      88.336 326.500 197.742  1.00  0.00    -0.550 OA
ATOM      5  O   UNL     1      88.702 324.942 196.104  1.00  0.00    -0.550 OA
ENDBRANCH   2   3
ENDBRANCH   1   2
BRANCH   1   6
ATOM      6  C   UNL     1      85.876 325.483 193.812  1.00  0.00     0.000 C 
BRANCH   6   7
ATOM      7  C   UNL     1      86.550 324.289 193.125  1.00  0.00    -0.000 C 
BRANCH   7   8
ATOM      8  C   UNL     1      87.896 324.695 192.512  1.00  0.00    -0.003 C 
ATOM      9  C   UNL     1      88.111 324.023 191.159  1.00  0.00     0.004 C 
ENDBRANCH   7   8
ENDBRANCH   6   7
ENDBRANCH   1   6
TORSDOF 5
ENDMDL
MODEL 3
REMARK VINA RESULT:    -4.535      3.157      5.108
REMARK INTER + INTRA:          -6.065
REMARK INTER:                  -5.916
REMARK INTRA:                  -0.149
REMARK UNBOUND:                -0.204
REMARK SMILES CCCCCCC(=O)[O-]
REMARK SMILES IDX 5 1 6 2 7 3 8 4 9 5 4 6 3 7 2 8 1 9
REMARK H PARENT
REMARK Flexibility Score: inf
ROOT
ATOM      1  C   UNL     1      87.400 324.715 193.223  1.00  0.00     0.006 C 
ENDROOT
BRANCH   1   2
ATOM      2  C   UNL     1      88.026 324.460 191.849  1.00  0.00     0.053 C 
BRANCH   2   3
ATOM      3  C   UNL     1      87.184 323.510 191.057  1.00  0.00     0.041 C 
ATOM      4  O   UNL     1      87.644 322.974 190.016  1.00  0.00    -0.550 OA
ATOM      5  O   UNL     1      85.909 323.179 191.497  1.00  0.00    -0.550 OA
ENDBRANCH   2   3
ENDBRANCH   1   2
BRANCH   1   6
ATOM      6  C   UNL     1      88.006 325.960 193.881  1.00  0.00     0.000 C 
BRANCH   6   7
ATOM      7  C   UNL     1      86.911 326.876 194.439  1.00  0.00    -0.000 C 
BRANCH   7   8
ATOM      8  C   UNL     1      86.580 326.518 195.893  1.00  0.00    -0.003 C 
ATOM      9  C   UNL     1      87.842 326.168 196.676  1.00  0.00     0.004 C 
ENDBRANCH   7   8
ENDBRANCH   6   7
ENDBRANCH   1   6
TORSDOF 5
ENDMDL
MODEL 4
REMARK VINA RESULT:    -4.530     20.481     21.579
REMARK INTER + INTRA:          -6.058
REMARK INTER:                  -5.836
REMARK INTRA:                  -0.222
REMARK UNBOUND:                -0.204
REMARK SMILES CCCCCCC(=O)[O-]
REMARK SMILES IDX 5 1 6 2 7 3 8 4 9 5 4 6 3 7 2 8 1 9
REMARK H PARENT
REMARK Flexibility Score: inf
ROOT
ATOM      1  C   UNL     1     105.563 312.783 192.617  1.00  0.00     0.006 C 
ENDROOT
BRANCH   1   2
ATOM      2  C   UNL     1     104.255 313.246 191.970  1.00  0.00     0.053 C 
BRANCH   2   3
ATOM      3  C   UNL     1     104.533 314.000 190.708  1.00  0.00     0.041 C 
ATOM      4  O   UNL     1     105.671 314.495 190.504  1.00  0.00    -0.550 OA
ATOM      5  O   UNL     1     103.548 314.112 189.735  1.00  0.00    -0.550 OA
ENDBRANCH   2   3
ENDBRANCH   1   2
BRANCH   1   6
ATOM      6  C   UNL     1     105.376 311.442 193.338  1.00  0.00     0.000 C 
BRANCH   6   7
ATOM      7  C   UNL     1     105.982 311.484 194.746  1.00  0.00    -0.000 C 
BRANCH   7   8
ATOM      8  C   UNL     1     104.948 311.954 195.776  1.00  0.00    -0.003 C 
ATOM      9  C   UNL     1     103.534 311.562 195.358  1.00  0.00     0.004 C 
ENDBRANCH   7   8
ENDBRANCH   6   7
ENDBRANCH   1   6
TORSDOF 5
ENDMDL
MODEL 5
REMARK VINA RESULT:    -4.496     19.642     20.690
REMARK INTER + INTRA:          -6.014
REMARK INTER:                  -5.892
REMARK INTRA:                  -0.122
REMARK UNBOUND:                -0.204
REMARK SMILES CCCCCCC(=O)[O-]
REMARK SMILES IDX 5 1 6 2 7 3 8 4 9 5 4 6 3 7 2 8 1 9
REMARK H PARENT
REMARK Flexibility Score: inf
ROOT
ATOM      1  C   UNL     1     104.265 313.316 192.495  1.00  0.00     0.006 C 
ENDROOT
BRANCH   1   2
ATOM      2  C   UNL     1     104.243 311.846 192.925  1.00  0.00     0.053 C 
BRANCH   2   3
ATOM      3  C   UNL     1     104.412 311.730 194.406  1.00  0.00     0.041 C 
ATOM      4  O   UNL     1     103.425 311.451 195.136  1.00  0.00    -0.550 OA
ATOM      5  O   UNL     1     105.669 311.880 194.977  1.00  0.00    -0.550 OA
ENDBRANCH   2   3
ENDBRANCH   1   2
BRANCH   1   6
ATOM      6  C   UNL     1     103.938 313.458 191.004  1.00  0.00     0.000 C 
BRANCH   6   7
ATOM      7  C   UNL     1     104.851 314.493 190.336  1.00  0.00    -0.000 C 
BRANCH   7   8
ATOM      8  C   UNL     1     104.120 315.223 189.203  1.00  0.00    -0.003 C 
ATOM      9  C   UNL     1     102.942 314.401 188.687  1.00  0.00     0.004 C 
ENDBRANCH   7   8
ENDBRANCH   6   7
ENDBRANCH   1   6
TORSDOF 5
ENDMDL
MODEL 6
REMARK VINA RESULT:    -4.476      2.256      3.128
REMARK INTER + INTRA:          -5.989
REMARK INTER:                  -5.648
REMARK INTRA:                  -0.342
REMARK UNBOUND:                -0.204
REMARK SMILES CCCCCCC(=O)[O-]
REMARK SMILES IDX 5 1 6 2 7 3 8 4 9 5 4 6 3 7 2 8 1 9
REMARK H PARENT
REMARK Flexibility Score: inf
ROOT
ATOM      1  C   UNL     1      86.946 326.387 196.190  1.00  0.00     0.006 C 
ENDROOT
BRANCH   1   2
ATOM      2  C   UNL     1      88.426 326.375 196.583  1.00  0.00     0.053 C 
BRANCH   2   3
ATOM      3  C   UNL     1      88.666 325.398 197.690  1.00  0.00     0.041 C 
ATOM      4  O   UNL     1      88.509 324.165 197.491  1.00  0.00    -0.550 OA
ATOM      5  O   UNL     1      89.113 325.844 198.927  1.00  0.00    -0.550 OA
ENDBRANCH   2   3
ENDBRANCH   1   2
BRANCH   1   6
ATOM      6  C   UNL     1      86.777 326.664 194.692  1.00  0.00     0.000 C 
BRANCH   6   7
ATOM      7  C   UNL     1      88.066 326.348 193.925  1.00  0.00    -0.000 C 
BRANCH   7   8
ATOM      8  C   UNL     1      87.898 325.095 193.058  1.00  0.00    -0.003 C 
ATOM      9  C   UNL     1      88.395 323.849 193.785  1.00  0.00     0.004 C 
ENDBRANCH   7   8
ENDBRANCH   6   7
ENDBRANCH   1   6
TORSDOF 5
ENDMDL
MODEL 7
REMARK VINA RESULT:    -4.446     20.245     21.132
REMARK INTER + INTRA:          -5.950
REMARK INTER:                  -5.587
REMARK INTRA:                  -0.363
REMARK UNBOUND:                -0.204
REMARK SMILES CCCCCCC(=O)[O-]
REMARK SMILES IDX 5 1 6 2 7 3 8 4 9 5 4 6 3 7 2 8 1 9
REMARK H PARENT
REMARK Flexibility Score: inf
ROOT
ATOM      1  C   UNL     1     105.608 311.542 195.146  1.00  0.00     0.006 C 
ENDROOT
BRANCH   1   2
ATOM      2  C   UNL     1     104.171 311.637 195.667  1.00  0.00     0.053 C 
BRANCH   2   3
ATOM      3  C   UNL     1     104.072 312.667 196.747  1.00  0.00     0.041 C 
ATOM      4  O   UNL     1     104.148 313.891 196.465  1.00  0.00    -0.550 OA
ATOM      5  O   UNL     1     103.845 312.276 198.061  1.00  0.00    -0.550 OA
ENDBRANCH   2   3
ENDBRANCH   1   2
BRANCH   1   6
ATOM      6  C   UNL     1     105.635 311.478 193.614  1.00  0.00     0.000 C 
BRANCH   6   7
ATOM      7  C   UNL     1     104.245 311.752 193.027  1.00  0.00    -0.000 C 
BRANCH   7   8
ATOM      8  C   UNL     1     104.261 312.997 192.132  1.00  0.00    -0.003 C 
ATOM      9  C   UNL     1     103.864 314.245 192.916  1.00  0.00     0.004 C 
ENDBRANCH   7   8
ENDBRANCH   6   7
ENDBRANCH   1   6
TORSDOF 5
ENDMDL
MODEL 8
REMARK VINA RESULT:    -4.409     20.284     21.354
REMARK INTER + INTRA:          -5.902
REMARK INTER:                  -5.582
REMARK INTRA:                  -0.321
REMARK UNBOUND:                -0.204
REMARK SMILES CCCCCCC(=O)[O-]
REMARK SMILES IDX 5 1 6 2 7 3 8 4 9 5 4 6 3 7 2 8 1 9
REMARK H PARENT
REMARK Flexibility Score: inf
ROOT
ATOM      1  C   UNL     1     104.151 311.858 193.018  1.00  0.00     0.006 C 
ENDROOT
BRANCH   1   2
ATOM      2  C   UNL     1     104.368 312.994 192.014  1.00  0.00     0.053 C 
BRANCH   2   3
ATOM      3  C   UNL     1     104.552 314.296 192.726  1.00  0.00     0.041 C 
ATOM      4  O   UNL     1     103.554 314.923 193.166  1.00  0.00    -0.550 OA
ATOM      5  O   UNL     1     105.830 314.793 192.947  1.00  0.00    -0.550 OA
ENDBRANCH   2   3
ENDBRANCH   1   2
BRANCH   1   6
ATOM      6  C   UNL     1     105.490 311.297 193.511  1.00  0.00     0.000 C 
BRANCH   6   7
ATOM      7  C   UNL     1     105.675 311.552 195.012  1.00  0.00    -0.000 C 
BRANCH   7   8
ATOM      8  C   UNL     1     104.395 312.121 195.636  1.00  0.00    -0.003 C 
ATOM      9  C   UNL     1     104.061 311.418 196.948  1.00  0.00     0.004 C 
ENDBRANCH   7   8
ENDBRANCH   6   7
ENDBRANCH   1   6
TORSDOF 5
ENDMDL
MODEL 9
REMARK VINA RESULT:    -4.377      2.530      4.663
REMARK INTER + INTRA:          -5.861
REMARK INTER:                  -5.563
REMARK INTRA:                  -0.298
REMARK UNBOUND:                -0.204
REMARK SMILES CCCCCCC(=O)[O-]
REMARK SMILES IDX 5 1 6 2 7 3 8 4 9 5 4 6 3 7 2 8 1 9
REMARK H PARENT
REMARK Flexibility Score: inf
ROOT
ATOM      1  C   UNL     1      88.164 325.983 193.962  1.00  0.00     0.006 C 
ENDROOT
BRANCH   1   2
ATOM      2  C   UNL     1      87.765 324.999 192.859  1.00  0.00     0.053 C 
BRANCH   2   3
ATOM      3  C   UNL     1      87.827 323.592 193.364  1.00  0.00     0.041 C 
ATOM      4  O   UNL     1      88.710 323.256 194.195  1.00  0.00    -0.550 OA
ATOM      5  O   UNL     1      86.878 322.664 192.955  1.00  0.00    -0.550 OA
ENDBRANCH   2   3
ENDBRANCH   1   2
BRANCH   1   6
ATOM      6  C   UNL     1      86.943 326.749 194.484  1.00  0.00     0.000 C 
BRANCH   6   7
ATOM      7  C   UNL     1      86.676 326.421 195.958  1.00  0.00    -0.000 C 
BRANCH   7   8
ATOM      8  C   UNL     1      87.871 325.694 196.586  1.00  0.00    -0.003 C 
ATOM      9  C   UNL     1      88.575 326.574 197.614  1.00  0.00     0.004 C 
ENDBRANCH   7   8
ENDBRANCH   6   7
ENDBRANCH   1   6
TORSDOF 5
ENDMDL
