MODEL 1
REMARK VINA RESULT:    -4.654      0.000      0.000
REMARK INTER + INTRA:          -4.790
REMARK INTER:                  -4.790
REMARK INTRA:                   0.000
REMARK UNBOUND:                 0.000
REMARK SMILES Nc1ncnc2nc[nH]c12
REMARK SMILES IDX 8 1 7 2 6 3 5 4 4 5 3 6 2 7 10 8 9 9 1 11
REMARK H PARENT 9 10 1 12 1 13
REMARK Flexibility Score: inf
ROOT
ATOM      1  C   UNL     1      26.737   5.933  19.947  1.00  0.00     0.199 A 
ATOM      2  N   UNL     1      27.580   6.472  19.023  1.00  0.00    -0.217 NA
ATOM      3  C   UNL     1      27.930   7.634  19.599  1.00  0.00     0.182 A 
ATOM      4  N   UNL     1      28.768   8.568  19.088  1.00  0.00    -0.215 NA
ATOM      5  C   UNL     1      29.003   9.695  19.826  1.00  0.00     0.226 A 
ATOM      6  N   UNL     1      28.403   9.866  21.048  1.00  0.00    -0.217 NA
ATOM      7  C   UNL     1      27.558   8.925  21.564  1.00  0.00     0.152 A 
ATOM      8  C   UNL     1      27.328   7.783  20.800  1.00  0.00     0.127 A 
ATOM      9  N   UNL     1      26.564   6.712  21.045  1.00  0.00    -0.340 N 
ATOM     10  H   UNL     1      25.968   6.511  21.879  1.00  0.00     0.168 HD
ENDROOT
BRANCH   7  11
ATOM     11  N   UNL     1      26.944   9.124  22.838  1.00  0.00    -0.382 N 
ATOM     12  H   UNL     1      26.079   8.608  23.112  1.00  0.00     0.158 HD
ATOM     13  H   UNL     1      27.361   9.796  23.519  1.00  0.00     0.158 HD
ENDBRANCH   7  11
TORSDOF 1
ENDMDL
MODEL 2
REMARK VINA RESULT:    -4.638      0.897      2.420
REMARK INTER + INTRA:          -4.774
REMARK INTER:                  -4.774
REMARK INTRA:                   0.000
REMARK UNBOUND:                 0.000
REMARK SMILES Nc1ncnc2nc[nH]c12
REMARK SMILES IDX 8 1 7 2 6 3 5 4 4 5 3 6 2 7 10 8 9 9 1 11
REMARK H PARENT 9 10 1 12 1 13
REMARK Flexibility Score: inf
ROOT
ATOM      1  C   UNL     1      27.030   6.118  19.250  1.00  0.00     0.199 A 
ATOM      2  N   UNL     1      26.554   6.212  20.522  1.00  0.00    -0.217 NA
ATOM      3  C   UNL     1      26.970   7.433  20.894  1.00  0.00     0.182 A 
ATOM      4  N   UNL     1      26.758   8.029  22.092  1.00  0.00    -0.215 NA
ATOM      5  C   UNL     1      27.264   9.284  22.287  1.00  0.00     0.226 A 
ATOM      6  N   UNL     1      27.966   9.914  21.291  1.00  0.00    -0.217 NA
ATOM      7  C   UNL     1      28.181   9.316  20.082  1.00  0.00     0.152 A 
ATOM      8  C   UNL     1      27.659   8.037  19.900  1.00  0.00     0.127 A 
ATOM      9  N   UNL     1      27.711   7.220  18.841  1.00  0.00    -0.340 N 
ATOM     10  H   UNL     1      28.165   7.378  17.914  1.00  0.00     0.168 HD
ENDROOT
BRANCH   7  11
ATOM     11  N   UNL     1      28.915   9.991  19.059  1.00  0.00    -0.382 N 
ATOM     12  H   UNL     1      29.947   9.871  18.961  1.00  0.00     0.158 HD
ATOM     13  H   UNL     1      28.419  10.618  18.389  1.00  0.00     0.158 HD
ENDBRANCH   7  11
TORSDOF 1
ENDMDL
MODEL 3
REMARK VINA RESULT:    -4.202      1.483      3.333
REMARK INTER + INTRA:          -4.325
REMARK INTER:                  -4.325
REMARK INTRA:                   0.000
REMARK UNBOUND:                 0.000
REMARK SMILES Nc1ncnc2nc[nH]c12
REMARK SMILES IDX 8 1 7 2 6 3 5 4 4 5 3 6 2 7 10 8 9 9 1 11
REMARK H PARENT 9 10 1 12 1 13
REMARK Flexibility Score: inf
ROOT
ATOM      1  C   UNL     1      27.812   9.167  20.905  1.00  0.00     0.199 A 
ATOM      2  N   UNL     1      28.694   8.407  20.200  1.00  0.00    -0.217 NA
ATOM      3  C   UNL     1      27.898   7.460  19.675  1.00  0.00     0.182 A 
ATOM      4  N   UNL     1      28.281   6.436  18.876  1.00  0.00    -0.215 NA
ATOM      5  C   UNL     1      27.320   5.566  18.438  1.00  0.00     0.226 A 
ATOM      6  N   UNL     1      26.009   5.736  18.803  1.00  0.00    -0.217 NA
ATOM      7  C   UNL     1      25.621   6.768  19.609  1.00  0.00     0.152 A 
ATOM      8  C   UNL     1      26.611   7.644  20.047  1.00  0.00     0.127 A 
ATOM      9  N   UNL     1      26.530   8.727  20.831  1.00  0.00    -0.340 N 
ATOM     10  H   UNL     1      25.688   9.143  21.286  1.00  0.00     0.168 HD
ENDROOT
BRANCH   7  11
ATOM     11  N   UNL     1      24.250   6.924  19.978  1.00  0.00    -0.382 N 
ATOM     12  H   UNL     1      23.512   6.286  19.610  1.00  0.00     0.158 HD
ATOM     13  H   UNL     1      23.969   7.689  20.629  1.00  0.00     0.158 HD
ENDBRANCH   7  11
TORSDOF 1
ENDMDL
MODEL 4
REMARK VINA RESULT:    -4.174      1.875      2.726
REMARK INTER + INTRA:          -4.296
REMARK INTER:                  -4.296
REMARK INTRA:                   0.000
REMARK UNBOUND:                 0.000
REMARK SMILES Nc1ncnc2nc[nH]c12
REMARK SMILES IDX 8 1 7 2 6 3 5 4 4 5 3 6 2 7 10 8 9 9 1 11
REMARK H PARENT 9 10 1 12 1 13
REMARK Flexibility Score: inf
ROOT
ATOM      1  C   UNL     1      24.778   6.560  19.384  1.00  0.00     0.199 A 
ATOM      2  N   UNL     1      25.547   5.438  19.408  1.00  0.00    -0.217 NA
ATOM      3  C   UNL     1      26.790   5.944  19.453  1.00  0.00     0.182 A 
ATOM      4  N   UNL     1      27.948   5.241  19.491  1.00  0.00    -0.215 NA
ATOM      5  C   UNL     1      29.124   5.938  19.532  1.00  0.00     0.226 A 
ATOM      6  N   UNL     1      29.121   7.310  19.535  1.00  0.00    -0.217 NA
ATOM      7  C   UNL     1      27.955   8.020  19.497  1.00  0.00     0.152 A 
ATOM      8  C   UNL     1      26.766   7.296  19.454  1.00  0.00     0.127 A 
ATOM      9  N   UNL     1      25.495   7.713  19.412  1.00  0.00    -0.340 N 
ATOM     10  H   UNL     1      25.127   8.690  19.400  1.00  0.00     0.168 HD
ENDROOT
BRANCH   7  11
ATOM     11  N   UNL     1      27.976   9.448  19.499  1.00  0.00    -0.382 N 
ATOM     12  H   UNL     1      27.948   9.991  20.390  1.00  0.00     0.158 HD
ATOM     13  H   UNL     1      28.022   9.971  18.597  1.00  0.00     0.158 HD
ENDBRANCH   7  11
TORSDOF 1
ENDMDL
MODEL 5
REMARK VINA RESULT:    -3.982     11.856     13.675
REMARK INTER + INTRA:          -4.098
REMARK INTER:                  -4.098
REMARK INTRA:                   0.000
REMARK UNBOUND:                 0.000
REMARK SMILES Nc1ncnc2nc[nH]c12
REMARK SMILES IDX 8 1 7 2 6 3 5 4 4 5 3 6 2 7 10 8 9 9 1 11
REMARK H PARENT 9 10 1 12 1 13
REMARK Flexibility Score: inf
ROOT
ATOM      1  C   UNL     1      15.638  -1.041  21.965  1.00  0.00     0.199 A 
ATOM      2  N   UNL     1      15.255  -1.344  20.695  1.00  0.00    -0.217 NA
ATOM      3  C   UNL     1      16.020  -0.520  19.960  1.00  0.00     0.182 A 
ATOM      4  N   UNL     1      16.032  -0.418  18.610  1.00  0.00    -0.215 NA
ATOM      5  C   UNL     1      16.885   0.485  18.039  1.00  0.00     0.226 A 
ATOM      6  N   UNL     1      17.703   1.261  18.820  1.00  0.00    -0.217 NA
ATOM      7  C   UNL     1      17.693   1.159  20.182  1.00  0.00     0.152 A 
ATOM      8  C   UNL     1      16.818   0.235  20.749  1.00  0.00     0.127 A 
ATOM      9  N   UNL     1      16.594  -0.078  22.031  1.00  0.00    -0.340 N 
ATOM     10  H   UNL     1      17.040   0.317  22.888  1.00  0.00     0.168 HD
ENDROOT
BRANCH   7  11
ATOM     11  N   UNL     1      18.553   1.978  20.977  1.00  0.00    -0.382 N 
ATOM     12  H   UNL     1      19.345   2.507  20.552  1.00  0.00     0.158 HD
ATOM     13  H   UNL     1      18.395   2.057  22.005  1.00  0.00     0.158 HD
ENDBRANCH   7  11
TORSDOF 1
ENDMDL
MODEL 6
REMARK VINA RESULT:    -3.964     12.570     13.707
REMARK INTER + INTRA:          -4.080
REMARK INTER:                  -4.080
REMARK INTRA:                   0.000
REMARK UNBOUND:                 0.000
REMARK SMILES Nc1ncnc2nc[nH]c12
REMARK SMILES IDX 8 1 7 2 6 3 5 4 4 5 3 6 2 7 10 8 9 9 1 11
REMARK H PARENT 9 10 1 12 1 13
REMARK Flexibility Score: inf
ROOT
ATOM      1  C   UNL     1      13.502  10.185  26.088  1.00  0.00     0.199 A 
ATOM      2  N   UNL     1      14.671  10.760  25.693  1.00  0.00    -0.217 NA
ATOM      3  C   UNL     1      15.513   9.714  25.674  1.00  0.00     0.182 A 
ATOM      4  N   UNL     1      16.826   9.740  25.343  1.00  0.00    -0.215 NA
ATOM      5  C   UNL     1      17.525   8.565  25.385  1.00  0.00     0.226 A 
ATOM      6  N   UNL     1      16.904   7.398  25.752  1.00  0.00    -0.217 NA
ATOM      7  C   UNL     1      15.580   7.370  26.086  1.00  0.00     0.152 A 
ATOM      8  C   UNL     1      14.883   8.574  26.039  1.00  0.00     0.127 A 
ATOM      9  N   UNL     1      13.600   8.848  26.307  1.00  0.00    -0.340 N 
ATOM     10  H   UNL     1      12.843   8.198  26.615  1.00  0.00     0.168 HD
ENDROOT
BRANCH   7  11
ATOM     11  N   UNL     1      14.954   6.143  26.466  1.00  0.00    -0.382 N 
ATOM     12  H   UNL     1      15.260   5.617  27.314  1.00  0.00     0.158 HD
ATOM     13  H   UNL     1      14.173   5.756  25.893  1.00  0.00     0.158 HD
ENDBRANCH   7  11
TORSDOF 1
ENDMDL
MODEL 7
REMARK VINA RESULT:    -3.896     12.582     13.571
REMARK INTER + INTRA:          -4.010
REMARK INTER:                  -4.010
REMARK INTRA:                   0.000
REMARK UNBOUND:                 0.000
REMARK SMILES Nc1ncnc2nc[nH]c12
REMARK SMILES IDX 8 1 7 2 6 3 5 4 4 5 3 6 2 7 10 8 9 9 1 11
REMARK H PARENT 9 10 1 12 1 13
REMARK Flexibility Score: inf
ROOT
ATOM      1  C   UNL     1      16.401   6.133  26.231  1.00  0.00     0.199 A 
ATOM      2  N   UNL     1      17.241   7.193  26.079  1.00  0.00    -0.217 NA
ATOM      3  C   UNL     1      16.385   8.213  25.905  1.00  0.00     0.182 A 
ATOM      4  N   UNL     1      16.708   9.513  25.706  1.00  0.00    -0.215 NA
ATOM      5  C   UNL     1      15.690  10.413  25.546  1.00  0.00     0.226 A 
ATOM      6  N   UNL     1      14.382  10.000  25.588  1.00  0.00    -0.217 NA
ATOM      7  C   UNL     1      14.055   8.690  25.789  1.00  0.00     0.152 A 
ATOM      8  C   UNL     1      15.102   7.786  25.949  1.00  0.00     0.127 A 
ATOM      9  N   UNL     1      15.086   6.463  26.157  1.00  0.00    -0.340 N 
ATOM     10  H   UNL     1      14.265   5.825  26.242  1.00  0.00     0.168 HD
ENDROOT
BRANCH   7  11
ATOM     11  N   UNL     1      12.686   8.282  25.828  1.00  0.00    -0.382 N 
ATOM     12  H   UNL     1      12.299   7.607  25.133  1.00  0.00     0.158 HD
ATOM     13  H   UNL     1      12.050   8.661  26.564  1.00  0.00     0.158 HD
ENDBRANCH   7  11
TORSDOF 1
ENDMDL
MODEL 8
REMARK VINA RESULT:    -3.887     13.877     15.242
REMARK INTER + INTRA:          -4.000
REMARK INTER:                  -4.000
REMARK INTRA:                   0.000
REMARK UNBOUND:                 0.000
REMARK SMILES Nc1ncnc2nc[nH]c12
REMARK SMILES IDX 8 1 7 2 6 3 5 4 4 5 3 6 2 7 10 8 9 9 1 11
REMARK H PARENT 9 10 1 12 1 13
REMARK Flexibility Score: inf
ROOT
ATOM      1  C   UNL     1      13.579  16.228  24.135  1.00  0.00     0.199 A 
ATOM      2  N   UNL     1      13.018  14.990  24.200  1.00  0.00    -0.217 NA
ATOM      3  C   UNL     1      14.017  14.249  24.707  1.00  0.00     0.182 A 
ATOM      4  N   UNL     1      13.983  12.922  24.975  1.00  0.00    -0.215 NA
ATOM      5  C   UNL     1      15.108  12.339  25.491  1.00  0.00     0.226 A 
ATOM      6  N   UNL     1      16.233  13.086  25.727  1.00  0.00    -0.217 NA
ATOM      7  C   UNL     1      16.270  14.425  25.457  1.00  0.00     0.152 A 
ATOM      8  C   UNL     1      15.117  15.003  24.932  1.00  0.00     0.127 A 
ATOM      9  N   UNL     1      14.863  16.268  24.576  1.00  0.00    -0.340 N 
ATOM     10  H   UNL     1      15.494  17.099  24.620  1.00  0.00     0.168 HD
ENDROOT
BRANCH   7  11
ATOM     11  N   UNL     1      17.454  15.183  25.710  1.00  0.00    -0.382 N 
ATOM     12  H   UNL     1      17.549  15.775  26.564  1.00  0.00     0.158 HD
ATOM     13  H   UNL     1      18.248  15.151  25.034  1.00  0.00     0.158 HD
ENDBRANCH   7  11
TORSDOF 1
ENDMDL
MODEL 9
REMARK VINA RESULT:    -3.887     12.641     14.006
REMARK INTER + INTRA:          -4.000
REMARK INTER:                  -4.000
REMARK INTRA:                   0.000
REMARK UNBOUND:                 0.000
REMARK SMILES Nc1ncnc2nc[nH]c12
REMARK SMILES IDX 8 1 7 2 6 3 5 4 4 5 3 6 2 7 10 8 9 9 1 11
REMARK H PARENT 9 10 1 12 1 13
REMARK Flexibility Score: inf
ROOT
ATOM      1  C   UNL     1      15.436  11.028  27.291  1.00  0.00     0.199 A 
ATOM      2  N   UNL     1      14.255  10.352  27.263  1.00  0.00    -0.217 NA
ATOM      3  C   UNL     1      14.459   9.462  26.277  1.00  0.00     0.182 A 
ATOM      4  N   UNL     1      13.579   8.531  25.835  1.00  0.00    -0.215 NA
ATOM      5  C   UNL     1      13.970   7.710  24.813  1.00  0.00     0.226 A 
ATOM      6  N   UNL     1      15.218   7.832  24.260  1.00  0.00    -0.217 NA
ATOM      7  C   UNL     1      16.106   8.770  24.704  1.00  0.00     0.152 A 
ATOM      8  C   UNL     1      15.694   9.600  25.744  1.00  0.00     0.127 A 
ATOM      9  N   UNL     1      16.337  10.590  26.374  1.00  0.00    -0.340 N 
ATOM     10  H   UNL     1      17.302  10.953  26.209  1.00  0.00     0.168 HD
ENDROOT
BRANCH   7  11
ATOM     11  N   UNL     1      17.402   8.880  24.112  1.00  0.00    -0.382 N 
ATOM     12  H   UNL     1      18.267   8.653  24.649  1.00  0.00     0.158 HD
ATOM     13  H   UNL     1      17.497   9.192  23.121  1.00  0.00     0.158 HD
ENDBRANCH   7  11
TORSDOF 1
ENDMDL
