MODEL 1
REMARK VINA RESULT:    -3.219      0.000      0.000
REMARK INTER + INTRA:          -4.763
REMARK INTER:                  -4.160
REMARK INTRA:                  -0.602
REMARK UNBOUND:                -0.602
REMARK SMILES CO[C@]1(CO)O[C@H](CO)[C@H](O)[C@H]1O
REMARK SMILES IDX 3 1 12 2 10 3 7 4 6 5 2 6 1 7 4 8 5 9 13 11 11 13 8 15 9 16
REMARK H PARENT 5 10 13 12 11 14 9 17
REMARK Flexibility Score: inf
ROOT
ATOM      1  C   UNL     1       8.328  -3.246  -2.247  1.00  0.00     0.221 C 
ATOM      2  C   UNL     1       8.187  -3.730  -0.770  1.00  0.00     0.207 C 
ATOM      3  C   UNL     1       6.809  -4.363  -0.721  1.00  0.00     0.180 C 
ATOM      4  C   UNL     1       6.540  -4.663  -2.189  1.00  0.00     0.179 C 
ATOM      5  O   UNL     1       7.165  -3.655  -2.946  1.00  0.00    -0.337 OA
ENDROOT
BRANCH   1   6
ATOM      6  O   UNL     1       8.350  -1.820  -2.298  1.00  0.00    -0.349 OA
ATOM      7  C   UNL     1       7.343  -1.264  -3.125  1.00  0.00     0.198 C 
ENDBRANCH   1   6
BRANCH   1   8
ATOM      8  C   UNL     1       9.541  -3.877  -2.995  1.00  0.00     0.224 C 
BRANCH   8   9
ATOM      9  O   UNL     1      10.749  -3.488  -2.398  1.00  0.00    -0.391 OA
ATOM     10  H   UNL     1      11.472  -3.983  -2.863  1.00  0.00     0.210 HD
ENDBRANCH   8   9
ENDBRANCH   1   8
BRANCH   2  11
ATOM     11  O   UNL     1       9.169  -4.680  -0.434  1.00  0.00    -0.385 OA
ATOM     12  H   UNL     1       8.750  -5.574  -0.540  1.00  0.00     0.211 HD
ENDBRANCH   2  11
BRANCH   3  13
ATOM     13  O   UNL     1       5.862  -3.476  -0.169  1.00  0.00    -0.387 OA
ATOM     14  H   UNL     1       6.205  -2.549  -0.274  1.00  0.00     0.211 HD
ENDBRANCH   3  13
BRANCH   4  15
ATOM     15  C   UNL     1       5.048  -4.750  -2.538  1.00  0.00     0.191 C 
BRANCH  15  16
ATOM     16  O   UNL     1       4.586  -3.511  -3.005  1.00  0.00    -0.394 OA
ATOM     17  H   UNL     1       3.649  -3.650  -3.301  1.00  0.00     0.210 HD
ENDBRANCH  15  16
ENDBRANCH   4  15
TORSDOF 7
ENDMDL
MODEL 2
REMARK VINA RESULT:    -3.177      1.463      2.296
REMARK INTER + INTRA:          -4.708
REMARK INTER:                  -4.136
REMARK INTRA:                  -0.572
REMARK UNBOUND:                -0.602
REMARK SMILES CO[C@]1(CO)O[C@H](CO)[C@H](O)[C@H]1O
REMARK SMILES IDX 3 1 12 2 10 3 7 4 6 5 2 6 1 7 4 8 5 9 13 11 11 13 8 15 9 16
REMARK H PARENT 5 10 13 12 11 14 9 17
REMARK Flexibility Score: inf
ROOT
ATOM      1  C   UNL     1       9.044  -5.065  -1.916  1.00  0.00     0.221 C 
ATOM      2  C   UNL     1       8.684  -3.743  -1.168  1.00  0.00     0.207 C 
ATOM      3  C   UNL     1       7.238  -3.488  -1.547  1.00  0.00     0.180 C 
ATOM      4  C   UNL     1       6.771  -4.870  -1.984  1.00  0.00     0.179 C 
ATOM      5  O   UNL     1       7.872  -5.520  -2.571  1.00  0.00    -0.337 OA
ENDROOT
BRANCH   1   6
ATOM      6  O   UNL     1      10.004  -4.805  -2.939  1.00  0.00    -0.349 OA
ATOM      7  C   UNL     1      10.625  -3.537  -2.827  1.00  0.00     0.198 C 
ENDBRANCH   1   6
BRANCH   1   8
ATOM      8  C   UNL     1       9.497  -6.214  -0.966  1.00  0.00     0.224 C 
BRANCH   8   9
ATOM      9  O   UNL     1      10.625  -5.831  -0.226  1.00  0.00    -0.391 OA
ATOM     10  H   UNL     1      10.379  -5.005   0.266  1.00  0.00     0.210 HD
ENDBRANCH   8   9
ENDBRANCH   1   8
BRANCH   2  11
ATOM     11  O   UNL     1       8.802  -3.883   0.227  1.00  0.00    -0.385 OA
ATOM     12  H   UNL     1       8.037  -3.395   0.630  1.00  0.00     0.211 HD
ENDBRANCH   2  11
BRANCH   3  13
ATOM     13  O   UNL     1       7.145  -2.535  -2.582  1.00  0.00    -0.387 OA
ATOM     14  H   UNL     1       7.740  -1.772  -2.357  1.00  0.00     0.211 HD
ENDBRANCH   3  13
BRANCH   4  15
ATOM     15  C   UNL     1       5.584  -4.842  -2.956  1.00  0.00     0.191 C 
BRANCH  15  16
ATOM     16  O   UNL     1       4.635  -3.898  -2.536  1.00  0.00    -0.394 OA
ATOM     17  H   UNL     1       4.144  -4.307  -1.777  1.00  0.00     0.210 HD
ENDBRANCH  15  16
ENDBRANCH   4  15
TORSDOF 7
ENDMDL
MODEL 3
REMARK VINA RESULT:    -3.123      1.203      4.043
REMARK INTER + INTRA:          -4.639
REMARK INTER:                  -4.221
REMARK INTRA:                  -0.418
REMARK UNBOUND:                -0.602
REMARK SMILES CO[C@]1(CO)O[C@H](CO)[C@H](O)[C@H]1O
REMARK SMILES IDX 3 1 12 2 10 3 7 4 6 5 2 6 1 7 4 8 5 9 13 11 11 13 8 15 9 16
REMARK H PARENT 5 10 13 12 11 14 9 17
REMARK Flexibility Score: inf
ROOT
ATOM      1  C   UNL     1       6.391  -4.593  -1.954  1.00  0.00     0.221 C 
ATOM      2  C   UNL     1       6.552  -4.073  -0.491  1.00  0.00     0.207 C 
ATOM      3  C   UNL     1       7.918  -3.413  -0.484  1.00  0.00     0.180 C 
ATOM      4  C   UNL     1       8.152  -3.141  -1.963  1.00  0.00     0.179 C 
ATOM      5  O   UNL     1       7.533  -4.178  -2.685  1.00  0.00    -0.337 OA
ENDROOT
BRANCH   1   6
ATOM      6  O   UNL     1       6.396  -6.019  -1.972  1.00  0.00    -0.349 OA
ATOM      7  C   UNL     1       7.443  -6.575  -2.749  1.00  0.00     0.198 C 
ENDBRANCH   1   6
BRANCH   1   8
ATOM      8  C   UNL     1       5.153  -4.001  -2.692  1.00  0.00     0.224 C 
BRANCH   8   9
ATOM      9  O   UNL     1       4.297  -5.026  -3.125  1.00  0.00    -0.391 OA
ATOM     10  H   UNL     1       3.460  -4.941  -2.600  1.00  0.00     0.210 HD
ENDBRANCH   8   9
ENDBRANCH   1   8
BRANCH   2  11
ATOM     11  O   UNL     1       5.559  -3.134  -0.157  1.00  0.00    -0.385 OA
ATOM     12  H   UNL     1       5.533  -3.083   0.834  1.00  0.00     0.211 HD
ENDBRANCH   2  11
BRANCH   3  13
ATOM     13  O   UNL     1       8.892  -4.270   0.069  1.00  0.00    -0.387 OA
ATOM     14  H   UNL     1       8.533  -5.196   0.060  1.00  0.00     0.211 HD
ENDBRANCH   3  13
BRANCH   4  15
ATOM     15  C   UNL     1       9.635  -3.034  -2.343  1.00  0.00     0.191 C 
BRANCH  15  16
ATOM     16  O   UNL     1      10.247  -4.294  -2.271  1.00  0.00    -0.394 OA
ATOM     17  H   UNL     1       9.577  -4.955  -2.586  1.00  0.00     0.210 HD
ENDBRANCH  15  16
ENDBRANCH   4  15
TORSDOF 7
ENDMDL
MODEL 4
REMARK VINA RESULT:    -3.025      1.845      3.408
REMARK INTER + INTRA:          -4.511
REMARK INTER:                  -4.133
REMARK INTRA:                  -0.379
REMARK UNBOUND:                -0.602
REMARK SMILES CO[C@]1(CO)O[C@H](CO)[C@H](O)[C@H]1O
REMARK SMILES IDX 3 1 12 2 10 3 7 4 6 5 2 6 1 7 4 8 5 9 13 11 11 13 8 15 9 16
REMARK H PARENT 5 10 13 12 11 14 9 17
REMARK Flexibility Score: inf
ROOT
ATOM      1  C   UNL     1       9.422  -5.753  -2.063  1.00  0.00     0.221 C 
ATOM      2  C   UNL     1       9.909  -4.412  -2.695  1.00  0.00     0.207 C 
ATOM      3  C   UNL     1       8.946  -3.376  -2.145  1.00  0.00     0.180 C 
ATOM      4  C   UNL     1       8.394  -4.073  -0.910  1.00  0.00     0.179 C 
ATOM      5  O   UNL     1       8.347  -5.451  -1.190  1.00  0.00    -0.337 OA
ENDROOT
BRANCH   1   6
ATOM      6  O   UNL     1       8.893  -6.610  -3.074  1.00  0.00    -0.349 OA
ATOM      7  C   UNL     1       7.599  -7.106  -2.780  1.00  0.00     0.198 C 
ENDBRANCH   1   6
BRANCH   1   8
ATOM      8  C   UNL     1      10.508  -6.464  -1.200  1.00  0.00     0.224 C 
BRANCH   8   9
ATOM      9  O   UNL     1      10.752  -5.746  -0.020  1.00  0.00    -0.391 OA
ATOM     10  H   UNL     1      11.676  -5.391  -0.087  1.00  0.00     0.210 HD
ENDBRANCH   8   9
ENDBRANCH   1   8
BRANCH   2  11
ATOM     11  O   UNL     1      11.226  -4.100  -2.312  1.00  0.00    -0.385 OA
ATOM     12  H   UNL     1      11.376  -3.147  -2.548  1.00  0.00     0.211 HD
ENDBRANCH   2  11
BRANCH   3  13
ATOM     13  O   UNL     1       7.942  -3.067  -3.085  1.00  0.00    -0.387 OA
ATOM     14  H   UNL     1       7.212  -3.736  -2.992  1.00  0.00     0.211 HD
ENDBRANCH   3  13
BRANCH   4  15
ATOM     15  C   UNL     1       7.011  -3.564  -0.480  1.00  0.00     0.191 C 
BRANCH  15  16
ATOM     16  O   UNL     1       6.017  -4.100  -1.312  1.00  0.00    -0.394 OA
ATOM     17  H   UNL     1       5.150  -3.748  -0.983  1.00  0.00     0.210 HD
ENDBRANCH  15  16
ENDBRANCH   4  15
TORSDOF 7
ENDMDL
MODEL 5
REMARK VINA RESULT:    -3.002      3.223      4.776
REMARK INTER + INTRA:          -4.483
REMARK INTER:                  -3.903
REMARK INTRA:                  -0.579
REMARK UNBOUND:                -0.602
REMARK SMILES CO[C@]1(CO)O[C@H](CO)[C@H](O)[C@H]1O
REMARK SMILES IDX 3 1 12 2 10 3 7 4 6 5 2 6 1 7 4 8 5 9 13 11 11 13 8 15 9 16
REMARK H PARENT 5 10 13 12 11 14 9 17
REMARK Flexibility Score: inf
ROOT
ATOM      1  C   UNL     1      12.022  -6.145  -1.963  1.00  0.00     0.221 C 
ATOM      2  C   UNL     1      10.998  -6.762  -0.959  1.00  0.00     0.207 C 
ATOM      3  C   UNL     1       9.735  -5.949  -1.177  1.00  0.00     0.180 C 
ATOM      4  C   UNL     1       9.963  -5.367  -2.565  1.00  0.00     0.179 C 
ATOM      5  O   UNL     1      11.345  -5.147  -2.708  1.00  0.00    -0.337 OA
ENDROOT
BRANCH   1   6
ATOM      6  O   UNL     1      13.067  -5.481  -1.254  1.00  0.00    -0.349 OA
ATOM      7  C   UNL     1      13.729  -4.487  -2.015  1.00  0.00     0.198 C 
ENDBRANCH   1   6
BRANCH   1   8
ATOM      8  C   UNL     1      12.575  -7.172  -2.996  1.00  0.00     0.224 C 
BRANCH   8   9
ATOM      9  O   UNL     1      13.447  -8.079  -2.376  1.00  0.00    -0.391 OA
ATOM     10  H   UNL     1      12.952  -8.480  -1.616  1.00  0.00     0.210 HD
ENDBRANCH   8   9
ENDBRANCH   1   8
BRANCH   2  11
ATOM     11  O   UNL     1      10.752  -8.120  -1.230  1.00  0.00    -0.385 OA
ATOM     12  H   UNL     1      10.674  -8.578  -0.353  1.00  0.00     0.211 HD
ENDBRANCH   2  11
BRANCH   3  13
ATOM     13  O   UNL     1       9.596  -4.953  -0.190  1.00  0.00    -0.387 OA
ATOM     14  H   UNL     1      10.486  -4.536  -0.040  1.00  0.00     0.211 HD
ENDBRANCH   3  13
BRANCH   4  15
ATOM     15  C   UNL     1       9.184  -4.071  -2.826  1.00  0.00     0.191 C 
BRANCH  15  16
ATOM     16  O   UNL     1       9.729  -3.017  -2.077  1.00  0.00    -0.394 OA
ATOM     17  H   UNL     1       9.037  -2.745  -1.421  1.00  0.00     0.210 HD
ENDBRANCH  15  16
ENDBRANCH   4  15
TORSDOF 7
ENDMDL
MODEL 6
REMARK VINA RESULT:    -2.877      2.164      3.792
REMARK INTER + INTRA:          -4.321
REMARK INTER:                  -3.755
REMARK INTRA:                  -0.566
REMARK UNBOUND:                -0.602
REMARK SMILES CO[C@]1(CO)O[C@H](CO)[C@H](O)[C@H]1O
REMARK SMILES IDX 3 1 12 2 10 3 7 4 6 5 2 6 1 7 4 8 5 9 13 11 11 13 8 15 9 16
REMARK H PARENT 5 10 13 12 11 14 9 17
REMARK Flexibility Score: inf
ROOT
ATOM      1  C   UNL     1       8.040  -4.189  -1.733  1.00  0.00     0.221 C 
ATOM      2  C   UNL     1       9.596  -4.126  -1.848  1.00  0.00     0.207 C 
ATOM      3  C   UNL     1      10.039  -5.560  -1.621  1.00  0.00     0.180 C 
ATOM      4  C   UNL     1       8.770  -6.342  -1.934  1.00  0.00     0.179 C 
ATOM      5  O   UNL     1       7.678  -5.546  -1.543  1.00  0.00    -0.337 OA
ENDROOT
BRANCH   1   6
ATOM      6  O   UNL     1       7.605  -3.487  -0.569  1.00  0.00    -0.349 OA
ATOM      7  C   UNL     1       6.314  -3.866  -0.125  1.00  0.00     0.198 C 
ENDBRANCH   1   6
BRANCH   1   8
ATOM      8  C   UNL     1       7.302  -3.708  -3.018  1.00  0.00     0.224 C 
BRANCH   8   9
ATOM      9  O   UNL     1       7.352  -2.310  -3.125  1.00  0.00    -0.391 OA
ATOM     10  H   UNL     1       6.796  -1.945  -2.389  1.00  0.00     0.210 HD
ENDBRANCH   8   9
ENDBRANCH   1   8
BRANCH   2  11
ATOM     11  O   UNL     1      10.010  -3.687  -3.119  1.00  0.00    -0.385 OA
ATOM     12  H   UNL     1       9.828  -2.712  -3.159  1.00  0.00     0.211 HD
ENDBRANCH   2  11
BRANCH   3  13
ATOM     13  O   UNL     1      10.478  -5.751  -0.296  1.00  0.00    -0.387 OA
ATOM     14  H   UNL     1      11.404  -6.113  -0.323  1.00  0.00     0.211 HD
ENDBRANCH   3  13
BRANCH   4  15
ATOM     15  C   UNL     1       8.707  -7.714  -1.249  1.00  0.00     0.191 C 
BRANCH  15  16
ATOM     16  O   UNL     1       9.964  -8.334  -1.288  1.00  0.00    -0.394 OA
ATOM     17  H   UNL     1      10.498  -7.943  -0.548  1.00  0.00     0.210 HD
ENDBRANCH  15  16
ENDBRANCH   4  15
TORSDOF 7
ENDMDL
MODEL 7
REMARK VINA RESULT:    -2.738     11.000     12.791
REMARK INTER + INTRA:          -4.140
REMARK INTER:                  -3.600
REMARK INTRA:                  -0.540
REMARK UNBOUND:                -0.602
REMARK SMILES CO[C@]1(CO)O[C@H](CO)[C@H](O)[C@H]1O
REMARK SMILES IDX 3 1 12 2 10 3 7 4 6 5 2 6 1 7 4 8 5 9 13 11 11 13 8 15 9 16
REMARK H PARENT 5 10 13 12 11 14 9 17
REMARK Flexibility Score: inf
ROOT
ATOM      1  C   UNL     1      20.099  -8.265  -1.285  1.00  0.00     0.221 C 
ATOM      2  C   UNL     1      19.810  -6.795  -0.843  1.00  0.00     0.207 C 
ATOM      3  C   UNL     1      18.507  -6.893  -0.073  1.00  0.00     0.180 C 
ATOM      4  C   UNL     1      18.467  -8.366   0.307  1.00  0.00     0.179 C 
ATOM      5  O   UNL     1      19.085  -9.086  -0.732  1.00  0.00    -0.337 OA
ENDROOT
BRANCH   1   6
ATOM      6  O   UNL     1      19.987  -8.383  -2.703  1.00  0.00    -0.349 OA
ATOM      7  C   UNL     1      18.848  -9.111  -3.125  1.00  0.00     0.198 C 
ENDBRANCH   1   6
BRANCH   1   8
ATOM      8  C   UNL     1      21.456  -8.818  -0.756  1.00  0.00     0.224 C 
BRANCH   8   9
ATOM      9  O   UNL     1      22.527  -8.058  -1.250  1.00  0.00    -0.391 OA
ATOM     10  H   UNL     1      22.854  -7.500  -0.498  1.00  0.00     0.210 HD
ENDBRANCH   8   9
ENDBRANCH   1   8
BRANCH   2  11
ATOM     11  O   UNL     1      20.827  -6.289  -0.013  1.00  0.00    -0.385 OA
ATOM     12  H   UNL     1      20.675  -5.311   0.064  1.00  0.00     0.211 HD
ENDBRANCH   2  11
BRANCH   3  13
ATOM     13  O   UNL     1      17.413  -6.513  -0.876  1.00  0.00    -0.387 OA
ATOM     14  H   UNL     1      17.764  -6.189  -1.748  1.00  0.00     0.211 HD
ENDBRANCH   3  13
BRANCH   4  15
ATOM     15  C   UNL     1      17.050  -8.900   0.561  1.00  0.00     0.191 C 
BRANCH  15  16
ATOM     16  O   UNL     1      16.342  -8.019   1.391  1.00  0.00    -0.394 OA
ATOM     17  H   UNL     1      15.985  -8.561   2.142  1.00  0.00     0.210 HD
ENDBRANCH  15  16
ENDBRANCH   4  15
TORSDOF 7
ENDMDL
MODEL 8
REMARK VINA RESULT:    -2.719      2.338      4.221
REMARK INTER + INTRA:          -4.116
REMARK INTER:                  -3.833
REMARK INTRA:                  -0.283
REMARK UNBOUND:                -0.602
REMARK SMILES CO[C@]1(CO)O[C@H](CO)[C@H](O)[C@H]1O
REMARK SMILES IDX 3 1 12 2 10 3 7 4 6 5 2 6 1 7 4 8 5 9 13 11 11 13 8 15 9 16
REMARK H PARENT 5 10 13 12 11 14 9 17
REMARK Flexibility Score: inf
ROOT
ATOM      1  C   UNL     1       8.458  -4.468  -1.609  1.00  0.00     0.221 C 
ATOM      2  C   UNL     1       7.974  -5.887  -2.045  1.00  0.00     0.207 C 
ATOM      3  C   UNL     1       9.204  -6.761  -1.880  1.00  0.00     0.180 C 
ATOM      4  C   UNL     1      10.048  -5.947  -0.908  1.00  0.00     0.179 C 
ATOM      5  O   UNL     1       9.801  -4.588  -1.172  1.00  0.00    -0.337 OA
ENDROOT
BRANCH   1   6
ATOM      6  O   UNL     1       8.474  -3.588  -2.731  1.00  0.00    -0.349 OA
ATOM      7  C   UNL     1       7.532  -2.533  -2.641  1.00  0.00     0.198 C 
ENDBRANCH   1   6
BRANCH   1   8
ATOM      8  C   UNL     1       7.652  -3.878  -0.412  1.00  0.00     0.224 C 
BRANCH   8   9
ATOM      9  O   UNL     1       8.516  -3.490   0.624  1.00  0.00    -0.391 OA
ATOM     10  H   UNL     1       8.567  -2.500   0.600  1.00  0.00     0.210 HD
ENDBRANCH   8   9
ENDBRANCH   1   8
BRANCH   2  11
ATOM     11  O   UNL     1       6.931  -6.359  -1.227  1.00  0.00    -0.385 OA
ATOM     12  H   UNL     1       6.081  -6.082  -1.658  1.00  0.00     0.211 HD
ENDBRANCH   2  11
BRANCH   3  13
ATOM     13  O   UNL     1       9.850  -6.967  -3.115  1.00  0.00    -0.387 OA
ATOM     14  H   UNL     1       9.941  -7.946  -3.261  1.00  0.00     0.211 HD
ENDBRANCH   3  13
BRANCH   4  15
ATOM     15  C   UNL     1      11.551  -6.246  -0.998  1.00  0.00     0.191 C 
BRANCH  15  16
ATOM     16  O   UNL     1      12.183  -5.313  -1.833  1.00  0.00    -0.394 OA
ATOM     17  H   UNL     1      12.311  -4.490  -1.294  1.00  0.00     0.210 HD
ENDBRANCH  15  16
ENDBRANCH   4  15
TORSDOF 7
ENDMDL
MODEL 9
REMARK VINA RESULT:    -2.648      2.092      4.326
REMARK INTER + INTRA:          -4.024
REMARK INTER:                  -3.431
REMARK INTRA:                  -0.594
REMARK UNBOUND:                -0.602
REMARK SMILES CO[C@]1(CO)O[C@H](CO)[C@H](O)[C@H]1O
REMARK SMILES IDX 3 1 12 2 10 3 7 4 6 5 2 6 1 7 4 8 5 9 13 11 11 13 8 15 9 16
REMARK H PARENT 5 10 13 12 11 14 9 17
REMARK Flexibility Score: inf
ROOT
ATOM      1  C   UNL     1       8.537  -4.545  -2.403  1.00  0.00     0.221 C 
ATOM      2  C   UNL     1       8.644  -4.942  -0.896  1.00  0.00     0.207 C 
ATOM      3  C   UNL     1       9.930  -5.743  -0.818  1.00  0.00     0.180 C 
ATOM      4  C   UNL     1      10.669  -5.288  -2.069  1.00  0.00     0.179 C 
ATOM      5  O   UNL     1       9.702  -5.020  -3.055  1.00  0.00    -0.337 OA
ENDROOT
BRANCH   1   6
ATOM      6  O   UNL     1       7.432  -5.212  -3.010  1.00  0.00    -0.349 OA
ATOM      7  C   UNL     1       6.597  -5.887  -2.086  1.00  0.00     0.198 C 
ENDBRANCH   1   6
BRANCH   1   8
ATOM      8  C   UNL     1       8.493  -3.005  -2.638  1.00  0.00     0.224 C 
BRANCH   8   9
ATOM      9  O   UNL     1       7.299  -2.461  -2.142  1.00  0.00    -0.391 OA
ATOM     10  H   UNL     1       6.647  -2.470  -2.889  1.00  0.00     0.210 HD
ENDBRANCH   8   9
ENDBRANCH   1   8
BRANCH   2  11
ATOM     11  O   UNL     1       8.725  -3.812  -0.062  1.00  0.00    -0.385 OA
ATOM     12  H   UNL     1       7.819  -3.672   0.321  1.00  0.00     0.211 HD
ENDBRANCH   2  11
BRANCH   3  13
ATOM     13  O   UNL     1       9.667  -7.127  -0.820  1.00  0.00    -0.387 OA
ATOM     14  H   UNL     1      10.308  -7.568  -0.202  1.00  0.00     0.211 HD
ENDBRANCH   3  13
BRANCH   4  15
ATOM     15  C   UNL     1      11.693  -6.308  -2.585  1.00  0.00     0.191 C 
BRANCH  15  16
ATOM     16  O   UNL     1      12.533  -6.724  -1.541  1.00  0.00    -0.394 OA
ATOM     17  H   UNL     1      12.542  -7.715  -1.562  1.00  0.00     0.210 HD
ENDBRANCH  15  16
ENDBRANCH   4  15
TORSDOF 7
ENDMDL
