MODEL 1
REMARK VINA RESULT:    -6.632      0.000      0.000
REMARK INTER + INTRA:          -8.264
REMARK INTER:                  -7.989
REMARK INTRA:                  -0.275
REMARK UNBOUND:                -0.275
REMARK SMILES Oc1cc(O)c2c(c1)O[C@@H](c1ccc(O)c(O)c1)[C@H](O)C2
REMARK SMILES IDX 21 1 19 2 10 3 9 4 7 5 8 6 2 7 3 8 4 9 6 10 20 11 11 13
REMARK SMILES IDX 18 14 12 15 16 16 13 17 14 18 17 19 15 21 5 23 1 25
REMARK H PARENT 20 12 17 20 15 22 5 24 1 26
REMARK Flexibility Score: inf
ROOT
ATOM      1  C   UNL     1       5.558   4.780   2.738  1.00  0.00     0.079 C 
ATOM      2  C   UNL     1       5.318   6.134   3.434  1.00  0.00     0.164 C 
ATOM      3  C   UNL     1       5.400   7.273   2.404  1.00  0.00     0.232 C 
ATOM      4  O   UNL     1       4.462   7.043   1.353  1.00  0.00    -0.482 OA
ATOM      5  C   UNL     1       4.212   5.767   0.839  1.00  0.00     0.131 A 
ATOM      6  C   UNL     1       3.427   5.639  -0.309  1.00  0.00     0.093 A 
ATOM      7  C   UNL     1       3.174   4.375  -0.854  1.00  0.00     0.122 A 
ATOM      8  C   UNL     1       3.718   3.239  -0.252  1.00  0.00     0.092 A 
ATOM      9  C   UNL     1       4.508   3.348   0.899  1.00  0.00     0.126 A 
ATOM     10  C   UNL     1       4.730   4.620   1.479  1.00  0.00     0.039 A 
ENDROOT
BRANCH   2  11
ATOM     11  O   UNL     1       6.282   6.330   4.436  1.00  0.00    -0.389 OA
ATOM     12  H   UNL     1       6.415   7.309   4.516  1.00  0.00     0.211 HD
ENDBRANCH   2  11
BRANCH   3  13
ATOM     13  C   UNL     1       5.124   8.612   3.047  1.00  0.00    -0.001 A 
ATOM     14  C   UNL     1       5.873   9.745   2.688  1.00  0.00     0.057 A 
ATOM     15  C   UNL     1       4.081   8.747   3.977  1.00  0.00     0.012 A 
ATOM     16  C   UNL     1       5.599  10.993   3.265  1.00  0.00     0.157 A 
ATOM     17  C   UNL     1       3.806   9.989   4.555  1.00  0.00     0.050 A 
ATOM     18  C   UNL     1       4.560  11.114   4.205  1.00  0.00     0.157 A 
BRANCH  16  19
ATOM     19  O   UNL     1       6.351  12.111   2.907  1.00  0.00    -0.504 OA
ATOM     20  H   UNL     1       6.943  12.112   2.085  1.00  0.00     0.293 HD
ENDBRANCH  16  19
BRANCH  18  21
ATOM     21  O   UNL     1       4.263  12.342   4.797  1.00  0.00    -0.504 OA
ATOM     22  H   UNL     1       4.298  13.211   4.280  1.00  0.00     0.293 HD
ENDBRANCH  18  21
ENDBRANCH   3  13
BRANCH   9  23
ATOM     23  O   UNL     1       5.060   2.179   1.429  1.00  0.00    -0.507 OA
ATOM     24  H   UNL     1       5.944   1.794   1.124  1.00  0.00     0.293 HD
ENDBRANCH   9  23
BRANCH   7  25
ATOM     25  O   UNL     1       2.391   4.240  -1.998  1.00  0.00    -0.508 OA
ATOM     26  H   UNL     1       2.336   4.976  -2.692  1.00  0.00     0.293 HD
ENDBRANCH   7  25
TORSDOF 6
ENDMDL
MODEL 2
REMARK VINA RESULT:    -6.573      1.434      7.041
REMARK INTER + INTRA:          -8.192
REMARK INTER:                  -7.821
REMARK INTRA:                  -0.371
REMARK UNBOUND:                -0.275
REMARK SMILES Oc1cc(O)c2c(c1)O[C@@H](c1ccc(O)c(O)c1)[C@H](O)C2
REMARK SMILES IDX 21 1 19 2 10 3 9 4 7 5 8 6 2 7 3 8 4 9 6 10 20 11 11 13
REMARK SMILES IDX 18 14 12 15 16 16 13 17 14 18 17 19 15 21 5 23 1 25
REMARK H PARENT 20 12 17 20 15 22 5 24 1 26
REMARK Flexibility Score: inf
ROOT
ATOM      1  C   UNL     1       6.097   8.663   1.943  1.00  0.00     0.079 C 
ATOM      2  C   UNL     1       5.573   7.651   0.907  1.00  0.00     0.164 C 
ATOM      3  C   UNL     1       4.937   6.449   1.626  1.00  0.00     0.232 C 
ATOM      4  O   UNL     1       3.901   6.900   2.498  1.00  0.00    -0.482 OA
ATOM      5  C   UNL     1       4.013   8.075   3.248  1.00  0.00     0.131 A 
ATOM      6  C   UNL     1       3.048   8.356   4.218  1.00  0.00     0.093 A 
ATOM      7  C   UNL     1       3.144   9.517   4.993  1.00  0.00     0.122 A 
ATOM      8  C   UNL     1       4.215  10.392   4.802  1.00  0.00     0.092 A 
ATOM      9  C   UNL     1       5.192  10.126   3.835  1.00  0.00     0.126 A 
ATOM     10  C   UNL     1       5.076   8.976   3.018  1.00  0.00     0.039 A 
ENDROOT
BRANCH   2  11
ATOM     11  O   UNL     1       6.630   7.213   0.094  1.00  0.00    -0.389 OA
ATOM     12  H   UNL     1       6.467   6.252  -0.094  1.00  0.00     0.211 HD
ENDBRANCH   2  11
BRANCH   3  13
ATOM     13  C   UNL     1       4.371   5.458   0.636  1.00  0.00    -0.001 A 
ATOM     14  C   UNL     1       4.829   4.129   0.615  1.00  0.00     0.057 A 
ATOM     15  C   UNL     1       3.345   5.843  -0.242  1.00  0.00     0.012 A 
ATOM     16  C   UNL     1       4.284   3.202  -0.286  1.00  0.00     0.157 A 
ATOM     17  C   UNL     1       2.802   4.921  -1.141  1.00  0.00     0.050 A 
ATOM     18  C   UNL     1       3.266   3.602  -1.169  1.00  0.00     0.157 A 
BRANCH  16  19
ATOM     19  O   UNL     1       4.748   1.888  -0.305  1.00  0.00    -0.504 OA
ATOM     20  H   UNL     1       5.104   1.438   0.531  1.00  0.00     0.293 HD
ENDBRANCH  16  19
BRANCH  18  21
ATOM     21  O   UNL     1       2.705   2.704  -2.077  1.00  0.00    -0.504 OA
ATOM     22  H   UNL     1       1.837   2.220  -1.888  1.00  0.00     0.293 HD
ENDBRANCH  18  21
ENDBRANCH   3  13
BRANCH   9  23
ATOM     23  O   UNL     1       6.263  11.016   3.721  1.00  0.00    -0.507 OA
ATOM     24  H   UNL     1       6.249  11.829   3.120  1.00  0.00     0.293 HD
ENDBRANCH   9  23
BRANCH   7  25
ATOM     25  O   UNL     1       2.185   9.804   5.961  1.00  0.00    -0.508 OA
ATOM     26  H   UNL     1       2.091   9.239   6.797  1.00  0.00     0.293 HD
ENDBRANCH   7  25
TORSDOF 6
ENDMDL
MODEL 3
REMARK VINA RESULT:    -6.552      2.778      4.904
REMARK INTER + INTRA:          -8.167
REMARK INTER:                  -7.881
REMARK INTRA:                  -0.286
REMARK UNBOUND:                -0.275
REMARK SMILES Oc1cc(O)c2c(c1)O[C@@H](c1ccc(O)c(O)c1)[C@H](O)C2
REMARK SMILES IDX 21 1 19 2 10 3 9 4 7 5 8 6 2 7 3 8 4 9 6 10 20 11 11 13
REMARK SMILES IDX 18 14 12 15 16 16 13 17 14 18 17 19 15 21 5 23 1 25
REMARK H PARENT 20 12 17 20 15 22 5 24 1 26
REMARK Flexibility Score: inf
ROOT
ATOM      1  C   UNL     1       5.957  10.341   3.078  1.00  0.00     0.079 C 
ATOM      2  C   UNL     1       5.400  10.552   4.499  1.00  0.00     0.164 C 
ATOM      3  C   UNL     1       3.919  10.140   4.546  1.00  0.00     0.232 C 
ATOM      4  O   UNL     1       3.779   8.787   4.117  1.00  0.00    -0.482 OA
ATOM      5  C   UNL     1       4.531   8.254   3.065  1.00  0.00     0.131 A 
ATOM      6  C   UNL     1       4.211   6.985   2.576  1.00  0.00     0.093 A 
ATOM      7  C   UNL     1       4.937   6.434   1.514  1.00  0.00     0.122 A 
ATOM      8  C   UNL     1       5.980   7.161   0.936  1.00  0.00     0.092 A 
ATOM      9  C   UNL     1       6.314   8.434   1.412  1.00  0.00     0.126 A 
ATOM     10  C   UNL     1       5.612   8.978   2.515  1.00  0.00     0.039 A 
ENDROOT
BRANCH   2  11
ATOM     11  O   UNL     1       5.530  11.901   4.865  1.00  0.00    -0.389 OA
ATOM     12  H   UNL     1       5.407  12.435   4.037  1.00  0.00     0.211 HD
ENDBRANCH   2  11
BRANCH   3  13
ATOM     13  C   UNL     1       3.354  10.292   5.939  1.00  0.00    -0.001 A 
ATOM     14  C   UNL     1       2.068  10.823   6.134  1.00  0.00     0.057 A 
ATOM     15  C   UNL     1       4.093   9.858   7.052  1.00  0.00     0.012 A 
ATOM     16  C   UNL     1       1.533  10.938   7.426  1.00  0.00     0.157 A 
ATOM     17  C   UNL     1       3.562   9.973   8.339  1.00  0.00     0.050 A 
ATOM     18  C   UNL     1       2.286  10.512   8.534  1.00  0.00     0.157 A 
BRANCH  16  19
ATOM     19  O   UNL     1       0.259  11.472   7.611  1.00  0.00    -0.504 OA
ATOM     20  H   UNL     1       0.042  12.068   8.401  1.00  0.00     0.293 HD
ENDBRANCH  16  19
BRANCH  18  21
ATOM     21  O   UNL     1       1.782  10.614   9.830  1.00  0.00    -0.504 OA
ATOM     22  H   UNL     1       1.202  11.390  10.122  1.00  0.00     0.293 HD
ENDBRANCH  18  21
ENDBRANCH   3  13
BRANCH   9  23
ATOM     23  O   UNL     1       7.337   9.131   0.764  1.00  0.00    -0.507 OA
ATOM     24  H   UNL     1       7.624  10.065   1.023  1.00  0.00     0.293 HD
ENDBRANCH   9  23
BRANCH   7  25
ATOM     25  O   UNL     1       4.624   5.169   1.022  1.00  0.00    -0.508 OA
ATOM     26  H   UNL     1       5.203   4.363   1.226  1.00  0.00     0.293 HD
ENDBRANCH   7  25
TORSDOF 6
ENDMDL
MODEL 4
REMARK VINA RESULT:    -6.399      1.759      7.141
REMARK INTER + INTRA:          -7.983
REMARK INTER:                  -7.734
REMARK INTRA:                  -0.249
REMARK UNBOUND:                -0.275
REMARK SMILES Oc1cc(O)c2c(c1)O[C@@H](c1ccc(O)c(O)c1)[C@H](O)C2
REMARK SMILES IDX 21 1 19 2 10 3 9 4 7 5 8 6 2 7 3 8 4 9 6 10 20 11 11 13
REMARK SMILES IDX 18 14 12 15 16 16 13 17 14 18 17 19 15 21 5 23 1 25
REMARK H PARENT 20 12 17 20 15 22 5 24 1 26
REMARK Flexibility Score: inf
ROOT
ATOM      1  C   UNL     1       5.492  10.615   3.311  1.00  0.00     0.079 C 
ATOM      2  C   UNL     1       5.420   9.345   2.444  1.00  0.00     0.164 C 
ATOM      3  C   UNL     1       5.120   8.123   3.329  1.00  0.00     0.232 C 
ATOM      4  O   UNL     1       3.911   8.339   4.056  1.00  0.00    -0.482 OA
ATOM      5  C   UNL     1       3.573   9.585   4.593  1.00  0.00     0.131 A 
ATOM      6  C   UNL     1       2.473   9.680   5.449  1.00  0.00     0.093 A 
ATOM      7  C   UNL     1       2.121  10.911   6.013  1.00  0.00     0.122 A 
ATOM      8  C   UNL     1       2.880  12.048   5.725  1.00  0.00     0.092 A 
ATOM      9  C   UNL     1       3.986  11.971   4.870  1.00  0.00     0.126 A 
ATOM     10  C   UNL     1       4.319  10.737   4.262  1.00  0.00     0.039 A 
ENDROOT
BRANCH   2  11
ATOM     11  O   UNL     1       6.640   9.157   1.774  1.00  0.00    -0.389 OA
ATOM     12  H   UNL     1       6.919  10.046   1.434  1.00  0.00     0.211 HD
ENDBRANCH   2  11
BRANCH   3  13
ATOM     13  C   UNL     1       4.997   6.865   2.501  1.00  0.00    -0.001 A 
ATOM     14  C   UNL     1       4.358   6.893   1.250  1.00  0.00     0.057 A 
ATOM     15  C   UNL     1       5.564   5.663   2.955  1.00  0.00     0.012 A 
ATOM     16  C   UNL     1       4.269   5.731   0.470  1.00  0.00     0.157 A 
ATOM     17  C   UNL     1       5.475   4.504   2.180  1.00  0.00     0.050 A 
ATOM     18  C   UNL     1       4.829   4.530   0.939  1.00  0.00     0.157 A 
BRANCH  16  19
ATOM     19  O   UNL     1       3.628   5.766  -0.768  1.00  0.00    -0.504 OA
ATOM     20  H   UNL     1       3.054   4.996  -1.090  1.00  0.00     0.293 HD
ENDBRANCH  16  19
BRANCH  18  21
ATOM     21  O   UNL     1       4.756   3.358   0.187  1.00  0.00    -0.504 OA
ATOM     22  H   UNL     1       5.470   2.642   0.235  1.00  0.00     0.293 HD
ENDBRANCH  18  21
ENDBRANCH   3  13
BRANCH   9  23
ATOM     23  O   UNL     1       4.732  13.133   4.656  1.00  0.00    -0.507 OA
ATOM     24  H   UNL     1       5.146  13.371   3.764  1.00  0.00     0.293 HD
ENDBRANCH   9  23
BRANCH   7  25
ATOM     25  O   UNL     1       1.026  11.013   6.867  1.00  0.00    -0.508 OA
ATOM     26  H   UNL     1       0.159  11.445   6.568  1.00  0.00     0.293 HD
ENDBRANCH   7  25
TORSDOF 6
ENDMDL
MODEL 5
REMARK VINA RESULT:    -6.398      1.759      2.602
REMARK INTER + INTRA:          -7.982
REMARK INTER:                  -7.846
REMARK INTRA:                  -0.136
REMARK UNBOUND:                -0.275
REMARK SMILES Oc1cc(O)c2c(c1)O[C@@H](c1ccc(O)c(O)c1)[C@H](O)C2
REMARK SMILES IDX 21 1 19 2 10 3 9 4 7 5 8 6 2 7 3 8 4 9 6 10 20 11 11 13
REMARK SMILES IDX 18 14 12 15 16 16 13 17 14 18 17 19 15 21 5 23 1 25
REMARK H PARENT 20 12 17 20 15 22 5 24 1 26
REMARK Flexibility Score: inf
ROOT
ATOM      1  C   UNL     1       4.506   3.504   2.686  1.00  0.00     0.079 C 
ATOM      2  C   UNL     1       4.865   4.996   2.824  1.00  0.00     0.164 C 
ATOM      3  C   UNL     1       5.679   5.453   1.602  1.00  0.00     0.232 C 
ATOM      4  O   UNL     1       4.946   5.192   0.406  1.00  0.00    -0.482 OA
ATOM      5  C   UNL     1       4.180   4.034   0.236  1.00  0.00     0.131 A 
ATOM      6  C   UNL     1       3.643   3.754  -1.023  1.00  0.00     0.093 A 
ATOM      7  C   UNL     1       2.886   2.595  -1.225  1.00  0.00     0.122 A 
ATOM      8  C   UNL     1       2.675   1.710  -0.166  1.00  0.00     0.092 A 
ATOM      9  C   UNL     1       3.206   1.974   1.102  1.00  0.00     0.126 A 
ATOM     10  C   UNL     1       3.936   3.167   1.324  1.00  0.00     0.039 A 
ENDROOT
BRANCH   2  11
ATOM     11  O   UNL     1       5.612   5.199   3.995  1.00  0.00    -0.389 OA
ATOM     12  H   UNL     1       6.321   5.856   3.772  1.00  0.00     0.211 HD
ENDBRANCH   2  11
BRANCH   3  13
ATOM     13  C   UNL     1       6.008   6.925   1.684  1.00  0.00    -0.001 A 
ATOM     14  C   UNL     1       5.159   7.810   2.370  1.00  0.00     0.057 A 
ATOM     15  C   UNL     1       7.194   7.417   1.115  1.00  0.00     0.012 A 
ATOM     16  C   UNL     1       5.478   9.172   2.470  1.00  0.00     0.157 A 
ATOM     17  C   UNL     1       7.514   8.774   1.212  1.00  0.00     0.050 A 
ATOM     18  C   UNL     1       6.663   9.655   1.886  1.00  0.00     0.157 A 
BRANCH  16  19
ATOM     19  O   UNL     1       4.627  10.043   3.146  1.00  0.00    -0.504 OA
ATOM     20  H   UNL     1       4.279  10.890   2.712  1.00  0.00     0.293 HD
ENDBRANCH  16  19
BRANCH  18  21
ATOM     21  O   UNL     1       7.008  11.004   1.967  1.00  0.00    -0.504 OA
ATOM     22  H   UNL     1       6.628  11.696   1.333  1.00  0.00     0.293 HD
ENDBRANCH  18  21
ENDBRANCH   3  13
BRANCH   9  23
ATOM     23  O   UNL     1       3.000   1.029   2.111  1.00  0.00    -0.507 OA
ATOM     24  H   UNL     1       2.203   0.408   2.135  1.00  0.00     0.293 HD
ENDBRANCH   9  23
BRANCH   7  25
ATOM     25  O   UNL     1       2.347   2.309  -2.478  1.00  0.00    -0.508 OA
ATOM     26  H   UNL     1       1.482   2.733  -2.791  1.00  0.00     0.293 HD
ENDBRANCH   7  25
TORSDOF 6
ENDMDL
MODEL 6
REMARK VINA RESULT:    -6.351      1.899      6.935
REMARK INTER + INTRA:          -7.925
REMARK INTER:                  -7.946
REMARK INTRA:                   0.021
REMARK UNBOUND:                -0.275
REMARK SMILES Oc1cc(O)c2c(c1)O[C@@H](c1ccc(O)c(O)c1)[C@H](O)C2
REMARK SMILES IDX 21 1 19 2 10 3 9 4 7 5 8 6 2 7 3 8 4 9 6 10 20 11 11 13
REMARK SMILES IDX 18 14 12 15 16 16 13 17 14 18 17 19 15 21 5 23 1 25
REMARK H PARENT 20 12 17 20 15 22 5 24 1 26
REMARK Flexibility Score: inf
ROOT
ATOM      1  C   UNL     1       5.359   5.619   3.773  1.00  0.00     0.079 C 
ATOM      2  C   UNL     1       5.022   4.699   2.585  1.00  0.00     0.164 C 
ATOM      3  C   UNL     1       4.120   5.444   1.586  1.00  0.00     0.232 C 
ATOM      4  O   UNL     1       4.760   6.647   1.161  1.00  0.00    -0.482 OA
ATOM      5  C   UNL     1       5.502   7.448   2.035  1.00  0.00     0.131 A 
ATOM      6  C   UNL     1       5.939   8.702   1.600  1.00  0.00     0.093 A 
ATOM      7  C   UNL     1       6.671   9.530   2.458  1.00  0.00     0.122 A 
ATOM      8  C   UNL     1       6.955   9.105   3.757  1.00  0.00     0.092 A 
ATOM      9  C   UNL     1       6.524   7.853   4.211  1.00  0.00     0.126 A 
ATOM     10  C   UNL     1       5.822   6.992   3.332  1.00  0.00     0.039 A 
ENDROOT
BRANCH   2  11
ATOM     11  O   UNL     1       4.368   3.546   3.047  1.00  0.00    -0.389 OA
ATOM     12  H   UNL     1       3.430   3.602   2.728  1.00  0.00     0.211 HD
ENDBRANCH   2  11
BRANCH   3  13
ATOM     13  C   UNL     1       3.809   4.583   0.384  1.00  0.00    -0.001 A 
ATOM     14  C   UNL     1       4.585   3.446   0.100  1.00  0.00     0.057 A 
ATOM     15  C   UNL     1       2.709   4.885  -0.435  1.00  0.00     0.012 A 
ATOM     16  C   UNL     1       4.278   2.632  -1.000  1.00  0.00     0.157 A 
ATOM     17  C   UNL     1       2.403   4.075  -1.533  1.00  0.00     0.050 A 
ATOM     18  C   UNL     1       3.182   2.950  -1.821  1.00  0.00     0.157 A 
BRANCH  16  19
ATOM     19  O   UNL     1       5.056   1.509  -1.279  1.00  0.00    -0.504 OA
ATOM     20  H   UNL     1       5.843   1.553  -1.916  1.00  0.00     0.293 HD
ENDBRANCH  16  19
BRANCH  18  21
ATOM     21  O   UNL     1       2.853   2.161  -2.923  1.00  0.00    -0.504 OA
ATOM     22  H   UNL     1       3.498   2.008  -3.687  1.00  0.00     0.293 HD
ENDBRANCH  18  21
ENDBRANCH   3  13
BRANCH   9  23
ATOM     23  O   UNL     1       6.799   7.503   5.535  1.00  0.00    -0.507 OA
ATOM     24  H   UNL     1       6.222   6.872   6.074  1.00  0.00     0.293 HD
ENDBRANCH   9  23
BRANCH   7  25
ATOM     25  O   UNL     1       7.111  10.781   2.031  1.00  0.00    -0.508 OA
ATOM     26  H   UNL     1       7.013  11.076   1.067  1.00  0.00     0.293 HD
ENDBRANCH   7  25
TORSDOF 6
ENDMDL
MODEL 7
REMARK VINA RESULT:    -6.327      3.266      6.253
REMARK INTER + INTRA:          -7.896
REMARK INTER:                  -7.530
REMARK INTRA:                  -0.366
REMARK UNBOUND:                -0.275
REMARK SMILES Oc1cc(O)c2c(c1)O[C@@H](c1ccc(O)c(O)c1)[C@H](O)C2
REMARK SMILES IDX 21 1 19 2 10 3 9 4 7 5 8 6 2 7 3 8 4 9 6 10 20 11 11 13
REMARK SMILES IDX 18 14 12 15 16 16 13 17 14 18 17 19 15 21 5 23 1 25
REMARK H PARENT 20 12 17 20 15 22 5 24 1 26
REMARK Flexibility Score: inf
ROOT
ATOM      1  C   UNL     1       5.450  11.831   4.261  1.00  0.00     0.079 C 
ATOM      2  C   UNL     1       4.817  11.781   5.665  1.00  0.00     0.164 C 
ATOM      3  C   UNL     1       3.456  11.069   5.600  1.00  0.00     0.232 C 
ATOM      4  O   UNL     1       3.618   9.765   5.044  1.00  0.00    -0.482 OA
ATOM      5  C   UNL     1       4.499   9.505   3.989  1.00  0.00     0.131 A 
ATOM      6  C   UNL     1       4.469   8.252   3.373  1.00  0.00     0.093 A 
ATOM      7  C   UNL     1       5.328   7.971   2.305  1.00  0.00     0.122 A 
ATOM      8  C   UNL     1       6.211   8.951   1.847  1.00  0.00     0.092 A 
ATOM      9  C   UNL     1       6.253  10.213   2.452  1.00  0.00     0.126 A 
ATOM     10  C   UNL     1       5.418  10.488   3.562  1.00  0.00     0.039 A 
ENDROOT
BRANCH   2  11
ATOM     11  O   UNL     1       4.647  13.086   6.156  1.00  0.00    -0.389 OA
ATOM     12  H   UNL     1       4.918  13.069   7.111  1.00  0.00     0.211 HD
ENDBRANCH   2  11
BRANCH   3  13
ATOM     13  C   UNL     1       2.829  10.962   6.970  1.00  0.00    -0.001 A 
ATOM     14  C   UNL     1       3.514  10.331   8.022  1.00  0.00     0.057 A 
ATOM     15  C   UNL     1       1.572  11.537   7.219  1.00  0.00     0.012 A 
ATOM     16  C   UNL     1       2.944  10.257   9.301  1.00  0.00     0.157 A 
ATOM     17  C   UNL     1       1.001  11.463   8.492  1.00  0.00     0.050 A 
ATOM     18  C   UNL     1       1.679  10.825   9.535  1.00  0.00     0.157 A 
BRANCH  16  19
ATOM     19  O   UNL     1       3.628   9.624  10.337  1.00  0.00    -0.504 OA
ATOM     20  H   UNL     1       4.177  10.147  11.009  1.00  0.00     0.293 HD
ENDBRANCH  16  19
BRANCH  18  21
ATOM     21  O   UNL     1       1.085  10.766  10.796  1.00  0.00    -0.504 OA
ATOM     22  H   UNL     1       1.605  10.508  11.625  1.00  0.00     0.293 HD
ENDBRANCH  18  21
ENDBRANCH   3  13
BRANCH   9  23
ATOM     23  O   UNL     1       7.125  11.167   1.921  1.00  0.00    -0.507 OA
ATOM     24  H   UNL     1       8.100  11.234   2.180  1.00  0.00     0.293 HD
ENDBRANCH   9  23
BRANCH   7  25
ATOM     25  O   UNL     1       5.305   6.723   1.686  1.00  0.00    -0.508 OA
ATOM     26  H   UNL     1       4.435   6.286   1.406  1.00  0.00     0.293 HD
ENDBRANCH   7  25
TORSDOF 6
ENDMDL
MODEL 8
REMARK VINA RESULT:    -6.232      1.998      3.943
REMARK INTER + INTRA:          -7.782
REMARK INTER:                  -7.411
REMARK INTRA:                  -0.371
REMARK UNBOUND:                -0.275
REMARK SMILES Oc1cc(O)c2c(c1)O[C@@H](c1ccc(O)c(O)c1)[C@H](O)C2
REMARK SMILES IDX 21 1 19 2 10 3 9 4 7 5 8 6 2 7 3 8 4 9 6 10 20 11 11 13
REMARK SMILES IDX 18 14 12 15 16 16 13 17 14 18 17 19 15 21 5 23 1 25
REMARK H PARENT 20 12 17 20 15 22 5 24 1 26
REMARK Flexibility Score: inf
ROOT
ATOM      1  C   UNL     1       3.998   3.979   1.624  1.00  0.00     0.079 C 
ATOM      2  C   UNL     1       4.507   5.412   1.381  1.00  0.00     0.164 C 
ATOM      3  C   UNL     1       4.858   6.076   2.724  1.00  0.00     0.232 C 
ATOM      4  O   UNL     1       5.819   5.283   3.419  1.00  0.00    -0.482 OA
ATOM      5  C   UNL     1       5.776   3.885   3.418  1.00  0.00     0.131 A 
ATOM      6  C   UNL     1       6.630   3.179   4.269  1.00  0.00     0.093 A 
ATOM      7  C   UNL     1       6.598   1.781   4.300  1.00  0.00     0.122 A 
ATOM      8  C   UNL     1       5.701   1.089   3.483  1.00  0.00     0.092 A 
ATOM      9  C   UNL     1       4.837   1.780   2.624  1.00  0.00     0.126 A 
ATOM     10  C   UNL     1       4.897   3.193   2.557  1.00  0.00     0.039 A 
ENDROOT
BRANCH   2  11
ATOM     11  O   UNL     1       3.518   6.163   0.725  1.00  0.00    -0.389 OA
ATOM     12  H   UNL     1       2.663   5.674   0.844  1.00  0.00     0.211 HD
ENDBRANCH   2  11
BRANCH   3  13
ATOM     13  C   UNL     1       5.404   7.470   2.517  1.00  0.00    -0.001 A 
ATOM     14  C   UNL     1       4.768   8.580   3.097  1.00  0.00     0.057 A 
ATOM     15  C   UNL     1       6.584   7.664   1.780  1.00  0.00     0.012 A 
ATOM     16  C   UNL     1       5.291   9.870   2.928  1.00  0.00     0.157 A 
ATOM     17  C   UNL     1       7.106   8.949   1.609  1.00  0.00     0.050 A 
ATOM     18  C   UNL     1       6.466  10.054   2.178  1.00  0.00     0.157 A 
BRANCH  16  19
ATOM     19  O   UNL     1       4.650  10.967   3.502  1.00  0.00    -0.504 OA
ATOM     20  H   UNL     1       4.823  11.241   4.462  1.00  0.00     0.293 HD
ENDBRANCH  16  19
BRANCH  18  21
ATOM     21  O   UNL     1       7.010  11.325   1.990  1.00  0.00    -0.504 OA
ATOM     22  H   UNL     1       7.994  11.514   2.129  1.00  0.00     0.293 HD
ENDBRANCH  18  21
ENDBRANCH   3  13
BRANCH   9  23
ATOM     23  O   UNL     1       3.932   1.035   1.865  1.00  0.00    -0.507 OA
ATOM     24  H   UNL     1       2.935   1.205   1.866  1.00  0.00     0.293 HD
ENDBRANCH   9  23
BRANCH   7  25
ATOM     25  O   UNL     1       7.447   1.070   5.145  1.00  0.00    -0.508 OA
ATOM     26  H   UNL     1       8.351   0.738   4.830  1.00  0.00     0.293 HD
ENDBRANCH   7  25
TORSDOF 6
ENDMDL
MODEL 9
REMARK VINA RESULT:    -6.123      5.625      9.424
REMARK INTER + INTRA:          -7.651
REMARK INTER:                  -7.424
REMARK INTRA:                  -0.227
REMARK UNBOUND:                -0.275
REMARK SMILES Oc1cc(O)c2c(c1)O[C@@H](c1ccc(O)c(O)c1)[C@H](O)C2
REMARK SMILES IDX 21 1 19 2 10 3 9 4 7 5 8 6 2 7 3 8 4 9 6 10 20 11 11 13
REMARK SMILES IDX 18 14 12 15 16 16 13 17 14 18 17 19 15 21 5 23 1 25
REMARK H PARENT 20 12 17 20 15 22 5 24 1 26
REMARK Flexibility Score: inf
ROOT
ATOM      1  C   UNL     1       1.383  11.021   8.561  1.00  0.00     0.079 C 
ATOM      2  C   UNL     1       2.213  10.877   7.272  1.00  0.00     0.164 C 
ATOM      3  C   UNL     1       3.258  12.003   7.194  1.00  0.00     0.232 C 
ATOM      4  O   UNL     1       4.080  11.982   8.360  1.00  0.00    -0.482 OA
ATOM      5  C   UNL     1       3.568  11.706   9.632  1.00  0.00     0.131 A 
ATOM      6  C   UNL     1       4.388  11.886  10.748  1.00  0.00     0.093 A 
ATOM      7  C   UNL     1       3.897  11.632  12.033  1.00  0.00     0.122 A 
ATOM      8  C   UNL     1       2.578  11.206  12.200  1.00  0.00     0.092 A 
ATOM      9  C   UNL     1       1.741  11.021  11.093  1.00  0.00     0.126 A 
ATOM     10  C   UNL     1       2.246  11.234   9.787  1.00  0.00     0.039 A 
ENDROOT
BRANCH   2  11
ATOM     11  O   UNL     1       1.367  10.936   6.152  1.00  0.00    -0.389 OA
ATOM     12  H   UNL     1       1.780  10.367   5.452  1.00  0.00     0.211 HD
ENDBRANCH   2  11
BRANCH   3  13
ATOM     13  C   UNL     1       4.121  11.864   5.962  1.00  0.00    -0.001 A 
ATOM     14  C   UNL     1       4.585  13.003   5.282  1.00  0.00     0.057 A 
ATOM     15  C   UNL     1       4.508  10.592   5.510  1.00  0.00     0.012 A 
ATOM     16  C   UNL     1       5.408  12.873   4.154  1.00  0.00     0.157 A 
ATOM     17  C   UNL     1       5.327  10.460   4.386  1.00  0.00     0.050 A 
ATOM     18  C   UNL     1       5.779  11.594   3.704  1.00  0.00     0.157 A 
BRANCH  16  19
ATOM     19  O   UNL     1       5.859  14.008   3.482  1.00  0.00    -0.504 OA
ATOM     20  H   UNL     1       6.704  13.993   2.922  1.00  0.00     0.293 HD
ENDBRANCH  16  19
BRANCH  18  21
ATOM     21  O   UNL     1       6.596  11.432   2.585  1.00  0.00    -0.504 OA
ATOM     22  H   UNL     1       6.641  10.561   2.073  1.00  0.00     0.293 HD
ENDBRANCH  18  21
ENDBRANCH   3  13
BRANCH   9  23
ATOM     23  O   UNL     1       0.418  10.638  11.326  1.00  0.00    -0.507 OA
ATOM     24  H   UNL     1      -0.364  11.276  11.268  1.00  0.00     0.293 HD
ENDBRANCH   9  23
BRANCH   7  25
ATOM     25  O   UNL     1       4.709  11.809  13.151  1.00  0.00    -0.508 OA
ATOM     26  H   UNL     1       5.278  12.639  13.266  1.00  0.00     0.293 HD
ENDBRANCH   7  25
TORSDOF 6
ENDMDL
