MODEL 1
REMARK VINA RESULT:    -3.713      0.000      0.000
REMARK INTER + INTRA:          -3.822
REMARK INTER:                  -3.822
REMARK INTRA:                   0.000
REMARK UNBOUND:                 0.000
REMARK SMILES CC1(C)[C@H]2CC[C@](C)(C2)[C@@H]1O
REMARK SMILES IDX 1 1 2 2 4 3 5 4 6 5 7 6 9 7 10 8 8 9 3 10 11 11
REMARK H PARENT 11 12
REMARK Flexibility Score: inf
ROOT
ATOM      1  C   UNL     1     163.183 174.221 171.031  1.00  0.00     0.014 C 
ATOM      2  C   UNL     1     164.065 173.019 170.615  1.00  0.00    -0.006 C 
ATOM      3  C   UNL     1     163.440 171.629 170.976  1.00  0.00    -0.002 C 
ATOM      4  C   UNL     1     161.966 171.541 170.529  1.00  0.00     0.005 C 
ATOM      5  C   UNL     1     162.076 171.534 168.996  1.00  0.00     0.010 C 
ATOM      6  C   UNL     1     163.605 171.507 168.764  1.00  0.00    -0.006 C 
ATOM      7  C   UNL     1     164.082 170.706 169.955  1.00  0.00     0.013 C 
ATOM      8  C   UNL     1     164.184 172.919 169.055  1.00  0.00     0.126 C 
ATOM      9  C   UNL     1     164.001 170.912 167.406  1.00  0.00     0.014 C 
ATOM     10  C   UNL     1     165.432 173.179 171.332  1.00  0.00     0.014 C 
ENDROOT
BRANCH   8  11
ATOM     11  O   UNL     1     165.519 173.005 168.616  1.00  0.00    -0.392 OA
ATOM     12  H   UNL     1     165.973 173.650 169.217  1.00  0.00     0.211 HD
ENDBRANCH   8  11
TORSDOF 1
ENDMDL
MODEL 2
REMARK VINA RESULT:    -3.711      8.861      9.872
REMARK INTER + INTRA:          -3.819
REMARK INTER:                  -3.819
REMARK INTRA:                   0.000
REMARK UNBOUND:                 0.000
REMARK SMILES CC1(C)[C@H]2CC[C@](C)(C2)[C@@H]1O
REMARK SMILES IDX 1 1 2 2 4 3 5 4 6 5 7 6 9 7 10 8 8 9 3 10 11 11
REMARK H PARENT 11 12
REMARK Flexibility Score: inf
ROOT
ATOM      1  C   UNL     1     157.017 163.239 171.031  1.00  0.00     0.014 C 
ATOM      2  C   UNL     1     158.218 164.111 170.592  1.00  0.00    -0.006 C 
ATOM      3  C   UNL     1     159.610 163.485 170.947  1.00  0.00    -0.002 C 
ATOM      4  C   UNL     1     159.687 162.005 170.516  1.00  0.00     0.005 C 
ATOM      5  C   UNL     1     159.678 162.097 168.983  1.00  0.00     0.010 C 
ATOM      6  C   UNL     1     159.709 163.623 168.732  1.00  0.00    -0.006 C 
ATOM      7  C   UNL     1     160.524 164.111 169.908  1.00  0.00     0.013 C 
ATOM      8  C   UNL     1     158.303 164.210 169.030  1.00  0.00     0.126 C 
ATOM      9  C   UNL     1     160.291 163.999 167.363  1.00  0.00     0.014 C 
ATOM     10  C   UNL     1     158.071 165.487 171.295  1.00  0.00     0.014 C 
ENDROOT
BRANCH   8  11
ATOM     11  O   UNL     1     158.217 165.540 168.576  1.00  0.00    -0.392 OA
ATOM     12  H   UNL     1     157.464 165.959 169.067  1.00  0.00     0.211 HD
ENDBRANCH   8  11
TORSDOF 1
ENDMDL
MODEL 3
REMARK VINA RESULT:    -3.699     12.509     13.994
REMARK INTER + INTRA:          -3.808
REMARK INTER:                  -3.808
REMARK INTRA:                   0.000
REMARK UNBOUND:                 0.000
REMARK SMILES CC1(C)[C@H]2CC[C@](C)(C2)[C@@H]1O
REMARK SMILES IDX 1 1 2 2 4 3 5 4 6 5 7 6 9 7 10 8 8 9 3 10 11 11
REMARK H PARENT 11 12
REMARK Flexibility Score: inf
ROOT
ATOM      1  C   UNL     1     167.962 157.010 171.092  1.00  0.00     0.014 C 
ATOM      2  C   UNL     1     167.094 158.215 170.655  1.00  0.00    -0.006 C 
ATOM      3  C   UNL     1     167.730 159.604 171.001  1.00  0.00    -0.002 C 
ATOM      4  C   UNL     1     169.207 159.671 170.560  1.00  0.00     0.005 C 
ATOM      5  C   UNL     1     169.105 159.658 169.028  1.00  0.00     0.010 C 
ATOM      6  C   UNL     1     167.579 159.697 168.786  1.00  0.00    -0.006 C 
ATOM      7  C   UNL     1     167.102 160.518 169.963  1.00  0.00     0.013 C 
ATOM      8  C   UNL     1     166.985 158.295 169.093  1.00  0.00     0.126 C 
ATOM      9  C   UNL     1     167.196 160.276 167.418  1.00  0.00     0.014 C 
ATOM     10  C   UNL     1     165.722 158.078 171.367  1.00  0.00     0.014 C 
ENDROOT
BRANCH   8  11
ATOM     11  O   UNL     1     165.652 158.215 168.647  1.00  0.00    -0.392 OA
ATOM     12  H   UNL     1     165.079 158.309 169.452  1.00  0.00     0.211 HD
ENDBRANCH   8  11
TORSDOF 1
ENDMDL
MODEL 4
REMARK VINA RESULT:    -3.690      8.879      9.887
REMARK INTER + INTRA:          -3.798
REMARK INTER:                  -3.798
REMARK INTRA:                   0.000
REMARK UNBOUND:                 0.000
REMARK SMILES CC1(C)[C@H]2CC[C@](C)(C2)[C@@H]1O
REMARK SMILES IDX 1 1 2 2 4 3 5 4 6 5 7 6 9 7 10 8 8 9 3 10 11 11
REMARK H PARENT 11 12
REMARK Flexibility Score: inf
ROOT
ATOM      1  C   UNL     1     174.002 167.925 171.030  1.00  0.00     0.014 C 
ATOM      2  C   UNL     1     172.864 167.010 170.516  1.00  0.00    -0.006 C 
ATOM      3  C   UNL     1     171.430 167.583 170.783  1.00  0.00    -0.002 C 
ATOM      4  C   UNL     1     171.325 169.060 170.351  1.00  0.00     0.005 C 
ATOM      5  C   UNL     1     171.433 168.975 168.821  1.00  0.00     0.010 C 
ATOM      6  C   UNL     1     171.475 167.450 168.566  1.00  0.00    -0.006 C 
ATOM      7  C   UNL     1     170.607 166.927 169.688  1.00  0.00     0.013 C 
ATOM      8  C   UNL     1     172.881 166.914 168.951  1.00  0.00     0.126 C 
ATOM      9  C   UNL     1     170.995 167.057 167.162  1.00  0.00     0.014 C 
ATOM     10  C   UNL     1     173.018 165.639 171.224  1.00  0.00     0.014 C 
ENDROOT
BRANCH   8  11
ATOM     11  O   UNL     1     173.045 165.590 168.501  1.00  0.00    -0.392 OA
ATOM     12  H   UNL     1     173.691 165.625 167.749  1.00  0.00     0.211 HD
ENDBRANCH   8  11
TORSDOF 1
ENDMDL
MODEL 5
REMARK VINA RESULT:    -3.664     12.389     13.875
REMARK INTER + INTRA:          -3.771
REMARK INTER:                  -3.771
REMARK INTRA:                   0.000
REMARK UNBOUND:                 0.000
REMARK SMILES CC1(C)[C@H]2CC[C@](C)(C2)[C@@H]1O
REMARK SMILES IDX 1 1 2 2 4 3 5 4 6 5 7 6 9 7 10 8 8 9 3 10 11 11
REMARK H PARENT 11 12
REMARK Flexibility Score: inf
ROOT
ATOM      1  C   UNL     1     166.798 161.488 169.116  1.00  0.00     0.014 C 
ATOM      2  C   UNL     1     167.196 160.021 168.823  1.00  0.00    -0.006 C 
ATOM      3  C   UNL     1     168.709 159.716 169.089  1.00  0.00    -0.002 C 
ATOM      4  C   UNL     1     169.157 160.250 170.465  1.00  0.00     0.005 C 
ATOM      5  C   UNL     1     168.398 159.343 171.445  1.00  0.00     0.010 C 
ATOM      6  C   UNL     1     167.699 158.334 170.504  1.00  0.00    -0.006 C 
ATOM      7  C   UNL     1     168.697 158.225 169.374  1.00  0.00     0.013 C 
ATOM      8  C   UNL     1     166.493 159.036 169.821  1.00  0.00     0.126 C 
ATOM      9  C   UNL     1     167.369 156.999 171.185  1.00  0.00     0.014 C 
ATOM     10  C   UNL     1     166.860 159.740 167.334  1.00  0.00     0.014 C 
ENDROOT
BRANCH   8  11
ATOM     11  O   UNL     1     165.685 158.093 169.157  1.00  0.00    -0.392 OA
ATOM     12  H   UNL     1     165.622 158.390 168.213  1.00  0.00     0.211 HD
ENDBRANCH   8  11
TORSDOF 1
ENDMDL
MODEL 6
REMARK VINA RESULT:    -3.657      8.858     10.173
REMARK INTER + INTRA:          -3.764
REMARK INTER:                  -3.764
REMARK INTRA:                   0.000
REMARK UNBOUND:                 0.000
REMARK SMILES CC1(C)[C@H]2CC[C@](C)(C2)[C@@H]1O
REMARK SMILES IDX 1 1 2 2 4 3 5 4 6 5 7 6 9 7 10 8 8 9 3 10 11 11
REMARK H PARENT 11 12
REMARK Flexibility Score: inf
ROOT
ATOM      1  C   UNL     1     161.477 164.355 169.187  1.00  0.00     0.014 C 
ATOM      2  C   UNL     1     160.010 163.977 168.871  1.00  0.00    -0.006 C 
ATOM      3  C   UNL     1     159.688 162.462 169.111  1.00  0.00    -0.002 C 
ATOM      4  C   UNL     1     160.201 161.989 170.486  1.00  0.00     0.005 C 
ATOM      5  C   UNL     1     159.290 162.742 171.467  1.00  0.00     0.010 C 
ATOM      6  C   UNL     1     158.299 163.465 170.525  1.00  0.00    -0.006 C 
ATOM      7  C   UNL     1     158.193 162.485 169.379  1.00  0.00     0.013 C 
ATOM      8  C   UNL     1     159.020 164.673 169.868  1.00  0.00     0.126 C 
ATOM      9  C   UNL     1     156.959 163.798 171.195  1.00  0.00     0.014 C 
ATOM     10  C   UNL     1     159.750 164.337 167.385  1.00  0.00     0.014 C 
ENDROOT
BRANCH   8  11
ATOM     11  O   UNL     1     158.093 165.501 169.206  1.00  0.00    -0.392 OA
ATOM     12  H   UNL     1     157.381 165.711 169.865  1.00  0.00     0.211 HD
ENDBRANCH   8  11
TORSDOF 1
ENDMDL
MODEL 7
REMARK VINA RESULT:    -3.648      8.653      9.944
REMARK INTER + INTRA:          -3.755
REMARK INTER:                  -3.755
REMARK INTRA:                   0.000
REMARK UNBOUND:                 0.000
REMARK SMILES CC1(C)[C@H]2CC[C@](C)(C2)[C@@H]1O
REMARK SMILES IDX 1 1 2 2 4 3 5 4 6 5 7 6 9 7 10 8 8 9 3 10 11 11
REMARK H PARENT 11 12
REMARK Flexibility Score: inf
ROOT
ATOM      1  C   UNL     1     169.697 166.849 169.210  1.00  0.00     0.014 C 
ATOM      2  C   UNL     1     171.162 167.229 168.886  1.00  0.00    -0.006 C 
ATOM      3  C   UNL     1     171.486 168.741 169.134  1.00  0.00    -0.002 C 
ATOM      4  C   UNL     1     170.984 169.205 170.517  1.00  0.00     0.005 C 
ATOM      5  C   UNL     1     171.903 168.443 171.485  1.00  0.00     0.010 C 
ATOM      6  C   UNL     1     172.886 167.727 170.530  1.00  0.00    -0.006 C 
ATOM      7  C   UNL     1     172.983 168.716 169.391  1.00  0.00     0.013 C 
ATOM      8  C   UNL     1     172.158 166.524 169.869  1.00  0.00     0.126 C 
ATOM      9  C   UNL     1     174.230 167.389 171.188  1.00  0.00     0.014 C 
ATOM     10  C   UNL     1     171.410 166.880 167.395  1.00  0.00     0.014 C 
ENDROOT
BRANCH   8  11
ATOM     11  O   UNL     1     173.080 165.701 169.194  1.00  0.00    -0.392 OA
ATOM     12  H   UNL     1     172.553 164.973 168.774  1.00  0.00     0.211 HD
ENDBRANCH   8  11
TORSDOF 1
ENDMDL
MODEL 8
REMARK VINA RESULT:    -3.636      0.950      3.055
REMARK INTER + INTRA:          -3.742
REMARK INTER:                  -3.742
REMARK INTRA:                   0.000
REMARK UNBOUND:                 0.000
REMARK SMILES CC1(C)[C@H]2CC[C@](C)(C2)[C@@H]1O
REMARK SMILES IDX 1 1 2 2 4 3 5 4 6 5 7 6 9 7 10 8 8 9 3 10 11 11
REMARK H PARENT 11 12
REMARK Flexibility Score: inf
ROOT
ATOM      1  C   UNL     1     164.355 169.771 169.152  1.00  0.00     0.014 C 
ATOM      2  C   UNL     1     164.039 171.252 168.830  1.00  0.00    -0.006 C 
ATOM      3  C   UNL     1     162.525 171.620 168.997  1.00  0.00    -0.002 C 
ATOM      4  C   UNL     1     161.968 171.112 170.343  1.00  0.00     0.005 C 
ATOM      5  C   UNL     1     162.699 171.992 171.367  1.00  0.00     0.010 C 
ATOM      6  C   UNL     1     163.499 172.967 170.471  1.00  0.00    -0.006 C 
ATOM      7  C   UNL     1     162.580 173.111 169.279  1.00  0.00     0.013 C 
ATOM      8  C   UNL     1     164.715 172.212 169.868  1.00  0.00     0.126 C 
ATOM      9  C   UNL     1     163.839 174.290 171.169  1.00  0.00     0.014 C 
ATOM     10  C   UNL     1     164.480 171.511 167.366  1.00  0.00     0.014 C 
ENDROOT
BRANCH   8  11
ATOM     11  O   UNL     1     165.603 173.117 169.257  1.00  0.00    -0.392 OA
ATOM     12  H   UNL     1     165.779 172.768 168.344  1.00  0.00     0.211 HD
ENDBRANCH   8  11
TORSDOF 1
ENDMDL
MODEL 9
REMARK VINA RESULT:    -3.570      8.266      9.132
REMARK INTER + INTRA:          -3.674
REMARK INTER:                  -3.674
REMARK INTRA:                   0.000
REMARK UNBOUND:                 0.000
REMARK SMILES CC1(C)[C@H]2CC[C@](C)(C2)[C@@H]1O
REMARK SMILES IDX 1 1 2 2 4 3 5 4 6 5 7 6 9 7 10 8 8 9 3 10 11 11
REMARK H PARENT 11 12
REMARK Flexibility Score: inf
ROOT
ATOM      1  C   UNL     1     170.889 169.536 170.765  1.00  0.00     0.014 C 
ATOM      2  C   UNL     1     171.801 168.327 170.444  1.00  0.00    -0.006 C 
ATOM      3  C   UNL     1     171.112 166.941 170.687  1.00  0.00    -0.002 C 
ATOM      4  C   UNL     1     169.711 166.889 170.044  1.00  0.00     0.005 C 
ATOM      5  C   UNL     1     170.025 166.912 168.541  1.00  0.00     0.010 C 
ATOM      6  C   UNL     1     171.571 166.862 168.514  1.00  0.00    -0.006 C 
ATOM      7  C   UNL     1     171.872 166.029 169.740  1.00  0.00     0.013 C 
ATOM      8  C   UNL     1     172.126 168.257 168.912  1.00  0.00     0.126 C 
ATOM      9  C   UNL     1     172.136 166.288 167.208  1.00  0.00     0.014 C 
ATOM     10  C   UNL     1     173.061 168.448 171.341  1.00  0.00     0.014 C 
ENDROOT
BRANCH   8  11
ATOM     11  O   UNL     1     173.509 168.328 168.658  1.00  0.00    -0.392 OA
ATOM     12  H   UNL     1     173.620 168.254 167.674  1.00  0.00     0.211 HD
ENDBRANCH   8  11
TORSDOF 1
ENDMDL
