MODEL 1
REMARK VINA RESULT:    -5.184      0.000      0.000
REMARK INTER + INTRA:         -11.474
REMARK INTER:                  -9.730
REMARK INTRA:                  -1.744
REMARK UNBOUND:                -1.744
REMARK SMILES O=C([O-])CCCCCCCCCCCCCCC(=O)[O-]
REMARK SMILES IDX 10 1 9 2 8 3 7 4 6 5 5 6 4 7 2 8 1 9 3 10 11 11 12 12 13 13
REMARK SMILES IDX 14 14 15 15 16 16 17 17 18 18 19 19 20 20
REMARK H PARENT
REMARK Flexibility Score: inf
ROOT
ATOM      1  C   UNL     1      61.829  28.930  13.707  1.00  0.00     0.000 C 
ENDROOT
BRANCH   1   2
ATOM      2  C   UNL     1      61.374  30.294  14.259  1.00  0.00     0.000 C 
BRANCH   2   3
ATOM      3  C   UNL     1      61.932  31.483  13.456  1.00  0.00     0.000 C 
BRANCH   3   4
ATOM      4  C   UNL     1      60.945  32.660  13.383  1.00  0.00     0.000 C 
BRANCH   4   5
ATOM      5  C   UNL     1      60.148  32.842  14.686  1.00  0.00     0.000 C 
BRANCH   5   6
ATOM      6  C   UNL     1      60.749  33.923  15.604  1.00  0.00     0.006 C 
BRANCH   6   7
ATOM      7  C   UNL     1      61.724  33.383  16.663  1.00  0.00     0.053 C 
BRANCH   7   8
ATOM      8  C   UNL     1      61.860  34.314  17.828  1.00  0.00     0.041 C 
ATOM      9  O   UNL     1      60.958  34.367  18.705  1.00  0.00    -0.550 OA
ATOM     10  O   UNL     1      62.998  35.099  17.962  1.00  0.00    -0.550 OA
ENDBRANCH   7   8
ENDBRANCH   6   7
ENDBRANCH   5   6
ENDBRANCH   4   5
ENDBRANCH   3   4
ENDBRANCH   2   3
ENDBRANCH   1   2
BRANCH   1  11
ATOM     11  C   UNL     1      60.777  28.172  12.877  1.00  0.00     0.000 C 
BRANCH  11  12
ATOM     12  C   UNL     1      59.671  29.091  12.329  1.00  0.00     0.000 C 
BRANCH  12  13
ATOM     13  C   UNL     1      59.632  29.113  10.792  1.00  0.00     0.000 C 
BRANCH  13  14
ATOM     14  C   UNL     1      60.885  29.752  10.174  1.00  0.00     0.000 C 
BRANCH  14  15
ATOM     15  C   UNL     1      61.615  28.755   9.262  1.00  0.00     0.000 C 
BRANCH  15  16
ATOM     16  C   UNL     1      63.143  28.822   9.413  1.00  0.00     0.006 C 
BRANCH  16  17
ATOM     17  C   UNL     1      63.583  29.742  10.560  1.00  0.00     0.053 C 
BRANCH  17  18
ATOM     18  C   UNL     1      64.551  30.769  10.064  1.00  0.00     0.041 C 
ATOM     19  O   UNL     1      65.360  30.485   9.143  1.00  0.00    -0.550 OA
ATOM     20  O   UNL     1      64.595  32.027  10.654  1.00  0.00    -0.550 OA
ENDBRANCH  17  18
ENDBRANCH  16  17
ENDBRANCH  15  16
ENDBRANCH  14  15
ENDBRANCH  13  14
ENDBRANCH  12  13
ENDBRANCH  11  12
ENDBRANCH   1  11
TORSDOF 15
ENDMDL
MODEL 2
REMARK VINA RESULT:    -5.041      2.983      4.146
REMARK INTER + INTRA:         -11.205
REMARK INTER:                  -9.210
REMARK INTRA:                  -1.995
REMARK UNBOUND:                -1.744
REMARK SMILES O=C([O-])CCCCCCCCCCCCCCC(=O)[O-]
REMARK SMILES IDX 10 1 9 2 8 3 7 4 6 5 5 6 4 7 2 8 1 9 3 10 11 11 12 12 13 13
REMARK SMILES IDX 14 14 15 15 16 16 17 17 18 18 19 19 20 20
REMARK H PARENT
REMARK Flexibility Score: inf
ROOT
ATOM      1  C   UNL     1      63.225  30.581  13.017  1.00  0.00     0.000 C 
ENDROOT
BRANCH   1   2
ATOM      2  C   UNL     1      63.288  31.997  12.411  1.00  0.00     0.000 C 
BRANCH   2   3
ATOM      3  C   UNL     1      64.120  32.975  13.261  1.00  0.00     0.000 C 
BRANCH   3   4
ATOM      4  C   UNL     1      64.013  32.685  14.768  1.00  0.00     0.000 C 
BRANCH   4   5
ATOM      5  C   UNL     1      63.419  33.866  15.555  1.00  0.00     0.000 C 
BRANCH   5   6
ATOM      6  C   UNL     1      62.060  33.528  16.196  1.00  0.00     0.006 C 
BRANCH   6   7
ATOM      7  C   UNL     1      60.885  33.488  15.205  1.00  0.00     0.053 C 
BRANCH   7   8
ATOM      8  C   UNL     1      60.334  32.105  15.042  1.00  0.00     0.041 C 
ATOM      9  O   UNL     1      60.765  31.163  15.758  1.00  0.00    -0.550 OA
ATOM     10  O   UNL     1      59.322  31.863  14.122  1.00  0.00    -0.550 OA
ENDBRANCH   7   8
ENDBRANCH   6   7
ENDBRANCH   5   6
ENDBRANCH   4   5
ENDBRANCH   3   4
ENDBRANCH   2   3
ENDBRANCH   1   2
BRANCH   1  11
ATOM     11  C   UNL     1      63.454  29.429  12.021  1.00  0.00     0.000 C 
BRANCH  11  12
ATOM     12  C   UNL     1      63.869  29.920  10.623  1.00  0.00     0.000 C 
BRANCH  12  13
ATOM     13  C   UNL     1      63.353  29.005   9.500  1.00  0.00     0.000 C 
BRANCH  13  14
ATOM     14  C   UNL     1      61.919  29.345   9.065  1.00  0.00     0.000 C 
BRANCH  14  15
ATOM     15  C   UNL     1      60.928  28.286   9.569  1.00  0.00     0.000 C 
BRANCH  15  16
ATOM     16  C   UNL     1      59.627  28.902  10.108  1.00  0.00     0.006 C 
BRANCH  16  17
ATOM     17  C   UNL     1      59.822  29.611  11.455  1.00  0.00     0.053 C 
BRANCH  17  18
ATOM     18  C   UNL     1      59.538  28.673  12.585  1.00  0.00     0.041 C 
ATOM     19  O   UNL     1      60.398  28.485  13.484  1.00  0.00    -0.550 OA
ATOM     20  O   UNL     1      58.342  27.967  12.619  1.00  0.00    -0.550 OA
ENDBRANCH  17  18
ENDBRANCH  16  17
ENDBRANCH  15  16
ENDBRANCH  14  15
ENDBRANCH  13  14
ENDBRANCH  12  13
ENDBRANCH  11  12
ENDBRANCH   1  11
TORSDOF 15
ENDMDL
MODEL 3
REMARK VINA RESULT:    -5.021     11.516     14.437
REMARK INTER + INTRA:         -11.167
REMARK INTER:                  -9.016
REMARK INTRA:                  -2.151
REMARK UNBOUND:                -1.744
REMARK SMILES O=C([O-])CCCCCCCCCCCCCCC(=O)[O-]
REMARK SMILES IDX 10 1 9 2 8 3 7 4 6 5 5 6 4 7 2 8 1 9 3 10 11 11 12 12 13 13
REMARK SMILES IDX 14 14 15 15 16 16 17 17 18 18 19 19 20 20
REMARK H PARENT
REMARK Flexibility Score: inf
ROOT
ATOM      1  C   UNL     1      64.925  28.895  25.863  1.00  0.00     0.000 C 
ENDROOT
BRANCH   1   2
ATOM      2  C   UNL     1      64.867  29.877  24.678  1.00  0.00     0.000 C 
BRANCH   2   3
ATOM      3  C   UNL     1      66.179  29.924  23.873  1.00  0.00     0.000 C 
BRANCH   3   4
ATOM      4  C   UNL     1      66.812  28.534  23.697  1.00  0.00     0.000 C 
BRANCH   4   5
ATOM      5  C   UNL     1      66.745  28.036  22.242  1.00  0.00     0.000 C 
BRANCH   5   6
ATOM      6  C   UNL     1      66.021  26.682  22.111  1.00  0.00     0.006 C 
BRANCH   6   7
ATOM      7  C   UNL     1      65.436  26.147  23.429  1.00  0.00     0.053 C 
BRANCH   7   8
ATOM      8  C   UNL     1      63.941  26.221  23.450  1.00  0.00     0.041 C 
ATOM      9  O   UNL     1      63.347  27.198  22.923  1.00  0.00    -0.550 OA
ATOM     10  O   UNL     1      63.202  25.195  24.025  1.00  0.00    -0.550 OA
ENDBRANCH   7   8
ENDBRANCH   6   7
ENDBRANCH   5   6
ENDBRANCH   4   5
ENDBRANCH   3   4
ENDBRANCH   2   3
ENDBRANCH   1   2
BRANCH   1  11
ATOM     11  C   UNL     1      64.566  29.496  27.234  1.00  0.00     0.000 C 
BRANCH  11  12
ATOM     12  C   UNL     1      63.385  30.479  27.165  1.00  0.00     0.000 C 
BRANCH  12  13
ATOM     13  C   UNL     1      62.604  30.556  28.488  1.00  0.00     0.000 C 
BRANCH  13  14
ATOM     14  C   UNL     1      62.286  29.171  29.072  1.00  0.00     0.000 C 
BRANCH  14  15
ATOM     15  C   UNL     1      60.957  28.636  28.518  1.00  0.00     0.000 C 
BRANCH  15  16
ATOM     16  C   UNL     1      61.065  27.186  28.018  1.00  0.00     0.006 C 
BRANCH  16  17
ATOM     17  C   UNL     1      61.747  27.084  26.647  1.00  0.00     0.053 C 
BRANCH  17  18
ATOM     18  C   UNL     1      60.860  27.640  25.579  1.00  0.00     0.041 C 
ATOM     19  O   UNL     1      61.188  28.688  24.965  1.00  0.00    -0.550 OA
ATOM     20  O   UNL     1      59.644  27.029  25.297  1.00  0.00    -0.550 OA
ENDBRANCH  17  18
ENDBRANCH  16  17
ENDBRANCH  15  16
ENDBRANCH  14  15
ENDBRANCH  13  14
ENDBRANCH  12  13
ENDBRANCH  11  12
ENDBRANCH   1  11
TORSDOF 15
ENDMDL
MODEL 4
REMARK VINA RESULT:    -4.979      2.317      3.562
REMARK INTER + INTRA:         -11.089
REMARK INTER:                  -9.746
REMARK INTRA:                  -1.343
REMARK UNBOUND:                -1.744
REMARK SMILES O=C([O-])CCCCCCCCCCCCCCC(=O)[O-]
REMARK SMILES IDX 10 1 9 2 8 3 7 4 6 5 5 6 4 7 2 8 1 9 3 10 11 11 12 12 13 13
REMARK SMILES IDX 14 14 15 15 16 16 17 17 18 18 19 19 20 20
REMARK H PARENT
REMARK Flexibility Score: inf
ROOT
ATOM      1  C   UNL     1      63.989  31.934  11.866  1.00  0.00     0.000 C 
ENDROOT
BRANCH   1   2
ATOM      2  C   UNL     1      62.693  31.604  12.631  1.00  0.00     0.000 C 
BRANCH   2   3
ATOM      3  C   UNL     1      62.242  32.742  13.564  1.00  0.00     0.000 C 
BRANCH   3   4
ATOM      4  C   UNL     1      60.742  32.669  13.899  1.00  0.00     0.000 C 
BRANCH   4   5
ATOM      5  C   UNL     1      60.353  33.593  15.066  1.00  0.00     0.000 C 
BRANCH   5   6
ATOM      6  C   UNL     1      61.542  33.908  15.995  1.00  0.00     0.006 C 
BRANCH   6   7
ATOM      7  C   UNL     1      61.553  33.102  17.304  1.00  0.00     0.053 C 
BRANCH   7   8
ATOM      8  C   UNL     1      61.755  33.978  18.501  1.00  0.00     0.041 C 
ATOM      9  O   UNL     1      60.862  34.057  19.386  1.00  0.00    -0.550 OA
ATOM     10  O   UNL     1      62.942  34.683  18.656  1.00  0.00    -0.550 OA
ENDBRANCH   7   8
ENDBRANCH   6   7
ENDBRANCH   5   6
ENDBRANCH   4   5
ENDBRANCH   3   4
ENDBRANCH   2   3
ENDBRANCH   1   2
BRANCH   1  11
ATOM     11  C   UNL     1      64.387  30.920  10.777  1.00  0.00     0.000 C 
BRANCH  11  12
ATOM     12  C   UNL     1      63.532  29.641  10.810  1.00  0.00     0.000 C 
BRANCH  12  13
ATOM     13  C   UNL     1      63.397  28.987   9.425  1.00  0.00     0.000 C 
BRANCH  13  14
ATOM     14  C   UNL     1      61.949  28.600   9.087  1.00  0.00     0.000 C 
BRANCH  14  15
ATOM     15  C   UNL     1      60.980  29.732   9.461  1.00  0.00     0.000 C 
BRANCH  15  16
ATOM     16  C   UNL     1      59.768  29.232  10.265  1.00  0.00     0.006 C 
BRANCH  16  17
ATOM     17  C   UNL     1      59.789  29.710  11.723  1.00  0.00     0.053 C 
BRANCH  17  18
ATOM     18  C   UNL     1      59.829  28.541  12.656  1.00  0.00     0.041 C 
ATOM     19  O   UNL     1      60.921  28.165  13.155  1.00  0.00    -0.550 OA
ATOM     20  O   UNL     1      58.665  27.833  12.933  1.00  0.00    -0.550 OA
ENDBRANCH  17  18
ENDBRANCH  16  17
ENDBRANCH  15  16
ENDBRANCH  14  15
ENDBRANCH  13  14
ENDBRANCH  12  13
ENDBRANCH  11  12
ENDBRANCH   1  11
TORSDOF 15
ENDMDL
MODEL 5
REMARK VINA RESULT:    -4.977      3.030      6.735
REMARK INTER + INTRA:         -11.086
REMARK INTER:                  -8.852
REMARK INTRA:                  -2.234
REMARK UNBOUND:                -1.744
REMARK SMILES O=C([O-])CCCCCCCCCCCCCCC(=O)[O-]
REMARK SMILES IDX 10 1 9 2 8 3 7 4 6 5 5 6 4 7 2 8 1 9 3 10 11 11 12 12 13 13
REMARK SMILES IDX 14 14 15 15 16 16 17 17 18 18 19 19 20 20
REMARK H PARENT
REMARK Flexibility Score: inf
ROOT
ATOM      1  C   UNL     1      63.348  30.295  12.912  1.00  0.00     0.000 C 
ENDROOT
BRANCH   1   2
ATOM      2  C   UNL     1      63.492  29.374  11.685  1.00  0.00     0.000 C 
BRANCH   2   3
ATOM      3  C   UNL     1      63.520  30.148  10.354  1.00  0.00     0.000 C 
BRANCH   3   4
ATOM      4  C   UNL     1      62.385  29.728   9.405  1.00  0.00     0.000 C 
BRANCH   4   5
ATOM      5  C   UNL     1      61.525  28.590   9.982  1.00  0.00     0.000 C 
BRANCH   5   6
ATOM      6  C   UNL     1      60.064  29.014  10.223  1.00  0.00     0.006 C 
BRANCH   6   7
ATOM      7  C   UNL     1      59.812  29.667  11.591  1.00  0.00     0.053 C 
BRANCH   7   8
ATOM      8  C   UNL     1      59.603  28.650  12.670  1.00  0.00     0.041 C 
ATOM      9  O   UNL     1      60.526  28.394  13.488  1.00  0.00    -0.550 OA
ATOM     10  O   UNL     1      58.377  28.007  12.792  1.00  0.00    -0.550 OA
ENDBRANCH   7   8
ENDBRANCH   6   7
ENDBRANCH   5   6
ENDBRANCH   4   5
ENDBRANCH   3   4
ENDBRANCH   2   3
ENDBRANCH   1   2
BRANCH   1  11
ATOM     11  C   UNL     1      63.093  31.780  12.593  1.00  0.00     0.000 C 
BRANCH  11  12
ATOM     12  C   UNL     1      64.002  32.729  13.394  1.00  0.00     0.000 C 
BRANCH  12  13
ATOM     13  C   UNL     1      64.572  32.068  14.660  1.00  0.00     0.000 C 
BRANCH  13  14
ATOM     14  C   UNL     1      64.106  32.758  15.952  1.00  0.00     0.000 C 
BRANCH  14  15
ATOM     15  C   UNL     1      63.139  33.909  15.639  1.00  0.00     0.000 C 
BRANCH  15  16
ATOM     16  C   UNL     1      61.729  33.667  16.202  1.00  0.00     0.006 C 
BRANCH  16  17
ATOM     17  C   UNL     1      60.664  33.563  15.102  1.00  0.00     0.053 C 
BRANCH  17  18
ATOM     18  C   UNL     1      60.227  32.142  14.931  1.00  0.00     0.041 C 
ATOM     19  O   UNL     1      59.186  31.874  14.278  1.00  0.00    -0.550 OA
ATOM     20  O   UNL     1      60.943  31.116  15.536  1.00  0.00    -0.550 OA
ENDBRANCH  17  18
ENDBRANCH  16  17
ENDBRANCH  15  16
ENDBRANCH  14  15
ENDBRANCH  13  14
ENDBRANCH  12  13
ENDBRANCH  11  12
ENDBRANCH   1  11
TORSDOF 15
ENDMDL
MODEL 6
REMARK VINA RESULT:    -4.946      0.670      7.108
REMARK INTER + INTRA:         -11.027
REMARK INTER:                  -9.410
REMARK INTRA:                  -1.617
REMARK UNBOUND:                -1.744
REMARK SMILES O=C([O-])CCCCCCCCCCCCCCC(=O)[O-]
REMARK SMILES IDX 10 1 9 2 8 3 7 4 6 5 5 6 4 7 2 8 1 9 3 10 11 11 12 12 13 13
REMARK SMILES IDX 14 14 15 15 16 16 17 17 18 18 19 19 20 20
REMARK H PARENT
REMARK Flexibility Score: inf
ROOT
ATOM      1  C   UNL     1      60.773  29.237  13.645  1.00  0.00     0.000 C 
ENDROOT
BRANCH   1   2
ATOM      2  C   UNL     1      60.527  28.193  12.539  1.00  0.00     0.000 C 
BRANCH   2   3
ATOM      3  C   UNL     1      60.308  28.828  11.154  1.00  0.00     0.000 C 
BRANCH   3   4
ATOM      4  C   UNL     1      61.092  28.108  10.045  1.00  0.00     0.000 C 
BRANCH   4   5
ATOM      5  C   UNL     1      61.883  29.082   9.153  1.00  0.00     0.000 C 
BRANCH   5   6
ATOM      6  C   UNL     1      63.395  29.059   9.445  1.00  0.00     0.006 C 
BRANCH   6   7
ATOM      7  C   UNL     1      63.848  30.062  10.518  1.00  0.00     0.053 C 
BRANCH   7   8
ATOM      8  C   UNL     1      64.894  31.001  10.004  1.00  0.00     0.041 C 
ATOM      9  O   UNL     1      64.897  32.207  10.365  1.00  0.00    -0.550 OA
ATOM     10  O   UNL     1      65.887  30.537   9.150  1.00  0.00    -0.550 OA
ENDBRANCH   7   8
ENDBRANCH   6   7
ENDBRANCH   5   6
ENDBRANCH   4   5
ENDBRANCH   3   4
ENDBRANCH   2   3
ENDBRANCH   1   2
BRANCH   1  11
ATOM     11  C   UNL     1      62.246  29.635  13.858  1.00  0.00     0.000 C 
BRANCH  11  12
ATOM     12  C   UNL     1      62.470  31.155  13.795  1.00  0.00     0.000 C 
BRANCH  12  13
ATOM     13  C   UNL     1      61.513  31.852  12.814  1.00  0.00     0.000 C 
BRANCH  13  14
ATOM     14  C   UNL     1      60.882  33.125  13.399  1.00  0.00     0.000 C 
BRANCH  14  15
ATOM     15  C   UNL     1      60.332  32.864  14.809  1.00  0.00     0.000 C 
BRANCH  15  16
ATOM     16  C   UNL     1      60.738  33.954  15.814  1.00  0.00     0.006 C 
BRANCH  16  17
ATOM     17  C   UNL     1      61.975  33.568  16.637  1.00  0.00     0.053 C 
BRANCH  17  18
ATOM     18  C   UNL     1      62.029  34.362  17.904  1.00  0.00     0.041 C 
ATOM     19  O   UNL     1      62.879  35.279  18.040  1.00  0.00    -0.550 OA
ATOM     20  O   UNL     1      61.172  34.056  18.954  1.00  0.00    -0.550 OA
ENDBRANCH  17  18
ENDBRANCH  16  17
ENDBRANCH  15  16
ENDBRANCH  14  15
ENDBRANCH  13  14
ENDBRANCH  12  13
ENDBRANCH  11  12
ENDBRANCH   1  11
TORSDOF 15
ENDMDL
MODEL 7
REMARK VINA RESULT:    -4.907     11.810     13.782
REMARK INTER + INTRA:         -10.954
REMARK INTER:                  -8.655
REMARK INTRA:                  -2.300
REMARK UNBOUND:                -1.744
REMARK SMILES O=C([O-])CCCCCCCCCCCCCCC(=O)[O-]
REMARK SMILES IDX 10 1 9 2 8 3 7 4 6 5 5 6 4 7 2 8 1 9 3 10 11 11 12 12 13 13
REMARK SMILES IDX 14 14 15 15 16 16 17 17 18 18 19 19 20 20
REMARK H PARENT
REMARK Flexibility Score: inf
ROOT
ATOM      1  C   UNL     1      63.985  29.731  25.843  1.00  0.00     0.000 C 
ENDROOT
BRANCH   1   2
ATOM      2  C   UNL     1      62.952  30.436  26.743  1.00  0.00     0.000 C 
BRANCH   2   3
ATOM      3  C   UNL     1      63.303  30.350  28.240  1.00  0.00     0.000 C 
BRANCH   3   4
ATOM      4  C   UNL     1      62.245  29.582  29.049  1.00  0.00     0.000 C 
BRANCH   4   5
ATOM      5  C   UNL     1      61.122  29.015  28.164  1.00  0.00     0.000 C 
BRANCH   5   6
ATOM      6  C   UNL     1      61.145  27.477  28.087  1.00  0.00     0.006 C 
BRANCH   6   7
ATOM      7  C   UNL     1      61.658  26.917  26.750  1.00  0.00     0.053 C 
BRANCH   7   8
ATOM      8  C   UNL     1      60.736  27.242  25.615  1.00  0.00     0.041 C 
ATOM      9  O   UNL     1      61.099  28.041  24.713  1.00  0.00    -0.550 OA
ATOM     10  O   UNL     1      59.488  26.636  25.537  1.00  0.00    -0.550 OA
ENDBRANCH   7   8
ENDBRANCH   6   7
ENDBRANCH   5   6
ENDBRANCH   4   5
ENDBRANCH   3   4
ENDBRANCH   2   3
ENDBRANCH   1   2
BRANCH   1  11
ATOM     11  C   UNL     1      65.353  29.463  26.497  1.00  0.00     0.000 C 
BRANCH  11  12
ATOM     12  C   UNL     1      66.524  29.585  25.508  1.00  0.00     0.000 C 
BRANCH  12  13
ATOM     13  C   UNL     1      66.154  30.396  24.255  1.00  0.00     0.000 C 
BRANCH  13  14
ATOM     14  C   UNL     1      66.391  29.619  22.951  1.00  0.00     0.000 C 
BRANCH  14  15
ATOM     15  C   UNL     1      66.742  28.153  23.244  1.00  0.00     0.000 C 
BRANCH  15  16
ATOM     16  C   UNL     1      65.764  27.166  22.586  1.00  0.00     0.006 C 
BRANCH  16  17
ATOM     17  C   UNL     1      64.354  27.242  23.186  1.00  0.00     0.053 C 
BRANCH  17  18
ATOM     18  C   UNL     1      64.144  26.133  24.168  1.00  0.00     0.041 C 
ATOM     19  O   UNL     1      63.312  25.221  23.926  1.00  0.00    -0.550 OA
ATOM     20  O   UNL     1      64.832  26.134  25.376  1.00  0.00    -0.550 OA
ENDBRANCH  17  18
ENDBRANCH  16  17
ENDBRANCH  15  16
ENDBRANCH  14  15
ENDBRANCH  13  14
ENDBRANCH  12  13
ENDBRANCH  11  12
ENDBRANCH   1  11
TORSDOF 15
ENDMDL
MODEL 8
REMARK VINA RESULT:    -4.879      1.625      2.302
REMARK INTER + INTRA:         -10.902
REMARK INTER:                  -9.193
REMARK INTRA:                  -1.709
REMARK UNBOUND:                -1.744
REMARK SMILES O=C([O-])CCCCCCCCCCCCCCC(=O)[O-]
REMARK SMILES IDX 10 1 9 2 8 3 7 4 6 5 5 6 4 7 2 8 1 9 3 10 11 11 12 12 13 13
REMARK SMILES IDX 14 14 15 15 16 16 17 17 18 18 19 19 20 20
REMARK H PARENT
REMARK Flexibility Score: inf
ROOT
ATOM      1  C   UNL     1      60.098  28.666  11.759  1.00  0.00     0.000 C 
ENDROOT
BRANCH   1   2
ATOM      2  C   UNL     1      60.163  29.566  13.008  1.00  0.00     0.000 C 
BRANCH   2   3
ATOM      3  C   UNL     1      60.258  31.064  12.662  1.00  0.00     0.000 C 
BRANCH   3   4
ATOM      4  C   UNL     1      59.783  31.965  13.814  1.00  0.00     0.000 C 
BRANCH   4   5
ATOM      5  C   UNL     1      60.735  33.146  14.070  1.00  0.00     0.000 C 
BRANCH   5   6
ATOM      6  C   UNL     1      60.789  33.554  15.555  1.00  0.00     0.006 C 
BRANCH   6   7
ATOM      7  C   UNL     1      62.199  33.884  16.070  1.00  0.00     0.053 C 
BRANCH   7   8
ATOM      8  C   UNL     1      62.172  34.455  17.454  1.00  0.00     0.041 C 
ATOM      9  O   UNL     1      61.138  34.349  18.163  1.00  0.00    -0.550 OA
ATOM     10  O   UNL     1      63.302  35.077  17.972  1.00  0.00    -0.550 OA
ENDBRANCH   7   8
ENDBRANCH   6   7
ENDBRANCH   5   6
ENDBRANCH   4   5
ENDBRANCH   3   4
ENDBRANCH   2   3
ENDBRANCH   1   2
BRANCH   1  11
ATOM     11  C   UNL     1      59.715  29.382  10.451  1.00  0.00     0.000 C 
BRANCH  11  12
ATOM     12  C   UNL     1      60.026  28.545   9.198  1.00  0.00     0.000 C 
BRANCH  12  13
ATOM     13  C   UNL     1      61.529  28.268   9.032  1.00  0.00     0.000 C 
BRANCH  13  14
ATOM     14  C   UNL     1      62.383  29.543   9.123  1.00  0.00     0.000 C 
BRANCH  14  15
ATOM     15  C   UNL     1      63.665  29.287   9.930  1.00  0.00     0.000 C 
BRANCH  15  16
ATOM     16  C   UNL     1      63.589  29.855  11.356  1.00  0.00     0.006 C 
BRANCH  16  17
ATOM     17  C   UNL     1      63.796  31.375  11.399  1.00  0.00     0.053 C 
BRANCH  17  18
ATOM     18  C   UNL     1      63.879  31.851  12.815  1.00  0.00     0.041 C 
ATOM     19  O   UNL     1      64.271  33.020  13.068  1.00  0.00    -0.550 OA
ATOM     20  O   UNL     1      63.571  30.987  13.858  1.00  0.00    -0.550 OA
ENDBRANCH  17  18
ENDBRANCH  16  17
ENDBRANCH  15  16
ENDBRANCH  14  15
ENDBRANCH  13  14
ENDBRANCH  12  13
ENDBRANCH  11  12
ENDBRANCH   1  11
TORSDOF 15
ENDMDL
MODEL 9
REMARK VINA RESULT:    -4.863     11.096     13.987
REMARK INTER + INTRA:         -10.872
REMARK INTER:                  -8.730
REMARK INTRA:                  -2.142
REMARK UNBOUND:                -1.744
REMARK SMILES O=C([O-])CCCCCCCCCCCCCCC(=O)[O-]
REMARK SMILES IDX 10 1 9 2 8 3 7 4 6 5 5 6 4 7 2 8 1 9 3 10 11 11 12 12 13 13
REMARK SMILES IDX 14 14 15 15 16 16 17 17 18 18 19 19 20 20
REMARK H PARENT
REMARK Flexibility Score: inf
ROOT
ATOM      1  C   UNL     1      60.684  27.946  25.371  1.00  0.00     0.000 C 
ENDROOT
BRANCH   1   2
ATOM      2  C   UNL     1      61.982  28.629  24.899  1.00  0.00     0.000 C 
BRANCH   2   3
ATOM      3  C   UNL     1      62.659  27.888  23.731  1.00  0.00     0.000 C 
BRANCH   3   4
ATOM      4  C   UNL     1      63.022  26.437  24.086  1.00  0.00     0.000 C 
BRANCH   4   5
ATOM      5  C   UNL     1      64.237  26.345  25.026  1.00  0.00     0.000 C 
BRANCH   5   6
ATOM      6  C   UNL     1      65.578  26.429  24.272  1.00  0.00     0.006 C 
BRANCH   6   7
ATOM      7  C   UNL     1      65.588  25.704  22.916  1.00  0.00     0.053 C 
BRANCH   7   8
ATOM      8  C   UNL     1      66.133  26.568  21.821  1.00  0.00     0.041 C 
ATOM      9  O   UNL     1      66.370  27.786  22.034  1.00  0.00    -0.550 OA
ATOM     10  O   UNL     1      66.410  26.020  20.575  1.00  0.00    -0.550 OA
ENDBRANCH   7   8
ENDBRANCH   6   7
ENDBRANCH   5   6
ENDBRANCH   4   5
ENDBRANCH   3   4
ENDBRANCH   2   3
ENDBRANCH   1   2
BRANCH   1  11
ATOM     11  C   UNL     1      60.806  27.129  26.670  1.00  0.00     0.000 C 
BRANCH  11  12
ATOM     12  C   UNL     1      61.817  27.729  27.662  1.00  0.00     0.000 C 
BRANCH  12  13
ATOM     13  C   UNL     1      61.268  28.972  28.383  1.00  0.00     0.000 C 
BRANCH  13  14
ATOM     14  C   UNL     1      62.305  30.100  28.498  1.00  0.00     0.000 C 
BRANCH  14  15
ATOM     15  C   UNL     1      63.718  29.576  28.201  1.00  0.00     0.000 C 
BRANCH  15  16
ATOM     16  C   UNL     1      64.399  30.332  27.048  1.00  0.00     0.006 C 
BRANCH  16  17
ATOM     17  C   UNL     1      65.504  29.510  26.373  1.00  0.00     0.053 C 
BRANCH  17  18
ATOM     18  C   UNL     1      65.814  30.064  25.018  1.00  0.00     0.041 C 
ATOM     19  O   UNL     1      66.987  30.009  24.565  1.00  0.00    -0.550 OA
ATOM     20  O   UNL     1      64.818  30.688  24.277  1.00  0.00    -0.550 OA
ENDBRANCH  17  18
ENDBRANCH  16  17
ENDBRANCH  15  16
ENDBRANCH  14  15
ENDBRANCH  13  14
ENDBRANCH  12  13
ENDBRANCH  11  12
ENDBRANCH   1  11
TORSDOF 15
ENDMDL
