MODEL 1
REMARK VINA RESULT:    -7.119      0.000      0.000
REMARK INTER + INTRA:          -8.870
REMARK INTER:                  -8.575
REMARK INTRA:                  -0.294
REMARK UNBOUND:                -0.294
REMARK SMILES Oc1cc(O)c2c(c1)O[C@@H](c1ccc(O)c(O)c1)[C@H](O)C2
REMARK SMILES IDX 21 1 19 2 10 3 9 4 7 5 8 6 2 7 3 8 4 9 6 10 20 11 11 13
REMARK SMILES IDX 18 14 12 15 16 16 13 17 14 18 17 19 15 21 5 23 1 25
REMARK H PARENT 20 12 17 20 15 22 5 24 1 26
REMARK Flexibility Score: inf
ROOT
ATOM      1  C   UNL     1       3.442  -2.759  17.893  1.00  0.00     0.079 C 
ATOM      2  C   UNL     1       2.368  -3.047  16.829  1.00  0.00     0.164 C 
ATOM      3  C   UNL     1       2.487  -2.029  15.680  1.00  0.00     0.232 C 
ATOM      4  O   UNL     1       3.808  -2.056  15.134  1.00  0.00    -0.482 OA
ATOM      5  C   UNL     1       4.944  -2.250  15.927  1.00  0.00     0.131 A 
ATOM      6  C   UNL     1       6.211  -2.096  15.357  1.00  0.00     0.093 A 
ATOM      7  C   UNL     1       7.361  -2.284  16.134  1.00  0.00     0.122 A 
ATOM      8  C   UNL     1       7.240  -2.625  17.484  1.00  0.00     0.092 A 
ATOM      9  C   UNL     1       5.974  -2.788  18.065  1.00  0.00     0.126 A 
ATOM     10  C   UNL     1       4.817  -2.618  17.281  1.00  0.00     0.039 A 
ENDROOT
BRANCH   2  11
ATOM     11  O   UNL     1       1.091  -2.960  17.408  1.00  0.00    -0.389 OA
ATOM     12  H   UNL     1       1.200  -2.476  18.269  1.00  0.00     0.211 HD
ENDBRANCH   2  11
BRANCH   3  13
ATOM     13  C   UNL     1       1.482  -2.316  14.590  1.00  0.00    -0.001 A 
ATOM     14  C   UNL     1       0.288  -1.580  14.516  1.00  0.00     0.057 A 
ATOM     15  C   UNL     1       1.706  -3.354  13.669  1.00  0.00     0.012 A 
ATOM     16  C   UNL     1      -0.662  -1.862  13.523  1.00  0.00     0.157 A 
ATOM     17  C   UNL     1       0.760  -3.635  12.679  1.00  0.00     0.050 A 
ATOM     18  C   UNL     1      -0.422  -2.893  12.600  1.00  0.00     0.157 A 
BRANCH  16  19
ATOM     19  O   UNL     1      -1.842  -1.122  13.454  1.00  0.00    -0.504 OA
ATOM     20  H   UNL     1      -1.833  -0.111  13.400  1.00  0.00     0.293 HD
ENDBRANCH  16  19
BRANCH  18  21
ATOM     21  O   UNL     1      -1.346  -3.197  11.601  1.00  0.00    -0.504 OA
ATOM     22  H   UNL     1      -2.342  -3.060  11.730  1.00  0.00     0.293 HD
ENDBRANCH  18  21
ENDBRANCH   3  13
BRANCH   9  23
ATOM     23  O   UNL     1       5.864  -3.113  19.417  1.00  0.00    -0.507 OA
ATOM     24  H   UNL     1       5.886  -2.401  20.138  1.00  0.00     0.293 HD
ENDBRANCH   9  23
BRANCH   7  25
ATOM     25  O   UNL     1       8.628  -2.131  15.576  1.00  0.00    -0.508 OA
ATOM     26  H   UNL     1       8.770  -2.151  14.572  1.00  0.00     0.293 HD
ENDBRANCH   7  25
TORSDOF 6
ENDMDL
MODEL 2
REMARK VINA RESULT:    -7.025      2.438      6.593
REMARK INTER + INTRA:          -8.756
REMARK INTER:                  -8.385
REMARK INTRA:                  -0.371
REMARK UNBOUND:                -0.294
REMARK SMILES Oc1cc(O)c2c(c1)O[C@@H](c1ccc(O)c(O)c1)[C@H](O)C2
REMARK SMILES IDX 21 1 19 2 10 3 9 4 7 5 8 6 2 7 3 8 4 9 6 10 20 11 11 13
REMARK SMILES IDX 18 14 12 15 16 16 13 17 14 18 17 19 15 21 5 23 1 25
REMARK H PARENT 20 12 17 20 15 22 5 24 1 26
REMARK Flexibility Score: inf
ROOT
ATOM      1  C   UNL     1       1.115  -1.650  16.122  1.00  0.00     0.079 C 
ATOM      2  C   UNL     1       1.984  -1.884  17.370  1.00  0.00     0.164 C 
ATOM      3  C   UNL     1       3.023  -2.983  17.081  1.00  0.00     0.232 C 
ATOM      4  O   UNL     1       3.806  -2.632  15.938  1.00  0.00    -0.482 OA
ATOM      5  C   UNL     1       3.262  -1.970  14.831  1.00  0.00     0.131 A 
ATOM      6  C   UNL     1       4.038  -1.809  13.680  1.00  0.00     0.093 A 
ATOM      7  C   UNL     1       3.513  -1.151  12.562  1.00  0.00     0.122 A 
ATOM      8  C   UNL     1       2.207  -0.654  12.597  1.00  0.00     0.092 A 
ATOM      9  C   UNL     1       1.420  -0.805  13.748  1.00  0.00     0.126 A 
ATOM     10  C   UNL     1       1.953  -1.449  14.881  1.00  0.00     0.039 A 
ENDROOT
BRANCH   2  11
ATOM     11  O   UNL     1       1.172  -2.272  18.449  1.00  0.00    -0.389 OA
ATOM     12  H   UNL     1       0.874  -1.438  18.897  1.00  0.00     0.211 HD
ENDBRANCH   2  11
BRANCH   3  13
ATOM     13  C   UNL     1       3.931  -3.201  18.268  1.00  0.00    -0.001 A 
ATOM     14  C   UNL     1       3.946  -4.441  18.930  1.00  0.00     0.057 A 
ATOM     15  C   UNL     1       4.732  -2.155  18.755  1.00  0.00     0.012 A 
ATOM     16  C   UNL     1       4.766  -4.640  20.050  1.00  0.00     0.157 A 
ATOM     17  C   UNL     1       5.550  -2.352  19.871  1.00  0.00     0.050 A 
ATOM     18  C   UNL     1       5.573  -3.590  20.520  1.00  0.00     0.157 A 
BRANCH  16  19
ATOM     19  O   UNL     1       4.780  -5.875  20.697  1.00  0.00    -0.504 OA
ATOM     20  H   UNL     1       4.607  -5.955  21.693  1.00  0.00     0.293 HD
ENDBRANCH  16  19
BRANCH  18  21
ATOM     21  O   UNL     1       6.400  -3.757  21.631  1.00  0.00    -0.504 OA
ATOM     22  H   UNL     1       7.408  -3.687  21.566  1.00  0.00     0.293 HD
ENDBRANCH  18  21
ENDBRANCH   3  13
BRANCH   9  23
ATOM     23  O   UNL     1       0.113  -0.320  13.768  1.00  0.00    -0.507 OA
ATOM     24  H   UNL     1      -0.664  -0.871  13.423  1.00  0.00     0.293 HD
ENDBRANCH   9  23
BRANCH   7  25
ATOM     25  O   UNL     1       4.278  -0.987  11.409  1.00  0.00    -0.508 OA
ATOM     26  H   UNL     1       5.290  -0.938  11.448  1.00  0.00     0.293 HD
ENDBRANCH   7  25
TORSDOF 6
ENDMDL
MODEL 3
REMARK VINA RESULT:    -6.973      1.437      3.013
REMARK INTER + INTRA:          -8.693
REMARK INTER:                  -8.315
REMARK INTRA:                  -0.378
REMARK UNBOUND:                -0.294
REMARK SMILES Oc1cc(O)c2c(c1)O[C@@H](c1ccc(O)c(O)c1)[C@H](O)C2
REMARK SMILES IDX 21 1 19 2 10 3 9 4 7 5 8 6 2 7 3 8 4 9 6 10 20 11 11 13
REMARK SMILES IDX 18 14 12 15 16 16 13 17 14 18 17 19 15 21 5 23 1 25
REMARK H PARENT 20 12 17 20 15 22 5 24 1 26
REMARK Flexibility Score: inf
ROOT
ATOM      1  C   UNL     1       5.443  -2.274  15.995  1.00  0.00     0.079 C 
ATOM      2  C   UNL     1       4.146  -1.801  15.315  1.00  0.00     0.164 C 
ATOM      3  C   UNL     1       3.006  -2.789  15.626  1.00  0.00     0.232 C 
ATOM      4  O   UNL     1       2.852  -2.934  17.040  1.00  0.00    -0.482 OA
ATOM      5  C   UNL     1       3.942  -2.931  17.917  1.00  0.00     0.131 A 
ATOM      6  C   UNL     1       3.739  -3.247  19.263  1.00  0.00     0.093 A 
ATOM      7  C   UNL     1       4.816  -3.250  20.158  1.00  0.00     0.122 A 
ATOM      8  C   UNL     1       6.100  -2.938  19.701  1.00  0.00     0.092 A 
ATOM      9  C   UNL     1       6.316  -2.614  18.353  1.00  0.00     0.126 A 
ATOM     10  C   UNL     1       5.230  -2.591  17.456  1.00  0.00     0.039 A 
ENDROOT
BRANCH   2  11
ATOM     11  O   UNL     1       4.338  -1.722  13.926  1.00  0.00    -0.389 OA
ATOM     12  H   UNL     1       3.751  -0.991  13.597  1.00  0.00     0.211 HD
ENDBRANCH   2  11
BRANCH   3  13
ATOM     13  C   UNL     1       1.702  -2.326  15.020  1.00  0.00    -0.001 A 
ATOM     14  C   UNL     1       1.086  -1.149  15.480  1.00  0.00     0.057 A 
ATOM     15  C   UNL     1       1.066  -3.090  14.028  1.00  0.00     0.012 A 
ATOM     16  C   UNL     1      -0.139  -0.730  14.941  1.00  0.00     0.157 A 
ATOM     17  C   UNL     1      -0.154  -2.672  13.490  1.00  0.00     0.050 A 
ATOM     18  C   UNL     1      -0.760  -1.495  13.940  1.00  0.00     0.157 A 
BRANCH  16  19
ATOM     19  O   UNL     1      -0.741   0.442  15.399  1.00  0.00    -0.504 OA
ATOM     20  H   UNL     1      -1.578   0.814  14.965  1.00  0.00     0.293 HD
ENDBRANCH  16  19
BRANCH  18  21
ATOM     21  O   UNL     1      -1.977  -1.104  13.383  1.00  0.00    -0.504 OA
ATOM     22  H   UNL     1      -2.188  -0.135  13.177  1.00  0.00     0.293 HD
ENDBRANCH  18  21
ENDBRANCH   3  13
BRANCH   9  23
ATOM     23  O   UNL     1       7.603  -2.319  17.905  1.00  0.00    -0.507 OA
ATOM     24  H   UNL     1       8.422  -2.536  18.461  1.00  0.00     0.293 HD
ENDBRANCH   9  23
BRANCH   7  25
ATOM     25  O   UNL     1       4.624  -3.566  21.500  1.00  0.00    -0.508 OA
ATOM     26  H   UNL     1       5.291  -3.286  22.211  1.00  0.00     0.293 HD
ENDBRANCH   7  25
TORSDOF 6
ENDMDL
MODEL 4
REMARK VINA RESULT:    -6.933      1.537      7.039
REMARK INTER + INTRA:          -8.646
REMARK INTER:                  -8.312
REMARK INTRA:                  -0.334
REMARK UNBOUND:                -0.294
REMARK SMILES Oc1cc(O)c2c(c1)O[C@@H](c1ccc(O)c(O)c1)[C@H](O)C2
REMARK SMILES IDX 21 1 19 2 10 3 9 4 7 5 8 6 2 7 3 8 4 9 6 10 20 11 11 13
REMARK SMILES IDX 18 14 12 15 16 16 13 17 14 18 17 19 15 21 5 23 1 25
REMARK H PARENT 20 12 17 20 15 22 5 24 1 26
REMARK Flexibility Score: inf
ROOT
ATOM      1  C   UNL     1       0.263  -0.929  14.596  1.00  0.00     0.079 C 
ATOM      2  C   UNL     1       1.766  -0.877  14.920  1.00  0.00     0.164 C 
ATOM      3  C   UNL     1       2.197  -2.192  15.596  1.00  0.00     0.232 C 
ATOM      4  O   UNL     1       1.863  -3.306  14.765  1.00  0.00    -0.482 OA
ATOM      5  C   UNL     1       0.694  -3.343  13.997  1.00  0.00     0.131 A 
ATOM      6  C   UNL     1       0.343  -4.527  13.341  1.00  0.00     0.093 A 
ATOM      7  C   UNL     1      -0.823  -4.587  12.568  1.00  0.00     0.122 A 
ATOM      8  C   UNL     1      -1.639  -3.458  12.453  1.00  0.00     0.092 A 
ATOM      9  C   UNL     1      -1.295  -2.263  13.102  1.00  0.00     0.126 A 
ATOM     10  C   UNL     1      -0.113  -2.195  13.864  1.00  0.00     0.039 A 
ENDROOT
BRANCH   2  11
ATOM     11  O   UNL     1       2.031   0.204  15.777  1.00  0.00    -0.389 OA
ATOM     12  H   UNL     1       1.529   0.033  16.617  1.00  0.00     0.211 HD
ENDBRANCH   2  11
BRANCH   3  13
ATOM     13  C   UNL     1       3.681  -2.200  15.879  1.00  0.00    -0.001 A 
ATOM     14  C   UNL     1       4.596  -1.857  14.869  1.00  0.00     0.057 A 
ATOM     15  C   UNL     1       4.165  -2.597  17.136  1.00  0.00     0.012 A 
ATOM     16  C   UNL     1       5.976  -1.890  15.118  1.00  0.00     0.157 A 
ATOM     17  C   UNL     1       5.540  -2.629  17.385  1.00  0.00     0.050 A 
ATOM     18  C   UNL     1       6.448  -2.275  16.383  1.00  0.00     0.157 A 
BRANCH  16  19
ATOM     19  O   UNL     1       6.877  -1.542  14.112  1.00  0.00    -0.504 OA
ATOM     20  H   UNL     1       7.732  -1.038  14.316  1.00  0.00     0.293 HD
ENDBRANCH  16  19
BRANCH  18  21
ATOM     21  O   UNL     1       7.814  -2.317  16.662  1.00  0.00    -0.504 OA
ATOM     22  H   UNL     1       8.327  -1.496  16.959  1.00  0.00     0.293 HD
ENDBRANCH  18  21
ENDBRANCH   3  13
BRANCH   9  23
ATOM     23  O   UNL     1      -2.125  -1.148  12.994  1.00  0.00    -0.507 OA
ATOM     24  H   UNL     1      -1.854  -0.335  12.453  1.00  0.00     0.293 HD
ENDBRANCH   9  23
BRANCH   7  25
ATOM     25  O   UNL     1      -1.181  -5.762  11.912  1.00  0.00    -0.508 OA
ATOM     26  H   UNL     1      -1.929  -6.354  12.257  1.00  0.00     0.293 HD
ENDBRANCH   7  25
TORSDOF 6
ENDMDL
MODEL 5
REMARK VINA RESULT:    -6.858      2.452      6.601
REMARK INTER + INTRA:          -8.556
REMARK INTER:                  -8.260
REMARK INTRA:                  -0.295
REMARK UNBOUND:                -0.294
REMARK SMILES Oc1cc(O)c2c(c1)O[C@@H](c1ccc(O)c(O)c1)[C@H](O)C2
REMARK SMILES IDX 21 1 19 2 10 3 9 4 7 5 8 6 2 7 3 8 4 9 6 10 20 11 11 13
REMARK SMILES IDX 18 14 12 15 16 16 13 17 14 18 17 19 15 21 5 23 1 25
REMARK H PARENT 20 12 17 20 15 22 5 24 1 26
REMARK Flexibility Score: inf
ROOT
ATOM      1  C   UNL     1       0.920  -1.740  16.489  1.00  0.00     0.079 C 
ATOM      2  C   UNL     1       1.767  -2.024  17.742  1.00  0.00     0.164 C 
ATOM      3  C   UNL     1       2.799  -3.125  17.433  1.00  0.00     0.232 C 
ATOM      4  O   UNL     1       3.603  -2.745  16.314  1.00  0.00    -0.482 OA
ATOM      5  C   UNL     1       3.084  -2.042  15.222  1.00  0.00     0.131 A 
ATOM      6  C   UNL     1       3.880  -1.851  14.089  1.00  0.00     0.093 A 
ATOM      7  C   UNL     1       3.380  -1.151  12.985  1.00  0.00     0.122 A 
ATOM      8  C   UNL     1       2.079  -0.642  13.016  1.00  0.00     0.092 A 
ATOM      9  C   UNL     1       1.272  -0.821  14.150  1.00  0.00     0.126 A 
ATOM     10  C   UNL     1       1.780  -1.508  15.269  1.00  0.00     0.039 A 
ENDROOT
BRANCH   2  11
ATOM     11  O   UNL     1       0.934  -2.439  18.795  1.00  0.00    -0.389 OA
ATOM     12  H   UNL     1       0.879  -3.429  18.743  1.00  0.00     0.211 HD
ENDBRANCH   2  11
BRANCH   3  13
ATOM     13  C   UNL     1       3.686  -3.391  18.627  1.00  0.00    -0.001 A 
ATOM     14  C   UNL     1       4.805  -2.576  18.874  1.00  0.00     0.057 A 
ATOM     15  C   UNL     1       3.434  -4.484  19.473  1.00  0.00     0.012 A 
ATOM     16  C   UNL     1       5.648  -2.837  19.964  1.00  0.00     0.157 A 
ATOM     17  C   UNL     1       4.273  -4.743  20.560  1.00  0.00     0.050 A 
ATOM     18  C   UNL     1       5.378  -3.925  20.811  1.00  0.00     0.157 A 
BRANCH  16  19
ATOM     19  O   UNL     1       6.752  -2.020  20.206  1.00  0.00    -0.504 OA
ATOM     20  H   UNL     1       6.896  -1.574  21.104  1.00  0.00     0.293 HD
ENDBRANCH  16  19
BRANCH  18  21
ATOM     21  O   UNL     1       6.197  -4.209  21.904  1.00  0.00    -0.504 OA
ATOM     22  H   UNL     1       5.819  -4.495  22.799  1.00  0.00     0.293 HD
ENDBRANCH  18  21
ENDBRANCH   3  13
BRANCH   9  23
ATOM     23  O   UNL     1      -0.030  -0.323  14.165  1.00  0.00    -0.507 OA
ATOM     24  H   UNL     1      -0.238   0.609  14.504  1.00  0.00     0.293 HD
ENDBRANCH   9  23
BRANCH   7  25
ATOM     25  O   UNL     1       4.165  -0.958  11.850  1.00  0.00    -0.508 OA
ATOM     26  H   UNL     1       4.369  -1.719  11.212  1.00  0.00     0.293 HD
ENDBRANCH   7  25
TORSDOF 6
ENDMDL
MODEL 6
REMARK VINA RESULT:    -6.838      3.019      6.251
REMARK INTER + INTRA:          -8.532
REMARK INTER:                  -8.281
REMARK INTRA:                  -0.250
REMARK UNBOUND:                -0.294
REMARK SMILES Oc1cc(O)c2c(c1)O[C@@H](c1ccc(O)c(O)c1)[C@H](O)C2
REMARK SMILES IDX 21 1 19 2 10 3 9 4 7 5 8 6 2 7 3 8 4 9 6 10 20 11 11 13
REMARK SMILES IDX 18 14 12 15 16 16 13 17 14 18 17 19 15 21 5 23 1 25
REMARK H PARENT 20 12 17 20 15 22 5 24 1 26
REMARK Flexibility Score: inf
ROOT
ATOM      1  C   UNL     1       4.516  -2.624  17.062  1.00  0.00     0.079 C 
ATOM      2  C   UNL     1       3.879  -3.610  18.057  1.00  0.00     0.164 C 
ATOM      3  C   UNL     1       2.696  -2.933  18.774  1.00  0.00     0.232 C 
ATOM      4  O   UNL     1       1.752  -2.448  17.817  1.00  0.00    -0.482 OA
ATOM      5  C   UNL     1       2.142  -1.903  16.589  1.00  0.00     0.131 A 
ATOM      6  C   UNL     1       1.183  -1.294  15.775  1.00  0.00     0.093 A 
ATOM      7  C   UNL     1       1.552  -0.741  14.543  1.00  0.00     0.122 A 
ATOM      8  C   UNL     1       2.885  -0.797  14.127  1.00  0.00     0.092 A 
ATOM      9  C   UNL     1       3.856  -1.410  14.933  1.00  0.00     0.126 A 
ATOM     10  C   UNL     1       3.483  -1.985  16.164  1.00  0.00     0.039 A 
ENDROOT
BRANCH   2  11
ATOM     11  O   UNL     1       4.836  -4.016  19.002  1.00  0.00    -0.389 OA
ATOM     12  H   UNL     1       4.453  -4.799  19.478  1.00  0.00     0.211 HD
ENDBRANCH   2  11
BRANCH   3  13
ATOM     13  C   UNL     1       2.011  -3.891  19.720  1.00  0.00    -0.001 A 
ATOM     14  C   UNL     1       0.968  -4.714  19.262  1.00  0.00     0.057 A 
ATOM     15  C   UNL     1       2.373  -3.936  21.077  1.00  0.00     0.012 A 
ATOM     16  C   UNL     1       0.309  -5.585  20.142  1.00  0.00     0.157 A 
ATOM     17  C   UNL     1       1.718  -4.803  21.954  1.00  0.00     0.050 A 
ATOM     18  C   UNL     1       0.689  -5.630  21.494  1.00  0.00     0.157 A 
BRANCH  16  19
ATOM     19  O   UNL     1      -0.721  -6.403  19.678  1.00  0.00    -0.504 OA
ATOM     20  H   UNL     1      -0.532  -7.244  19.145  1.00  0.00     0.293 HD
ENDBRANCH  16  19
BRANCH  18  21
ATOM     21  O   UNL     1       0.054  -6.486  22.394  1.00  0.00    -0.504 OA
ATOM     22  H   UNL     1      -0.839  -6.918  22.187  1.00  0.00     0.293 HD
ENDBRANCH  18  21
ENDBRANCH   3  13
BRANCH   9  23
ATOM     23  O   UNL     1       5.186  -1.447  14.517  1.00  0.00    -0.507 OA
ATOM     24  H   UNL     1       5.853  -2.091  14.926  1.00  0.00     0.293 HD
ENDBRANCH   9  23
BRANCH   7  25
ATOM     25  O   UNL     1       0.604  -0.130  13.725  1.00  0.00    -0.508 OA
ATOM     26  H   UNL     1       0.820   0.710  13.200  1.00  0.00     0.293 HD
ENDBRANCH   7  25
TORSDOF 6
ENDMDL
MODEL 7
REMARK VINA RESULT:    -6.829      1.324      3.138
REMARK INTER + INTRA:          -8.520
REMARK INTER:                  -8.149
REMARK INTRA:                  -0.371
REMARK UNBOUND:                -0.294
REMARK SMILES Oc1cc(O)c2c(c1)O[C@@H](c1ccc(O)c(O)c1)[C@H](O)C2
REMARK SMILES IDX 21 1 19 2 10 3 9 4 7 5 8 6 2 7 3 8 4 9 6 10 20 11 11 13
REMARK SMILES IDX 18 14 12 15 16 16 13 17 14 18 17 19 15 21 5 23 1 25
REMARK H PARENT 20 12 17 20 15 22 5 24 1 26
REMARK Flexibility Score: inf
ROOT
ATOM      1  C   UNL     1       5.443  -2.268  15.967  1.00  0.00     0.079 C 
ATOM      2  C   UNL     1       4.134  -1.826  15.289  1.00  0.00     0.164 C 
ATOM      3  C   UNL     1       3.012  -2.827  15.624  1.00  0.00     0.232 C 
ATOM      4  O   UNL     1       2.870  -2.951  17.040  1.00  0.00    -0.482 OA
ATOM      5  C   UNL     1       3.965  -2.916  17.910  1.00  0.00     0.131 A 
ATOM      6  C   UNL     1       3.776  -3.213  19.263  1.00  0.00     0.093 A 
ATOM      7  C   UNL     1       4.859  -3.185  20.149  1.00  0.00     0.122 A 
ATOM      8  C   UNL     1       6.134  -2.860  19.679  1.00  0.00     0.092 A 
ATOM      9  C   UNL     1       6.336  -2.555  18.325  1.00  0.00     0.126 A 
ATOM     10  C   UNL     1       5.245  -2.564  17.435  1.00  0.00     0.039 A 
ENDROOT
BRANCH   2  11
ATOM     11  O   UNL     1       4.316  -1.768  13.897  1.00  0.00    -0.389 OA
ATOM     12  H   UNL     1       3.902  -0.918  13.590  1.00  0.00     0.211 HD
ENDBRANCH   2  11
BRANCH   3  13
ATOM     13  C   UNL     1       1.697  -2.394  15.019  1.00  0.00    -0.001 A 
ATOM     14  C   UNL     1       1.055  -3.205  14.067  1.00  0.00     0.057 A 
ATOM     15  C   UNL     1       1.126  -1.157  15.362  1.00  0.00     0.012 A 
ATOM     16  C   UNL     1      -0.152  -2.795  13.481  1.00  0.00     0.157 A 
ATOM     17  C   UNL     1      -0.076  -0.748  14.780  1.00  0.00     0.050 A 
ATOM     18  C   UNL     1      -0.720  -1.561  13.842  1.00  0.00     0.157 A 
BRANCH  16  19
ATOM     19  O   UNL     1      -0.786  -3.607  12.542  1.00  0.00    -0.504 OA
ATOM     20  H   UNL     1      -0.746  -4.618  12.602  1.00  0.00     0.293 HD
ENDBRANCH  16  19
BRANCH  18  21
ATOM     21  O   UNL     1      -1.919  -1.126  13.278  1.00  0.00    -0.504 OA
ATOM     22  H   UNL     1      -2.707  -1.748  13.145  1.00  0.00     0.293 HD
ENDBRANCH  18  21
ENDBRANCH   3  13
BRANCH   9  23
ATOM     23  O   UNL     1       7.615  -2.248  17.862  1.00  0.00    -0.507 OA
ATOM     24  H   UNL     1       7.850  -2.296  16.878  1.00  0.00     0.293 HD
ENDBRANCH   9  23
BRANCH   7  25
ATOM     25  O   UNL     1       4.680  -3.481  21.499  1.00  0.00    -0.508 OA
ATOM     26  H   UNL     1       3.896  -4.038  21.819  1.00  0.00     0.293 HD
ENDBRANCH   7  25
TORSDOF 6
ENDMDL
MODEL 8
REMARK VINA RESULT:    -6.788      2.192      7.211
REMARK INTER + INTRA:          -8.471
REMARK INTER:                  -8.147
REMARK INTRA:                  -0.324
REMARK UNBOUND:                -0.294
REMARK SMILES Oc1cc(O)c2c(c1)O[C@@H](c1ccc(O)c(O)c1)[C@H](O)C2
REMARK SMILES IDX 21 1 19 2 10 3 9 4 7 5 8 6 2 7 3 8 4 9 6 10 20 11 11 13
REMARK SMILES IDX 18 14 12 15 16 16 13 17 14 18 17 19 15 21 5 23 1 25
REMARK H PARENT 20 12 17 20 15 22 5 24 1 26
REMARK Flexibility Score: inf
ROOT
ATOM      1  C   UNL     1       4.052  -1.484  14.796  1.00  0.00     0.079 C 
ATOM      2  C   UNL     1       4.540  -2.382  15.946  1.00  0.00     0.164 C 
ATOM      3  C   UNL     1       4.004  -1.846  17.287  1.00  0.00     0.232 C 
ATOM      4  O   UNL     1       2.579  -1.749  17.245  1.00  0.00    -0.482 OA
ATOM      5  C   UNL     1       1.887  -1.368  16.090  1.00  0.00     0.131 A 
ATOM      6  C   UNL     1       0.511  -1.129  16.163  1.00  0.00     0.093 A 
ATOM      7  C   UNL     1      -0.200  -0.746  15.020  1.00  0.00     0.122 A 
ATOM      8  C   UNL     1       0.469  -0.601  13.801  1.00  0.00     0.092 A 
ATOM      9  C   UNL     1       1.848  -0.842  13.714  1.00  0.00     0.126 A 
ATOM     10  C   UNL     1       2.562  -1.247  14.858  1.00  0.00     0.039 A 
ENDROOT
BRANCH   2  11
ATOM     11  O   UNL     1       5.944  -2.403  15.971  1.00  0.00    -0.389 OA
ATOM     12  H   UNL     1       6.226  -3.226  15.494  1.00  0.00     0.211 HD
ENDBRANCH   2  11
BRANCH   3  13
ATOM     13  C   UNL     1       4.418  -2.735  18.435  1.00  0.00    -0.001 A 
ATOM     14  C   UNL     1       5.450  -2.339  19.302  1.00  0.00     0.057 A 
ATOM     15  C   UNL     1       3.811  -3.989  18.620  1.00  0.00     0.012 A 
ATOM     16  C   UNL     1       5.858  -3.174  20.353  1.00  0.00     0.157 A 
ATOM     17  C   UNL     1       4.216  -4.821  19.667  1.00  0.00     0.050 A 
ATOM     18  C   UNL     1       5.235  -4.420  20.536  1.00  0.00     0.157 A 
BRANCH  16  19
ATOM     19  O   UNL     1       6.879  -2.770  21.212  1.00  0.00    -0.504 OA
ATOM     20  H   UNL     1       7.315  -1.859  21.128  1.00  0.00     0.293 HD
ENDBRANCH  16  19
BRANCH  18  21
ATOM     21  O   UNL     1       5.617  -5.272  21.572  1.00  0.00    -0.504 OA
ATOM     22  H   UNL     1       5.576  -4.989  22.544  1.00  0.00     0.293 HD
ENDBRANCH  18  21
ENDBRANCH   3  13
BRANCH   9  23
ATOM     23  O   UNL     1       2.509  -0.679  12.497  1.00  0.00    -0.507 OA
ATOM     24  H   UNL     1       2.105  -0.138  11.742  1.00  0.00     0.293 HD
ENDBRANCH   9  23
BRANCH   7  25
ATOM     25  O   UNL     1      -1.570  -0.504  15.083  1.00  0.00    -0.508 OA
ATOM     26  H   UNL     1      -1.936   0.410  15.327  1.00  0.00     0.293 HD
ENDBRANCH   7  25
TORSDOF 6
ENDMDL
MODEL 9
REMARK VINA RESULT:    -6.741      2.437      3.114
REMARK INTER + INTRA:          -8.414
REMARK INTER:                  -8.087
REMARK INTRA:                  -0.328
REMARK UNBOUND:                -0.294
REMARK SMILES Oc1cc(O)c2c(c1)O[C@@H](c1ccc(O)c(O)c1)[C@H](O)C2
REMARK SMILES IDX 21 1 19 2 10 3 9 4 7 5 8 6 2 7 3 8 4 9 6 10 20 11 11 13
REMARK SMILES IDX 18 14 12 15 16 16 13 17 14 18 17 19 15 21 5 23 1 25
REMARK H PARENT 20 12 17 20 15 22 5 24 1 26
REMARK Flexibility Score: inf
ROOT
ATOM      1  C   UNL     1       2.889  -4.239  19.314  1.00  0.00     0.079 C 
ATOM      2  C   UNL     1       2.402  -4.027  17.870  1.00  0.00     0.164 C 
ATOM      3  C   UNL     1       2.302  -2.520  17.571  1.00  0.00     0.232 C 
ATOM      4  O   UNL     1       3.559  -1.884  17.816  1.00  0.00    -0.482 OA
ATOM      5  C   UNL     1       4.400  -2.266  18.867  1.00  0.00     0.131 A 
ATOM      6  C   UNL     1       5.530  -1.495  19.153  1.00  0.00     0.093 A 
ATOM      7  C   UNL     1       6.385  -1.858  20.201  1.00  0.00     0.122 A 
ATOM      8  C   UNL     1       6.104  -2.995  20.964  1.00  0.00     0.092 A 
ATOM      9  C   UNL     1       4.976  -3.779  20.683  1.00  0.00     0.126 A 
ATOM     10  C   UNL     1       4.126  -3.427  19.617  1.00  0.00     0.039 A 
ENDROOT
BRANCH   2  11
ATOM     11  O   UNL     1       1.145  -4.629  17.699  1.00  0.00    -0.389 OA
ATOM     12  H   UNL     1       0.844  -4.407  16.778  1.00  0.00     0.211 HD
ENDBRANCH   2  11
BRANCH   3  13
ATOM     13  C   UNL     1       1.879  -2.273  16.142  1.00  0.00    -0.001 A 
ATOM     14  C   UNL     1       2.522  -2.945  15.088  1.00  0.00     0.057 A 
ATOM     15  C   UNL     1       0.876  -1.336  15.847  1.00  0.00     0.012 A 
ATOM     16  C   UNL     1       2.154  -2.698  13.758  1.00  0.00     0.157 A 
ATOM     17  C   UNL     1       0.507  -1.090  14.521  1.00  0.00     0.050 A 
ATOM     18  C   UNL     1       1.140  -1.768  13.475  1.00  0.00     0.157 A 
BRANCH  16  19
ATOM     19  O   UNL     1       2.793  -3.373  12.718  1.00  0.00    -0.504 OA
ATOM     20  H   UNL     1       3.399  -2.891  12.065  1.00  0.00     0.293 HD
ENDBRANCH  16  19
BRANCH  18  21
ATOM     21  O   UNL     1       0.750  -1.502  12.162  1.00  0.00    -0.504 OA
ATOM     22  H   UNL     1       0.362  -0.607  11.888  1.00  0.00     0.293 HD
ENDBRANCH  18  21
ENDBRANCH   3  13
BRANCH   9  23
ATOM     23  O   UNL     1       4.697  -4.903  21.460  1.00  0.00    -0.507 OA
ATOM     24  H   UNL     1       4.262  -4.823  22.372  1.00  0.00     0.293 HD
ENDBRANCH   9  23
BRANCH   7  25
ATOM     25  O   UNL     1       7.512  -1.095  20.495  1.00  0.00    -0.508 OA
ATOM     26  H   UNL     1       8.390  -1.238  20.008  1.00  0.00     0.293 HD
ENDBRANCH   7  25
TORSDOF 6
ENDMDL
