MODEL 1
REMARK VINA RESULT:    -3.055      0.000      0.000
REMARK INTER + INTRA:          -3.055
REMARK INTER:                  -3.055
REMARK INTRA:                   0.000
REMARK UNBOUND:                 0.000
REMARK SMILES CC(=O)[O-]
REMARK SMILES IDX 1 1 2 2 3 3 4 4
REMARK H PARENT
REMARK Flexibility Score: inf
ROOT
ATOM      1  C   UNL     1      10.100  -2.814  63.487  1.00  0.00     0.063 C 
ATOM      2  C   UNL     1      10.825  -2.738  64.788  1.00  0.00     0.038 C 
ATOM      3  O   UNL     1      10.606  -3.595  65.683  1.00  0.00    -0.550 OA
ATOM      4  O   UNL     1      11.705  -1.691  65.035  1.00  0.00    -0.550 OA
ENDROOT
TORSDOF 0
ENDMDL
MODEL 2
REMARK VINA RESULT:    -2.888      1.538      2.264
REMARK INTER + INTRA:          -2.888
REMARK INTER:                  -2.888
REMARK INTRA:                   0.000
REMARK UNBOUND:                 0.000
REMARK SMILES CC(=O)[O-]
REMARK SMILES IDX 1 1 2 2 3 3 4 4
REMARK H PARENT
REMARK Flexibility Score: inf
ROOT
ATOM      1  C   UNL     1      10.823  -3.435  65.451  1.00  0.00     0.063 C 
ATOM      2  C   UNL     1      10.677  -2.540  64.266  1.00  0.00     0.038 C 
ATOM      3  O   UNL     1      11.190  -1.391  64.276  1.00  0.00    -0.550 OA
ATOM      4  O   UNL     1       9.929  -2.953  63.170  1.00  0.00    -0.550 OA
ENDROOT
TORSDOF 0
ENDMDL
MODEL 3
REMARK VINA RESULT:    -2.742      1.441      2.000
REMARK INTER + INTRA:          -2.742
REMARK INTER:                  -2.742
REMARK INTRA:                   0.000
REMARK UNBOUND:                 0.000
REMARK SMILES CC(=O)[O-]
REMARK SMILES IDX 1 1 2 2 3 3 4 4
REMARK H PARENT
REMARK Flexibility Score: inf
ROOT
ATOM      1  C   UNL     1      11.603  -1.240  64.813  1.00  0.00     0.063 C 
ATOM      2  C   UNL     1      10.856  -2.519  64.638  1.00  0.00     0.038 C 
ATOM      3  O   UNL     1      10.067  -2.662  63.669  1.00  0.00    -0.550 OA
ATOM      4  O   UNL     1      10.990  -3.537  65.574  1.00  0.00    -0.550 OA
ENDROOT
TORSDOF 0
ENDMDL
MODEL 4
REMARK VINA RESULT:    -2.564      4.239      4.562
REMARK INTER + INTRA:          -2.564
REMARK INTER:                  -2.564
REMARK INTRA:                   0.000
REMARK UNBOUND:                 0.000
REMARK SMILES CC(=O)[O-]
REMARK SMILES IDX 1 1 2 2 3 3 4 4
REMARK H PARENT
REMARK Flexibility Score: inf
ROOT
ATOM      1  C   UNL     1      11.997   0.060  64.812  1.00  0.00     0.063 C 
ATOM      2  C   UNL     1      11.915   1.493  65.216  1.00  0.00     0.038 C 
ATOM      3  O   UNL     1      10.866   2.152  64.993  1.00  0.00    -0.550 OA
ATOM      4  O   UNL     1      13.014   2.120  65.789  1.00  0.00    -0.550 OA
ENDROOT
TORSDOF 0
ENDMDL
MODEL 5
REMARK VINA RESULT:    -2.461      8.586      9.117
REMARK INTER + INTRA:          -2.461
REMARK INTER:                  -2.461
REMARK INTRA:                   0.000
REMARK UNBOUND:                 0.000
REMARK SMILES CC(=O)[O-]
REMARK SMILES IDX 1 1 2 2 3 3 4 4
REMARK H PARENT
REMARK Flexibility Score: inf
ROOT
ATOM      1  C   UNL     1       8.940   2.399  57.329  1.00  0.00     0.063 C 
ATOM      2  C   UNL     1       7.695   2.519  58.141  1.00  0.00     0.038 C 
ATOM      3  O   UNL     1       6.570   2.519  57.576  1.00  0.00    -0.550 OA
ATOM      4  O   UNL     1       7.775   2.684  59.518  1.00  0.00    -0.550 OA
ENDROOT
TORSDOF 0
ENDMDL
MODEL 6
REMARK VINA RESULT:    -2.378      4.097      4.580
REMARK INTER + INTRA:          -2.378
REMARK INTER:                  -2.378
REMARK INTRA:                   0.000
REMARK UNBOUND:                 0.000
REMARK SMILES CC(=O)[O-]
REMARK SMILES IDX 1 1 2 2 3 3 4 4
REMARK H PARENT
REMARK Flexibility Score: inf
ROOT
ATOM      1  C   UNL     1      10.762   2.368  65.116  1.00  0.00     0.063 C 
ATOM      2  C   UNL     1      11.981   1.514  65.219  1.00  0.00     0.038 C 
ATOM      3  O   UNL     1      11.961   0.331  64.790  1.00  0.00    -0.550 OA
ATOM      4  O   UNL     1      13.125   2.005  65.836  1.00  0.00    -0.550 OA
ENDROOT
TORSDOF 0
ENDMDL
MODEL 7
REMARK VINA RESULT:    -2.349      9.056      9.647
REMARK INTER + INTRA:          -2.349
REMARK INTER:                  -2.349
REMARK INTRA:                   0.000
REMARK UNBOUND:                 0.000
REMARK SMILES CC(=O)[O-]
REMARK SMILES IDX 1 1 2 2 3 3 4 4
REMARK H PARENT
REMARK Flexibility Score: inf
ROOT
ATOM      1  C   UNL     1       7.516   2.357  58.357  1.00  0.00     0.063 C 
ATOM      2  C   UNL     1       8.541   2.683  57.324  1.00  0.00     0.038 C 
ATOM      3  O   UNL     1       9.692   3.056  57.672  1.00  0.00    -0.550 OA
ATOM      4  O   UNL     1       8.213   2.629  55.975  1.00  0.00    -0.550 OA
ENDROOT
TORSDOF 0
ENDMDL
MODEL 8
REMARK VINA RESULT:    -2.290      3.310      3.855
REMARK INTER + INTRA:          -2.290
REMARK INTER:                  -2.290
REMARK INTRA:                   0.000
REMARK UNBOUND:                 0.000
REMARK SMILES CC(=O)[O-]
REMARK SMILES IDX 1 1 2 2 3 3 4 4
REMARK H PARENT
REMARK Flexibility Score: inf
ROOT
ATOM      1  C   UNL     1      12.082   1.885  65.018  1.00  0.00     0.063 C 
ATOM      2  C   UNL     1      12.043   0.440  65.386  1.00  0.00     0.038 C 
ATOM      3  O   UNL     1      12.406   0.071  66.533  1.00  0.00    -0.550 OA
ATOM      4  O   UNL     1      11.657  -0.507  64.446  1.00  0.00    -0.550 OA
ENDROOT
TORSDOF 0
ENDMDL
MODEL 9
REMARK VINA RESULT:    -2.125     18.960     19.485
REMARK INTER + INTRA:          -2.125
REMARK INTER:                  -2.125
REMARK INTRA:                   0.000
REMARK UNBOUND:                 0.000
REMARK SMILES CC(=O)[O-]
REMARK SMILES IDX 1 1 2 2 3 3 4 4
REMARK H PARENT
REMARK Flexibility Score: inf
ROOT
ATOM      1  C   UNL     1      -4.921 -14.143  62.510  1.00  0.00     0.063 C 
ATOM      2  C   UNL     1      -5.282 -13.479  63.795  1.00  0.00     0.038 C 
ATOM      3  O   UNL     1      -4.964 -12.277  63.996  1.00  0.00    -0.550 OA
ATOM      4  O   UNL     1      -5.922 -14.199  64.796  1.00  0.00    -0.550 OA
ENDROOT
TORSDOF 0
ENDMDL
