MODEL 1
REMARK VINA RESULT:    -4.906      0.000      0.000
REMARK INTER + INTRA:          -5.193
REMARK INTER:                  -5.193
REMARK INTRA:                   0.000
REMARK UNBOUND:                 0.000
REMARK SMILES Cc1cc(O)c(C)c(C)c1O
REMARK SMILES IDX 1 1 2 2 3 3 4 4 6 5 8 6 10 7 9 8 7 9 11 10 5 12
REMARK H PARENT 11 11 5 13
REMARK Flexibility Score: inf
ROOT
ATOM      1  C   UNL     1      27.371 -39.795  -3.356  1.00  0.00     0.048 C 
ATOM      2  C   UNL     1      26.953 -39.435  -1.955  1.00  0.00    -0.005 A 
ATOM      3  C   UNL     1      26.865 -38.086  -1.594  1.00  0.00     0.053 A 
ATOM      4  C   UNL     1      26.492 -37.707  -0.306  1.00  0.00     0.119 A 
ATOM      5  C   UNL     1      26.218 -38.692   0.673  1.00  0.00    -0.003 A 
ATOM      6  C   UNL     1      26.242 -40.064   0.301  1.00  0.00    -0.002 A 
ATOM      7  C   UNL     1      26.636 -40.430  -1.007  1.00  0.00     0.121 A 
ATOM      8  C   UNL     1      25.875 -41.143   1.296  1.00  0.00     0.049 C 
ATOM      9  C   UNL     1      25.875 -38.257   2.082  1.00  0.00     0.049 C 
ENDROOT
BRANCH   7  10
ATOM     10  O   UNL     1      26.708 -41.787  -1.343  1.00  0.00    -0.507 OA
ATOM     11  H   UNL     1      26.011 -42.468  -1.068  1.00  0.00     0.293 HD
ENDBRANCH   7  10
BRANCH   4  12
ATOM     12  O   UNL     1      26.398 -36.339  -0.036  1.00  0.00    -0.508 OA
ATOM     13  H   UNL     1      27.131 -35.675  -0.249  1.00  0.00     0.293 HD
ENDBRANCH   4  12
TORSDOF 2
ENDMDL
MODEL 2
REMARK VINA RESULT:    -4.206      1.170      2.966
REMARK INTER + INTRA:          -4.452
REMARK INTER:                  -4.452
REMARK INTRA:                   0.000
REMARK UNBOUND:                 0.000
REMARK SMILES Cc1cc(O)c(C)c(C)c1O
REMARK SMILES IDX 1 1 2 2 3 3 4 4 6 5 8 6 10 7 9 8 7 9 11 10 5 12
REMARK H PARENT 11 11 5 13
REMARK Flexibility Score: inf
ROOT
ATOM      1  C   UNL     1      25.875 -42.614   0.876  1.00  0.00     0.048 C 
ATOM      2  C   UNL     1      26.181 -41.200   0.458  1.00  0.00    -0.005 A 
ATOM      3  C   UNL     1      25.904 -40.152   1.343  1.00  0.00     0.053 A 
ATOM      4  C   UNL     1      26.161 -38.827   0.994  1.00  0.00     0.119 A 
ATOM      5  C   UNL     1      26.688 -38.518  -0.282  1.00  0.00    -0.003 A 
ATOM      6  C   UNL     1      27.033 -39.578  -1.165  1.00  0.00    -0.002 A 
ATOM      7  C   UNL     1      26.752 -40.915  -0.799  1.00  0.00     0.121 A 
ATOM      8  C   UNL     1      27.674 -39.293  -2.505  1.00  0.00     0.049 C 
ATOM      9  C   UNL     1      26.900 -37.068  -0.661  1.00  0.00     0.049 C 
ENDROOT
BRANCH   7  10
ATOM     10  O   UNL     1      27.047 -41.945  -1.701  1.00  0.00    -0.507 OA
ATOM     11  H   UNL     1      27.493 -41.792  -2.597  1.00  0.00     0.293 HD
ENDBRANCH   7  10
BRANCH   4  12
ATOM     12  O   UNL     1      25.884 -37.843   1.947  1.00  0.00    -0.508 OA
ATOM     13  H   UNL     1      25.794 -36.859   1.726  1.00  0.00     0.293 HD
ENDBRANCH   4  12
TORSDOF 2
ENDMDL
MODEL 3
REMARK VINA RESULT:    -4.189      1.460      3.332
REMARK INTER + INTRA:          -4.434
REMARK INTER:                  -4.434
REMARK INTRA:                   0.000
REMARK UNBOUND:                 0.000
REMARK SMILES Cc1cc(O)c(C)c(C)c1O
REMARK SMILES IDX 1 1 2 2 3 3 4 4 6 5 8 6 10 7 9 8 7 9 11 10 5 12
REMARK H PARENT 11 11 5 13
REMARK Flexibility Score: inf
ROOT
ATOM      1  C   UNL     1      26.654 -36.365   0.319  1.00  0.00     0.048 C 
ATOM      2  C   UNL     1      26.692 -37.804  -0.123  1.00  0.00    -0.005 A 
ATOM      3  C   UNL     1      27.126 -38.108  -1.418  1.00  0.00     0.053 A 
ATOM      4  C   UNL     1      27.167 -39.425  -1.874  1.00  0.00     0.119 A 
ATOM      5  C   UNL     1      26.744 -40.481  -1.033  1.00  0.00    -0.003 A 
ATOM      6  C   UNL     1      26.361 -40.191   0.306  1.00  0.00    -0.002 A 
ATOM      7  C   UNL     1      26.313 -38.847   0.746  1.00  0.00     0.121 A 
ATOM      8  C   UNL     1      25.980 -41.300   1.261  1.00  0.00     0.049 C 
ATOM      9  C   UNL     1      26.739 -41.896  -1.571  1.00  0.00     0.049 C 
ENDROOT
BRANCH   7  10
ATOM     10  O   UNL     1      25.882 -38.572   2.049  1.00  0.00    -0.507 OA
ATOM     11  H   UNL     1      25.745 -37.635   2.406  1.00  0.00     0.293 HD
ENDBRANCH   7  10
BRANCH   4  12
ATOM     12  O   UNL     1      27.643 -39.646  -3.170  1.00  0.00    -0.508 OA
ATOM     13  H   UNL     1      28.525 -40.098  -3.373  1.00  0.00     0.293 HD
ENDBRANCH   4  12
TORSDOF 2
ENDMDL
MODEL 4
REMARK VINA RESULT:    -4.117      1.972      3.310
REMARK INTER + INTRA:          -4.357
REMARK INTER:                  -4.357
REMARK INTRA:                   0.000
REMARK UNBOUND:                 0.000
REMARK SMILES Cc1cc(O)c(C)c(C)c1O
REMARK SMILES IDX 1 1 2 2 3 3 4 4 6 5 8 6 10 7 9 8 7 9 11 10 5 12
REMARK H PARENT 11 11 5 13
REMARK Flexibility Score: inf
ROOT
ATOM      1  C   UNL     1      26.875 -36.458   0.206  1.00  0.00     0.048 C 
ATOM      2  C   UNL     1      26.592 -37.911   0.483  1.00  0.00    -0.005 A 
ATOM      3  C   UNL     1      26.371 -38.324   1.801  1.00  0.00     0.053 A 
ATOM      4  C   UNL     1      26.116 -39.660   2.105  1.00  0.00     0.119 A 
ATOM      5  C   UNL     1      26.102 -40.632   1.077  1.00  0.00    -0.003 A 
ATOM      6  C   UNL     1      26.262 -40.215  -0.273  1.00  0.00    -0.002 A 
ATOM      7  C   UNL     1      26.533 -38.857  -0.561  1.00  0.00     0.121 A 
ATOM      8  C   UNL     1      26.172 -41.211  -1.408  1.00  0.00     0.049 C 
ATOM      9  C   UNL     1      25.885 -42.086   1.438  1.00  0.00     0.049 C 
ENDROOT
BRANCH   7  10
ATOM     10  O   UNL     1      26.743 -38.470  -1.890  1.00  0.00    -0.507 OA
ATOM     11  H   UNL     1      26.995 -39.117  -2.627  1.00  0.00     0.293 HD
ENDBRANCH   7  10
BRANCH   4  12
ATOM     12  O   UNL     1      25.875 -39.985   3.443  1.00  0.00    -0.508 OA
ATOM     13  H   UNL     1      25.837 -40.934   3.791  1.00  0.00     0.293 HD
ENDBRANCH   4  12
TORSDOF 2
ENDMDL
MODEL 5
REMARK VINA RESULT:    -4.097      1.644      3.072
REMARK INTER + INTRA:          -4.336
REMARK INTER:                  -4.336
REMARK INTRA:                   0.000
REMARK UNBOUND:                 0.000
REMARK SMILES Cc1cc(O)c(C)c(C)c1O
REMARK SMILES IDX 1 1 2 2 3 3 4 4 6 5 8 6 10 7 9 8 7 9 11 10 5 12
REMARK H PARENT 11 11 5 13
REMARK Flexibility Score: inf
ROOT
ATOM      1  C   UNL     1      26.537 -41.125  -2.764  1.00  0.00     0.048 C 
ATOM      2  C   UNL     1      26.400 -40.611  -1.355  1.00  0.00    -0.005 A 
ATOM      3  C   UNL     1      26.236 -41.525  -0.308  1.00  0.00     0.053 A 
ATOM      4  C   UNL     1      26.094 -41.094   1.010  1.00  0.00     0.119 A 
ATOM      5  C   UNL     1      26.092 -39.711   1.308  1.00  0.00    -0.003 A 
ATOM      6  C   UNL     1      26.322 -38.776   0.262  1.00  0.00    -0.002 A 
ATOM      7  C   UNL     1      26.450 -39.231  -1.071  1.00  0.00     0.121 A 
ATOM      8  C   UNL     1      26.408 -37.293   0.553  1.00  0.00     0.049 C 
ATOM      9  C   UNL     1      25.875 -39.265   2.739  1.00  0.00     0.049 C 
ENDROOT
BRANCH   7  10
ATOM     10  O   UNL     1      26.621 -38.295  -2.098  1.00  0.00    -0.507 OA
ATOM     11  H   UNL     1      25.944 -38.143  -2.834  1.00  0.00     0.293 HD
ENDBRANCH   7  10
BRANCH   4  12
ATOM     12  O   UNL     1      25.965 -42.073   2.000  1.00  0.00    -0.508 OA
ATOM     13  H   UNL     1      26.746 -42.442   2.526  1.00  0.00     0.293 HD
ENDBRANCH   4  12
TORSDOF 2
ENDMDL
MODEL 6
REMARK VINA RESULT:    -4.058     22.067     23.116
REMARK INTER + INTRA:          -4.295
REMARK INTER:                  -4.295
REMARK INTRA:                   0.000
REMARK UNBOUND:                 0.000
REMARK SMILES Cc1cc(O)c(C)c(C)c1O
REMARK SMILES IDX 1 1 2 2 3 3 4 4 6 5 8 6 10 7 9 8 7 9 11 10 5 12
REMARK H PARENT 11 11 5 13
REMARK Flexibility Score: inf
ROOT
ATOM      1  C   UNL     1      45.748 -34.856  13.092  1.00  0.00     0.048 C 
ATOM      2  C   UNL     1      45.184 -33.543  12.616  1.00  0.00    -0.005 A 
ATOM      3  C   UNL     1      45.763 -32.350  13.063  1.00  0.00     0.053 A 
ATOM      4  C   UNL     1      45.267 -31.112  12.657  1.00  0.00     0.119 A 
ATOM      5  C   UNL     1      44.146 -31.043  11.797  1.00  0.00    -0.003 A 
ATOM      6  C   UNL     1      43.590 -32.248  11.285  1.00  0.00    -0.002 A 
ATOM      7  C   UNL     1      44.097 -33.495  11.719  1.00  0.00     0.121 A 
ATOM      8  C   UNL     1      42.443 -32.215  10.298  1.00  0.00     0.049 C 
ATOM      9  C   UNL     1      43.587 -29.688  11.418  1.00  0.00     0.049 C 
ENDROOT
BRANCH   7  10
ATOM     10  O   UNL     1      43.505 -34.673  11.249  1.00  0.00    -0.507 OA
ATOM     11  H   UNL     1      43.936 -35.585  11.329  1.00  0.00     0.293 HD
ENDBRANCH   7  10
BRANCH   4  12
ATOM     12  O   UNL     1      45.921 -29.969  13.125  1.00  0.00    -0.508 OA
ATOM     13  H   UNL     1      46.629 -29.474  12.598  1.00  0.00     0.293 HD
ENDBRANCH   4  12
TORSDOF 2
ENDMDL
MODEL 7
REMARK VINA RESULT:    -3.591     21.475     22.646
REMARK INTER + INTRA:          -3.801
REMARK INTER:                  -3.801
REMARK INTRA:                   0.000
REMARK UNBOUND:                 0.000
REMARK SMILES Cc1cc(O)c(C)c(C)c1O
REMARK SMILES IDX 1 1 2 2 3 3 4 4 6 5 8 6 10 7 9 8 7 9 11 10 5 12
REMARK H PARENT 11 11 5 13
REMARK Flexibility Score: inf
ROOT
ATOM      1  C   UNL     1      45.559 -33.890  12.036  1.00  0.00     0.048 C 
ATOM      2  C   UNL     1      44.677 -32.740  11.624  1.00  0.00    -0.005 A 
ATOM      3  C   UNL     1      43.526 -32.999  10.873  1.00  0.00     0.053 A 
ATOM      4  C   UNL     1      42.687 -31.964  10.460  1.00  0.00     0.119 A 
ATOM      5  C   UNL     1      43.004 -30.623  10.779  1.00  0.00    -0.003 A 
ATOM      6  C   UNL     1      44.136 -30.353  11.596  1.00  0.00    -0.002 A 
ATOM      7  C   UNL     1      44.984 -31.414  11.993  1.00  0.00     0.121 A 
ATOM      8  C   UNL     1      44.463 -28.940  12.027  1.00  0.00     0.049 C 
ATOM      9  C   UNL     1      42.111 -29.512  10.268  1.00  0.00     0.049 C 
ENDROOT
BRANCH   7  10
ATOM     10  O   UNL     1      46.125 -31.128  12.751  1.00  0.00    -0.507 OA
ATOM     11  H   UNL     1      46.245 -31.421  13.713  1.00  0.00     0.293 HD
ENDBRANCH   7  10
BRANCH   4  12
ATOM     12  O   UNL     1      41.540 -32.311   9.740  1.00  0.00    -0.508 OA
ATOM     13  H   UNL     1      40.603 -32.249  10.116  1.00  0.00     0.293 HD
ENDBRANCH   4  12
TORSDOF 2
ENDMDL
MODEL 8
REMARK VINA RESULT:    -3.492     21.541     22.581
REMARK INTER + INTRA:          -3.696
REMARK INTER:                  -3.696
REMARK INTRA:                   0.000
REMARK UNBOUND:                 0.000
REMARK SMILES Cc1cc(O)c(C)c(C)c1O
REMARK SMILES IDX 1 1 2 2 3 3 4 4 6 5 8 6 10 7 9 8 7 9 11 10 5 12
REMARK H PARENT 11 11 5 13
REMARK Flexibility Score: inf
ROOT
ATOM      1  C   UNL     1      42.299 -29.759   9.820  1.00  0.00     0.048 C 
ATOM      2  C   UNL     1      43.179 -30.648  10.657  1.00  0.00    -0.005 A 
ATOM      3  C   UNL     1      44.250 -30.083  11.358  1.00  0.00     0.053 A 
ATOM      4  C   UNL     1      45.098 -30.870  12.137  1.00  0.00     0.119 A 
ATOM      5  C   UNL     1      44.899 -32.269  12.211  1.00  0.00    -0.003 A 
ATOM      6  C   UNL     1      43.776 -32.845  11.555  1.00  0.00    -0.002 A 
ATOM      7  C   UNL     1      42.936 -32.033  10.759  1.00  0.00     0.121 A 
ATOM      8  C   UNL     1      43.482 -34.324  11.677  1.00  0.00     0.049 C 
ATOM      9  C   UNL     1      45.868 -33.110  13.013  1.00  0.00     0.049 C 
ENDROOT
BRANCH   7  10
ATOM     10  O   UNL     1      41.867 -32.624  10.074  1.00  0.00    -0.507 OA
ATOM     11  H   UNL     1      41.181 -32.097   9.548  1.00  0.00     0.293 HD
ENDBRANCH   7  10
BRANCH   4  12
ATOM     12  O   UNL     1      46.125 -30.223  12.830  1.00  0.00    -0.508 OA
ATOM     13  H   UNL     1      46.235 -29.218  12.857  1.00  0.00     0.293 HD
ENDBRANCH   4  12
TORSDOF 2
ENDMDL
MODEL 9
REMARK VINA RESULT:    -3.375     21.446     22.663
REMARK INTER + INTRA:          -3.572
REMARK INTER:                  -3.572
REMARK INTRA:                   0.000
REMARK UNBOUND:                 0.000
REMARK SMILES Cc1cc(O)c(C)c(C)c1O
REMARK SMILES IDX 1 1 2 2 3 3 4 4 6 5 8 6 10 7 9 8 7 9 11 10 5 12
REMARK H PARENT 11 11 5 13
REMARK Flexibility Score: inf
ROOT
ATOM      1  C   UNL     1      41.485 -30.202  10.008  1.00  0.00     0.048 C 
ATOM      2  C   UNL     1      42.619 -30.952  10.655  1.00  0.00    -0.005 A 
ATOM      3  C   UNL     1      42.581 -32.350  10.689  1.00  0.00     0.053 A 
ATOM      4  C   UNL     1      43.603 -33.085  11.288  1.00  0.00     0.119 A 
ATOM      5  C   UNL     1      44.693 -32.420  11.897  1.00  0.00    -0.003 A 
ATOM      6  C   UNL     1      44.775 -31.003  11.814  1.00  0.00    -0.002 A 
ATOM      7  C   UNL     1      43.721 -30.273  11.214  1.00  0.00     0.121 A 
ATOM      8  C   UNL     1      45.964 -30.260  12.381  1.00  0.00     0.049 C 
ATOM      9  C   UNL     1      45.759 -33.237  12.595  1.00  0.00     0.049 C 
ENDROOT
BRANCH   7  10
ATOM     10  O   UNL     1      43.789 -28.875  11.188  1.00  0.00    -0.507 OA
ATOM     11  H   UNL     1      42.973 -28.276  11.170  1.00  0.00     0.293 HD
ENDBRANCH   7  10
BRANCH   4  12
ATOM     12  O   UNL     1      43.504 -34.479  11.251  1.00  0.00    -0.508 OA
ATOM     13  H   UNL     1      44.076 -35.065  10.657  1.00  0.00     0.293 HD
ENDBRANCH   4  12
TORSDOF 2
ENDMDL
