MODEL 1
REMARK VINA RESULT:    -3.645      0.000      0.000
REMARK INTER + INTRA:          -4.728
REMARK INTER:                  -5.563
REMARK INTRA:                   0.835
REMARK UNBOUND:                 0.835
REMARK SMILES CC1=CCC[C@@H](C)C(=O)C[C@H](C(C)C)C(=O)C1
REMARK SMILES IDX 8 1 9 2 6 3 7 4 5 5 4 6 3 7 2 8 1 9 10 11 11 12 15 13 16 14
REMARK SMILES IDX 17 15 12 17 13 18 14 19
REMARK H PARENT
REMARK Flexibility Score: 70.00
ROOT
ATOM      1  C   UNL     1      -6.981  -2.033  10.174  1.00  0.00     0.136 C 
ATOM      2  O   UNL     1      -7.870  -2.588  10.807  1.00  0.00    -0.299 OA
ENDROOT
BRANCH   1   3
ATOM      3  C   UNL     1      -6.991  -0.524  10.036  1.00  0.00     0.053 C 
ATOM      4  C   UNL     1      -6.084   0.121  11.094  1.00  0.00     0.016 C 
BRANCH   3   5
ATOM      5  C   UNL     1      -8.436   0.014  10.144  1.00  0.00     0.015 C 
BRANCH   5   6
ATOM      6  C   UNL     1      -9.380  -0.644   9.118  1.00  0.00     0.028 C 
BRANCH   6   7
ATOM      7  C   UNL     1      -9.226  -0.024   7.753  1.00  0.00    -0.028 C 
ATOM      8  C   UNL     1      -8.675  -0.635   6.679  1.00  0.00    -0.070 CG0
ATOM      9  C   UNL     1      -8.658   0.116   5.371  1.00  0.00     0.039 C 
ATOM     10  G   UNL     1      -8.086  -2.037   6.724  1.00  0.00     0.000 G0
ENDBRANCH   6   7
ENDBRANCH   5   6
ENDBRANCH   3   5
ENDBRANCH   1   3
BRANCH   1  11
ATOM     11  C   UNL     1      -5.893  -2.870   9.545  1.00  0.00     0.087 C 
BRANCH  11  12
ATOM     12  C   UNL     1      -6.243  -3.311   8.100  1.00  0.00     0.066 C 
BRANCH  12  13
ATOM     13  C   UNL     1      -6.698  -2.121   7.262  1.00  0.00     0.140 C 
ATOM     14  O   UNL     1      -5.932  -1.179   7.116  1.00  0.00    -0.299 OA
BRANCH  13  15
ATOM     15  C   UNL     1      -8.086  -2.041   6.670  1.00  0.00     0.106 CG0
ATOM     16  G   UNL     1      -8.650  -0.628   6.710  1.00  0.00     0.000 G0
ENDBRANCH  13  15
ENDBRANCH  12  13
BRANCH  12  17
ATOM     17  C   UNL     1      -5.085  -4.094   7.401  1.00  0.00    -0.006 C 
ATOM     18  C   UNL     1      -4.108  -4.722   8.411  1.00  0.00     0.008 C 
ATOM     19  C   UNL     1      -5.639  -5.209   6.494  1.00  0.00     0.008 C 
ENDBRANCH  12  17
ENDBRANCH  11  12
ENDBRANCH   1  11
TORSDOF 1
ENDMDL
MODEL 2
REMARK VINA RESULT:    -2.967      2.209      5.448
REMARK INTER + INTRA:          -3.693
REMARK INTER:                  -4.574
REMARK INTRA:                   0.881
REMARK UNBOUND:                 0.835
REMARK SMILES CC1=CCC[C@@H](C)C(=O)C[C@H](C(C)C)C(=O)C1
REMARK SMILES IDX 8 1 9 2 6 3 7 4 5 5 4 6 3 7 2 8 1 9 10 11 11 12 15 13 16 14
REMARK SMILES IDX 17 15 12 17 13 18 14 19
REMARK H PARENT
REMARK Flexibility Score: 70.00
ROOT
ATOM      1  C   UNL     1      -7.142  -2.273   6.574  1.00  0.00     0.136 C 
ATOM      2  O   UNL     1      -8.235  -2.490   6.068  1.00  0.00    -0.299 OA
ENDROOT
BRANCH   1   3
ATOM      3  C   UNL     1      -6.072  -3.346   6.533  1.00  0.00     0.053 C 
ATOM      4  C   UNL     1      -6.378  -4.372   5.432  1.00  0.00     0.016 C 
BRANCH   3   5
ATOM      5  C   UNL     1      -5.952  -4.035   7.911  1.00  0.00     0.015 C 
BRANCH   5   6
ATOM      6  C   UNL     1      -4.484  -4.304   8.301  1.00  0.00     0.028 C 
BRANCH   6   7
ATOM      7  C   UNL     1      -4.193  -3.834   9.703  1.00  0.00    -0.028 C 
ATOM      8  C   UNL     1      -4.299  -2.556  10.133  1.00  0.00    -0.070 CG0
ATOM      9  C   UNL     1      -4.026  -2.276  11.590  1.00  0.00     0.039 C 
ATOM     10  G   UNL     1      -4.690  -1.398   9.228  1.00  0.00     0.000 G0
ENDBRANCH   6   7
ENDBRANCH   5   6
ENDBRANCH   3   5
ENDBRANCH   1   3
BRANCH   1  11
ATOM     11  C   UNL     1      -6.885  -0.936   7.228  1.00  0.00     0.087 C 
BRANCH  11  12
ATOM     12  C   UNL     1      -7.229  -0.939   8.740  1.00  0.00     0.066 C 
BRANCH  12  13
ATOM     13  C   UNL     1      -5.977  -0.730   9.584  1.00  0.00     0.140 C 
ATOM     14  O   UNL     1      -6.032   0.032  10.538  1.00  0.00    -0.299 OA
BRANCH  13  15
ATOM     15  C   UNL     1      -4.658  -1.380   9.234  1.00  0.00     0.106 CG0
ATOM     16  G   UNL     1      -4.331  -2.549  10.151  1.00  0.00     0.000 G0
ENDBRANCH  13  15
ENDBRANCH  12  13
BRANCH  12  17
ATOM     17  C   UNL     1      -8.350   0.085   9.114  1.00  0.00    -0.006 C 
ATOM     18  C   UNL     1      -9.552   0.016   8.154  1.00  0.00     0.008 C 
ATOM     19  C   UNL     1      -8.852  -0.146  10.551  1.00  0.00     0.008 C 
ENDBRANCH  12  17
ENDBRANCH  11  12
ENDBRANCH   1  11
TORSDOF 1
ENDMDL
MODEL 3
REMARK VINA RESULT:    -2.864      1.827      4.957
REMARK INTER + INTRA:          -3.536
REMARK INTER:                  -4.688
REMARK INTRA:                   1.151
REMARK UNBOUND:                 0.835
REMARK SMILES CC1=CCC[C@@H](C)C(=O)C[C@H](C(C)C)C(=O)C1
REMARK SMILES IDX 8 1 9 2 6 3 7 4 5 5 4 6 3 7 2 8 1 9 10 11 11 12 15 13 16 14
REMARK SMILES IDX 17 15 12 17 13 18 14 19
REMARK H PARENT
REMARK Flexibility Score: 70.00
ROOT
ATOM      1  C   UNL     1      -6.488  -2.866   6.790  1.00  0.00     0.136 C 
ATOM      2  O   UNL     1      -7.153  -3.250   5.837  1.00  0.00    -0.299 OA
ENDROOT
BRANCH   1   3
ATOM      3  C   UNL     1      -5.495  -3.810   7.438  1.00  0.00     0.053 C 
ATOM      4  C   UNL     1      -5.279  -5.051   6.562  1.00  0.00     0.016 C 
BRANCH   3   5
ATOM      5  C   UNL     1      -5.981  -4.208   8.851  1.00  0.00     0.015 C 
BRANCH   5   6
ATOM      6  C   UNL     1      -4.954  -3.844   9.943  1.00  0.00     0.028 C 
BRANCH   6   7
ATOM      7  C   UNL     1      -4.748  -2.354  10.029  1.00  0.00    -0.028 C 
ATOM      8  C   UNL     1      -5.730  -1.442  10.211  1.00  0.00    -0.070 CG0
ATOM      9  C   UNL     1      -5.333   0.008  10.335  1.00  0.00     0.039 C 
ATOM     10  G   UNL     1      -7.204  -1.807  10.308  1.00  0.00     0.000 G0
ENDBRANCH   6   7
ENDBRANCH   5   6
ENDBRANCH   3   5
ENDBRANCH   1   3
BRANCH   1  11
ATOM     11  C   UNL     1      -6.672  -1.454   7.296  1.00  0.00     0.087 C 
BRANCH  11  12
ATOM     12  C   UNL     1      -8.097  -1.206   7.855  1.00  0.00     0.066 C 
BRANCH  12  13
ATOM     13  C   UNL     1      -8.055  -0.943   9.356  1.00  0.00     0.140 C 
ATOM     14  O   UNL     1      -8.674   0.011   9.803  1.00  0.00    -0.299 OA
BRANCH  13  15
ATOM     15  C   UNL     1      -7.216  -1.783  10.293  1.00  0.00     0.106 CG0
ATOM     16  G   UNL     1      -5.735  -1.449  10.198  1.00  0.00     0.000 G0
ENDBRANCH  13  15
ENDBRANCH  12  13
BRANCH  12  17
ATOM     17  C   UNL     1      -8.863  -0.074   7.097  1.00  0.00    -0.006 C 
ATOM     18  C   UNL     1      -8.600  -0.102   5.580  1.00  0.00     0.008 C 
ATOM     19  C   UNL     1     -10.381  -0.177   7.336  1.00  0.00     0.008 C 
ENDBRANCH  12  17
ENDBRANCH  11  12
ENDBRANCH   1  11
TORSDOF 1
ENDMDL
MODEL 4
REMARK VINA RESULT:    -2.754      1.655      4.282
REMARK INTER + INTRA:          -3.368
REMARK INTER:                  -5.092
REMARK INTRA:                   1.724
REMARK UNBOUND:                 0.835
REMARK SMILES CC1=CCC[C@@H](C)C(=O)C[C@H](C(C)C)C(=O)C1
REMARK SMILES IDX 8 1 9 2 6 3 7 4 5 5 4 6 3 7 2 8 1 9 10 11 11 12 15 13 16 14
REMARK SMILES IDX 17 15 12 17 13 18 14 19
REMARK H PARENT
REMARK Flexibility Score: 70.00
ROOT
ATOM      1  C   UNL     1      -6.816  -1.621   9.928  1.00  0.00     0.136 C 
ATOM      2  O   UNL     1      -7.449  -2.458  10.558  1.00  0.00    -0.299 OA
ENDROOT
BRANCH   1   3
ATOM      3  C   UNL     1      -5.329  -1.465  10.177  1.00  0.00     0.053 C 
ATOM      4  C   UNL     1      -4.718  -0.461   9.189  1.00  0.00     0.016 C 
BRANCH   3   5
ATOM      5  C   UNL     1      -4.624  -2.837  10.078  1.00  0.00     0.015 C 
BRANCH   5   6
ATOM      6  C   UNL     1      -3.993  -3.069   8.690  1.00  0.00     0.028 C 
BRANCH   6   7
ATOM      7  C   UNL     1      -4.455  -4.369   8.086  1.00  0.00    -0.028 C 
ATOM      8  C   UNL     1      -5.325  -4.483   7.057  1.00  0.00    -0.070 CG0
ATOM      9  C   UNL     1      -5.629  -5.866   6.538  1.00  0.00     0.039 C 
ATOM     10  G   UNL     1      -5.998  -3.290   6.394  1.00  0.00     0.000 G0
ENDBRANCH   6   7
ENDBRANCH   5   6
ENDBRANCH   3   5
ENDBRANCH   1   3
BRANCH   1  11
ATOM     11  C   UNL     1      -7.535  -0.762   8.915  1.00  0.00     0.087 C 
BRANCH  11  12
ATOM     12  C   UNL     1      -7.175  -1.142   7.454  1.00  0.00     0.066 C 
BRANCH  12  13
ATOM     13  C   UNL     1      -7.060  -2.653   7.297  1.00  0.00     0.140 C 
ATOM     14  O   UNL     1      -7.789  -3.371   7.966  1.00  0.00    -0.299 OA
BRANCH  13  15
ATOM     15  C   UNL     1      -6.026  -3.289   6.396  1.00  0.00     0.106 CG0
ATOM     16  G   UNL     1      -5.337  -4.474   7.055  1.00  0.00     0.000 G0
ENDBRANCH  13  15
ENDBRANCH  12  13
BRANCH  12  17
ATOM     17  C   UNL     1      -8.158  -0.530   6.404  1.00  0.00    -0.006 C 
ATOM     18  C   UNL     1      -8.664  -1.577   5.394  1.00  0.00     0.008 C 
ATOM     19  C   UNL     1      -9.372   0.117   7.093  1.00  0.00     0.008 C 
ENDBRANCH  12  17
ENDBRANCH  11  12
ENDBRANCH   1  11
TORSDOF 1
ENDMDL
MODEL 5
REMARK VINA RESULT:    -2.716      1.790      3.881
REMARK INTER + INTRA:          -3.311
REMARK INTER:                  -3.477
REMARK INTRA:                   0.167
REMARK UNBOUND:                 0.835
REMARK SMILES CC1=CCC[C@@H](C)C(=O)C[C@H](C(C)C)C(=O)C1
REMARK SMILES IDX 8 1 9 2 6 3 7 4 5 5 4 6 3 7 2 8 1 9 10 11 11 12 15 13 16 14
REMARK SMILES IDX 17 15 12 17 13 18 14 19
REMARK H PARENT
REMARK Flexibility Score: 70.00
ROOT
ATOM      1  C   UNL     1      -7.130  -2.879   6.646  1.00  0.00     0.136 C 
ATOM      2  O   UNL     1      -6.340  -3.114   5.741  1.00  0.00    -0.299 OA
ENDROOT
BRANCH   1   3
ATOM      3  C   UNL     1      -8.200  -1.824   6.450  1.00  0.00     0.053 C 
ATOM      4  C   UNL     1      -8.987  -2.087   5.158  1.00  0.00     0.016 C 
BRANCH   3   5
ATOM      5  C   UNL     1      -7.565  -0.415   6.434  1.00  0.00     0.015 C 
BRANCH   5   6
ATOM      6  C   UNL     1      -6.911  -0.056   7.784  1.00  0.00     0.028 C 
BRANCH   6   7
ATOM      7  C   UNL     1      -7.945   0.120   8.866  1.00  0.00    -0.028 C 
ATOM      8  C   UNL     1      -7.816  -0.310  10.142  1.00  0.00    -0.070 CG0
ATOM      9  C   UNL     1      -8.929   0.008  11.110  1.00  0.00     0.039 C 
ATOM     10  G   UNL     1      -6.607  -1.082  10.647  1.00  0.00     0.000 G0
ENDBRANCH   6   7
ENDBRANCH   5   6
ENDBRANCH   3   5
ENDBRANCH   1   3
BRANCH   1  11
ATOM     11  C   UNL     1      -7.019  -3.651   7.939  1.00  0.00     0.087 C 
BRANCH  11  12
ATOM     12  C   UNL     1      -5.977  -3.036   8.910  1.00  0.00     0.066 C 
BRANCH  12  13
ATOM     13  C   UNL     1      -6.649  -2.539  10.185  1.00  0.00     0.140 C 
ATOM     14  O   UNL     1      -7.298  -3.329  10.854  1.00  0.00    -0.299 OA
BRANCH  13  15
ATOM     15  C   UNL     1      -6.593  -1.088  10.605  1.00  0.00     0.106 CG0
ATOM     16  G   UNL     1      -7.808  -0.303  10.132  1.00  0.00     0.000 G0
ENDBRANCH  13  15
ENDBRANCH  12  13
BRANCH  12  17
ATOM     17  C   UNL     1      -4.791  -4.003   9.227  1.00  0.00    -0.006 C 
ATOM     18  C   UNL     1      -4.013  -4.413   7.963  1.00  0.00     0.008 C 
ATOM     19  C   UNL     1      -3.808  -3.365  10.225  1.00  0.00     0.008 C 
ENDBRANCH  12  17
ENDBRANCH  11  12
ENDBRANCH   1  11
TORSDOF 1
ENDMDL
MODEL 6
REMARK VINA RESULT:    -2.375      1.558      3.452
REMARK INTER + INTRA:          -2.790
REMARK INTER:                  -4.737
REMARK INTRA:                   1.947
REMARK UNBOUND:                 0.835
REMARK SMILES CC1=CCC[C@@H](C)C(=O)C[C@H](C(C)C)C(=O)C1
REMARK SMILES IDX 8 1 9 2 6 3 7 4 5 5 4 6 3 7 2 8 1 9 10 11 11 12 15 13 16 14
REMARK SMILES IDX 17 15 12 17 13 18 14 19
REMARK H PARENT
REMARK Flexibility Score: 70.00
ROOT
ATOM      1  C   UNL     1      -6.236  -3.414  10.012  1.00  0.00     0.136 C 
ATOM      2  O   UNL     1      -5.858  -3.958  11.042  1.00  0.00    -0.299 OA
ENDROOT
BRANCH   1   3
ATOM      3  C   UNL     1      -5.708  -3.895   8.676  1.00  0.00     0.053 C 
ATOM      4  C   UNL     1      -4.463  -3.095   8.268  1.00  0.00     0.016 C 
BRANCH   3   5
ATOM      5  C   UNL     1      -6.810  -3.790   7.597  1.00  0.00     0.015 C 
BRANCH   5   6
ATOM      6  C   UNL     1      -6.587  -2.593   6.651  1.00  0.00     0.028 C 
BRANCH   6   7
ATOM      7  C   UNL     1      -7.827  -2.284   5.853  1.00  0.00    -0.028 C 
ATOM      8  C   UNL     1      -8.597  -1.182   6.005  1.00  0.00    -0.070 CG0
ATOM      9  C   UNL     1      -9.771  -1.006   5.075  1.00  0.00     0.039 C 
ATOM     10  G   UNL     1      -8.328  -0.113   7.054  1.00  0.00     0.000 G0
ENDBRANCH   6   7
ENDBRANCH   5   6
ENDBRANCH   3   5
ENDBRANCH   1   3
BRANCH   1  11
ATOM     11  C   UNL     1      -7.224  -2.276  10.101  1.00  0.00     0.087 C 
BRANCH  11  12
ATOM     12  C   UNL     1      -6.950  -1.168   9.050  1.00  0.00     0.066 C 
BRANCH  12  13
ATOM     13  C   UNL     1      -8.253  -0.638   8.465  1.00  0.00     0.140 C 
ATOM     14  O   UNL     1      -9.271  -0.709   9.137  1.00  0.00    -0.299 OA
BRANCH  13  15
ATOM     15  C   UNL     1      -8.337  -0.095   7.056  1.00  0.00     0.106 CG0
ATOM     16  G   UNL     1      -8.586  -1.190   6.030  1.00  0.00     0.000 G0
ENDBRANCH  13  15
ENDBRANCH  12  13
BRANCH  12  17
ATOM     17  C   UNL     1      -6.056  -0.010   9.601  1.00  0.00    -0.006 C 
ATOM     18  C   UNL     1      -5.865  -0.091  11.127  1.00  0.00     0.008 C 
ATOM     19  C   UNL     1      -4.670  -0.014   8.930  1.00  0.00     0.008 C 
ENDBRANCH  12  17
ENDBRANCH  11  12
ENDBRANCH   1  11
TORSDOF 1
ENDMDL
MODEL 7
REMARK VINA RESULT:    -2.251      1.900      3.834
REMARK INTER + INTRA:          -2.600
REMARK INTER:                  -4.606
REMARK INTRA:                   2.007
REMARK UNBOUND:                 0.835
REMARK SMILES CC1=CCC[C@@H](C)C(=O)C[C@H](C(C)C)C(=O)C1
REMARK SMILES IDX 8 1 9 2 6 3 7 4 5 5 4 6 3 7 2 8 1 9 10 11 11 12 15 13 16 14
REMARK SMILES IDX 17 15 12 17 13 18 14 19
REMARK H PARENT
REMARK Flexibility Score: 70.00
ROOT
ATOM      1  C   UNL     1      -4.622  -4.224   8.010  1.00  0.00     0.136 C 
ATOM      2  O   UNL     1      -4.001  -5.277   8.080  1.00  0.00    -0.299 OA
ENDROOT
BRANCH   1   3
ATOM      3  C   UNL     1      -5.900  -4.162   7.199  1.00  0.00     0.053 C 
ATOM      4  C   UNL     1      -5.921  -5.271   6.137  1.00  0.00     0.016 C 
BRANCH   3   5
ATOM      5  C   UNL     1      -6.052  -2.769   6.547  1.00  0.00     0.015 C 
BRANCH   5   6
ATOM      6  C   UNL     1      -7.509  -2.475   6.134  1.00  0.00     0.028 C 
BRANCH   6   7
ATOM      7  C   UNL     1      -8.237  -1.699   7.201  1.00  0.00    -0.028 C 
ATOM      8  C   UNL     1      -7.646  -0.931   8.145  1.00  0.00    -0.070 CG0
ATOM      9  C   UNL     1      -8.535  -0.174   9.099  1.00  0.00     0.039 C 
ATOM     10  G   UNL     1      -6.137  -0.787   8.282  1.00  0.00     0.000 G0
ENDBRANCH   6   7
ENDBRANCH   5   6
ENDBRANCH   3   5
ENDBRANCH   1   3
BRANCH   1  11
ATOM     11  C   UNL     1      -4.096  -3.009   8.738  1.00  0.00     0.087 C 
BRANCH  11  12
ATOM     12  C   UNL     1      -5.029  -2.561   9.894  1.00  0.00     0.066 C 
BRANCH  12  13
ATOM     13  C   UNL     1      -5.591  -1.169   9.630  1.00  0.00     0.140 C 
ATOM     14  O   UNL     1      -5.661  -0.377  10.559  1.00  0.00    -0.299 OA
BRANCH  13  15
ATOM     15  C   UNL     1      -6.128  -0.765   8.276  1.00  0.00     0.106 CG0
ATOM     16  G   UNL     1      -7.634  -0.949   8.174  1.00  0.00     0.000 G0
ENDBRANCH  13  15
ENDBRANCH  12  13
BRANCH  12  17
ATOM     17  C   UNL     1      -6.166  -3.590  10.197  1.00  0.00    -0.006 C 
ATOM     18  C   UNL     1      -5.680  -4.760  11.071  1.00  0.00     0.008 C 
ATOM     19  C   UNL     1      -7.354  -2.910  10.900  1.00  0.00     0.008 C 
ENDBRANCH  12  17
ENDBRANCH  11  12
ENDBRANCH   1  11
TORSDOF 1
ENDMDL
MODEL 8
REMARK VINA RESULT:    -2.226      1.649      2.978
REMARK INTER + INTRA:          -2.563
REMARK INTER:                  -2.955
REMARK INTRA:                   0.392
REMARK UNBOUND:                 0.835
REMARK SMILES CC1=CCC[C@@H](C)C(=O)C[C@H](C(C)C)C(=O)C1
REMARK SMILES IDX 8 1 9 2 6 3 7 4 5 5 4 6 3 7 2 8 1 9 10 11 11 12 15 13 16 14
REMARK SMILES IDX 17 15 12 17 13 18 14 19
REMARK H PARENT
REMARK Flexibility Score: 70.00
ROOT
ATOM      1  C   UNL     1      -7.823  -1.979   9.876  1.00  0.00     0.136 C 
ATOM      2  O   UNL     1      -8.645  -2.886   9.882  1.00  0.00    -0.299 OA
ENDROOT
BRANCH   1   3
ATOM      3  C   UNL     1      -8.195  -0.636   9.279  1.00  0.00     0.053 C 
ATOM      4  C   UNL     1      -9.326   0.019  10.085  1.00  0.00     0.016 C 
BRANCH   3   5
ATOM      5  C   UNL     1      -8.599  -0.805   7.796  1.00  0.00     0.015 C 
BRANCH   5   6
ATOM      6  C   UNL     1      -7.385  -1.097   6.892  1.00  0.00     0.028 C 
BRANCH   6   7
ATOM      7  C   UNL     1      -7.332  -2.549   6.495  1.00  0.00    -0.028 C 
ATOM      8  C   UNL     1      -6.237  -3.340   6.579  1.00  0.00    -0.070 CG0
ATOM      9  C   UNL     1      -6.382  -4.791   6.194  1.00  0.00     0.039 C 
ATOM     10  G   UNL     1      -4.880  -2.842   7.053  1.00  0.00     0.000 G0
ENDBRANCH   6   7
ENDBRANCH   5   6
ENDBRANCH   3   5
ENDBRANCH   1   3
BRANCH   1  11
ATOM     11  C   UNL     1      -6.455  -2.220  10.469  1.00  0.00     0.087 C 
BRANCH  11  12
ATOM     12  C   UNL     1      -5.587  -3.161   9.594  1.00  0.00     0.066 C 
BRANCH  12  13
ATOM     13  C   UNL     1      -4.888  -2.382   8.486  1.00  0.00     0.140 C 
ATOM     14  O   UNL     1      -4.372  -1.308   8.758  1.00  0.00    -0.299 OA
BRANCH  13  15
ATOM     15  C   UNL     1      -4.875  -2.864   7.053  1.00  0.00     0.106 CG0
ATOM     16  G   UNL     1      -6.247  -3.330   6.589  1.00  0.00     0.000 G0
ENDBRANCH  13  15
ENDBRANCH  12  13
BRANCH  12  17
ATOM     17  C   UNL     1      -4.572  -4.008  10.427  1.00  0.00    -0.006 C 
ATOM     18  C   UNL     1      -5.270  -5.056  11.313  1.00  0.00     0.008 C 
ATOM     19  C   UNL     1      -3.568  -4.730   9.509  1.00  0.00     0.008 C 
ENDBRANCH  12  17
ENDBRANCH  11  12
ENDBRANCH   1  11
TORSDOF 1
ENDMDL
MODEL 9
REMARK VINA RESULT:    -2.108      2.156      4.495
REMARK INTER + INTRA:          -2.382
REMARK INTER:                  -3.649
REMARK INTRA:                   1.267
REMARK UNBOUND:                 0.835
REMARK SMILES CC1=CCC[C@@H](C)C(=O)C[C@H](C(C)C)C(=O)C1
REMARK SMILES IDX 8 1 9 2 6 3 7 4 5 5 4 6 3 7 2 8 1 9 10 11 11 12 15 13 16 14
REMARK SMILES IDX 17 15 12 17 13 18 14 19
REMARK H PARENT
REMARK Flexibility Score: 70.00
ROOT
ATOM      1  C   UNL     1      -8.170  -1.374   8.432  1.00  0.00     0.136 C 
ATOM      2  O   UNL     1      -9.065  -0.594   8.732  1.00  0.00    -0.299 OA
ENDROOT
BRANCH   1   3
ATOM      3  C   UNL     1      -7.457  -1.219   7.104  1.00  0.00     0.053 C 
ATOM      4  C   UNL     1      -7.900   0.072   6.401  1.00  0.00     0.016 C 
BRANCH   3   5
ATOM      5  C   UNL     1      -7.719  -2.453   6.210  1.00  0.00     0.015 C 
BRANCH   5   6
ATOM      6  C   UNL     1      -7.174  -3.752   6.838  1.00  0.00     0.028 C 
BRANCH   6   7
ATOM      7  C   UNL     1      -5.669  -3.736   6.916  1.00  0.00    -0.028 C 
ATOM      8  C   UNL     1      -4.945  -4.019   8.022  1.00  0.00    -0.070 CG0
ATOM      9  C   UNL     1      -3.441  -4.015   7.902  1.00  0.00     0.039 C 
ATOM     10  G   UNL     1      -5.569  -4.353   9.369  1.00  0.00     0.000 G0
ENDBRANCH   6   7
ENDBRANCH   5   6
ENDBRANCH   3   5
ENDBRANCH   1   3
BRANCH   1  11
ATOM     11  C   UNL     1      -7.796  -2.473   9.399  1.00  0.00     0.087 C 
BRANCH  11  12
ATOM     12  C   UNL     1      -6.616  -2.074  10.323  1.00  0.00     0.066 C 
BRANCH  12  13
ATOM     13  C   UNL     1      -5.522  -3.135  10.297  1.00  0.00     0.140 C 
ATOM     14  O   UNL     1      -4.544  -2.988  11.016  1.00  0.00    -0.299 OA
BRANCH  13  15
ATOM     15  C   UNL     1      -5.577  -4.320   9.361  1.00  0.00     0.106 CG0
ATOM     16  G   UNL     1      -4.945  -4.018   8.011  1.00  0.00     0.000 G0
ENDBRANCH  13  15
ENDBRANCH  12  13
BRANCH  12  17
ATOM     17  C   UNL     1      -6.044  -0.653  10.007  1.00  0.00    -0.006 C 
ATOM     18  C   UNL     1      -5.669   0.125  11.281  1.00  0.00     0.008 C 
ATOM     19  C   UNL     1      -4.803  -0.746   9.102  1.00  0.00     0.008 C 
ENDBRANCH  12  17
ENDBRANCH  11  12
ENDBRANCH   1  11
TORSDOF 1
ENDMDL
