MODEL 1
REMARK VINA RESULT:    -5.445      0.000      0.000
REMARK INTER + INTRA:          -6.048
REMARK INTER:                  -5.923
REMARK INTRA:                  -0.125
REMARK UNBOUND:                -0.125
REMARK SMILES Cc1ccc(C(C)C)cc1O
REMARK SMILES IDX 1 1 2 2 10 3 9 4 5 5 4 6 3 7 11 8 6 10 7 11 8 12
REMARK H PARENT 11 9
REMARK Flexibility Score: inf
ROOT
ATOM      1  C   UNL     1     -10.754  -3.779  -9.413  1.00  0.00     0.048 C 
ATOM      2  C   UNL     1     -11.255  -4.456  -8.169  1.00  0.00    -0.009 A 
ATOM      3  C   UNL     1     -10.706  -5.684  -7.760  1.00  0.00     0.118 A 
ATOM      4  C   UNL     1     -11.178  -6.309  -6.596  1.00  0.00     0.050 A 
ATOM      5  C   UNL     1     -12.199  -5.721  -5.829  1.00  0.00    -0.042 A 
ATOM      6  C   UNL     1     -12.740  -4.492  -6.246  1.00  0.00     0.004 A 
ATOM      7  C   UNL     1     -12.273  -3.866  -7.404  1.00  0.00     0.007 A 
ENDROOT
BRANCH   3   8
ATOM      8  O   UNL     1      -9.693  -6.280  -8.510  1.00  0.00    -0.508 OA
ATOM      9  H   UNL     1      -9.285  -7.169  -8.242  1.00  0.00     0.293 HD
ENDBRANCH   3   8
BRANCH   5  10
ATOM     10  C   UNL     1     -12.697  -6.411  -4.573  1.00  0.00     0.013 C 
ATOM     11  C   UNL     1     -13.378  -5.415  -3.627  1.00  0.00     0.012 C 
ATOM     12  C   UNL     1     -13.636  -7.574  -4.917  1.00  0.00     0.012 C 
ENDBRANCH   5  10
TORSDOF 2
ENDMDL
MODEL 2
REMARK VINA RESULT:    -5.349      1.862      2.772
REMARK INTER + INTRA:          -5.943
REMARK INTER:                  -5.817
REMARK INTRA:                  -0.125
REMARK UNBOUND:                -0.125
REMARK SMILES Cc1ccc(C(C)C)cc1O
REMARK SMILES IDX 1 1 2 2 10 3 9 4 5 5 4 6 3 7 11 8 6 10 7 11 8 12
REMARK H PARENT 11 9
REMARK Flexibility Score: inf
ROOT
ATOM      1  C   UNL     1     -10.919  -4.746 -11.125  1.00  0.00     0.048 C 
ATOM      2  C   UNL     1     -10.967  -4.801  -9.624  1.00  0.00    -0.009 A 
ATOM      3  C   UNL     1     -11.602  -3.779  -8.897  1.00  0.00     0.118 A 
ATOM      4  C   UNL     1     -11.643  -3.837  -7.496  1.00  0.00     0.050 A 
ATOM      5  C   UNL     1     -11.053  -4.909  -6.805  1.00  0.00    -0.042 A 
ATOM      6  C   UNL     1     -10.420  -5.926  -7.542  1.00  0.00     0.004 A 
ATOM      7  C   UNL     1     -10.377  -5.873  -8.936  1.00  0.00     0.007 A 
ENDROOT
BRANCH   3   8
ATOM      8  O   UNL     1     -12.192  -2.708  -9.569  1.00  0.00    -0.508 OA
ATOM      9  H   UNL     1     -13.095  -2.339  -9.291  1.00  0.00     0.293 HD
ENDBRANCH   3   8
BRANCH   5  10
ATOM     10  C   UNL     1     -11.107  -4.956  -5.290  1.00  0.00     0.013 C 
ATOM     11  C   UNL     1     -12.497  -5.379  -4.798  1.00  0.00     0.012 C 
ATOM     12  C   UNL     1     -10.020  -5.878  -4.726  1.00  0.00     0.012 C 
ENDBRANCH   5  10
TORSDOF 2
ENDMDL
MODEL 3
REMARK VINA RESULT:    -5.343      2.102      2.956
REMARK INTER + INTRA:          -5.937
REMARK INTER:                  -5.811
REMARK INTRA:                  -0.125
REMARK UNBOUND:                -0.125
REMARK SMILES Cc1ccc(C(C)C)cc1O
REMARK SMILES IDX 1 1 2 2 10 3 9 4 5 5 4 6 3 7 11 8 6 10 7 11 8 12
REMARK H PARENT 11 9
REMARK Flexibility Score: inf
ROOT
ATOM      1  C   UNL     1     -11.391  -3.261  -9.650  1.00  0.00     0.048 C 
ATOM      2  C   UNL     1     -11.217  -4.325  -8.604  1.00  0.00    -0.009 A 
ATOM      3  C   UNL     1     -11.955  -4.271  -7.408  1.00  0.00     0.118 A 
ATOM      4  C   UNL     1     -11.788  -5.269  -6.436  1.00  0.00     0.050 A 
ATOM      5  C   UNL     1     -10.886  -6.327  -6.642  1.00  0.00    -0.042 A 
ATOM      6  C   UNL     1     -10.153  -6.372  -7.841  1.00  0.00     0.004 A 
ATOM      7  C   UNL     1     -10.317  -5.381  -8.812  1.00  0.00     0.007 A 
ENDROOT
BRANCH   3   8
ATOM      8  O   UNL     1     -12.854  -3.227  -7.189  1.00  0.00    -0.508 OA
ATOM      9  H   UNL     1     -13.186  -2.644  -7.949  1.00  0.00     0.293 HD
ENDBRANCH   3   8
BRANCH   5  10
ATOM     10  C   UNL     1     -10.718  -7.397  -5.580  1.00  0.00     0.013 C 
ATOM     11  C   UNL     1     -11.447  -8.688  -5.974  1.00  0.00     0.012 C 
ATOM     12  C   UNL     1      -9.235  -7.667  -5.298  1.00  0.00     0.012 C 
ENDBRANCH   5  10
TORSDOF 2
ENDMDL
MODEL 4
REMARK VINA RESULT:    -5.085      1.618      2.237
REMARK INTER + INTRA:          -5.656
REMARK INTER:                  -5.556
REMARK INTRA:                  -0.100
REMARK UNBOUND:                -0.125
REMARK SMILES Cc1ccc(C(C)C)cc1O
REMARK SMILES IDX 1 1 2 2 10 3 9 4 5 5 4 6 3 7 11 8 6 10 7 11 8 12
REMARK H PARENT 11 9
REMARK Flexibility Score: inf
ROOT
ATOM      1  C   UNL     1     -11.745  -2.919  -9.491  1.00  0.00     0.048 C 
ATOM      2  C   UNL     1     -11.501  -4.005  -8.483  1.00  0.00    -0.009 A 
ATOM      3  C   UNL     1     -10.613  -5.056  -8.773  1.00  0.00     0.118 A 
ATOM      4  C   UNL     1     -10.390  -6.067  -7.826  1.00  0.00     0.050 A 
ATOM      5  C   UNL     1     -11.047  -6.044  -6.584  1.00  0.00    -0.042 A 
ATOM      6  C   UNL     1     -11.933  -4.988  -6.303  1.00  0.00     0.004 A 
ATOM      7  C   UNL     1     -12.158  -3.980  -7.243  1.00  0.00     0.007 A 
ENDROOT
BRANCH   3   8
ATOM      8  O   UNL     1      -9.954  -5.093 -10.001  1.00  0.00    -0.508 OA
ATOM      9  H   UNL     1      -8.975  -5.349 -10.072  1.00  0.00     0.293 HD
ENDBRANCH   3   8
BRANCH   5  10
ATOM     10  C   UNL     1     -10.794  -7.145  -5.572  1.00  0.00     0.013 C 
ATOM     11  C   UNL     1     -11.482  -8.451  -5.990  1.00  0.00     0.012 C 
ATOM     12  C   UNL     1      -9.291  -7.361  -5.353  1.00  0.00     0.012 C 
ENDBRANCH   5  10
TORSDOF 2
ENDMDL
MODEL 5
REMARK VINA RESULT:    -4.920      1.349      4.326
REMARK INTER + INTRA:          -5.476
REMARK INTER:                  -5.350
REMARK INTRA:                  -0.126
REMARK UNBOUND:                -0.125
REMARK SMILES Cc1ccc(C(C)C)cc1O
REMARK SMILES IDX 1 1 2 2 10 3 9 4 5 5 4 6 3 7 11 8 6 10 7 11 8 12
REMARK H PARENT 11 9
REMARK Flexibility Score: inf
ROOT
ATOM      1  C   UNL     1     -12.994  -5.903  -4.146  1.00  0.00     0.048 C 
ATOM      2  C   UNL     1     -12.425  -5.541  -5.488  1.00  0.00    -0.009 A 
ATOM      3  C   UNL     1     -11.517  -6.402  -6.130  1.00  0.00     0.118 A 
ATOM      4  C   UNL     1     -10.991  -6.057  -7.383  1.00  0.00     0.050 A 
ATOM      5  C   UNL     1     -11.358  -4.855  -8.011  1.00  0.00    -0.042 A 
ATOM      6  C   UNL     1     -12.267  -4.000  -7.361  1.00  0.00     0.004 A 
ATOM      7  C   UNL     1     -12.794  -4.340  -6.113  1.00  0.00     0.007 A 
ENDROOT
BRANCH   3   8
ATOM      8  O   UNL     1     -11.142  -7.599  -5.520  1.00  0.00    -0.508 OA
ATOM      9  H   UNL     1     -10.408  -7.633  -4.822  1.00  0.00     0.293 HD
ENDBRANCH   3   8
BRANCH   5  10
ATOM     10  C   UNL     1     -10.779  -4.498  -9.366  1.00  0.00     0.013 C 
ATOM     11  C   UNL     1     -11.223  -5.500 -10.439  1.00  0.00     0.012 C 
ATOM     12  C   UNL     1     -11.148  -3.065  -9.766  1.00  0.00     0.012 C 
ENDBRANCH   5  10
TORSDOF 2
ENDMDL
MODEL 6
REMARK VINA RESULT:    -4.711      2.003      4.265
REMARK INTER + INTRA:          -5.250
REMARK INTER:                  -5.135
REMARK INTRA:                  -0.115
REMARK UNBOUND:                -0.125
REMARK SMILES Cc1ccc(C(C)C)cc1O
REMARK SMILES IDX 1 1 2 2 10 3 9 4 5 5 4 6 3 7 11 8 6 10 7 11 8 12
REMARK H PARENT 11 9
REMARK Flexibility Score: inf
ROOT
ATOM      1  C   UNL     1      -9.908  -6.086  -4.730  1.00  0.00     0.048 C 
ATOM      2  C   UNL     1     -10.359  -5.520  -6.046  1.00  0.00    -0.009 A 
ATOM      3  C   UNL     1      -9.745  -5.930  -7.243  1.00  0.00     0.118 A 
ATOM      4  C   UNL     1     -10.172  -5.398  -8.468  1.00  0.00     0.050 A 
ATOM      5  C   UNL     1     -11.211  -4.453  -8.517  1.00  0.00    -0.042 A 
ATOM      6  C   UNL     1     -11.819  -4.049  -7.314  1.00  0.00     0.004 A 
ATOM      7  C   UNL     1     -11.397  -4.577  -6.092  1.00  0.00     0.007 A 
ENDROOT
BRANCH   3   8
ATOM      8  O   UNL     1      -8.712  -6.867  -7.211  1.00  0.00    -0.508 OA
ATOM      9  H   UNL     1      -7.771  -6.612  -6.933  1.00  0.00     0.293 HD
ENDBRANCH   3   8
BRANCH   5  10
ATOM     10  C   UNL     1     -11.660  -3.887  -9.850  1.00  0.00     0.013 C 
ATOM     11  C   UNL     1     -11.420  -2.374  -9.920  1.00  0.00     0.012 C 
ATOM     12  C   UNL     1     -10.972  -4.608 -11.016  1.00  0.00     0.012 C 
ENDBRANCH   5  10
TORSDOF 2
ENDMDL
MODEL 7
REMARK VINA RESULT:    -4.695      3.507      5.203
REMARK INTER + INTRA:          -5.232
REMARK INTER:                  -5.107
REMARK INTRA:                  -0.125
REMARK UNBOUND:                -0.125
REMARK SMILES Cc1ccc(C(C)C)cc1O
REMARK SMILES IDX 1 1 2 2 10 3 9 4 5 5 4 6 3 7 11 8 6 10 7 11 8 12
REMARK H PARENT 11 9
REMARK Flexibility Score: inf
ROOT
ATOM      1  C   UNL     1      -9.854 -11.703  -5.108  1.00  0.00     0.048 C 
ATOM      2  C   UNL     1      -9.938 -10.212  -5.267  1.00  0.00    -0.009 A 
ATOM      3  C   UNL     1      -8.848  -9.397  -4.913  1.00  0.00     0.118 A 
ATOM      4  C   UNL     1      -8.934  -8.006  -5.066  1.00  0.00     0.050 A 
ATOM      5  C   UNL     1     -10.103  -7.410  -5.571  1.00  0.00    -0.042 A 
ATOM      6  C   UNL     1     -11.188  -8.233  -5.923  1.00  0.00     0.004 A 
ATOM      7  C   UNL     1     -11.106  -9.619  -5.772  1.00  0.00     0.007 A 
ENDROOT
BRANCH   3   8
ATOM      8  O   UNL     1      -7.682  -9.973  -4.411  1.00  0.00    -0.508 OA
ATOM      9  H   UNL     1      -7.485 -10.961  -4.526  1.00  0.00     0.293 HD
ENDBRANCH   3   8
BRANCH   5  10
ATOM     10  C   UNL     1     -10.178  -5.903  -5.730  1.00  0.00     0.013 C 
ATOM     11  C   UNL     1     -10.083  -5.497  -7.205  1.00  0.00     0.012 C 
ATOM     12  C   UNL     1     -11.452  -5.343  -5.085  1.00  0.00     0.012 C 
ENDBRANCH   5  10
TORSDOF 2
ENDMDL
MODEL 8
REMARK VINA RESULT:    -4.520      6.797      8.509
REMARK INTER + INTRA:          -5.042
REMARK INTER:                  -4.915
REMARK INTRA:                  -0.127
REMARK UNBOUND:                -0.125
REMARK SMILES Cc1ccc(C(C)C)cc1O
REMARK SMILES IDX 1 1 2 2 10 3 9 4 5 5 4 6 3 7 11 8 6 10 7 11 8 12
REMARK H PARENT 11 9
REMARK Flexibility Score: inf
ROOT
ATOM      1  C   UNL     1     -10.374 -10.909  -5.031  1.00  0.00     0.048 C 
ATOM      2  C   UNL     1      -8.973 -11.044  -5.556  1.00  0.00    -0.009 A 
ATOM      3  C   UNL     1      -7.964 -10.167  -5.120  1.00  0.00     0.118 A 
ATOM      4  C   UNL     1      -6.658 -10.299  -5.614  1.00  0.00     0.050 A 
ATOM      5  C   UNL     1      -6.342 -11.302  -6.546  1.00  0.00    -0.042 A 
ATOM      6  C   UNL     1      -7.358 -12.175  -6.976  1.00  0.00     0.004 A 
ATOM      7  C   UNL     1      -8.659 -12.047  -6.486  1.00  0.00     0.007 A 
ENDROOT
BRANCH   3   8
ATOM      8  O   UNL     1      -8.263  -9.166  -4.195  1.00  0.00    -0.508 OA
ATOM      9  H   UNL     1      -8.267  -8.186  -4.455  1.00  0.00     0.293 HD
ENDBRANCH   3   8
BRANCH   5  10
ATOM     10  C   UNL     1      -4.924 -11.431  -7.070  1.00  0.00     0.013 C 
ATOM     11  C   UNL     1      -3.899 -11.063  -5.989  1.00  0.00     0.012 C 
ATOM     12  C   UNL     1      -4.663 -12.839  -7.619  1.00  0.00     0.012 C 
ENDBRANCH   5  10
TORSDOF 2
ENDMDL
