MODEL 1
REMARK VINA RESULT:    -3.717      0.000      0.000
REMARK INTER + INTRA:          -8.700
REMARK INTER:                  -8.824
REMARK INTRA:                   0.124
REMARK UNBOUND:                 0.124
REMARK SMILES O=C(OC[C@@H]1O[C@@H](OC(=O)c2cc(O)c(O)c(O)c2)[C@@H](OC(=O)c2cc(O)c(O)c(O)c2)[C@H](OC(=O)c2cc(O)c(O)c(O)c2)[C@@H]1OC(=O)c1cc(O)c(O)c(O)c1)c1cc(O)c(O)c(O)c1
REMARK SMILES IDX 5 1 46 2 33 3 20 4 7 5 6 6 4 7 3 8 2 9 1 10 59 11 60 12
REMARK SMILES IDX 61 13 67 14 63 15 65 16 62 17 64 19 66 21 47 23 48 24 49 25
REMARK SMILES IDX 50 26 58 27 51 28 56 29 52 30 54 31 57 32 53 34 55 36 34 38
REMARK SMILES IDX 35 39 36 40 37 41 45 42 38 43 43 44 39 45 41 46 44 47 40 49
REMARK SMILES IDX 42 51 8 53 9 54 10 55 11 56 19 57 12 58 17 59 13 60 15 61
REMARK SMILES IDX 18 62 14 64 16 66 21 68 22 69 23 70 24 71 32 72 25 73 30 74
REMARK SMILES IDX 26 75 28 76 31 77 27 79 29 81
REMARK H PARENT 62 18 64 20 66 22 57 33 53 35 55 37 44 48 40 50 42 52 18 63
REMARK H PARENT 14 65 16 67 31 78 27 80 29 82
REMARK Flexibility Score: inf
ROOT
ATOM      1  C   UNL     1      -7.906  19.957  -5.459  1.00  0.00     0.205 C 
ATOM      2  C   UNL     1      -6.368  19.994  -5.596  1.00  0.00     0.254 C 
ATOM      3  C   UNL     1      -5.998  20.492  -7.008  1.00  0.00     0.267 C 
ATOM      4  C   UNL     1      -6.733  19.657  -8.072  1.00  0.00     0.290 C 
ATOM      5  C   UNL     1      -8.238  19.598  -7.754  1.00  0.00     0.357 C 
ATOM      6  O   UNL     1      -8.471  19.105  -6.444  1.00  0.00    -0.329 OA
ENDROOT
BRANCH   1   7
ATOM      7  C   UNL     1      -8.325  19.464  -4.064  1.00  0.00     0.269 C 
BRANCH   7   8
ATOM      8  O   UNL     1      -9.531  18.705  -4.139  1.00  0.00    -0.459 OA
BRANCH   8   9
ATOM      9  C   UNL     1      -9.699  17.437  -3.570  1.00  0.00     0.338 C 
ATOM     10  O   UNL     1     -10.429  17.290  -2.553  1.00  0.00    -0.246 OA
BRANCH   9  11
ATOM     11  C   UNL     1      -9.042  16.266  -4.189  1.00  0.00     0.067 A 
ATOM     12  C   UNL     1      -8.672  16.297  -5.540  1.00  0.00     0.066 A 
ATOM     13  C   UNL     1      -8.066  15.192  -6.142  1.00  0.00     0.162 A 
ATOM     14  C   UNL     1      -8.786  15.108  -3.439  1.00  0.00     0.066 A 
ATOM     15  C   UNL     1      -7.820  14.027  -5.393  1.00  0.00     0.200 A 
ATOM     16  C   UNL     1      -8.178  13.991  -4.022  1.00  0.00     0.162 A 
BRANCH  13  17
ATOM     17  O   UNL     1      -7.730  15.262  -7.495  1.00  0.00    -0.504 OA
ATOM     18  H   UNL     1      -7.923  16.080  -8.061  1.00  0.00     0.293 HD
ENDBRANCH  13  17
BRANCH  15  19
ATOM     19  O   UNL     1      -7.230  12.935  -6.037  1.00  0.00    -0.502 OA
ATOM     20  H   UNL     1      -7.498  12.607  -6.952  1.00  0.00     0.293 HD
ENDBRANCH  15  19
BRANCH  16  21
ATOM     21  O   UNL     1      -7.943  12.880  -3.208  1.00  0.00    -0.504 OA
ATOM     22  H   UNL     1      -7.464  12.914  -2.323  1.00  0.00     0.293 HD
ENDBRANCH  16  21
ENDBRANCH   9  11
ENDBRANCH   8   9
ENDBRANCH   7   8
ENDBRANCH   1   7
BRANCH   2  23
ATOM     23  O   UNL     1      -5.841  18.683  -5.391  1.00  0.00    -0.452 OA
BRANCH  23  24
ATOM     24  C   UNL     1      -5.043  18.321  -4.297  1.00  0.00     0.338 C 
ATOM     25  O   UNL     1      -4.376  19.195  -3.678  1.00  0.00    -0.246 OA
BRANCH  24  26
ATOM     26  C   UNL     1      -4.990  16.908  -3.870  1.00  0.00     0.067 A 
ATOM     27  C   UNL     1      -5.299  16.547  -2.547  1.00  0.00     0.066 A 
ATOM     28  C   UNL     1      -4.638  15.908  -4.788  1.00  0.00     0.066 A 
ATOM     29  C   UNL     1      -5.259  15.209  -2.146  1.00  0.00     0.162 A 
ATOM     30  C   UNL     1      -4.588  14.568  -4.394  1.00  0.00     0.162 A 
ATOM     31  C   UNL     1      -4.896  14.212  -3.069  1.00  0.00     0.200 A 
BRANCH  29  32
ATOM     32  O   UNL     1      -5.600  14.884  -0.832  1.00  0.00    -0.504 OA
ATOM     33  H   UNL     1      -6.517  15.086  -0.452  1.00  0.00     0.293 HD
ENDBRANCH  29  32
BRANCH  30  34
ATOM     34  O   UNL     1      -4.225  13.582  -5.314  1.00  0.00    -0.504 OA
ATOM     35  H   UNL     1      -4.307  13.740  -6.314  1.00  0.00     0.293 HD
ENDBRANCH  30  34
BRANCH  31  36
ATOM     36  O   UNL     1      -4.856  12.878  -2.662  1.00  0.00    -0.502 OA
ATOM     37  H   UNL     1      -5.656  12.259  -2.757  1.00  0.00     0.293 HD
ENDBRANCH  31  36
ENDBRANCH  24  26
ENDBRANCH  23  24
ENDBRANCH   2  23
BRANCH   3  38
ATOM     38  O   UNL     1      -4.591  20.391  -7.228  1.00  0.00    -0.450 OA
BRANCH  38  39
ATOM     39  C   UNL     1      -3.833  19.238  -6.998  1.00  0.00     0.338 C 
ATOM     40  O   UNL     1      -2.875  19.264  -6.177  1.00  0.00    -0.246 OA
BRANCH  39  41
ATOM     41  C   UNL     1      -4.158  17.992  -7.730  1.00  0.00     0.067 A 
ATOM     42  C   UNL     1      -5.254  17.927  -8.607  1.00  0.00     0.066 A 
ATOM     43  C   UNL     1      -3.368  16.847  -7.545  1.00  0.00     0.066 A 
ATOM     44  C   UNL     1      -5.578  16.731  -9.263  1.00  0.00     0.162 A 
ATOM     45  C   UNL     1      -3.682  15.649  -8.193  1.00  0.00     0.162 A 
ATOM     46  C   UNL     1      -4.792  15.584  -9.051  1.00  0.00     0.200 A 
BRANCH  44  47
ATOM     47  O   UNL     1      -6.677  16.674 -10.125  1.00  0.00    -0.504 OA
ATOM     48  H   UNL     1      -7.520  16.164  -9.884  1.00  0.00     0.293 HD
ENDBRANCH  44  47
BRANCH  45  49
ATOM     49  O   UNL     1      -2.877  14.530  -7.978  1.00  0.00    -0.504 OA
ATOM     50  H   UNL     1      -2.471  14.006  -8.742  1.00  0.00     0.293 HD
ENDBRANCH  45  49
BRANCH  46  51
ATOM     51  O   UNL     1      -5.100  14.382  -9.686  1.00  0.00    -0.502 OA
ATOM     52  H   UNL     1      -5.406  14.338 -10.652  1.00  0.00     0.293 HD
ENDBRANCH  46  51
ENDBRANCH  39  41
ENDBRANCH  38  39
ENDBRANCH   3  38
BRANCH   5  53
ATOM     53  O   UNL     1      -8.845  20.880  -7.926  1.00  0.00    -0.428 OA
BRANCH  53  54
ATOM     54  C   UNL     1      -9.725  21.182  -8.973  1.00  0.00     0.340 C 
ATOM     55  O   UNL     1      -9.575  20.642 -10.103  1.00  0.00    -0.246 OA
BRANCH  54  56
ATOM     56  C   UNL     1     -10.813  22.161  -8.750  1.00  0.00     0.067 A 
ATOM     57  C   UNL     1     -10.739  23.440  -9.326  1.00  0.00     0.066 A 
ATOM     58  C   UNL     1     -11.933  21.819  -7.975  1.00  0.00     0.066 A 
ATOM     59  C   UNL     1     -11.766  24.372  -9.122  1.00  0.00     0.162 A 
ATOM     60  C   UNL     1     -12.967  22.744  -7.774  1.00  0.00     0.162 A 
ATOM     61  C   UNL     1     -12.883  24.026  -8.341  1.00  0.00     0.200 A 
BRANCH  59  62
ATOM     62  O   UNL     1     -11.684  25.640  -9.691  1.00  0.00    -0.504 OA
ATOM     63  H   UNL     1     -12.496  26.099 -10.087  1.00  0.00     0.293 HD
ENDBRANCH  59  62
BRANCH  60  64
ATOM     64  O   UNL     1     -14.068  22.384  -6.997  1.00  0.00    -0.504 OA
ATOM     65  H   UNL     1     -14.983  22.794  -7.142  1.00  0.00     0.293 HD
ENDBRANCH  60  64
BRANCH  61  66
ATOM     66  O   UNL     1     -13.915  24.941  -8.122  1.00  0.00    -0.502 OA
ATOM     67  H   UNL     1     -13.762  25.815  -7.620  1.00  0.00     0.293 HD
ENDBRANCH  61  66
ENDBRANCH  54  56
ENDBRANCH  53  54
ENDBRANCH   5  53
BRANCH   4  68
ATOM     68  O   UNL     1      -6.544  20.231  -9.369  1.00  0.00    -0.448 OA
BRANCH  68  69
ATOM     69  C   UNL     1      -5.444  21.033  -9.710  1.00  0.00     0.339 C 
ATOM     70  O   UNL     1      -4.380  20.501 -10.125  1.00  0.00    -0.246 OA
BRANCH  69  71
ATOM     71  C   UNL     1      -5.545  22.505  -9.620  1.00  0.00     0.067 A 
ATOM     72  C   UNL     1      -4.413  23.282  -9.316  1.00  0.00     0.066 A 
ATOM     73  C   UNL     1      -6.774  23.147  -9.842  1.00  0.00     0.066 A 
ATOM     74  C   UNL     1      -4.501  24.681  -9.268  1.00  0.00     0.162 A 
ATOM     75  C   UNL     1      -6.880  24.543  -9.781  1.00  0.00     0.162 A 
ATOM     76  C   UNL     1      -5.726  25.320  -9.510  1.00  0.00     0.200 A 
BRANCH  74  77
ATOM     77  O   UNL     1      -3.370  25.449  -8.993  1.00  0.00    -0.504 OA
ATOM     78  H   UNL     1      -3.381  26.169  -8.287  1.00  0.00     0.293 HD
ENDBRANCH  74  77
BRANCH  75  79
ATOM     79  O   UNL     1      -8.144  25.105  -9.984  1.00  0.00    -0.504 OA
ATOM     80  H   UNL     1      -8.349  25.793 -10.691  1.00  0.00     0.293 HD
ENDBRANCH  75  79
BRANCH  76  81
ATOM     81  O   UNL     1      -5.756  26.716  -9.486  1.00  0.00    -0.502 OA
ATOM     82  H   UNL     1      -5.476  27.290 -10.261  1.00  0.00     0.293 HD
ENDBRANCH  76  81
ENDBRANCH  69  71
ENDBRANCH  68  69
ENDBRANCH   4  68
TORSDOF 31
ENDMDL
MODEL 2
REMARK VINA RESULT:    -3.641      0.349      2.064
REMARK INTER + INTRA:          -8.520
REMARK INTER:                  -8.543
REMARK INTRA:                   0.024
REMARK UNBOUND:                 0.124
REMARK SMILES O=C(OC[C@@H]1O[C@@H](OC(=O)c2cc(O)c(O)c(O)c2)[C@@H](OC(=O)c2cc(O)c(O)c(O)c2)[C@H](OC(=O)c2cc(O)c(O)c(O)c2)[C@@H]1OC(=O)c1cc(O)c(O)c(O)c1)c1cc(O)c(O)c(O)c1
REMARK SMILES IDX 5 1 46 2 33 3 20 4 7 5 6 6 4 7 3 8 2 9 1 10 59 11 60 12
REMARK SMILES IDX 61 13 67 14 63 15 65 16 62 17 64 19 66 21 47 23 48 24 49 25
REMARK SMILES IDX 50 26 58 27 51 28 56 29 52 30 54 31 57 32 53 34 55 36 34 38
REMARK SMILES IDX 35 39 36 40 37 41 45 42 38 43 43 44 39 45 41 46 44 47 40 49
REMARK SMILES IDX 42 51 8 53 9 54 10 55 11 56 19 57 12 58 17 59 13 60 15 61
REMARK SMILES IDX 18 62 14 64 16 66 21 68 22 69 23 70 24 71 32 72 25 73 30 74
REMARK SMILES IDX 26 75 28 76 31 77 27 79 29 81
REMARK H PARENT 62 18 64 20 66 22 57 33 53 35 55 37 44 48 40 50 42 52 18 63
REMARK H PARENT 14 65 16 67 31 78 27 80 29 82
REMARK Flexibility Score: inf
ROOT
ATOM      1  C   UNL     1      -8.021  20.010  -5.217  1.00  0.00     0.205 C 
ATOM      2  C   UNL     1      -6.483  20.016  -5.366  1.00  0.00     0.254 C 
ATOM      3  C   UNL     1      -6.116  20.467  -6.794  1.00  0.00     0.267 C 
ATOM      4  C   UNL     1      -6.874  19.615  -7.829  1.00  0.00     0.290 C 
ATOM      5  C   UNL     1      -8.377  19.591  -7.498  1.00  0.00     0.357 C 
ATOM      6  O   UNL     1      -8.609  19.140  -6.173  1.00  0.00    -0.329 OA
ENDROOT
BRANCH   1   7
ATOM      7  C   UNL     1      -8.438  19.564  -3.805  1.00  0.00     0.269 C 
BRANCH   7   8
ATOM      8  O   UNL     1      -9.567  18.695  -3.865  1.00  0.00    -0.459 OA
BRANCH   8   9
ATOM      9  C   UNL     1      -9.589  17.398  -3.339  1.00  0.00     0.338 C 
ATOM     10  O   UNL     1     -10.132  17.174  -2.223  1.00  0.00    -0.246 OA
BRANCH   9  11
ATOM     11  C   UNL     1      -9.002  16.285  -4.116  1.00  0.00     0.067 A 
ATOM     12  C   UNL     1      -8.630  15.096  -3.474  1.00  0.00     0.066 A 
ATOM     13  C   UNL     1      -8.059  14.044  -4.192  1.00  0.00     0.162 A 
ATOM     14  C   UNL     1      -8.802  16.403  -5.499  1.00  0.00     0.066 A 
ATOM     15  C   UNL     1      -7.849  14.167  -5.578  1.00  0.00     0.200 A 
ATOM     16  C   UNL     1      -8.234  15.360  -6.238  1.00  0.00     0.162 A 
BRANCH  13  17
ATOM     17  O   UNL     1      -7.688  12.884  -3.508  1.00  0.00    -0.504 OA
ATOM     18  H   UNL     1      -6.953  12.270  -3.840  1.00  0.00     0.293 HD
ENDBRANCH  13  17
BRANCH  15  19
ATOM     19  O   UNL     1      -7.255  13.099  -6.257  1.00  0.00    -0.502 OA
ATOM     20  H   UNL     1      -7.036  12.211  -5.833  1.00  0.00     0.293 HD
ENDBRANCH  15  19
BRANCH  16  21
ATOM     21  O   UNL     1      -8.079  15.547  -7.614  1.00  0.00    -0.504 OA
ATOM     22  H   UNL     1      -8.816  15.428  -8.290  1.00  0.00     0.293 HD
ENDBRANCH  16  21
ENDBRANCH   9  11
ENDBRANCH   8   9
ENDBRANCH   7   8
ENDBRANCH   1   7
BRANCH   2  23
ATOM     23  O   UNL     1      -5.977  18.702  -5.128  1.00  0.00    -0.452 OA
BRANCH  23  24
ATOM     24  C   UNL     1      -5.213  18.348  -4.008  1.00  0.00     0.338 C 
ATOM     25  O   UNL     1      -4.628  19.237  -3.329  1.00  0.00    -0.246 OA
BRANCH  24  26
ATOM     26  C   UNL     1      -5.098  16.927  -3.624  1.00  0.00     0.067 A 
ATOM     27  C   UNL     1      -4.508  15.994  -4.496  1.00  0.00     0.066 A 
ATOM     28  C   UNL     1      -5.571  16.494  -2.377  1.00  0.00     0.066 A 
ATOM     29  C   UNL     1      -4.391  14.651  -4.128  1.00  0.00     0.162 A 
ATOM     30  C   UNL     1      -5.465  15.151  -2.003  1.00  0.00     0.162 A 
ATOM     31  C   UNL     1      -4.875  14.223  -2.879  1.00  0.00     0.200 A 
BRANCH  29  32
ATOM     32  O   UNL     1      -3.773  13.759  -5.005  1.00  0.00    -0.504 OA
ATOM     33  H   UNL     1      -3.706  12.769  -4.802  1.00  0.00     0.293 HD
ENDBRANCH  29  32
BRANCH  30  34
ATOM     34  O   UNL     1      -5.950  14.730  -0.764  1.00  0.00    -0.504 OA
ATOM     35  H   UNL     1      -5.880  13.760  -0.474  1.00  0.00     0.293 HD
ENDBRANCH  30  34
BRANCH  31  36
ATOM     36  O   UNL     1      -4.756  12.880  -2.519  1.00  0.00    -0.502 OA
ATOM     37  H   UNL     1      -5.566  12.283  -2.380  1.00  0.00     0.293 HD
ENDBRANCH  31  36
ENDBRANCH  24  26
ENDBRANCH  23  24
ENDBRANCH   2  23
BRANCH   3  38
ATOM     38  O   UNL     1      -4.713  20.336  -7.022  1.00  0.00    -0.450 OA
BRANCH  38  39
ATOM     39  C   UNL     1      -3.968  19.186  -6.739  1.00  0.00     0.338 C 
ATOM     40  O   UNL     1      -3.086  19.210  -5.838  1.00  0.00    -0.246 OA
BRANCH  39  41
ATOM     41  C   UNL     1      -4.217  17.946  -7.511  1.00  0.00     0.067 A 
ATOM     42  C   UNL     1      -5.236  17.880  -8.476  1.00  0.00     0.066 A 
ATOM     43  C   UNL     1      -3.431  16.807  -7.276  1.00  0.00     0.066 A 
ATOM     44  C   UNL     1      -5.490  16.690  -9.171  1.00  0.00     0.162 A 
ATOM     45  C   UNL     1      -3.676  15.615  -7.962  1.00  0.00     0.162 A 
ATOM     46  C   UNL     1      -4.711  15.549  -8.909  1.00  0.00     0.200 A 
BRANCH  44  47
ATOM     47  O   UNL     1      -6.514  16.633 -10.121  1.00  0.00    -0.504 OA
ATOM     48  H   UNL     1      -6.779  15.762 -10.570  1.00  0.00     0.293 HD
ENDBRANCH  44  47
BRANCH  45  49
ATOM     49  O   UNL     1      -2.878  14.502  -7.694  1.00  0.00    -0.504 OA
ATOM     50  H   UNL     1      -2.134  14.528  -7.010  1.00  0.00     0.293 HD
ENDBRANCH  45  49
BRANCH  46  51
ATOM     51  O   UNL     1      -4.951  14.352  -9.582  1.00  0.00    -0.502 OA
ATOM     52  H   UNL     1      -4.202  13.745  -9.900  1.00  0.00     0.293 HD
ENDBRANCH  46  51
ENDBRANCH  39  41
ENDBRANCH  38  39
ENDBRANCH   3  38
BRANCH   5  53
ATOM     53  O   UNL     1      -8.963  20.879  -7.703  1.00  0.00    -0.428 OA
BRANCH  53  54
ATOM     54  C   UNL     1      -9.758  21.197  -8.811  1.00  0.00     0.340 C 
ATOM     55  O   UNL     1      -9.588  20.594  -9.906  1.00  0.00    -0.246 OA
BRANCH  54  56
ATOM     56  C   UNL     1     -10.777  22.264  -8.695  1.00  0.00     0.067 A 
ATOM     57  C   UNL     1     -12.101  21.940  -8.358  1.00  0.00     0.066 A 
ATOM     58  C   UNL     1     -10.430  23.609  -8.905  1.00  0.00     0.066 A 
ATOM     59  C   UNL     1     -13.072  22.946  -8.243  1.00  0.00     0.162 A 
ATOM     60  C   UNL     1     -11.394  24.619  -8.784  1.00  0.00     0.162 A 
ATOM     61  C   UNL     1     -12.720  24.289  -8.460  1.00  0.00     0.200 A 
BRANCH  59  62
ATOM     62  O   UNL     1     -14.385  22.618  -7.914  1.00  0.00    -0.504 OA
ATOM     63  H   UNL     1     -14.936  23.193  -7.288  1.00  0.00     0.293 HD
ENDBRANCH  59  62
BRANCH  60  64
ATOM     64  O   UNL     1     -11.026  25.946  -9.002  1.00  0.00    -0.504 OA
ATOM     65  H   UNL     1     -11.716  26.680  -9.120  1.00  0.00     0.293 HD
ENDBRANCH  60  64
BRANCH  61  66
ATOM     66  O   UNL     1     -13.672  25.306  -8.354  1.00  0.00    -0.502 OA
ATOM     67  H   UNL     1     -14.667  25.104  -8.263  1.00  0.00     0.293 HD
ENDBRANCH  61  66
ENDBRANCH  54  56
ENDBRANCH  53  54
ENDBRANCH   5  53
BRANCH   4  68
ATOM     68  O   UNL     1      -6.686  20.149  -9.144  1.00  0.00    -0.448 OA
BRANCH  68  69
ATOM     69  C   UNL     1      -5.557  20.891  -9.525  1.00  0.00     0.339 C 
ATOM     70  O   UNL     1      -4.528  20.301  -9.951  1.00  0.00    -0.246 OA
BRANCH  69  71
ATOM     71  C   UNL     1      -5.588  22.367  -9.466  1.00  0.00     0.067 A 
ATOM     72  C   UNL     1      -6.781  23.069  -9.714  1.00  0.00     0.066 A 
ATOM     73  C   UNL     1      -4.424  23.089  -9.156  1.00  0.00     0.066 A 
ATOM     74  C   UNL     1      -6.818  24.468  -9.621  1.00  0.00     0.162 A 
ATOM     75  C   UNL     1      -4.443  24.488  -9.075  1.00  0.00     0.162 A 
ATOM     76  C   UNL     1      -5.658  25.184  -9.291  1.00  0.00     0.200 A 
BRANCH  74  77
ATOM     77  O   UNL     1      -8.010  25.157  -9.842  1.00  0.00    -0.504 OA
ATOM     78  H   UNL     1      -8.374  25.811  -9.166  1.00  0.00     0.293 HD
ENDBRANCH  74  77
BRANCH  75  79
ATOM     79  O   UNL     1      -3.237  25.136  -8.791  1.00  0.00    -0.504 OA
ATOM     80  H   UNL     1      -2.454  24.697  -8.334  1.00  0.00     0.293 HD
ENDBRANCH  75  79
BRANCH  76  81
ATOM     81  O   UNL     1      -5.753  26.573  -9.177  1.00  0.00    -0.502 OA
ATOM     82  H   UNL     1      -5.760  27.057  -8.296  1.00  0.00     0.293 HD
ENDBRANCH  76  81
ENDBRANCH  69  71
ENDBRANCH  68  69
ENDBRANCH   4  68
TORSDOF 31
ENDMDL
MODEL 3
REMARK VINA RESULT:    -3.301      1.555      6.656
REMARK INTER + INTRA:          -7.712
REMARK INTER:                  -7.054
REMARK INTRA:                  -0.658
REMARK UNBOUND:                 0.124
REMARK SMILES O=C(OC[C@@H]1O[C@@H](OC(=O)c2cc(O)c(O)c(O)c2)[C@@H](OC(=O)c2cc(O)c(O)c(O)c2)[C@H](OC(=O)c2cc(O)c(O)c(O)c2)[C@@H]1OC(=O)c1cc(O)c(O)c(O)c1)c1cc(O)c(O)c(O)c1
REMARK SMILES IDX 5 1 46 2 33 3 20 4 7 5 6 6 4 7 3 8 2 9 1 10 59 11 60 12
REMARK SMILES IDX 61 13 67 14 63 15 65 16 62 17 64 19 66 21 47 23 48 24 49 25
REMARK SMILES IDX 50 26 58 27 51 28 56 29 52 30 54 31 57 32 53 34 55 36 34 38
REMARK SMILES IDX 35 39 36 40 37 41 45 42 38 43 43 44 39 45 41 46 44 47 40 49
REMARK SMILES IDX 42 51 8 53 9 54 10 55 11 56 19 57 12 58 17 59 13 60 15 61
REMARK SMILES IDX 18 62 14 64 16 66 21 68 22 69 23 70 24 71 32 72 25 73 30 74
REMARK SMILES IDX 26 75 28 76 31 77 27 79 29 81
REMARK H PARENT 62 18 64 20 66 22 57 33 53 35 55 37 44 48 40 50 42 52 18 63
REMARK H PARENT 14 65 16 67 31 78 27 80 29 82
REMARK Flexibility Score: inf
ROOT
ATOM      1  C   UNL     1      -9.076  20.214  -6.251  1.00  0.00     0.205 C 
ATOM      2  C   UNL     1      -8.372  19.584  -5.028  1.00  0.00     0.254 C 
ATOM      3  C   UNL     1      -6.845  19.657  -5.231  1.00  0.00     0.267 C 
ATOM      4  C   UNL     1      -6.463  19.052  -6.594  1.00  0.00     0.290 C 
ATOM      5  C   UNL     1      -7.319  19.676  -7.710  1.00  0.00     0.357 C 
ATOM      6  O   UNL     1      -8.705  19.535  -7.441  1.00  0.00    -0.329 OA
ENDROOT
BRANCH   1   7
ATOM      7  C   UNL     1     -10.605  20.163  -6.096  1.00  0.00     0.269 C 
BRANCH   7   8
ATOM      8  O   UNL     1     -11.182  21.438  -6.372  1.00  0.00    -0.459 OA
BRANCH   8   9
ATOM      9  C   UNL     1     -11.581  21.860  -7.645  1.00  0.00     0.338 C 
ATOM     10  O   UNL     1     -10.769  21.823  -8.610  1.00  0.00    -0.246 OA
BRANCH   9  11
ATOM     11  C   UNL     1     -12.971  22.318  -7.861  1.00  0.00     0.067 A 
ATOM     12  C   UNL     1     -13.897  21.483  -8.501  1.00  0.00     0.066 A 
ATOM     13  C   UNL     1     -15.207  21.910  -8.726  1.00  0.00     0.162 A 
ATOM     14  C   UNL     1     -13.380  23.592  -7.438  1.00  0.00     0.066 A 
ATOM     15  C   UNL     1     -15.614  23.191  -8.311  1.00  0.00     0.200 A 
ATOM     16  C   UNL     1     -14.688  24.037  -7.652  1.00  0.00     0.162 A 
BRANCH  13  17
ATOM     17  O   UNL     1     -16.091  21.050  -9.382  1.00  0.00    -0.504 OA
ATOM     18  H   UNL     1     -16.110  20.958 -10.391  1.00  0.00     0.293 HD
ENDBRANCH  13  17
BRANCH  15  19
ATOM     19  O   UNL     1     -16.929  23.588  -8.574  1.00  0.00    -0.502 OA
ATOM     20  H   UNL     1     -17.414  24.309  -8.064  1.00  0.00     0.293 HD
ENDBRANCH  15  19
BRANCH  16  21
ATOM     21  O   UNL     1     -15.025  25.312  -7.190  1.00  0.00    -0.504 OA
ATOM     22  H   UNL     1     -14.932  26.156  -7.732  1.00  0.00     0.293 HD
ENDBRANCH  16  21
ENDBRANCH   9  11
ENDBRANCH   8   9
ENDBRANCH   7   8
ENDBRANCH   1   7
BRANCH   2  23
ATOM     23  O   UNL     1      -8.778  18.222  -4.896  1.00  0.00    -0.452 OA
BRANCH  23  24
ATOM     24  C   UNL     1      -9.518  17.726  -3.813  1.00  0.00     0.338 C 
ATOM     25  O   UNL     1     -10.535  18.346  -3.399  1.00  0.00    -0.246 OA
BRANCH  24  26
ATOM     26  C   UNL     1      -9.100  16.469  -3.161  1.00  0.00     0.067 A 
ATOM     27  C   UNL     1      -9.303  16.273  -1.784  1.00  0.00     0.066 A 
ATOM     28  C   UNL     1      -8.501  15.449  -3.916  1.00  0.00     0.066 A 
ATOM     29  C   UNL     1      -8.916  15.079  -1.169  1.00  0.00     0.162 A 
ATOM     30  C   UNL     1      -8.104  14.254  -3.309  1.00  0.00     0.162 A 
ATOM     31  C   UNL     1      -8.309  14.065  -1.930  1.00  0.00     0.200 A 
BRANCH  29  32
ATOM     32  O   UNL     1      -9.160  14.908   0.194  1.00  0.00    -0.504 OA
ATOM     33  H   UNL     1      -9.651  14.097   0.552  1.00  0.00     0.293 HD
ENDBRANCH  29  32
BRANCH  30  34
ATOM     34  O   UNL     1      -7.498  13.252  -4.068  1.00  0.00    -0.504 OA
ATOM     35  H   UNL     1      -6.581  13.387  -4.481  1.00  0.00     0.293 HD
ENDBRANCH  30  34
BRANCH  31  36
ATOM     36  O   UNL     1      -7.923  12.876  -1.310  1.00  0.00    -0.502 OA
ATOM     37  H   UNL     1      -8.532  12.379  -0.666  1.00  0.00     0.293 HD
ENDBRANCH  31  36
ENDBRANCH  24  26
ENDBRANCH  23  24
ENDBRANCH   2  23
BRANCH   3  38
ATOM     38  O   UNL     1      -6.162  18.946  -4.198  1.00  0.00    -0.450 OA
BRANCH  38  39
ATOM     39  C   UNL     1      -5.039  18.138  -4.402  1.00  0.00     0.338 C 
ATOM     40  O   UNL     1      -3.893  18.554  -4.078  1.00  0.00    -0.246 OA
BRANCH  39  41
ATOM     41  C   UNL     1      -5.204  16.797  -5.010  1.00  0.00     0.067 A 
ATOM     42  C   UNL     1      -4.167  15.850  -4.977  1.00  0.00     0.066 A 
ATOM     43  C   UNL     1      -6.412  16.459  -5.640  1.00  0.00     0.066 A 
ATOM     44  C   UNL     1      -4.318  14.598  -5.591  1.00  0.00     0.162 A 
ATOM     45  C   UNL     1      -6.573  15.215  -6.256  1.00  0.00     0.162 A 
ATOM     46  C   UNL     1      -5.525  14.281  -6.239  1.00  0.00     0.200 A 
BRANCH  44  47
ATOM     47  O   UNL     1      -3.276  13.667  -5.561  1.00  0.00    -0.504 OA
ATOM     48  H   UNL     1      -3.443  12.673  -5.672  1.00  0.00     0.293 HD
ENDBRANCH  44  47
BRANCH  45  49
ATOM     49  O   UNL     1      -7.786  14.919  -6.879  1.00  0.00    -0.504 OA
ATOM     50  H   UNL     1      -7.941  14.045  -7.364  1.00  0.00     0.293 HD
ENDBRANCH  45  49
BRANCH  46  51
ATOM     51  O   UNL     1      -5.695  13.046  -6.864  1.00  0.00    -0.502 OA
ATOM     52  H   UNL     1      -5.615  12.927  -7.868  1.00  0.00     0.293 HD
ENDBRANCH  46  51
ENDBRANCH  39  41
ENDBRANCH  38  39
ENDBRANCH   3  38
BRANCH   5  53
ATOM     53  O   UNL     1      -6.980  21.052  -7.903  1.00  0.00    -0.428 OA
BRANCH  53  54
ATOM     54  C   UNL     1      -7.095  21.709  -9.134  1.00  0.00     0.340 C 
ATOM     55  O   UNL     1      -7.603  21.116 -10.124  1.00  0.00    -0.246 OA
BRANCH  54  56
ATOM     56  C   UNL     1      -6.589  23.094  -9.270  1.00  0.00     0.067 A 
ATOM     57  C   UNL     1      -7.466  24.132  -9.628  1.00  0.00     0.066 A 
ATOM     58  C   UNL     1      -5.237  23.387  -9.032  1.00  0.00     0.066 A 
ATOM     59  C   UNL     1      -6.996  25.447  -9.756  1.00  0.00     0.162 A 
ATOM     60  C   UNL     1      -4.763  24.700  -9.151  1.00  0.00     0.162 A 
ATOM     61  C   UNL     1      -5.639  25.733  -9.521  1.00  0.00     0.200 A 
BRANCH  59  62
ATOM     62  O   UNL     1      -7.868  26.470 -10.116  1.00  0.00    -0.504 OA
ATOM     63  H   UNL     1      -7.537  27.326 -10.546  1.00  0.00     0.293 HD
ENDBRANCH  59  62
BRANCH  60  64
ATOM     64  O   UNL     1      -3.415  24.966  -8.914  1.00  0.00    -0.504 OA
ATOM     65  H   UNL     1      -3.076  25.907  -8.743  1.00  0.00     0.293 HD
ENDBRANCH  60  64
BRANCH  61  66
ATOM     66  O   UNL     1      -5.150  27.035  -9.648  1.00  0.00    -0.502 OA
ATOM     67  H   UNL     1      -4.150  27.236  -9.646  1.00  0.00     0.293 HD
ENDBRANCH  61  66
ENDBRANCH  54  56
ENDBRANCH  53  54
ENDBRANCH   5  53
BRANCH   4  68
ATOM     68  O   UNL     1      -5.078  19.287  -6.869  1.00  0.00    -0.448 OA
BRANCH  68  69
ATOM     69  C   UNL     1      -4.450  18.904  -8.064  1.00  0.00     0.339 C 
ATOM     70  O   UNL     1      -3.648  19.690  -8.636  1.00  0.00    -0.246 OA
BRANCH  69  71
ATOM     71  C   UNL     1      -4.697  17.562  -8.632  1.00  0.00     0.067 A 
ATOM     72  C   UNL     1      -3.662  16.610  -8.695  1.00  0.00     0.066 A 
ATOM     73  C   UNL     1      -5.970  17.217  -9.112  1.00  0.00     0.066 A 
ATOM     74  C   UNL     1      -3.906  15.325  -9.200  1.00  0.00     0.162 A 
ATOM     75  C   UNL     1      -6.224  15.942  -9.634  1.00  0.00     0.162 A 
ATOM     76  C   UNL     1      -5.185  14.978  -9.660  1.00  0.00     0.200 A 
BRANCH  74  77
ATOM     77  O   UNL     1      -2.884  14.377  -9.235  1.00  0.00    -0.504 OA
ATOM     78  H   UNL     1      -2.997  13.464  -8.821  1.00  0.00     0.293 HD
ENDBRANCH  74  77
BRANCH  75  79
ATOM     79  O   UNL     1      -7.510  15.685 -10.120  1.00  0.00    -0.504 OA
ATOM     80  H   UNL     1      -7.960  16.227 -10.841  1.00  0.00     0.293 HD
ENDBRANCH  75  79
BRANCH  76  81
ATOM     81  O   UNL     1      -5.387  13.675 -10.121  1.00  0.00    -0.502 OA
ATOM     82  H   UNL     1      -5.799  13.460 -11.012  1.00  0.00     0.293 HD
ENDBRANCH  76  81
ENDBRANCH  69  71
ENDBRANCH  68  69
ENDBRANCH   4  68
TORSDOF 31
ENDMDL
MODEL 4
REMARK VINA RESULT:    -2.976      4.492      8.547
REMARK INTER + INTRA:          -6.941
REMARK INTER:                  -3.437
REMARK INTRA:                  -3.503
REMARK UNBOUND:                 0.124
REMARK SMILES O=C(OC[C@@H]1O[C@@H](OC(=O)c2cc(O)c(O)c(O)c2)[C@@H](OC(=O)c2cc(O)c(O)c(O)c2)[C@H](OC(=O)c2cc(O)c(O)c(O)c2)[C@@H]1OC(=O)c1cc(O)c(O)c(O)c1)c1cc(O)c(O)c(O)c1
REMARK SMILES IDX 5 1 46 2 33 3 20 4 7 5 6 6 4 7 3 8 2 9 1 10 59 11 60 12
REMARK SMILES IDX 61 13 67 14 63 15 65 16 62 17 64 19 66 21 47 23 48 24 49 25
REMARK SMILES IDX 50 26 58 27 51 28 56 29 52 30 54 31 57 32 53 34 55 36 34 38
REMARK SMILES IDX 35 39 36 40 37 41 45 42 38 43 43 44 39 45 41 46 44 47 40 49
REMARK SMILES IDX 42 51 8 53 9 54 10 55 11 56 19 57 12 58 17 59 13 60 15 61
REMARK SMILES IDX 18 62 14 64 16 66 21 68 22 69 23 70 24 71 32 72 25 73 30 74
REMARK SMILES IDX 26 75 28 76 31 77 27 79 29 81
REMARK H PARENT 62 18 64 20 66 22 57 33 53 35 55 37 44 48 40 50 42 52 18 63
REMARK H PARENT 14 65 16 67 31 78 27 80 29 82
REMARK Flexibility Score: inf
ROOT
ATOM      1  C   UNL     1      -6.859  15.500   0.331  1.00  0.00     0.205 C 
ATOM      2  C   UNL     1      -5.355  15.291   0.047  1.00  0.00     0.254 C 
ATOM      3  C   UNL     1      -5.104  15.422  -1.469  1.00  0.00     0.267 C 
ATOM      4  C   UNL     1      -6.055  14.492  -2.244  1.00  0.00     0.290 C 
ATOM      5  C   UNL     1      -7.506  14.712  -1.782  1.00  0.00     0.357 C 
ATOM      6  O   UNL     1      -7.635  14.546  -0.379  1.00  0.00    -0.329 OA
ENDROOT
BRANCH   1   7
ATOM      7  C   UNL     1      -7.160  15.378   1.835  1.00  0.00     0.269 C 
BRANCH   7   8
ATOM      8  O   UNL     1      -6.554  16.447   2.558  1.00  0.00    -0.459 OA
BRANCH   8   9
ATOM      9  C   UNL     1      -6.541  16.543   3.955  1.00  0.00     0.338 C 
ATOM     10  O   UNL     1      -6.512  15.499   4.662  1.00  0.00    -0.246 OA
BRANCH   9  11
ATOM     11  C   UNL     1      -6.526  17.876   4.596  1.00  0.00     0.067 A 
ATOM     12  C   UNL     1      -7.386  18.153   5.667  1.00  0.00     0.066 A 
ATOM     13  C   UNL     1      -7.394  19.412   6.270  1.00  0.00     0.162 A 
ATOM     14  C   UNL     1      -5.659  18.880   4.140  1.00  0.00     0.066 A 
ATOM     15  C   UNL     1      -6.533  20.423   5.805  1.00  0.00     0.200 A 
ATOM     16  C   UNL     1      -5.650  20.148   4.732  1.00  0.00     0.162 A 
BRANCH  13  17
ATOM     17  O   UNL     1      -8.280  19.649   7.323  1.00  0.00    -0.504 OA
ATOM     18  H   UNL     1      -7.994  19.601   8.294  1.00  0.00     0.293 HD
ENDBRANCH  13  17
BRANCH  15  19
ATOM     19  O   UNL     1      -6.587  21.677   6.422  1.00  0.00    -0.502 OA
ATOM     20  H   UNL     1      -6.215  22.522   6.018  1.00  0.00     0.293 HD
ENDBRANCH  15  19
BRANCH  16  21
ATOM     21  O   UNL     1      -4.750  21.093   4.232  1.00  0.00    -0.504 OA
ATOM     22  H   UNL     1      -4.900  22.088   4.254  1.00  0.00     0.293 HD
ENDBRANCH  16  21
ENDBRANCH   9  11
ENDBRANCH   8   9
ENDBRANCH   7   8
ENDBRANCH   1   7
BRANCH   2  23
ATOM     23  O   UNL     1      -4.963  13.993   0.492  1.00  0.00    -0.452 OA
BRANCH  23  24
ATOM     24  C   UNL     1      -3.764  13.726   1.168  1.00  0.00     0.338 C 
ATOM     25  O   UNL     1      -2.878  13.003   0.633  1.00  0.00    -0.246 OA
BRANCH  24  26
ATOM     26  C   UNL     1      -3.541  14.300   2.510  1.00  0.00     0.067 A 
ATOM     27  C   UNL     1      -3.293  15.674   2.671  1.00  0.00     0.066 A 
ATOM     28  C   UNL     1      -3.584  13.475   3.644  1.00  0.00     0.066 A 
ATOM     29  C   UNL     1      -3.092  16.218   3.943  1.00  0.00     0.162 A 
ATOM     30  C   UNL     1      -3.377  14.008   4.920  1.00  0.00     0.162 A 
ATOM     31  C   UNL     1      -3.128  15.384   5.074  1.00  0.00     0.200 A 
BRANCH  29  32
ATOM     32  O   UNL     1      -2.877  17.591   4.067  1.00  0.00    -0.504 OA
ATOM     33  H   UNL     1      -3.112  18.095   4.914  1.00  0.00     0.293 HD
ENDBRANCH  29  32
BRANCH  30  34
ATOM     34  O   UNL     1      -3.411  13.175   6.040  1.00  0.00    -0.504 OA
ATOM     35  H   UNL     1      -4.156  12.498   6.169  1.00  0.00     0.293 HD
ENDBRANCH  30  34
BRANCH  31  36
ATOM     36  O   UNL     1      -2.925  15.933   6.341  1.00  0.00    -0.502 OA
ATOM     37  H   UNL     1      -3.105  16.912   6.542  1.00  0.00     0.293 HD
ENDBRANCH  31  36
ENDBRANCH  24  26
ENDBRANCH  23  24
ENDBRANCH   2  23
BRANCH   3  38
ATOM     38  O   UNL     1      -3.756  15.081  -1.791  1.00  0.00    -0.450 OA
BRANCH  38  39
ATOM     39  C   UNL     1      -3.336  14.600  -3.035  1.00  0.00     0.338 C 
ATOM     40  O   UNL     1      -3.078  13.374  -3.185  1.00  0.00    -0.246 OA
BRANCH  39  41
ATOM     41  C   UNL     1      -3.187  15.540  -4.170  1.00  0.00     0.067 A 
ATOM     42  C   UNL     1      -3.156  16.931  -3.965  1.00  0.00     0.066 A 
ATOM     43  C   UNL     1      -3.082  15.045  -5.479  1.00  0.00     0.066 A 
ATOM     44  C   UNL     1      -3.056  17.813  -5.050  1.00  0.00     0.162 A 
ATOM     45  C   UNL     1      -2.984  15.916  -6.568  1.00  0.00     0.162 A 
ATOM     46  C   UNL     1      -2.976  17.305  -6.358  1.00  0.00     0.200 A 
BRANCH  44  47
ATOM     47  O   UNL     1      -3.038  19.195  -4.836  1.00  0.00    -0.504 OA
ATOM     48  H   UNL     1      -2.222  19.759  -5.049  1.00  0.00     0.293 HD
ENDBRANCH  44  47
BRANCH  45  49
ATOM     49  O   UNL     1      -2.890  15.385  -7.855  1.00  0.00    -0.504 OA
ATOM     50  H   UNL     1      -2.035  15.433  -8.393  1.00  0.00     0.293 HD
ENDBRANCH  45  49
BRANCH  46  51
ATOM     51  O   UNL     1      -2.885  18.164  -7.453  1.00  0.00    -0.502 OA
ATOM     52  H   UNL     1      -3.505  18.096  -8.253  1.00  0.00     0.293 HD
ENDBRANCH  46  51
ENDBRANCH  39  41
ENDBRANCH  38  39
ENDBRANCH   3  38
BRANCH   5  53
ATOM     53  O   UNL     1      -7.978  16.001  -2.183  1.00  0.00    -0.428 OA
BRANCH  53  54
ATOM     54  C   UNL     1      -8.728  16.221  -3.345  1.00  0.00     0.340 C 
ATOM     55  O   UNL     1      -9.532  15.341  -3.756  1.00  0.00    -0.246 OA
BRANCH  54  56
ATOM     56  C   UNL     1      -8.547  17.481  -4.101  1.00  0.00     0.067 A 
ATOM     57  C   UNL     1      -9.667  18.204  -4.543  1.00  0.00     0.066 A 
ATOM     58  C   UNL     1      -7.260  17.972  -4.373  1.00  0.00     0.066 A 
ATOM     59  C   UNL     1      -9.505  19.400  -5.258  1.00  0.00     0.162 A 
ATOM     60  C   UNL     1      -7.091  19.170  -5.080  1.00  0.00     0.162 A 
ATOM     61  C   UNL     1      -8.213  19.884  -5.531  1.00  0.00     0.200 A 
BRANCH  59  62
ATOM     62  O   UNL     1     -10.619  20.109  -5.698  1.00  0.00    -0.504 OA
ATOM     63  H   UNL     1     -11.532  19.980  -5.277  1.00  0.00     0.293 HD
ENDBRANCH  59  62
BRANCH  60  64
ATOM     64  O   UNL     1      -5.803  19.636  -5.341  1.00  0.00    -0.504 OA
ATOM     65  H   UNL     1      -5.039  19.006  -5.559  1.00  0.00     0.293 HD
ENDBRANCH  60  64
BRANCH  61  66
ATOM     66  O   UNL     1      -8.029  21.070  -6.245  1.00  0.00    -0.502 OA
ATOM     67  H   UNL     1      -8.480  21.941  -5.966  1.00  0.00     0.293 HD
ENDBRANCH  61  66
ENDBRANCH  54  56
ENDBRANCH  53  54
ENDBRANCH   5  53
BRANCH   4  68
ATOM     68  O   UNL     1      -5.960  14.746  -3.649  1.00  0.00    -0.448 OA
BRANCH  68  69
ATOM     69  C   UNL     1      -6.658  14.009  -4.619  1.00  0.00     0.339 C 
ATOM     70  O   UNL     1      -7.407  13.058  -4.270  1.00  0.00    -0.246 OA
BRANCH  69  71
ATOM     71  C   UNL     1      -6.548  14.374  -6.047  1.00  0.00     0.067 A 
ATOM     72  C   UNL     1      -7.222  15.500  -6.552  1.00  0.00     0.066 A 
ATOM     73  C   UNL     1      -5.763  13.602  -6.918  1.00  0.00     0.066 A 
ATOM     74  C   UNL     1      -7.087  15.867  -7.898  1.00  0.00     0.162 A 
ATOM     75  C   UNL     1      -5.632  13.948  -8.270  1.00  0.00     0.162 A 
ATOM     76  C   UNL     1      -6.286  15.105  -8.761  1.00  0.00     0.200 A 
BRANCH  74  77
ATOM     77  O   UNL     1      -7.737  17.000  -8.388  1.00  0.00    -0.504 OA
ATOM     78  H   UNL     1      -8.173  17.666  -7.769  1.00  0.00     0.293 HD
ENDBRANCH  74  77
BRANCH  75  79
ATOM     79  O   UNL     1      -4.857  13.112  -9.079  1.00  0.00    -0.504 OA
ATOM     80  H   UNL     1      -4.533  13.359 -10.000  1.00  0.00     0.293 HD
ENDBRANCH  75  79
BRANCH  76  81
ATOM     81  O   UNL     1      -6.155  15.530 -10.085  1.00  0.00    -0.502 OA
ATOM     82  H   UNL     1      -6.531  16.396 -10.429  1.00  0.00     0.293 HD
ENDBRANCH  76  81
ENDBRANCH  69  71
ENDBRANCH  68  69
ENDBRANCH   4  68
TORSDOF 31
ENDMDL
MODEL 5
REMARK VINA RESULT:    -0.911      1.533      6.654
REMARK INTER + INTRA:          -2.039
REMARK INTER:                  -6.122
REMARK INTRA:                   4.082
REMARK UNBOUND:                 0.124
REMARK SMILES O=C(OC[C@@H]1O[C@@H](OC(=O)c2cc(O)c(O)c(O)c2)[C@@H](OC(=O)c2cc(O)c(O)c(O)c2)[C@H](OC(=O)c2cc(O)c(O)c(O)c2)[C@@H]1OC(=O)c1cc(O)c(O)c(O)c1)c1cc(O)c(O)c(O)c1
REMARK SMILES IDX 5 1 46 2 33 3 20 4 7 5 6 6 4 7 3 8 2 9 1 10 59 11 60 12
REMARK SMILES IDX 61 13 67 14 63 15 65 16 62 17 64 19 66 21 47 23 48 24 49 25
REMARK SMILES IDX 50 26 58 27 51 28 56 29 52 30 54 31 57 32 53 34 55 36 34 38
REMARK SMILES IDX 35 39 36 40 37 41 45 42 38 43 43 44 39 45 41 46 44 47 40 49
REMARK SMILES IDX 42 51 8 53 9 54 10 55 11 56 19 57 12 58 17 59 13 60 15 61
REMARK SMILES IDX 18 62 14 64 16 66 21 68 22 69 23 70 24 71 32 72 25 73 30 74
REMARK SMILES IDX 26 75 28 76 31 77 27 79 29 81
REMARK H PARENT 62 18 64 20 66 22 57 33 53 35 55 37 44 48 40 50 42 52 18 63
REMARK H PARENT 14 65 16 67 31 78 27 80 29 82
REMARK Flexibility Score: inf
ROOT
ATOM      1  C   UNL     1      -6.183  18.578  -5.789  1.00  0.00     0.205 C 
ATOM      2  C   UNL     1      -5.110  19.481  -6.438  1.00  0.00     0.254 C 
ATOM      3  C   UNL     1      -5.803  20.679  -7.118  1.00  0.00     0.267 C 
ATOM      4  C   UNL     1      -6.906  20.181  -8.069  1.00  0.00     0.290 C 
ATOM      5  C   UNL     1      -7.835  19.197  -7.335  1.00  0.00     0.357 C 
ATOM      6  O   UNL     1      -7.105  18.122  -6.767  1.00  0.00    -0.329 OA
ENDROOT
BRANCH   1   7
ATOM      7  C   UNL     1      -5.539  17.365  -5.096  1.00  0.00     0.269 C 
BRANCH   7   8
ATOM      8  O   UNL     1      -4.231  17.688  -4.627  1.00  0.00    -0.459 OA
BRANCH   8   9
ATOM      9  C   UNL     1      -3.782  17.448  -3.323  1.00  0.00     0.338 C 
ATOM     10  O   UNL     1      -3.009  18.267  -2.757  1.00  0.00    -0.246 OA
BRANCH   9  11
ATOM     11  C   UNL     1      -4.249  16.245  -2.600  1.00  0.00     0.067 A 
ATOM     12  C   UNL     1      -5.577  16.157  -2.162  1.00  0.00     0.066 A 
ATOM     13  C   UNL     1      -6.026  15.035  -1.463  1.00  0.00     0.162 A 
ATOM     14  C   UNL     1      -3.372  15.182  -2.337  1.00  0.00     0.066 A 
ATOM     15  C   UNL     1      -5.145  13.974  -1.189  1.00  0.00     0.200 A 
ATOM     16  C   UNL     1      -3.803  14.048  -1.640  1.00  0.00     0.162 A 
BRANCH  13  17
ATOM     17  O   UNL     1      -7.354  14.997  -1.030  1.00  0.00    -0.504 OA
ATOM     18  H   UNL     1      -8.113  14.702  -1.633  1.00  0.00     0.293 HD
ENDBRANCH  13  17
BRANCH  15  19
ATOM     19  O   UNL     1      -5.628  12.877  -0.469  1.00  0.00    -0.502 OA
ATOM     20  H   UNL     1      -6.115  12.949   0.411  1.00  0.00     0.293 HD
ENDBRANCH  15  19
BRANCH  16  21
ATOM     21  O   UNL     1      -2.876  13.024  -1.428  1.00  0.00    -0.504 OA
ATOM     22  H   UNL     1      -2.891  12.399  -0.639  1.00  0.00     0.293 HD
ENDBRANCH  16  21
ENDBRANCH   9  11
ENDBRANCH   8   9
ENDBRANCH   7   8
ENDBRANCH   1   7
BRANCH   2  23
ATOM     23  O   UNL     1      -4.380  18.729  -7.407  1.00  0.00    -0.452 OA
BRANCH  23  24
ATOM     24  C   UNL     1      -3.767  17.496  -7.143  1.00  0.00     0.338 C 
ATOM     25  O   UNL     1      -2.884  17.402  -6.247  1.00  0.00    -0.246 OA
BRANCH  24  26
ATOM     26  C   UNL     1      -4.165  16.305  -7.920  1.00  0.00     0.067 A 
ATOM     27  C   UNL     1      -3.361  15.152  -7.928  1.00  0.00     0.066 A 
ATOM     28  C   UNL     1      -5.361  16.309  -8.653  1.00  0.00     0.066 A 
ATOM     29  C   UNL     1      -3.743  14.022  -8.656  1.00  0.00     0.162 A 
ATOM     30  C   UNL     1      -5.749  15.186  -9.389  1.00  0.00     0.162 A 
ATOM     31  C   UNL     1      -4.939  14.037  -9.395  1.00  0.00     0.200 A 
BRANCH  29  32
ATOM     32  O   UNL     1      -2.934  12.885  -8.618  1.00  0.00    -0.504 OA
ATOM     33  H   UNL     1      -2.139  12.815  -7.994  1.00  0.00     0.293 HD
ENDBRANCH  29  32
BRANCH  30  34
ATOM     34  O   UNL     1      -6.936  15.207 -10.124  1.00  0.00    -0.504 OA
ATOM     35  H   UNL     1      -7.058  14.619 -10.942  1.00  0.00     0.293 HD
ENDBRANCH  30  34
BRANCH  31  36
ATOM     36  O   UNL     1      -5.314  12.905 -10.121  1.00  0.00    -0.502 OA
ATOM     37  H   UNL     1      -5.236  12.860 -11.133  1.00  0.00     0.293 HD
ENDBRANCH  31  36
ENDBRANCH  24  26
ENDBRANCH  23  24
ENDBRANCH   2  23
BRANCH   3  38
ATOM     38  O   UNL     1      -4.861  21.452  -7.863  1.00  0.00    -0.450 OA
BRANCH  38  39
ATOM     39  C   UNL     1      -5.056  21.884  -9.179  1.00  0.00     0.338 C 
ATOM     40  O   UNL     1      -5.064  21.049 -10.124  1.00  0.00    -0.246 OA
BRANCH  39  41
ATOM     41  C   UNL     1      -5.242  23.328  -9.454  1.00  0.00     0.067 A 
ATOM     42  C   UNL     1      -4.142  24.182  -9.643  1.00  0.00     0.066 A 
ATOM     43  C   UNL     1      -6.537  23.865  -9.522  1.00  0.00     0.066 A 
ATOM     44  C   UNL     1      -4.328  25.554  -9.862  1.00  0.00     0.162 A 
ATOM     45  C   UNL     1      -6.734  25.232  -9.737  1.00  0.00     0.162 A 
ATOM     46  C   UNL     1      -5.630  26.084  -9.903  1.00  0.00     0.200 A 
BRANCH  44  47
ATOM     47  O   UNL     1      -3.226  26.396 -10.037  1.00  0.00    -0.504 OA
ATOM     48  H   UNL     1      -2.821  26.916  -9.266  1.00  0.00     0.293 HD
ENDBRANCH  44  47
BRANCH  45  49
ATOM     49  O   UNL     1      -8.036  25.729  -9.790  1.00  0.00    -0.504 OA
ATOM     50  H   UNL     1      -8.275  26.551 -10.329  1.00  0.00     0.293 HD
ENDBRANCH  45  49
BRANCH  46  51
ATOM     51  O   UNL     1      -5.839  27.447 -10.111  1.00  0.00    -0.502 OA
ATOM     52  H   UNL     1      -6.765  27.847 -10.212  1.00  0.00     0.293 HD
ENDBRANCH  46  51
ENDBRANCH  39  41
ENDBRANCH  38  39
ENDBRANCH   3  38
BRANCH   5  53
ATOM     53  O   UNL     1      -8.602  19.871  -6.335  1.00  0.00    -0.428 OA
BRANCH  53  54
ATOM     54  C   UNL     1      -9.681  19.283  -5.664  1.00  0.00     0.340 C 
ATOM     55  O   UNL     1     -10.785  19.889  -5.585  1.00  0.00    -0.246 OA
BRANCH  54  56
ATOM     56  C   UNL     1      -9.506  17.960  -5.024  1.00  0.00     0.067 A 
ATOM     57  C   UNL     1      -9.231  16.828  -5.809  1.00  0.00     0.066 A 
ATOM     58  C   UNL     1      -9.601  17.823  -3.629  1.00  0.00     0.066 A 
ATOM     59  C   UNL     1      -9.061  15.571  -5.211  1.00  0.00     0.162 A 
ATOM     60  C   UNL     1      -9.425  16.571  -3.025  1.00  0.00     0.162 A 
ATOM     61  C   UNL     1      -9.162  15.440  -3.815  1.00  0.00     0.200 A 
BRANCH  59  62
ATOM     62  O   UNL     1      -8.793  14.453  -5.995  1.00  0.00    -0.504 OA
ATOM     63  H   UNL     1      -8.659  13.535  -5.586  1.00  0.00     0.293 HD
ENDBRANCH  59  62
BRANCH  60  64
ATOM     64  O   UNL     1      -9.527  16.459  -1.639  1.00  0.00    -0.504 OA
ATOM     65  H   UNL     1      -8.933  16.990  -1.013  1.00  0.00     0.293 HD
ENDBRANCH  60  64
BRANCH  61  66
ATOM     66  O   UNL     1      -9.000  14.196  -3.199  1.00  0.00    -0.502 OA
ATOM     67  H   UNL     1      -9.000  13.328  -3.732  1.00  0.00     0.293 HD
ENDBRANCH  61  66
ENDBRANCH  54  56
ENDBRANCH  53  54
ENDBRANCH   5  53
BRANCH   4  68
ATOM     68  O   UNL     1      -7.675  21.285  -8.557  1.00  0.00    -0.448 OA
BRANCH  68  69
ATOM     69  C   UNL     1      -8.566  22.021  -7.761  1.00  0.00     0.339 C 
ATOM     70  O   UNL     1      -8.286  22.260  -6.556  1.00  0.00    -0.246 OA
BRANCH  69  71
ATOM     71  C   UNL     1      -9.816  22.551  -8.346  1.00  0.00     0.067 A 
ATOM     72  C   UNL     1     -10.759  21.684  -8.926  1.00  0.00     0.066 A 
ATOM     73  C   UNL     1     -10.080  23.930  -8.325  1.00  0.00     0.066 A 
ATOM     74  C   UNL     1     -11.961  22.183  -9.446  1.00  0.00     0.162 A 
ATOM     75  C   UNL     1     -11.271  24.445  -8.856  1.00  0.00     0.162 A 
ATOM     76  C   UNL     1     -12.231  23.559  -9.406  1.00  0.00     0.200 A 
BRANCH  74  77
ATOM     77  O   UNL     1     -12.905  21.316  -9.997  1.00  0.00    -0.504 OA
ATOM     78  H   UNL     1     -12.713  20.793 -10.837  1.00  0.00     0.293 HD
ENDBRANCH  74  77
BRANCH  75  79
ATOM     79  O   UNL     1     -11.447  25.831  -8.825  1.00  0.00    -0.504 OA
ATOM     80  H   UNL     1     -10.770  26.479  -8.453  1.00  0.00     0.293 HD
ENDBRANCH  75  79
BRANCH  76  81
ATOM     81  O   UNL     1     -13.456  24.005  -9.905  1.00  0.00    -0.502 OA
ATOM     82  H   UNL     1     -13.786  24.949  -9.803  1.00  0.00     0.293 HD
ENDBRANCH  76  81
ENDBRANCH  69  71
ENDBRANCH  68  69
ENDBRANCH   4  68
TORSDOF 31
ENDMDL
