MODEL 1
REMARK VINA RESULT:    -3.464      0.000      0.000
REMARK INTER + INTRA:          -6.039
REMARK INTER:                  -5.286
REMARK INTRA:                  -0.753
REMARK UNBOUND:                -0.753
REMARK SMILES CCCCCCCCCCC(=O)[O-]
REMARK SMILES IDX 7 1 8 2 9 3 10 4 11 5 12 6 13 7 6 8 5 9 4 10 3 11 2 12 1 13
REMARK H PARENT
REMARK Flexibility Score: inf
ROOT
ATOM      1  C   UNL     1      31.224   9.480  22.934  1.00  0.00     0.000 C 
ENDROOT
BRANCH   1   2
ATOM      2  C   UNL     1      32.009   8.685  21.880  1.00  0.00     0.000 C 
BRANCH   2   3
ATOM      3  C   UNL     1      31.318   7.369  21.480  1.00  0.00     0.006 C 
BRANCH   3   4
ATOM      4  C   UNL     1      32.242   6.373  20.755  1.00  0.00     0.053 C 
BRANCH   4   5
ATOM      5  C   UNL     1      32.018   4.956  21.187  1.00  0.00     0.041 C 
ATOM      6  O   UNL     1      32.451   4.554  22.299  1.00  0.00    -0.550 OA
ATOM      7  O   UNL     1      31.302   4.086  20.374  1.00  0.00    -0.550 OA
ENDBRANCH   4   5
ENDBRANCH   3   4
ENDBRANCH   2   3
ENDBRANCH   1   2
BRANCH   1   8
ATOM      8  C   UNL     1      32.024  10.699  23.411  1.00  0.00     0.000 C 
BRANCH   8   9
ATOM      9  C   UNL     1      32.485  11.554  22.224  1.00  0.00    -0.000 C 
BRANCH   9  10
ATOM     10  C   UNL     1      33.939  12.012  22.409  1.00  0.00    -0.000 C 
BRANCH  10  11
ATOM     11  C   UNL     1      34.724  11.131  23.398  1.00  0.00    -0.000 C 
BRANCH  11  12
ATOM     12  C   UNL     1      36.012  10.511  22.830  1.00  0.00    -0.003 C 
ATOM     13  C   UNL     1      35.748   9.315  21.915  1.00  0.00     0.004 C 
ENDBRANCH  11  12
ENDBRANCH  10  11
ENDBRANCH   9  10
ENDBRANCH   8   9
ENDBRANCH   1   8
TORSDOF 9
ENDMDL
MODEL 2
REMARK VINA RESULT:    -3.328      2.663      5.503
REMARK INTER + INTRA:          -5.832
REMARK INTER:                  -5.257
REMARK INTRA:                  -0.575
REMARK UNBOUND:                -0.753
REMARK SMILES CCCCCCCCCCC(=O)[O-]
REMARK SMILES IDX 7 1 8 2 9 3 10 4 11 5 12 6 13 7 6 8 5 9 4 10 3 11 2 12 1 13
REMARK H PARENT
REMARK Flexibility Score: inf
ROOT
ATOM      1  C   UNL     1      32.102  10.671  23.438  1.00  0.00     0.000 C 
ENDROOT
BRANCH   1   2
ATOM      2  C   UNL     1      32.484  11.670  22.336  1.00  0.00     0.000 C 
BRANCH   2   3
ATOM      3  C   UNL     1      33.983  12.019  22.330  1.00  0.00     0.006 C 
BRANCH   3   4
ATOM      4  C   UNL     1      34.808  11.252  23.380  1.00  0.00     0.053 C 
BRANCH   4   5
ATOM      5  C   UNL     1      35.791  10.304  22.764  1.00  0.00     0.041 C 
ATOM      6  O   UNL     1      35.513   9.707  21.691  1.00  0.00    -0.550 OA
ATOM      7  O   UNL     1      37.029  10.103  23.360  1.00  0.00    -0.550 OA
ENDBRANCH   4   5
ENDBRANCH   3   4
ENDBRANCH   2   3
ENDBRANCH   1   2
BRANCH   1   8
ATOM      8  C   UNL     1      31.294   9.500  22.863  1.00  0.00     0.000 C 
BRANCH   8   9
ATOM      9  C   UNL     1      32.078   8.779  21.760  1.00  0.00    -0.000 C 
BRANCH   9  10
ATOM     10  C   UNL     1      31.378   7.475  21.351  1.00  0.00    -0.000 C 
BRANCH  10  11
ATOM     11  C   UNL     1      32.368   6.343  21.014  1.00  0.00    -0.000 C 
BRANCH  11  12
ATOM     12  C   UNL     1      31.980   4.960  21.564  1.00  0.00    -0.003 C 
ATOM     13  C   UNL     1      33.187   4.056  21.815  1.00  0.00     0.004 C 
ENDBRANCH  11  12
ENDBRANCH  10  11
ENDBRANCH   9  10
ENDBRANCH   8   9
ENDBRANCH   1   8
TORSDOF 9
ENDMDL
MODEL 3
REMARK VINA RESULT:    -3.322      1.204      3.040
REMARK INTER + INTRA:          -5.823
REMARK INTER:                  -4.826
REMARK INTRA:                  -0.997
REMARK UNBOUND:                -0.753
REMARK SMILES CCCCCCCCCCC(=O)[O-]
REMARK SMILES IDX 7 1 8 2 9 3 10 4 11 5 12 6 13 7 6 8 5 9 4 10 3 11 2 12 1 13
REMARK H PARENT
REMARK Flexibility Score: inf
ROOT
ATOM      1  C   UNL     1      35.526   9.946  21.086  1.00  0.00     0.000 C 
ENDROOT
BRANCH   1   2
ATOM      2  C   UNL     1      35.055   8.484  21.080  1.00  0.00     0.000 C 
BRANCH   2   3
ATOM      3  C   UNL     1      33.610   8.318  20.576  1.00  0.00     0.006 C 
BRANCH   3   4
ATOM      4  C   UNL     1      33.306   6.924  19.996  1.00  0.00     0.053 C 
BRANCH   4   5
ATOM      5  C   UNL     1      31.987   6.382  20.454  1.00  0.00     0.041 C 
ATOM      6  O   UNL     1      31.871   5.873  21.600  1.00  0.00    -0.550 OA
ATOM      7  O   UNL     1      30.875   6.467  19.626  1.00  0.00    -0.550 OA
ENDBRANCH   4   5
ENDBRANCH   3   4
ENDBRANCH   2   3
ENDBRANCH   1   2
BRANCH   1   8
ATOM      8  C   UNL     1      35.946  10.382  22.496  1.00  0.00     0.000 C 
BRANCH   8   9
ATOM      9  C   UNL     1      34.767  11.004  23.254  1.00  0.00    -0.000 C 
BRANCH   9  10
ATOM     10  C   UNL     1      33.924  11.891  22.327  1.00  0.00    -0.000 C 
BRANCH  10  11
ATOM     11  C   UNL     1      32.431  11.513  22.329  1.00  0.00    -0.000 C 
BRANCH  11  12
ATOM     12  C   UNL     1      32.034  10.451  23.369  1.00  0.00    -0.003 C 
ATOM     13  C   UNL     1      31.149   9.347  22.789  1.00  0.00     0.004 C 
ENDBRANCH  11  12
ENDBRANCH  10  11
ENDBRANCH   9  10
ENDBRANCH   8   9
ENDBRANCH   1   8
TORSDOF 9
ENDMDL
MODEL 4
REMARK VINA RESULT:    -3.265      1.423      2.239
REMARK INTER + INTRA:          -5.735
REMARK INTER:                  -4.851
REMARK INTRA:                  -0.884
REMARK UNBOUND:                -0.753
REMARK SMILES CCCCCCCCCCC(=O)[O-]
REMARK SMILES IDX 7 1 8 2 9 3 10 4 11 5 12 6 13 7 6 8 5 9 4 10 3 11 2 12 1 13
REMARK H PARENT
REMARK Flexibility Score: inf
ROOT
ATOM      1  C   UNL     1      32.079  10.668  23.406  1.00  0.00     0.000 C 
ENDROOT
BRANCH   1   2
ATOM      2  C   UNL     1      31.268   9.470  22.890  1.00  0.00     0.000 C 
BRANCH   2   3
ATOM      3  C   UNL     1      31.985   8.693  21.772  1.00  0.00     0.006 C 
BRANCH   3   4
ATOM      4  C   UNL     1      31.367   7.315  21.473  1.00  0.00     0.053 C 
BRANCH   4   5
ATOM      5  C   UNL     1      31.561   6.889  20.050  1.00  0.00     0.041 C 
ATOM      6  O   UNL     1      32.176   7.633  19.241  1.00  0.00    -0.550 OA
ATOM      7  O   UNL     1      31.089   5.654  19.623  1.00  0.00    -0.550 OA
ENDBRANCH   4   5
ENDBRANCH   3   4
ENDBRANCH   2   3
ENDBRANCH   1   2
BRANCH   1   8
ATOM      8  C   UNL     1      33.327  10.900  22.544  1.00  0.00     0.000 C 
BRANCH   8   9
ATOM      9  C   UNL     1      34.505  11.383  23.400  1.00  0.00    -0.000 C 
BRANCH   9  10
ATOM     10  C   UNL     1      35.810  10.694  22.976  1.00  0.00    -0.000 C 
BRANCH  10  11
ATOM     11  C   UNL     1      35.674   9.910  21.657  1.00  0.00    -0.000 C 
BRANCH  11  12
ATOM     12  C   UNL     1      36.215   8.471  21.701  1.00  0.00    -0.003 C 
ATOM     13  C   UNL     1      35.383   7.493  20.872  1.00  0.00     0.004 C 
ENDBRANCH  11  12
ENDBRANCH  10  11
ENDBRANCH   9  10
ENDBRANCH   8   9
ENDBRANCH   1   8
TORSDOF 9
ENDMDL
MODEL 5
REMARK VINA RESULT:    -3.206      2.276      4.681
REMARK INTER + INTRA:          -5.647
REMARK INTER:                  -4.785
REMARK INTRA:                  -0.861
REMARK UNBOUND:                -0.753
REMARK SMILES CCCCCCCCCCC(=O)[O-]
REMARK SMILES IDX 7 1 8 2 9 3 10 4 11 5 12 6 13 7 6 8 5 9 4 10 3 11 2 12 1 13
REMARK H PARENT
REMARK Flexibility Score: inf
ROOT
ATOM      1  C   UNL     1      33.966  12.042  22.456  1.00  0.00     0.000 C 
ENDROOT
BRANCH   1   2
ATOM      2  C   UNL     1      34.716  11.201  23.499  1.00  0.00     0.000 C 
BRANCH   2   3
ATOM      3  C   UNL     1      36.035  10.614  22.966  1.00  0.00     0.006 C 
BRANCH   3   4
ATOM      4  C   UNL     1      36.090  10.489  21.433  1.00  0.00     0.053 C 
BRANCH   4   5
ATOM      5  C   UNL     1      35.689   9.130  20.948  1.00  0.00     0.041 C 
ATOM      6  O   UNL     1      35.137   8.991  19.825  1.00  0.00    -0.550 OA
ATOM      7  O   UNL     1      35.956   8.009  21.724  1.00  0.00    -0.550 OA
ENDBRANCH   4   5
ENDBRANCH   3   4
ENDBRANCH   2   3
ENDBRANCH   1   2
BRANCH   1   8
ATOM      8  C   UNL     1      32.462  11.743  22.486  1.00  0.00     0.000 C 
BRANCH   8   9
ATOM      9  C   UNL     1      32.142  10.630  23.492  1.00  0.00    -0.000 C 
BRANCH   9  10
ATOM     10  C   UNL     1      31.340   9.503  22.826  1.00  0.00    -0.000 C 
BRANCH  10  11
ATOM     11  C   UNL     1      32.147   8.742  21.757  1.00  0.00    -0.000 C 
BRANCH  11  12
ATOM     12  C   UNL     1      31.561   7.379  21.352  1.00  0.00    -0.003 C 
ATOM     13  C   UNL     1      32.627   6.376  20.912  1.00  0.00     0.004 C 
ENDBRANCH  11  12
ENDBRANCH  10  11
ENDBRANCH   9  10
ENDBRANCH   8   9
ENDBRANCH   1   8
TORSDOF 9
ENDMDL
MODEL 6
REMARK VINA RESULT:    -3.133      2.569      3.005
REMARK INTER + INTRA:          -5.535
REMARK INTER:                  -4.540
REMARK INTRA:                  -0.995
REMARK UNBOUND:                -0.753
REMARK SMILES CCCCCCCCCCC(=O)[O-]
REMARK SMILES IDX 7 1 8 2 9 3 10 4 11 5 12 6 13 7 6 8 5 9 4 10 3 11 2 12 1 13
REMARK H PARENT
REMARK Flexibility Score: inf
ROOT
ATOM      1  C   UNL     1      32.011   9.929  23.208  1.00  0.00     0.000 C 
ENDROOT
BRANCH   1   2
ATOM      2  C   UNL     1      31.092   9.132  22.270  1.00  0.00     0.000 C 
BRANCH   2   3
ATOM      3  C   UNL     1      31.850   8.095  21.421  1.00  0.00     0.006 C 
BRANCH   3   4
ATOM      4  C   UNL     1      33.293   8.504  21.074  1.00  0.00     0.053 C 
BRANCH   4   5
ATOM      5  C   UNL     1      33.413   9.097  19.704  1.00  0.00     0.041 C 
ATOM      6  O   UNL     1      32.832   8.561  18.724  1.00  0.00    -0.550 OA
ATOM      7  O   UNL     1      34.142  10.264  19.513  1.00  0.00    -0.550 OA
ENDBRANCH   4   5
ENDBRANCH   3   4
ENDBRANCH   2   3
ENDBRANCH   1   2
BRANCH   1   8
ATOM      8  C   UNL     1      31.916  11.434  22.923  1.00  0.00     0.000 C 
BRANCH   8   9
ATOM      9  C   UNL     1      33.291  12.016  22.574  1.00  0.00    -0.000 C 
BRANCH   9  10
ATOM     10  C   UNL     1      34.408  11.273  23.321  1.00  0.00    -0.000 C 
BRANCH  10  11
ATOM     11  C   UNL     1      35.728  11.220  22.529  1.00  0.00    -0.000 C 
BRANCH  11  12
ATOM     12  C   UNL     1      36.372   9.826  22.438  1.00  0.00    -0.003 C 
ATOM     13  C   UNL     1      37.778   9.776  23.036  1.00  0.00     0.004 C 
ENDBRANCH  11  12
ENDBRANCH  10  11
ENDBRANCH   9  10
ENDBRANCH   8   9
ENDBRANCH   1   8
TORSDOF 9
ENDMDL
MODEL 7
REMARK VINA RESULT:    -3.132      2.827      4.785
REMARK INTER + INTRA:          -5.534
REMARK INTER:                  -4.876
REMARK INTRA:                  -0.658
REMARK UNBOUND:                -0.753
REMARK SMILES CCCCCCCCCCC(=O)[O-]
REMARK SMILES IDX 7 1 8 2 9 3 10 4 11 5 12 6 13 7 6 8 5 9 4 10 3 11 2 12 1 13
REMARK H PARENT
REMARK Flexibility Score: inf
ROOT
ATOM      1  C   UNL     1      35.476  10.709  23.124  1.00  0.00     0.000 C 
ENDROOT
BRANCH   1   2
ATOM      2  C   UNL     1      34.701  12.031  23.014  1.00  0.00     0.000 C 
BRANCH   2   3
ATOM      3  C   UNL     1      33.247  11.841  22.546  1.00  0.00     0.006 C 
BRANCH   3   4
ATOM      4  C   UNL     1      32.444  10.838  23.394  1.00  0.00     0.053 C 
BRANCH   4   5
ATOM      5  C   UNL     1      31.947   9.672  22.595  1.00  0.00     0.041 C 
ATOM      6  O   UNL     1      30.883   9.084  22.920  1.00  0.00    -0.550 OA
ATOM      7  O   UNL     1      32.644   9.254  21.469  1.00  0.00    -0.550 OA
ENDBRANCH   4   5
ENDBRANCH   3   4
ENDBRANCH   2   3
ENDBRANCH   1   2
BRANCH   1   8
ATOM      8  C   UNL     1      35.998  10.261  21.753  1.00  0.00     0.000 C 
BRANCH   8   9
ATOM      9  C   UNL     1      37.148   9.257  21.903  1.00  0.00    -0.000 C 
BRANCH   9  10
ATOM     10  C   UNL     1      37.859   9.434  23.253  1.00  0.00    -0.000 C 
BRANCH  10  11
ATOM     11  C   UNL     1      38.148   8.096  23.958  1.00  0.00    -0.000 C 
BRANCH  11  12
ATOM     12  C   UNL     1      37.664   6.847  23.201  1.00  0.00    -0.003 C 
ATOM     13  C   UNL     1      38.710   5.734  23.153  1.00  0.00     0.004 C 
ENDBRANCH  11  12
ENDBRANCH  10  11
ENDBRANCH   9  10
ENDBRANCH   8   9
ENDBRANCH   1   8
TORSDOF 9
ENDMDL
MODEL 8
REMARK VINA RESULT:    -3.124      2.207      4.541
REMARK INTER + INTRA:          -5.521
REMARK INTER:                  -4.771
REMARK INTRA:                  -0.750
REMARK UNBOUND:                -0.753
REMARK SMILES CCCCCCCCCCC(=O)[O-]
REMARK SMILES IDX 7 1 8 2 9 3 10 4 11 5 12 6 13 7 6 8 5 9 4 10 3 11 2 12 1 13
REMARK H PARENT
REMARK Flexibility Score: inf
ROOT
ATOM      1  C   UNL     1      34.539  11.449  23.534  1.00  0.00     0.000 C 
ENDROOT
BRANCH   1   2
ATOM      2  C   UNL     1      35.716  11.234  22.570  1.00  0.00     0.000 C 
BRANCH   2   3
ATOM      3  C   UNL     1      36.476   9.920  22.829  1.00  0.00     0.006 C 
BRANCH   3   4
ATOM      4  C   UNL     1      36.384   8.907  21.673  1.00  0.00     0.053 C 
BRANCH   4   5
ATOM      5  C   UNL     1      36.782   7.523  22.084  1.00  0.00     0.041 C 
ATOM      6  O   UNL     1      37.709   7.348  22.917  1.00  0.00    -0.550 OA
ATOM      7  O   UNL     1      36.105   6.424  21.570  1.00  0.00    -0.550 OA
ENDBRANCH   4   5
ENDBRANCH   3   4
ENDBRANCH   2   3
ENDBRANCH   1   2
BRANCH   1   8
ATOM      8  C   UNL     1      33.213  11.550  22.769  1.00  0.00     0.000 C 
BRANCH   8   9
ATOM      9  C   UNL     1      32.096  10.799  23.504  1.00  0.00    -0.000 C 
BRANCH   9  10
ATOM     10  C   UNL     1      31.653   9.560  22.712  1.00  0.00    -0.000 C 
BRANCH  10  11
ATOM     11  C   UNL     1      32.576   9.250  21.519  1.00  0.00    -0.000 C 
BRANCH  11  12
ATOM     12  C   UNL     1      32.517   7.797  21.016  1.00  0.00    -0.003 C 
ATOM     13  C   UNL     1      31.179   7.117  21.308  1.00  0.00     0.004 C 
ENDBRANCH  11  12
ENDBRANCH  10  11
ENDBRANCH   9  10
ENDBRANCH   8   9
ENDBRANCH   1   8
TORSDOF 9
ENDMDL
MODEL 9
REMARK VINA RESULT:    -2.997      1.509      1.830
REMARK INTER + INTRA:          -5.327
REMARK INTER:                  -4.580
REMARK INTRA:                  -0.747
REMARK UNBOUND:                -0.753
REMARK SMILES CCCCCCCCCCC(=O)[O-]
REMARK SMILES IDX 7 1 8 2 9 3 10 4 11 5 12 6 13 7 6 8 5 9 4 10 3 11 2 12 1 13
REMARK H PARENT
REMARK Flexibility Score: inf
ROOT
ATOM      1  C   UNL     1      32.182   9.464  22.228  1.00  0.00     0.000 C 
ENDROOT
BRANCH   1   2
ATOM      2  C   UNL     1      30.877   8.682  22.440  1.00  0.00     0.000 C 
BRANCH   2   3
ATOM      3  C   UNL     1      30.875   7.310  21.743  1.00  0.00     0.006 C 
BRANCH   3   4
ATOM      4  C   UNL     1      32.174   6.995  20.978  1.00  0.00     0.053 C 
BRANCH   4   5
ATOM      5  C   UNL     1      31.925   6.597  19.555  1.00  0.00     0.041 C 
ATOM      6  O   UNL     1      30.924   7.040  18.935  1.00  0.00    -0.550 OA
ATOM      7  O   UNL     1      32.820   5.758  18.902  1.00  0.00    -0.550 OA
ENDBRANCH   4   5
ENDBRANCH   3   4
ENDBRANCH   2   3
ENDBRANCH   1   2
BRANCH   1   8
ATOM      8  C   UNL     1      32.178  10.770  23.032  1.00  0.00     0.000 C 
BRANCH   8   9
ATOM      9  C   UNL     1      33.391  11.639  22.677  1.00  0.00    -0.000 C 
BRANCH   9  10
ATOM     10  C   UNL     1      34.570  11.346  23.616  1.00  0.00    -0.000 C 
BRANCH  10  11
ATOM     11  C   UNL     1      35.889  11.097  22.861  1.00  0.00    -0.000 C 
BRANCH  11  12
ATOM     12  C   UNL     1      35.732  10.420  21.489  1.00  0.00    -0.003 C 
ATOM     13  C   UNL     1      35.828   8.896  21.559  1.00  0.00     0.004 C 
ENDBRANCH  11  12
ENDBRANCH  10  11
ENDBRANCH   9  10
ENDBRANCH   8   9
ENDBRANCH   1   8
TORSDOF 9
ENDMDL
