MODEL 1
REMARK VINA RESULT:    -4.025      0.000      0.000
REMARK INTER + INTRA:         -13.209
REMARK INTER:                 -10.142
REMARK INTRA:                  -3.066
REMARK UNBOUND:                -3.066
REMARK SMILES CCCCCCCCCCCCCCCCCCCCCCCCCCCC(=O)[O-]
REMARK SMILES IDX 15 1 16 2 17 3 18 4 19 5 20 6 21 7 22 8 23 9 24 10 25 11
REMARK SMILES IDX 26 12 27 13 28 14 29 15 30 16 14 17 13 18 12 19 11 20 10 21
REMARK SMILES IDX 9 22 8 23 7 24 6 25 5 26 4 27 3 28 2 29 1 30
REMARK H PARENT
REMARK Flexibility Score: inf
ROOT
ATOM      1  C   UNL     1       3.404  43.402   8.882  1.00  0.00     0.000 C 
ENDROOT
BRANCH   1   2
ATOM      2  C   UNL     1       1.899  43.088   8.948  1.00  0.00     0.000 C 
BRANCH   2   3
ATOM      3  C   UNL     1       1.028  44.327   8.688  1.00  0.00     0.000 C 
BRANCH   3   4
ATOM      4  C   UNL     1       0.388  44.324   7.289  1.00  0.00     0.000 C 
BRANCH   4   5
ATOM      5  C   UNL     1      -0.471  45.572   7.016  1.00  0.00     0.000 C 
BRANCH   5   6
ATOM      6  C   UNL     1      -1.071  46.244   8.265  1.00  0.00     0.000 C 
BRANCH   6   7
ATOM      7  C   UNL     1      -1.013  47.780   8.210  1.00  0.00     0.000 C 
BRANCH   7   8
ATOM      8  C   UNL     1       0.231  48.356   8.909  1.00  0.00     0.000 C 
BRANCH   8   9
ATOM      9  C   UNL     1       1.375  48.780   7.966  1.00  0.00     0.000 C 
BRANCH   9  10
ATOM     10  C   UNL     1       2.450  47.704   7.713  1.00  0.00     0.000 C 
BRANCH  10  11
ATOM     11  C   UNL     1       3.123  47.147   8.981  1.00  0.00     0.000 C 
BRANCH  11  12
ATOM     12  C   UNL     1       4.592  46.749   8.748  1.00  0.00     0.006 C 
BRANCH  12  13
ATOM     13  C   UNL     1       5.508  47.233   9.879  1.00  0.00     0.053 C 
BRANCH  13  14
ATOM     14  C   UNL     1       6.707  47.961   9.351  1.00  0.00     0.041 C 
ATOM     15  O   UNL     1       7.829  47.392   9.309  1.00  0.00    -0.550 OA
ATOM     16  O   UNL     1       6.589  49.282   8.932  1.00  0.00    -0.550 OA
ENDBRANCH  13  14
ENDBRANCH  12  13
ENDBRANCH  11  12
ENDBRANCH  10  11
ENDBRANCH   9  10
ENDBRANCH   8   9
ENDBRANCH   7   8
ENDBRANCH   6   7
ENDBRANCH   5   6
ENDBRANCH   4   5
ENDBRANCH   3   4
ENDBRANCH   2   3
ENDBRANCH   1   2
BRANCH   1  17
ATOM     17  C   UNL     1       4.143  43.129  10.208  1.00  0.00     0.000 C 
BRANCH  17  18
ATOM     18  C   UNL     1       3.959  44.227  11.275  1.00  0.00     0.000 C 
BRANCH  18  19
ATOM     19  C   UNL     1       3.047  43.854  12.458  1.00  0.00     0.000 C 
BRANCH  19  20
ATOM     20  C   UNL     1       1.537  43.789  12.140  1.00  0.00     0.000 C 
BRANCH  20  21
ATOM     21  C   UNL     1       0.866  42.430  12.419  1.00  0.00     0.000 C 
BRANCH  21  22
ATOM     22  C   UNL     1      -0.451  42.560  13.203  1.00  0.00    -0.000 C 
BRANCH  22  23
ATOM     23  C   UNL     1      -1.023  41.201  13.632  1.00  0.00    -0.000 C 
BRANCH  23  24
ATOM     24  C   UNL     1      -0.163  40.487  14.685  1.00  0.00    -0.000 C 
BRANCH  24  25
ATOM     25  C   UNL     1       1.236  40.185  14.124  1.00  0.00    -0.000 C 
BRANCH  25  26
ATOM     26  C   UNL     1       1.276  38.905  13.276  1.00  0.00    -0.000 C 
BRANCH  26  27
ATOM     27  C   UNL     1       2.623  38.707  12.559  1.00  0.00    -0.000 C 
BRANCH  27  28
ATOM     28  C   UNL     1       3.219  40.044  12.065  1.00  0.00    -0.000 C 
BRANCH  28  29
ATOM     29  C   UNL     1       4.665  40.284  12.533  1.00  0.00    -0.003 C 
ATOM     30  C   UNL     1       5.070  39.401  13.710  1.00  0.00     0.004 C 
ENDBRANCH  28  29
ENDBRANCH  27  28
ENDBRANCH  26  27
ENDBRANCH  25  26
ENDBRANCH  24  25
ENDBRANCH  23  24
ENDBRANCH  22  23
ENDBRANCH  21  22
ENDBRANCH  20  21
ENDBRANCH  19  20
ENDBRANCH  18  19
ENDBRANCH  17  18
ENDBRANCH   1  17
TORSDOF 26
ENDMDL
MODEL 2
REMARK VINA RESULT:    -3.682      2.971      8.378
REMARK INTER + INTRA:         -12.344
REMARK INTER:                  -8.869
REMARK INTRA:                  -3.474
REMARK UNBOUND:                -3.066
REMARK SMILES CCCCCCCCCCCCCCCCCCCCCCCCCCCC(=O)[O-]
REMARK SMILES IDX 15 1 16 2 17 3 18 4 19 5 20 6 21 7 22 8 23 9 24 10 25 11
REMARK SMILES IDX 26 12 27 13 28 14 29 15 30 16 14 17 13 18 12 19 11 20 10 21
REMARK SMILES IDX 9 22 8 23 7 24 6 25 5 26 4 27 3 28 2 29 1 30
REMARK H PARENT
REMARK Flexibility Score: inf
ROOT
ATOM      1  C   UNL     1       3.324  45.543   9.786  1.00  0.00     0.000 C 
ENDROOT
BRANCH   1   2
ATOM      2  C   UNL     1       4.542  45.334  10.703  1.00  0.00     0.000 C 
BRANCH   2   3
ATOM      3  C   UNL     1       4.203  44.509  11.953  1.00  0.00     0.000 C 
BRANCH   3   4
ATOM      4  C   UNL     1       4.462  43.004  11.764  1.00  0.00     0.000 C 
BRANCH   4   5
ATOM      5  C   UNL     1       3.347  42.295  10.972  1.00  0.00     0.000 C 
BRANCH   5   6
ATOM      6  C   UNL     1       2.228  41.672  11.827  1.00  0.00     0.000 C 
BRANCH   6   7
ATOM      7  C   UNL     1       1.397  42.719  12.589  1.00  0.00     0.000 C 
BRANCH   7   8
ATOM      8  C   UNL     1      -0.023  42.225  12.922  1.00  0.00     0.000 C 
BRANCH   8   9
ATOM      9  C   UNL     1      -0.206  41.677  14.351  1.00  0.00     0.000 C 
BRANCH   9  10
ATOM     10  C   UNL     1       0.195  40.201  14.544  1.00  0.00     0.000 C 
BRANCH  10  11
ATOM     11  C   UNL     1      -0.329  39.239  13.463  1.00  0.00     0.000 C 
BRANCH  11  12
ATOM     12  C   UNL     1       0.777  38.339  12.881  1.00  0.00     0.006 C 
BRANCH  12  13
ATOM     13  C   UNL     1       2.178  38.793  13.310  1.00  0.00     0.053 C 
BRANCH  13  14
ATOM     14  C   UNL     1       3.238  38.274  12.387  1.00  0.00     0.041 C 
ATOM     15  O   UNL     1       3.033  37.239  11.701  1.00  0.00    -0.550 OA
ATOM     16  O   UNL     1       4.467  38.921  12.307  1.00  0.00    -0.550 OA
ENDBRANCH  13  14
ENDBRANCH  12  13
ENDBRANCH  11  12
ENDBRANCH  10  11
ENDBRANCH   9  10
ENDBRANCH   8   9
ENDBRANCH   7   8
ENDBRANCH   6   7
ENDBRANCH   5   6
ENDBRANCH   4   5
ENDBRANCH   3   4
ENDBRANCH   2   3
ENDBRANCH   1   2
BRANCH   1  17
ATOM     17  C   UNL     1       2.003  45.734  10.559  1.00  0.00     0.000 C 
BRANCH  17  18
ATOM     18  C   UNL     1       0.814  44.931   9.995  1.00  0.00     0.000 C 
BRANCH  18  19
ATOM     19  C   UNL     1       1.077  44.208   8.661  1.00  0.00     0.000 C 
BRANCH  19  20
ATOM     20  C   UNL     1       0.166  44.627   7.487  1.00  0.00     0.000 C 
BRANCH  20  21
ATOM     21  C   UNL     1      -0.791  45.797   7.785  1.00  0.00     0.000 C 
BRANCH  21  22
ATOM     22  C   UNL     1      -0.357  47.114   7.118  1.00  0.00    -0.000 C 
BRANCH  22  23
ATOM     23  C   UNL     1      -0.233  48.273   8.118  1.00  0.00    -0.000 C 
BRANCH  23  24
ATOM     24  C   UNL     1       1.215  48.551   8.547  1.00  0.00    -0.000 C 
BRANCH  24  25
ATOM     25  C   UNL     1       2.200  47.806   7.632  1.00  0.00    -0.000 C 
BRANCH  25  26
ATOM     26  C   UNL     1       3.490  48.598   7.370  1.00  0.00    -0.000 C 
BRANCH  26  27
ATOM     27  C   UNL     1       4.648  48.171   8.287  1.00  0.00    -0.000 C 
BRANCH  27  28
ATOM     28  C   UNL     1       5.701  49.290   8.450  1.00  0.00    -0.000 C 
BRANCH  28  29
ATOM     29  C   UNL     1       6.892  48.891   9.340  1.00  0.00    -0.003 C 
ATOM     30  C   UNL     1       7.188  47.393   9.311  1.00  0.00     0.004 C 
ENDBRANCH  28  29
ENDBRANCH  27  28
ENDBRANCH  26  27
ENDBRANCH  25  26
ENDBRANCH  24  25
ENDBRANCH  23  24
ENDBRANCH  22  23
ENDBRANCH  21  22
ENDBRANCH  20  21
ENDBRANCH  19  20
ENDBRANCH  18  19
ENDBRANCH  17  18
ENDBRANCH   1  17
TORSDOF 26
ENDMDL
MODEL 3
REMARK VINA RESULT:    -3.678      2.504      7.763
REMARK INTER + INTRA:         -12.334
REMARK INTER:                 -10.041
REMARK INTRA:                  -2.293
REMARK UNBOUND:                -3.066
REMARK SMILES CCCCCCCCCCCCCCCCCCCCCCCCCCCC(=O)[O-]
REMARK SMILES IDX 15 1 16 2 17 3 18 4 19 5 20 6 21 7 22 8 23 9 24 10 25 11
REMARK SMILES IDX 26 12 27 13 28 14 29 15 30 16 14 17 13 18 12 19 11 20 10 21
REMARK SMILES IDX 9 22 8 23 7 24 6 25 5 26 4 27 3 28 2 29 1 30
REMARK H PARENT
REMARK Flexibility Score: inf
ROOT
ATOM      1  C   UNL     1       3.965  42.677  10.407  1.00  0.00     0.000 C 
ENDROOT
BRANCH   1   2
ATOM      2  C   UNL     1       3.993  43.428  11.750  1.00  0.00     0.000 C 
BRANCH   2   3
ATOM      3  C   UNL     1       2.655  44.111  12.070  1.00  0.00     0.000 C 
BRANCH   3   4
ATOM      4  C   UNL     1       1.471  43.129  12.083  1.00  0.00     0.000 C 
BRANCH   4   5
ATOM      5  C   UNL     1       0.114  43.817  11.848  1.00  0.00     0.000 C 
BRANCH   5   6
ATOM      6  C   UNL     1      -0.981  43.481  12.878  1.00  0.00     0.000 C 
BRANCH   6   7
ATOM      7  C   UNL     1      -0.960  42.007  13.320  1.00  0.00     0.000 C 
BRANCH   7   8
ATOM      8  C   UNL     1      -0.584  41.835  14.803  1.00  0.00     0.000 C 
BRANCH   8   9
ATOM      9  C   UNL     1       0.353  40.650  15.107  1.00  0.00     0.000 C 
BRANCH   9  10
ATOM     10  C   UNL     1       0.528  39.639  13.957  1.00  0.00     0.000 C 
BRANCH  10  11
ATOM     11  C   UNL     1       1.898  39.681  13.257  1.00  0.00     0.000 C 
BRANCH  11  12
ATOM     12  C   UNL     1       2.229  38.372  12.516  1.00  0.00     0.006 C 
BRANCH  12  13
ATOM     13  C   UNL     1       3.726  38.241  12.212  1.00  0.00     0.053 C 
BRANCH  13  14
ATOM     14  C   UNL     1       4.530  39.299  12.906  1.00  0.00     0.041 C 
ATOM     15  O   UNL     1       4.650  40.443  12.396  1.00  0.00    -0.550 OA
ATOM     16  O   UNL     1       5.171  39.009  14.105  1.00  0.00    -0.550 OA
ENDBRANCH  13  14
ENDBRANCH  12  13
ENDBRANCH  11  12
ENDBRANCH  10  11
ENDBRANCH   9  10
ENDBRANCH   8   9
ENDBRANCH   7   8
ENDBRANCH   6   7
ENDBRANCH   5   6
ENDBRANCH   4   5
ENDBRANCH   3   4
ENDBRANCH   2   3
ENDBRANCH   1   2
BRANCH   1  17
ATOM     17  C   UNL     1       3.472  43.546   9.232  1.00  0.00     0.000 C 
BRANCH  17  18
ATOM     18  C   UNL     1       2.100  43.128   8.665  1.00  0.00     0.000 C 
BRANCH  18  19
ATOM     19  C   UNL     1       1.013  44.218   8.689  1.00  0.00     0.000 C 
BRANCH  19  20
ATOM     20  C   UNL     1       0.347  44.522   7.329  1.00  0.00     0.000 C 
BRANCH  20  21
ATOM     21  C   UNL     1      -0.384  45.876   7.246  1.00  0.00     0.000 C 
BRANCH  21  22
ATOM     22  C   UNL     1      -0.653  46.500   8.626  1.00  0.00    -0.000 C 
BRANCH  22  23
ATOM     23  C   UNL     1       0.378  47.574   9.003  1.00  0.00    -0.000 C 
BRANCH  23  24
ATOM     24  C   UNL     1       1.305  47.957   7.841  1.00  0.00    -0.000 C 
BRANCH  24  25
ATOM     25  C   UNL     1       2.756  47.557   8.154  1.00  0.00    -0.000 C 
BRANCH  25  26
ATOM     26  C   UNL     1       2.905  46.872   9.522  1.00  0.00    -0.000 C 
BRANCH  26  27
ATOM     27  C   UNL     1       4.352  46.890  10.043  1.00  0.00    -0.000 C 
BRANCH  27  28
ATOM     28  C   UNL     1       5.341  47.433   8.988  1.00  0.00    -0.000 C 
BRANCH  28  29
ATOM     29  C   UNL     1       6.531  48.198   9.594  1.00  0.00    -0.003 C 
ATOM     30  C   UNL     1       7.850  47.438   9.491  1.00  0.00     0.004 C 
ENDBRANCH  28  29
ENDBRANCH  27  28
ENDBRANCH  26  27
ENDBRANCH  25  26
ENDBRANCH  24  25
ENDBRANCH  23  24
ENDBRANCH  22  23
ENDBRANCH  21  22
ENDBRANCH  20  21
ENDBRANCH  19  20
ENDBRANCH  18  19
ENDBRANCH  17  18
ENDBRANCH   1  17
TORSDOF 26
ENDMDL
MODEL 4
REMARK VINA RESULT:    -3.603      2.557      8.097
REMARK INTER + INTRA:         -12.146
REMARK INTER:                  -9.491
REMARK INTRA:                  -2.655
REMARK UNBOUND:                -3.066
REMARK SMILES CCCCCCCCCCCCCCCCCCCCCCCCCCCC(=O)[O-]
REMARK SMILES IDX 15 1 16 2 17 3 18 4 19 5 20 6 21 7 22 8 23 9 24 10 25 11
REMARK SMILES IDX 26 12 27 13 28 14 29 15 30 16 14 17 13 18 12 19 11 20 10 21
REMARK SMILES IDX 9 22 8 23 7 24 6 25 5 26 4 27 3 28 2 29 1 30
REMARK H PARENT
REMARK Flexibility Score: inf
ROOT
ATOM      1  C   UNL     1       4.136  43.239  10.630  1.00  0.00     0.000 C 
ENDROOT
BRANCH   1   2
ATOM      2  C   UNL     1       4.123  43.296   9.092  1.00  0.00     0.000 C 
BRANCH   2   3
ATOM      3  C   UNL     1       2.731  43.620   8.528  1.00  0.00     0.000 C 
BRANCH   3   4
ATOM      4  C   UNL     1       1.590  43.144   9.444  1.00  0.00     0.000 C 
BRANCH   4   5
ATOM      5  C   UNL     1       0.960  44.285  10.264  1.00  0.00     0.000 C 
BRANCH   5   6
ATOM      6  C   UNL     1       0.798  44.002  11.769  1.00  0.00     0.000 C 
BRANCH   6   7
ATOM      7  C   UNL     1       1.120  42.545  12.146  1.00  0.00     0.000 C 
BRANCH   7   8
ATOM      8  C   UNL     1       0.731  42.205  13.596  1.00  0.00     0.000 C 
BRANCH   8   9
ATOM      9  C   UNL     1      -0.332  41.099  13.747  1.00  0.00     0.000 C 
BRANCH   9  10
ATOM     10  C   UNL     1       0.184  39.660  13.543  1.00  0.00     0.000 C 
BRANCH  10  11
ATOM     11  C   UNL     1       1.715  39.525  13.461  1.00  0.00     0.000 C 
BRANCH  11  12
ATOM     12  C   UNL     1       2.161  38.219  12.778  1.00  0.00     0.006 C 
BRANCH  12  13
ATOM     13  C   UNL     1       3.533  38.357  12.106  1.00  0.00     0.053 C 
BRANCH  13  14
ATOM     14  C   UNL     1       4.402  39.351  12.814  1.00  0.00     0.041 C 
ATOM     15  O   UNL     1       5.067  39.006  13.825  1.00  0.00    -0.550 OA
ATOM     16  O   UNL     1       4.454  40.668  12.371  1.00  0.00    -0.550 OA
ENDBRANCH  13  14
ENDBRANCH  12  13
ENDBRANCH  11  12
ENDBRANCH  10  11
ENDBRANCH   9  10
ENDBRANCH   8   9
ENDBRANCH   7   8
ENDBRANCH   6   7
ENDBRANCH   5   6
ENDBRANCH   4   5
ENDBRANCH   3   4
ENDBRANCH   2   3
ENDBRANCH   1   2
BRANCH   1  17
ATOM     17  C   UNL     1       4.498  44.586  11.288  1.00  0.00     0.000 C 
BRANCH  17  18
ATOM     18  C   UNL     1       4.308  45.811  10.370  1.00  0.00     0.000 C 
BRANCH  18  19
ATOM     19  C   UNL     1       5.353  46.930  10.536  1.00  0.00     0.000 C 
BRANCH  19  20
ATOM     20  C   UNL     1       6.173  47.267   9.272  1.00  0.00     0.000 C 
BRANCH  20  21
ATOM     21  C   UNL     1       6.273  48.767   8.935  1.00  0.00     0.000 C 
BRANCH  21  22
ATOM     22  C   UNL     1       5.065  49.285   8.134  1.00  0.00    -0.000 C 
BRANCH  22  23
ATOM     23  C   UNL     1       4.234  48.153   7.515  1.00  0.00    -0.000 C 
BRANCH  23  24
ATOM     24  C   UNL     1       2.726  48.445   7.503  1.00  0.00    -0.000 C 
BRANCH  24  25
ATOM     25  C   UNL     1       1.952  47.312   8.195  1.00  0.00    -0.000 C 
BRANCH  25  26
ATOM     26  C   UNL     1       0.899  47.827   9.188  1.00  0.00    -0.000 C 
BRANCH  26  27
ATOM     27  C   UNL     1      -0.513  47.890   8.580  1.00  0.00    -0.000 C 
BRANCH  27  28
ATOM     28  C   UNL     1      -1.065  46.485   8.250  1.00  0.00    -0.000 C 
BRANCH  28  29
ATOM     29  C   UNL     1      -0.945  46.110   6.763  1.00  0.00    -0.003 C 
ATOM     30  C   UNL     1      -0.429  44.691   6.541  1.00  0.00     0.004 C 
ENDBRANCH  28  29
ENDBRANCH  27  28
ENDBRANCH  26  27
ENDBRANCH  25  26
ENDBRANCH  24  25
ENDBRANCH  23  24
ENDBRANCH  22  23
ENDBRANCH  21  22
ENDBRANCH  20  21
ENDBRANCH  19  20
ENDBRANCH  18  19
ENDBRANCH  17  18
ENDBRANCH   1  17
TORSDOF 26
ENDMDL
MODEL 5
REMARK VINA RESULT:    -3.325      1.459      2.852
REMARK INTER + INTRA:         -11.444
REMARK INTER:                  -9.258
REMARK INTRA:                  -2.186
REMARK UNBOUND:                -3.066
REMARK SMILES CCCCCCCCCCCCCCCCCCCCCCCCCCCC(=O)[O-]
REMARK SMILES IDX 15 1 16 2 17 3 18 4 19 5 20 6 21 7 22 8 23 9 24 10 25 11
REMARK SMILES IDX 26 12 27 13 28 14 29 15 30 16 14 17 13 18 12 19 11 20 10 21
REMARK SMILES IDX 9 22 8 23 7 24 6 25 5 26 4 27 3 28 2 29 1 30
REMARK H PARENT
REMARK Flexibility Score: inf
ROOT
ATOM      1  C   UNL     1       1.417  44.496   8.399  1.00  0.00     0.000 C 
ENDROOT
BRANCH   1   2
ATOM      2  C   UNL     1       0.041  44.179   7.787  1.00  0.00     0.000 C 
BRANCH   2   3
ATOM      3  C   UNL     1      -0.255  45.022   6.537  1.00  0.00     0.000 C 
BRANCH   3   4
ATOM      4  C   UNL     1      -1.105  46.266   6.844  1.00  0.00     0.000 C 
BRANCH   4   5
ATOM      5  C   UNL     1      -1.034  46.697   8.320  1.00  0.00     0.000 C 
BRANCH   5   6
ATOM      6  C   UNL     1      -0.996  48.218   8.560  1.00  0.00     0.000 C 
BRANCH   6   7
ATOM      7  C   UNL     1       0.356  48.853   8.188  1.00  0.00     0.000 C 
BRANCH   7   8
ATOM      8  C   UNL     1       1.557  47.987   8.608  1.00  0.00     0.000 C 
BRANCH   8   9
ATOM      9  C   UNL     1       2.786  48.079   7.682  1.00  0.00     0.000 C 
BRANCH   9  10
ATOM     10  C   UNL     1       3.976  47.182   8.080  1.00  0.00     0.000 C 
BRANCH  10  11
ATOM     11  C   UNL     1       4.819  47.705   9.256  1.00  0.00     0.000 C 
BRANCH  11  12
ATOM     12  C   UNL     1       6.257  47.154   9.249  1.00  0.00     0.006 C 
BRANCH  12  13
ATOM     13  C   UNL     1       7.304  48.267   9.384  1.00  0.00     0.053 C 
BRANCH  13  14
ATOM     14  C   UNL     1       6.671  49.625   9.425  1.00  0.00     0.041 C 
ATOM     15  O   UNL     1       6.104  50.093   8.403  1.00  0.00    -0.550 OA
ATOM     16  O   UNL     1       6.735  50.385  10.587  1.00  0.00    -0.550 OA
ENDBRANCH  13  14
ENDBRANCH  12  13
ENDBRANCH  11  12
ENDBRANCH  10  11
ENDBRANCH   9  10
ENDBRANCH   8   9
ENDBRANCH   7   8
ENDBRANCH   6   7
ENDBRANCH   5   6
ENDBRANCH   4   5
ENDBRANCH   3   4
ENDBRANCH   2   3
ENDBRANCH   1   2
BRANCH   1  17
ATOM     17  C   UNL     1       2.233  43.235   8.751  1.00  0.00     0.000 C 
BRANCH  17  18
ATOM     18  C   UNL     1       3.658  43.525   9.265  1.00  0.00     0.000 C 
BRANCH  18  19
ATOM     19  C   UNL     1       3.788  44.732  10.211  1.00  0.00     0.000 C 
BRANCH  19  20
ATOM     20  C   UNL     1       4.688  44.515  11.447  1.00  0.00     0.000 C 
BRANCH  20  21
ATOM     21  C   UNL     1       4.128  43.542  12.503  1.00  0.00     0.000 C 
BRANCH  21  22
ATOM     22  C   UNL     1       2.591  43.481  12.509  1.00  0.00    -0.000 C 
BRANCH  22  23
ATOM     23  C   UNL     1       2.053  42.048  12.389  1.00  0.00    -0.000 C 
BRANCH  23  24
ATOM     24  C   UNL     1       3.019  41.097  11.666  1.00  0.00    -0.000 C 
BRANCH  24  25
ATOM     25  C   UNL     1       3.218  39.809  12.481  1.00  0.00    -0.000 C 
BRANCH  25  26
ATOM     26  C   UNL     1       1.982  39.431  13.312  1.00  0.00    -0.000 C 
BRANCH  26  27
ATOM     27  C   UNL     1       1.175  38.278  12.690  1.00  0.00    -0.000 C 
BRANCH  27  28
ATOM     28  C   UNL     1       2.089  37.221  12.031  1.00  0.00    -0.000 C 
BRANCH  28  29
ATOM     29  C   UNL     1       1.349  35.935  11.623  1.00  0.00    -0.003 C 
ATOM     30  C   UNL     1      -0.132  35.951  11.991  1.00  0.00     0.004 C 
ENDBRANCH  28  29
ENDBRANCH  27  28
ENDBRANCH  26  27
ENDBRANCH  25  26
ENDBRANCH  24  25
ENDBRANCH  23  24
ENDBRANCH  22  23
ENDBRANCH  21  22
ENDBRANCH  20  21
ENDBRANCH  19  20
ENDBRANCH  18  19
ENDBRANCH  17  18
ENDBRANCH   1  17
TORSDOF 26
ENDMDL
MODEL 6
REMARK VINA RESULT:    -3.308      1.406      2.642
REMARK INTER + INTRA:         -11.402
REMARK INTER:                  -8.840
REMARK INTRA:                  -2.562
REMARK UNBOUND:                -3.066
REMARK SMILES CCCCCCCCCCCCCCCCCCCCCCCCCCCC(=O)[O-]
REMARK SMILES IDX 15 1 16 2 17 3 18 4 19 5 20 6 21 7 22 8 23 9 24 10 25 11
REMARK SMILES IDX 26 12 27 13 28 14 29 15 30 16 14 17 13 18 12 19 11 20 10 21
REMARK SMILES IDX 9 22 8 23 7 24 6 25 5 26 4 27 3 28 2 29 1 30
REMARK H PARENT
REMARK Flexibility Score: inf
ROOT
ATOM      1  C   UNL     1       4.512  44.715  10.760  1.00  0.00     0.000 C 
ENDROOT
BRANCH   1   2
ATOM      2  C   UNL     1       3.918  44.589   9.346  1.00  0.00     0.000 C 
BRANCH   2   3
ATOM      3  C   UNL     1       3.479  43.153   9.019  1.00  0.00     0.000 C 
BRANCH   3   4
ATOM      4  C   UNL     1       1.950  42.998   8.951  1.00  0.00     0.000 C 
BRANCH   4   5
ATOM      5  C   UNL     1       1.213  44.341   8.794  1.00  0.00     0.000 C 
BRANCH   5   6
ATOM      6  C   UNL     1       0.409  44.501   7.491  1.00  0.00     0.000 C 
BRANCH   6   7
ATOM      7  C   UNL     1      -0.125  45.929   7.283  1.00  0.00     0.000 C 
BRANCH   7   8
ATOM      8  C   UNL     1       0.172  46.856   8.476  1.00  0.00     0.000 C 
BRANCH   8   9
ATOM      9  C   UNL     1       1.175  47.990   8.190  1.00  0.00     0.000 C 
BRANCH   9  10
ATOM     10  C   UNL     1       2.659  47.569   8.185  1.00  0.00     0.000 C 
BRANCH  10  11
ATOM     11  C   UNL     1       3.579  48.441   7.312  1.00  0.00     0.000 C 
BRANCH  11  12
ATOM     12  C   UNL     1       4.821  48.940   8.071  1.00  0.00     0.006 C 
BRANCH  12  13
ATOM     13  C   UNL     1       5.534  47.809   8.823  1.00  0.00     0.053 C 
BRANCH  13  14
ATOM     14  C   UNL     1       6.741  48.305   9.560  1.00  0.00     0.041 C 
ATOM     15  O   UNL     1       6.784  49.488   9.986  1.00  0.00    -0.550 OA
ATOM     16  O   UNL     1       7.833  47.464   9.749  1.00  0.00    -0.550 OA
ENDBRANCH  13  14
ENDBRANCH  12  13
ENDBRANCH  11  12
ENDBRANCH  10  11
ENDBRANCH   9  10
ENDBRANCH   8   9
ENDBRANCH   7   8
ENDBRANCH   6   7
ENDBRANCH   5   6
ENDBRANCH   4   5
ENDBRANCH   3   4
ENDBRANCH   2   3
ENDBRANCH   1   2
BRANCH   1  17
ATOM     17  C   UNL     1       4.157  43.529  11.680  1.00  0.00     0.000 C 
BRANCH  17  18
ATOM     18  C   UNL     1       2.844  43.709  12.470  1.00  0.00     0.000 C 
BRANCH  18  19
ATOM     19  C   UNL     1       1.804  42.589  12.290  1.00  0.00     0.000 C 
BRANCH  19  20
ATOM     20  C   UNL     1       0.346  42.975  12.623  1.00  0.00     0.000 C 
BRANCH  20  21
ATOM     21  C   UNL     1      -0.481  41.875  13.316  1.00  0.00     0.000 C 
BRANCH  21  22
ATOM     22  C   UNL     1      -0.002  41.572  14.746  1.00  0.00    -0.000 C 
BRANCH  22  23
ATOM     23  C   UNL     1       0.551  40.147  14.897  1.00  0.00    -0.000 C 
BRANCH  23  24
ATOM     24  C   UNL     1       0.818  39.456  13.552  1.00  0.00    -0.000 C 
BRANCH  24  25
ATOM     25  C   UNL     1       2.310  39.531  13.194  1.00  0.00    -0.000 C 
BRANCH  25  26
ATOM     26  C   UNL     1       2.854  38.216  12.615  1.00  0.00    -0.000 C 
BRANCH  26  27
ATOM     27  C   UNL     1       1.900  37.576  11.592  1.00  0.00    -0.000 C 
BRANCH  27  28
ATOM     28  C   UNL     1       1.826  36.041  11.749  1.00  0.00    -0.000 C 
BRANCH  28  29
ATOM     29  C   UNL     1       0.388  35.495  11.797  1.00  0.00    -0.003 C 
ATOM     30  C   UNL     1      -0.637  36.539  12.232  1.00  0.00     0.004 C 
ENDBRANCH  28  29
ENDBRANCH  27  28
ENDBRANCH  26  27
ENDBRANCH  25  26
ENDBRANCH  24  25
ENDBRANCH  23  24
ENDBRANCH  22  23
ENDBRANCH  21  22
ENDBRANCH  20  21
ENDBRANCH  19  20
ENDBRANCH  18  19
ENDBRANCH  17  18
ENDBRANCH   1  17
TORSDOF 26
ENDMDL
MODEL 7
REMARK VINA RESULT:    -3.202      2.423      5.206
REMARK INTER + INTRA:         -11.135
REMARK INTER:                  -8.387
REMARK INTRA:                  -2.748
REMARK UNBOUND:                -3.066
REMARK SMILES CCCCCCCCCCCCCCCCCCCCCCCCCCCC(=O)[O-]
REMARK SMILES IDX 15 1 16 2 17 3 18 4 19 5 20 6 21 7 22 8 23 9 24 10 25 11
REMARK SMILES IDX 26 12 27 13 28 14 29 15 30 16 14 17 13 18 12 19 11 20 10 21
REMARK SMILES IDX 9 22 8 23 7 24 6 25 5 26 4 27 3 28 2 29 1 30
REMARK H PARENT
REMARK Flexibility Score: inf
ROOT
ATOM      1  C   UNL     1       7.510  48.237   9.527  1.00  0.00     0.000 C 
ENDROOT
BRANCH   1   2
ATOM      2  C   UNL     1       6.610  49.470   9.727  1.00  0.00     0.000 C 
BRANCH   2   3
ATOM      3  C   UNL     1       6.386  50.252   8.424  1.00  0.00     0.000 C 
BRANCH   3   4
ATOM      4  C   UNL     1       4.919  50.232   7.961  1.00  0.00     0.000 C 
BRANCH   4   5
ATOM      5  C   UNL     1       4.414  48.818   7.619  1.00  0.00     0.000 C 
BRANCH   5   6
ATOM      6  C   UNL     1       2.914  48.719   7.284  1.00  0.00     0.000 C 
BRANCH   6   7
ATOM      7  C   UNL     1       2.210  47.558   8.007  1.00  0.00     0.000 C 
BRANCH   7   8
ATOM      8  C   UNL     1       0.678  47.609   7.866  1.00  0.00     0.000 C 
BRANCH   8   9
ATOM      9  C   UNL     1      -0.098  47.739   9.191  1.00  0.00     0.000 C 
BRANCH   9  10
ATOM     10  C   UNL     1      -1.048  46.568   9.513  1.00  0.00     0.000 C 
BRANCH  10  11
ATOM     11  C   UNL     1      -0.639  45.712  10.724  1.00  0.00     0.000 C 
BRANCH  11  12
ATOM     12  C   UNL     1       0.857  45.349  10.718  1.00  0.00     0.006 C 
BRANCH  12  13
ATOM     13  C   UNL     1       1.090  43.857  10.443  1.00  0.00     0.053 C 
BRANCH  13  14
ATOM     14  C   UNL     1       1.525  43.613   9.031  1.00  0.00     0.041 C 
ATOM     15  O   UNL     1       2.656  43.114   8.792  1.00  0.00    -0.550 OA
ATOM     16  O   UNL     1       0.691  43.966   7.976  1.00  0.00    -0.550 OA
ENDBRANCH  13  14
ENDBRANCH  12  13
ENDBRANCH  11  12
ENDBRANCH  10  11
ENDBRANCH   9  10
ENDBRANCH   8   9
ENDBRANCH   7   8
ENDBRANCH   6   7
ENDBRANCH   5   6
ENDBRANCH   4   5
ENDBRANCH   3   4
ENDBRANCH   2   3
ENDBRANCH   1   2
BRANCH   1  17
ATOM     17  C   UNL     1       6.718  46.923   9.372  1.00  0.00     0.000 C 
BRANCH  17  18
ATOM     18  C   UNL     1       5.277  46.982   9.918  1.00  0.00     0.000 C 
BRANCH  18  19
ATOM     19  C   UNL     1       4.587  45.620  10.117  1.00  0.00     0.000 C 
BRANCH  19  20
ATOM     20  C   UNL     1       4.145  45.304  11.562  1.00  0.00     0.000 C 
BRANCH  20  21
ATOM     21  C   UNL     1       4.764  44.033  12.174  1.00  0.00     0.000 C 
BRANCH  21  22
ATOM     22  C   UNL     1       4.543  42.780  11.309  1.00  0.00    -0.000 C 
BRANCH  22  23
ATOM     23  C   UNL     1       4.221  41.532  12.144  1.00  0.00    -0.000 C 
BRANCH  23  24
ATOM     24  C   UNL     1       2.880  40.883  11.770  1.00  0.00    -0.000 C 
BRANCH  24  25
ATOM     25  C   UNL     1       2.509  39.791  12.786  1.00  0.00    -0.000 C 
BRANCH  25  26
ATOM     26  C   UNL     1       1.352  40.201  13.710  1.00  0.00    -0.000 C 
BRANCH  26  27
ATOM     27  C   UNL     1       0.548  41.395  13.165  1.00  0.00    -0.000 C 
BRANCH  27  28
ATOM     28  C   UNL     1      -0.677  41.719  14.047  1.00  0.00    -0.000 C 
BRANCH  28  29
ATOM     29  C   UNL     1      -0.760  40.866  15.325  1.00  0.00    -0.003 C 
ATOM     30  C   UNL     1      -0.783  41.701  16.604  1.00  0.00     0.004 C 
ENDBRANCH  28  29
ENDBRANCH  27  28
ENDBRANCH  26  27
ENDBRANCH  25  26
ENDBRANCH  24  25
ENDBRANCH  23  24
ENDBRANCH  22  23
ENDBRANCH  21  22
ENDBRANCH  20  21
ENDBRANCH  19  20
ENDBRANCH  18  19
ENDBRANCH  17  18
ENDBRANCH   1  17
TORSDOF 26
ENDMDL
MODEL 8
REMARK VINA RESULT:    -3.184      1.201      2.047
REMARK INTER + INTRA:         -11.091
REMARK INTER:                  -8.616
REMARK INTRA:                  -2.475
REMARK UNBOUND:                -3.066
REMARK SMILES CCCCCCCCCCCCCCCCCCCCCCCCCCCC(=O)[O-]
REMARK SMILES IDX 15 1 16 2 17 3 18 4 19 5 20 6 21 7 22 8 23 9 24 10 25 11
REMARK SMILES IDX 26 12 27 13 28 14 29 15 30 16 14 17 13 18 12 19 11 20 10 21
REMARK SMILES IDX 9 22 8 23 7 24 6 25 5 26 4 27 3 28 2 29 1 30
REMARK H PARENT
REMARK Flexibility Score: inf
ROOT
ATOM      1  C   UNL     1       1.121  43.853   8.932  1.00  0.00     0.000 C 
ENDROOT
BRANCH   1   2
ATOM      2  C   UNL     1       0.885  44.367   7.500  1.00  0.00     0.000 C 
BRANCH   2   3
ATOM      3  C   UNL     1      -0.600  44.631   7.208  1.00  0.00     0.000 C 
BRANCH   3   4
ATOM      4  C   UNL     1      -0.980  46.115   7.343  1.00  0.00     0.000 C 
BRANCH   4   5
ATOM      5  C   UNL     1      -0.788  46.659   8.771  1.00  0.00     0.000 C 
BRANCH   5   6
ATOM      6  C   UNL     1       0.161  47.866   8.893  1.00  0.00     0.000 C 
BRANCH   6   7
ATOM      7  C   UNL     1       1.147  47.978   7.717  1.00  0.00     0.000 C 
BRANCH   7   8
ATOM      8  C   UNL     1       2.610  47.759   8.144  1.00  0.00     0.000 C 
BRANCH   8   9
ATOM      9  C   UNL     1       2.818  46.715   9.259  1.00  0.00     0.000 C 
BRANCH   9  10
ATOM     10  C   UNL     1       4.195  46.023   9.261  1.00  0.00     0.000 C 
BRANCH  10  11
ATOM     11  C   UNL     1       5.286  46.750  10.068  1.00  0.00     0.000 C 
BRANCH  11  12
ATOM     12  C   UNL     1       6.366  47.383   9.173  1.00  0.00     0.006 C 
BRANCH  12  13
ATOM     13  C   UNL     1       6.777  48.778   9.661  1.00  0.00     0.053 C 
BRANCH  13  14
ATOM     14  C   UNL     1       6.261  49.858   8.758  1.00  0.00     0.041 C 
ATOM     15  O   UNL     1       5.273  49.642   8.009  1.00  0.00    -0.550 OA
ATOM     16  O   UNL     1       6.893  51.096   8.725  1.00  0.00    -0.550 OA
ENDBRANCH  13  14
ENDBRANCH  12  13
ENDBRANCH  11  12
ENDBRANCH  10  11
ENDBRANCH   9  10
ENDBRANCH   8   9
ENDBRANCH   7   8
ENDBRANCH   6   7
ENDBRANCH   5   6
ENDBRANCH   4   5
ENDBRANCH   3   4
ENDBRANCH   2   3
ENDBRANCH   1   2
BRANCH   1  17
ATOM     17  C   UNL     1       2.324  42.895   9.046  1.00  0.00     0.000 C 
BRANCH  17  18
ATOM     18  C   UNL     1       2.617  42.412  10.481  1.00  0.00     0.000 C 
BRANCH  18  19
ATOM     19  C   UNL     1       2.524  43.492  11.575  1.00  0.00     0.000 C 
BRANCH  19  20
ATOM     20  C   UNL     1       1.253  43.442  12.451  1.00  0.00     0.000 C 
BRANCH  20  21
ATOM     21  C   UNL     1       0.768  42.028  12.824  1.00  0.00     0.000 C 
BRANCH  21  22
ATOM     22  C   UNL     1       0.614  41.825  14.341  1.00  0.00    -0.000 C 
BRANCH  22  23
ATOM     23  C   UNL     1      -0.053  40.488  14.697  1.00  0.00    -0.000 C 
BRANCH  23  24
ATOM     24  C   UNL     1      -0.590  39.735  13.472  1.00  0.00    -0.000 C 
BRANCH  24  25
ATOM     25  C   UNL     1       0.307  38.531  13.143  1.00  0.00    -0.000 C 
BRANCH  25  26
ATOM     26  C   UNL     1       1.799  38.895  13.091  1.00  0.00    -0.000 C 
BRANCH  26  27
ATOM     27  C   UNL     1       2.603  37.977  12.153  1.00  0.00    -0.000 C 
BRANCH  27  28
ATOM     28  C   UNL     1       4.118  38.273  12.211  1.00  0.00    -0.000 C 
BRANCH  28  29
ATOM     29  C   UNL     1       4.485  39.422  13.167  1.00  0.00    -0.003 C 
ATOM     30  C   UNL     1       4.858  40.712  12.440  1.00  0.00     0.004 C 
ENDBRANCH  28  29
ENDBRANCH  27  28
ENDBRANCH  26  27
ENDBRANCH  25  26
ENDBRANCH  24  25
ENDBRANCH  23  24
ENDBRANCH  22  23
ENDBRANCH  21  22
ENDBRANCH  20  21
ENDBRANCH  19  20
ENDBRANCH  18  19
ENDBRANCH  17  18
ENDBRANCH   1  17
TORSDOF 26
ENDMDL
MODEL 9
REMARK VINA RESULT:    -3.177      2.507      7.598
REMARK INTER + INTRA:         -11.073
REMARK INTER:                  -7.676
REMARK INTRA:                  -3.397
REMARK UNBOUND:                -3.066
REMARK SMILES CCCCCCCCCCCCCCCCCCCCCCCCCCCC(=O)[O-]
REMARK SMILES IDX 15 1 16 2 17 3 18 4 19 5 20 6 21 7 22 8 23 9 24 10 25 11
REMARK SMILES IDX 26 12 27 13 28 14 29 15 30 16 14 17 13 18 12 19 11 20 10 21
REMARK SMILES IDX 9 22 8 23 7 24 6 25 5 26 4 27 3 28 2 29 1 30
REMARK H PARENT
REMARK Flexibility Score: inf
ROOT
ATOM      1  C   UNL     1       5.507  47.006  10.257  1.00  0.00     0.000 C 
ENDROOT
BRANCH   1   2
ATOM      2  C   UNL     1       4.603  45.817   9.886  1.00  0.00     0.000 C 
BRANCH   2   3
ATOM      3  C   UNL     1       3.569  45.501  10.977  1.00  0.00     0.000 C 
BRANCH   3   4
ATOM      4  C   UNL     1       3.980  44.313  11.863  1.00  0.00     0.000 C 
BRANCH   4   5
ATOM      5  C   UNL     1       2.780  43.481  12.351  1.00  0.00     0.000 C 
BRANCH   5   6
ATOM      6  C   UNL     1       1.400  43.979  11.883  1.00  0.00     0.000 C 
BRANCH   6   7
ATOM      7  C   UNL     1       0.256  43.018  12.249  1.00  0.00     0.000 C 
BRANCH   7   8
ATOM      8  C   UNL     1       0.463  42.336  13.614  1.00  0.00     0.000 C 
BRANCH   8   9
ATOM      9  C   UNL     1      -0.424  41.103  13.872  1.00  0.00     0.000 C 
BRANCH   9  10
ATOM     10  C   UNL     1       0.257  39.742  13.628  1.00  0.00     0.000 C 
BRANCH  10  11
ATOM     11  C   UNL     1       1.728  39.822  13.182  1.00  0.00     0.000 C 
BRANCH  11  12
ATOM     12  C   UNL     1       2.326  38.442  12.853  1.00  0.00     0.006 C 
BRANCH  12  13
ATOM     13  C   UNL     1       3.678  38.553  12.135  1.00  0.00     0.053 C 
BRANCH  13  14
ATOM     14  C   UNL     1       4.587  39.535  12.810  1.00  0.00     0.041 C 
ATOM     15  O   UNL     1       4.796  40.664  12.295  1.00  0.00    -0.550 OA
ATOM     16  O   UNL     1       5.227  39.189  13.994  1.00  0.00    -0.550 OA
ENDBRANCH  13  14
ENDBRANCH  12  13
ENDBRANCH  11  12
ENDBRANCH  10  11
ENDBRANCH   9  10
ENDBRANCH   8   9
ENDBRANCH   7   8
ENDBRANCH   6   7
ENDBRANCH   5   6
ENDBRANCH   4   5
ENDBRANCH   3   4
ENDBRANCH   2   3
ENDBRANCH   1   2
BRANCH   1  17
ATOM     17  C   UNL     1       6.516  47.375   9.151  1.00  0.00     0.000 C 
BRANCH  17  18
ATOM     18  C   UNL     1       6.312  48.781   8.549  1.00  0.00     0.000 C 
BRANCH  18  19
ATOM     19  C   UNL     1       4.850  49.179   8.277  1.00  0.00     0.000 C 
BRANCH  19  20
ATOM     20  C   UNL     1       4.110  48.318   7.230  1.00  0.00     0.000 C 
BRANCH  20  21
ATOM     21  C   UNL     1       2.738  47.778   7.676  1.00  0.00     0.000 C 
BRANCH  21  22
ATOM     22  C   UNL     1       1.730  48.893   8.006  1.00  0.00    -0.000 C 
BRANCH  22  23
ATOM     23  C   UNL     1       0.334  48.350   8.345  1.00  0.00    -0.000 C 
BRANCH  23  24
ATOM     24  C   UNL     1       0.338  47.362   9.521  1.00  0.00    -0.000 C 
BRANCH  24  25
ATOM     25  C   UNL     1      -0.655  46.217   9.265  1.00  0.00    -0.000 C 
BRANCH  25  26
ATOM     26  C   UNL     1      -0.727  45.807   7.786  1.00  0.00    -0.000 C 
BRANCH  26  27
ATOM     27  C   UNL     1       0.382  44.817   7.388  1.00  0.00    -0.000 C 
BRANCH  27  28
ATOM     28  C   UNL     1       0.915  44.025   8.602  1.00  0.00    -0.000 C 
BRANCH  28  29
ATOM     29  C   UNL     1       2.323  43.443   8.388  1.00  0.00    -0.003 C 
ATOM     30  C   UNL     1       2.595  42.200   9.232  1.00  0.00     0.004 C 
ENDBRANCH  28  29
ENDBRANCH  27  28
ENDBRANCH  26  27
ENDBRANCH  25  26
ENDBRANCH  24  25
ENDBRANCH  23  24
ENDBRANCH  22  23
ENDBRANCH  21  22
ENDBRANCH  20  21
ENDBRANCH  19  20
ENDBRANCH  18  19
ENDBRANCH  17  18
ENDBRANCH   1  17
TORSDOF 26
ENDMDL
