MODEL 1
REMARK VINA RESULT:    -6.215      0.000      0.000
REMARK INTER + INTRA:          -9.206
REMARK INTER:                  -8.395
REMARK INTRA:                  -0.811
REMARK UNBOUND:                -0.811
REMARK SMILES O=c1c(-c2ccc(O)cc2)coc2c([C@@H]3O[C@@H](CO)[C@@H](O)[C@H](O)[C@H]3O)c(O)ccc12
REMARK SMILES IDX 3 1 11 2 12 3 13 4 30 5 2 6 1 7 29 8 28 9 26 10 14 11 4 12
REMARK SMILES IDX 5 13 6 14 7 15 10 16 9 17 8 18 15 20 24 21 16 22 22 23 17 24
REMARK SMILES IDX 20 25 25 26 23 28 18 30 19 31 21 33 27 35
REMARK H PARENT 8 19 25 27 23 29 19 32 21 34 27 36
REMARK Flexibility Score: inf
ROOT
ATOM      1  C   UNL     1      -5.950  25.447  33.825  1.00  0.00     0.065 A 
ATOM      2  C   UNL     1      -4.761  24.860  33.367  1.00  0.00     0.208 A 
ATOM      3  O   UNL     1      -3.619  25.541  33.341  1.00  0.00    -0.463 OA
ATOM      4  C   UNL     1      -3.502  26.800  33.748  1.00  0.00     0.147 A 
ATOM      5  C   UNL     1      -4.653  27.479  34.211  1.00  0.00     0.066 A 
ATOM      6  C   UNL     1      -5.874  26.776  34.283  1.00  0.00     0.200 A 
ATOM      7  O   UNL     1      -6.884  27.345  34.781  1.00  0.00    -0.288 OA
ATOM      8  C   UNL     1      -4.574  28.822  34.600  1.00  0.00     0.020 A 
ATOM      9  C   UNL     1      -3.374  29.510  34.479  1.00  0.00     0.047 A 
ATOM     10  C   UNL     1      -2.226  28.859  34.023  1.00  0.00     0.125 A 
ATOM     11  C   UNL     1      -2.247  27.473  33.724  1.00  0.00     0.069 A 
ENDROOT
BRANCH   1  12
ATOM     12  C   UNL     1      -7.206  24.628  33.820  1.00  0.00    -0.011 A 
ATOM     13  C   UNL     1      -7.800  24.183  35.023  1.00  0.00     0.013 A 
ATOM     14  C   UNL     1      -8.634  23.069  35.009  1.00  0.00     0.047 A 
ATOM     15  C   UNL     1      -9.042  22.497  33.794  1.00  0.00     0.115 A 
ATOM     16  C   UNL     1      -7.709  24.122  32.599  1.00  0.00     0.013 A 
ATOM     17  C   UNL     1      -8.608  23.047  32.587  1.00  0.00     0.047 A 
BRANCH  15  18
ATOM     18  O   UNL     1      -9.895  21.397  33.782  1.00  0.00    -0.508 OA
ATOM     19  H   UNL     1      -9.884  20.725  33.022  1.00  0.00     0.293 HD
ENDBRANCH  15  18
ENDBRANCH   1  12
BRANCH  11  20
ATOM     20  C   UNL     1      -0.885  26.799  33.476  1.00  0.00     0.188 C 
ATOM     21  C   UNL     1      -0.807  25.244  33.278  1.00  0.00     0.179 C 
ATOM     22  O   UNL     1      -0.119  27.546  32.545  1.00  0.00    -0.362 OA
ATOM     23  C   UNL     1      -0.944  24.792  31.804  1.00  0.00     0.177 C 
ATOM     24  C   UNL     1      -0.187  27.137  31.184  1.00  0.00     0.176 C 
ATOM     25  C   UNL     1      -1.205  25.995  30.881  1.00  0.00     0.177 C 
BRANCH  21  26
ATOM     26  O   UNL     1       0.423  24.766  33.773  1.00  0.00    -0.387 OA
ATOM     27  H   UNL     1       0.251  24.379  34.675  1.00  0.00     0.211 HD
ENDBRANCH  21  26
BRANCH  23  28
ATOM     28  O   UNL     1      -1.983  23.848  31.703  1.00  0.00    -0.387 OA
ATOM     29  H   UNL     1      -1.565  22.974  31.484  1.00  0.00     0.211 HD
ENDBRANCH  23  28
BRANCH  24  30
ATOM     30  C   UNL     1       1.254  26.817  30.730  1.00  0.00     0.191 C 
BRANCH  30  31
ATOM     31  O   UNL     1       2.100  26.580  31.822  1.00  0.00    -0.394 OA
ATOM     32  H   UNL     1       2.492  25.673  31.709  1.00  0.00     0.210 HD
ENDBRANCH  30  31
ENDBRANCH  24  30
BRANCH  25  33
ATOM     33  O   UNL     1      -1.110  25.613  29.533  1.00  0.00    -0.388 OA
ATOM     34  H   UNL     1      -0.155  25.410  29.353  1.00  0.00     0.211 HD
ENDBRANCH  25  33
ENDBRANCH  11  20
BRANCH  10  35
ATOM     35  O   UNL     1      -1.064  29.594  33.812  1.00  0.00    -0.507 OA
ATOM     36  H   UNL     1      -0.166  29.124  33.861  1.00  0.00     0.293 HD
ENDBRANCH  10  35
TORSDOF 9
ENDMDL
MODEL 2
REMARK VINA RESULT:    -5.936      6.958     10.310
REMARK INTER + INTRA:          -8.830
REMARK INTER:                  -8.339
REMARK INTRA:                  -0.491
REMARK UNBOUND:                -0.811
REMARK SMILES O=c1c(-c2ccc(O)cc2)coc2c([C@@H]3O[C@@H](CO)[C@@H](O)[C@H](O)[C@H]3O)c(O)ccc12
REMARK SMILES IDX 3 1 11 2 12 3 13 4 30 5 2 6 1 7 29 8 28 9 26 10 14 11 4 12
REMARK SMILES IDX 5 13 6 14 7 15 10 16 9 17 8 18 15 20 24 21 16 22 22 23 17 24
REMARK SMILES IDX 20 25 25 26 23 28 18 30 19 31 21 33 27 35
REMARK H PARENT 8 19 25 27 23 29 19 32 21 34 27 36
REMARK Flexibility Score: inf
ROOT
ATOM      1  C   UNL     1      -0.288  31.817  34.719  1.00  0.00     0.065 A 
ATOM      2  C   UNL     1      -0.320  32.269  36.047  1.00  0.00     0.208 A 
ATOM      3  O   UNL     1       0.317  33.376  36.416  1.00  0.00    -0.463 OA
ATOM      4  C   UNL     1       1.010  34.140  35.580  1.00  0.00     0.147 A 
ATOM      5  C   UNL     1       1.112  33.753  34.224  1.00  0.00     0.066 A 
ATOM      6  C   UNL     1       0.421  32.602  33.791  1.00  0.00     0.200 A 
ATOM      7  O   UNL     1       0.431  32.302  32.566  1.00  0.00    -0.288 OA
ATOM      8  C   UNL     1       1.878  34.510  33.327  1.00  0.00     0.020 A 
ATOM      9  C   UNL     1       2.588  35.614  33.781  1.00  0.00     0.047 A 
ATOM     10  C   UNL     1       2.502  36.012  35.117  1.00  0.00     0.125 A 
ATOM     11  C   UNL     1       1.652  35.333  36.025  1.00  0.00     0.069 A 
ENDROOT
BRANCH   1  12
ATOM     12  C   UNL     1      -1.020  30.556  34.370  1.00  0.00    -0.011 A 
ATOM     13  C   UNL     1      -2.430  30.480  34.434  1.00  0.00     0.013 A 
ATOM     14  C   UNL     1      -3.048  29.242  34.586  1.00  0.00     0.047 A 
ATOM     15  C   UNL     1      -2.305  28.056  34.488  1.00  0.00     0.115 A 
ATOM     16  C   UNL     1      -0.296  29.360  34.158  1.00  0.00     0.013 A 
ATOM     17  C   UNL     1      -0.933  28.115  34.238  1.00  0.00     0.047 A 
BRANCH  15  18
ATOM     18  O   UNL     1      -2.928  26.818  34.618  1.00  0.00    -0.508 OA
ATOM     19  H   UNL     1      -2.469  26.037  35.074  1.00  0.00     0.293 HD
ENDBRANCH  15  18
ENDBRANCH   1  12
BRANCH  11  20
ATOM     20  C   UNL     1       1.433  35.996  37.397  1.00  0.00     0.188 C 
ATOM     21  C   UNL     1       0.720  35.201  38.546  1.00  0.00     0.179 C 
ATOM     22  O   UNL     1       2.598  36.696  37.806  1.00  0.00    -0.362 OA
ATOM     23  C   UNL     1       1.688  34.393  39.444  1.00  0.00     0.177 C 
ATOM     24  C   UNL     1       3.494  36.000  38.664  1.00  0.00     0.176 C 
ATOM     25  C   UNL     1       3.135  34.508  38.935  1.00  0.00     0.177 C 
BRANCH  21  26
ATOM     26  O   UNL     1       0.002  36.095  39.365  1.00  0.00    -0.387 OA
ATOM     27  H   UNL     1      -0.956  35.822  39.336  1.00  0.00     0.211 HD
ENDBRANCH  21  26
BRANCH  23  28
ATOM     28  O   UNL     1       1.275  33.048  39.479  1.00  0.00    -0.387 OA
ATOM     29  H   UNL     1       1.843  32.549  38.834  1.00  0.00     0.211 HD
ENDBRANCH  23  28
BRANCH  24  30
ATOM     30  C   UNL     1       3.642  36.844  39.949  1.00  0.00     0.191 C 
BRANCH  30  31
ATOM     31  O   UNL     1       2.527  37.664  40.162  1.00  0.00    -0.394 OA
ATOM     32  H   UNL     1       2.291  38.086  39.293  1.00  0.00     0.210 HD
ENDBRANCH  30  31
ENDBRANCH  24  30
BRANCH  25  33
ATOM     33  O   UNL     1       4.031  33.961  39.868  1.00  0.00    -0.388 OA
ATOM     34  H   UNL     1       4.121  34.617  40.608  1.00  0.00     0.211 HD
ENDBRANCH  25  33
ENDBRANCH  11  20
BRANCH  10  35
ATOM     35  O   UNL     1       3.303  37.056  35.569  1.00  0.00    -0.507 OA
ATOM     36  H   UNL     1       4.308  37.000  35.439  1.00  0.00     0.293 HD
ENDBRANCH  10  35
TORSDOF 9
ENDMDL
MODEL 3
REMARK VINA RESULT:    -5.928      2.588      8.262
REMARK INTER + INTRA:          -8.819
REMARK INTER:                  -8.874
REMARK INTRA:                   0.055
REMARK UNBOUND:                -0.811
REMARK SMILES O=c1c(-c2ccc(O)cc2)coc2c([C@@H]3O[C@@H](CO)[C@@H](O)[C@H](O)[C@H]3O)c(O)ccc12
REMARK SMILES IDX 3 1 11 2 12 3 13 4 30 5 2 6 1 7 29 8 28 9 26 10 14 11 4 12
REMARK SMILES IDX 5 13 6 14 7 15 10 16 9 17 8 18 15 20 24 21 16 22 22 23 17 24
REMARK SMILES IDX 20 25 25 26 23 28 18 30 19 31 21 33 27 35
REMARK H PARENT 8 19 25 27 23 29 19 32 21 34 27 36
REMARK Flexibility Score: inf
ROOT
ATOM      1  C   UNL     1      -3.556  28.060  34.172  1.00  0.00     0.065 A 
ATOM      2  C   UNL     1      -4.513  28.090  35.197  1.00  0.00     0.208 A 
ATOM      3  O   UNL     1      -5.591  27.312  35.161  1.00  0.00    -0.463 OA
ATOM      4  C   UNL     1      -5.844  26.451  34.182  1.00  0.00     0.147 A 
ATOM      5  C   UNL     1      -4.943  26.364  33.096  1.00  0.00     0.066 A 
ATOM      6  C   UNL     1      -3.772  27.150  33.120  1.00  0.00     0.200 A 
ATOM      7  O   UNL     1      -2.918  27.011  32.202  1.00  0.00    -0.288 OA
ATOM      8  C   UNL     1      -5.207  25.502  32.024  1.00  0.00     0.020 A 
ATOM      9  C   UNL     1      -6.387  24.770  31.997  1.00  0.00     0.047 A 
ATOM     10  C   UNL     1      -7.291  24.842  33.058  1.00  0.00     0.125 A 
ATOM     11  C   UNL     1      -7.003  25.621  34.207  1.00  0.00     0.069 A 
ENDROOT
BRANCH   1  12
ATOM     12  C   UNL     1      -2.368  28.969  34.269  1.00  0.00    -0.011 A 
ATOM     13  C   UNL     1      -1.063  28.459  34.461  1.00  0.00     0.013 A 
ATOM     14  C   UNL     1      -0.081  29.270  35.020  1.00  0.00     0.047 A 
ATOM     15  C   UNL     1      -0.313  30.639  35.220  1.00  0.00     0.115 A 
ATOM     16  C   UNL     1      -2.559  30.366  34.365  1.00  0.00     0.013 A 
ATOM     17  C   UNL     1      -1.542  31.195  34.859  1.00  0.00     0.047 A 
BRANCH  15  18
ATOM     18  O   UNL     1       0.679  31.454  35.757  1.00  0.00    -0.508 OA
ATOM     19  H   UNL     1       1.659  31.314  35.537  1.00  0.00     0.293 HD
ENDBRANCH  15  18
ENDBRANCH   1  12
BRANCH  11  20
ATOM     20  C   UNL     1      -7.933  25.437  35.420  1.00  0.00     0.188 C 
ATOM     21  C   UNL     1      -8.927  24.224  35.467  1.00  0.00     0.179 C 
ATOM     22  O   UNL     1      -7.229  25.663  36.630  1.00  0.00    -0.362 OA
ATOM     23  C   UNL     1      -8.336  22.955  36.128  1.00  0.00     0.177 C 
ATOM     24  C   UNL     1      -6.703  24.517  37.289  1.00  0.00     0.176 C 
ATOM     25  C   UNL     1      -6.864  23.171  36.517  1.00  0.00     0.177 C 
BRANCH  21  26
ATOM     26  O   UNL     1     -10.088  24.591  36.176  1.00  0.00    -0.387 OA
ATOM     27  H   UNL     1     -10.544  25.306  35.654  1.00  0.00     0.211 HD
ENDBRANCH  21  26
BRANCH  23  28
ATOM     28  O   UNL     1      -8.465  21.868  35.242  1.00  0.00    -0.387 OA
ATOM     29  H   UNL     1      -7.972  21.103  35.642  1.00  0.00     0.211 HD
ENDBRANCH  23  28
BRANCH  24  30
ATOM     30  C   UNL     1      -7.308  24.490  38.710  1.00  0.00     0.191 C 
BRANCH  30  31
ATOM     31  O   UNL     1      -6.555  23.690  39.578  1.00  0.00    -0.394 OA
ATOM     32  H   UNL     1      -5.638  23.612  39.200  1.00  0.00     0.210 HD
ENDBRANCH  30  31
ENDBRANCH  24  30
BRANCH  25  33
ATOM     33  O   UNL     1      -6.400  22.107  37.306  1.00  0.00    -0.388 OA
ATOM     34  H   UNL     1      -6.295  22.452  38.232  1.00  0.00     0.211 HD
ENDBRANCH  25  33
ENDBRANCH  11  20
BRANCH  10  35
ATOM     35  O   UNL     1      -8.511  24.181  32.960  1.00  0.00    -0.507 OA
ATOM     36  H   UNL     1      -9.278  24.467  33.561  1.00  0.00     0.293 HD
ENDBRANCH  10  35
TORSDOF 9
ENDMDL
MODEL 4
REMARK VINA RESULT:    -5.853      2.841      5.711
REMARK INTER + INTRA:          -8.717
REMARK INTER:                  -7.921
REMARK INTRA:                  -0.795
REMARK UNBOUND:                -0.811
REMARK SMILES O=c1c(-c2ccc(O)cc2)coc2c([C@@H]3O[C@@H](CO)[C@@H](O)[C@H](O)[C@H]3O)c(O)ccc12
REMARK SMILES IDX 3 1 11 2 12 3 13 4 30 5 2 6 1 7 29 8 28 9 26 10 14 11 4 12
REMARK SMILES IDX 5 13 6 14 7 15 10 16 9 17 8 18 15 20 24 21 16 22 22 23 17 24
REMARK SMILES IDX 20 25 25 26 23 28 18 30 19 31 21 33 27 35
REMARK H PARENT 8 19 25 27 23 29 19 32 21 34 27 36
REMARK Flexibility Score: inf
ROOT
ATOM      1  C   UNL     1      -3.166  24.985  31.773  1.00  0.00     0.065 A 
ATOM      2  C   UNL     1      -1.957  25.226  32.442  1.00  0.00     0.208 A 
ATOM      3  O   UNL     1      -0.820  24.667  32.038  1.00  0.00    -0.463 OA
ATOM      4  C   UNL     1      -0.728  23.862  30.986  1.00  0.00     0.147 A 
ATOM      5  C   UNL     1      -1.901  23.548  30.260  1.00  0.00     0.066 A 
ATOM      6  C   UNL     1      -3.118  24.150  30.641  1.00  0.00     0.200 A 
ATOM      7  O   UNL     1      -4.150  23.949  29.944  1.00  0.00    -0.288 OA
ATOM      8  C   UNL     1      -1.847  22.662  29.177  1.00  0.00     0.020 A 
ATOM      9  C   UNL     1      -0.648  22.043  28.845  1.00  0.00     0.047 A 
ATOM     10  C   UNL     1       0.521  22.338  29.549  1.00  0.00     0.125 A 
ATOM     11  C   UNL     1       0.522  23.310  30.581  1.00  0.00     0.069 A 
ENDROOT
BRANCH   1  12
ATOM     12  C   UNL     1      -4.414  25.640  32.285  1.00  0.00    -0.011 A 
ATOM     13  C   UNL     1      -4.627  27.030  32.146  1.00  0.00     0.013 A 
ATOM     14  C   UNL     1      -5.500  27.684  33.011  1.00  0.00     0.047 A 
ATOM     15  C   UNL     1      -6.312  26.955  33.892  1.00  0.00     0.115 A 
ATOM     16  C   UNL     1      -5.313  24.904  33.090  1.00  0.00     0.013 A 
ATOM     17  C   UNL     1      -6.244  25.560  33.906  1.00  0.00     0.047 A 
BRANCH  15  18
ATOM     18  O   UNL     1      -7.202  27.608  34.740  1.00  0.00    -0.508 OA
ATOM     19  H   UNL     1      -6.905  27.983  35.635  1.00  0.00     0.293 HD
ENDBRANCH  15  18
ENDBRANCH   1  12
BRANCH  11  20
ATOM     20  C   UNL     1       1.897  23.745  31.120  1.00  0.00     0.188 C 
ATOM     21  C   UNL     1       2.012  25.011  32.040  1.00  0.00     0.179 C 
ATOM     22  O   UNL     1       2.633  22.621  31.577  1.00  0.00    -0.362 OA
ATOM     23  C   UNL     1       1.869  24.704  33.550  1.00  0.00     0.177 C 
ATOM     24  C   UNL     1       2.559  22.330  32.968  1.00  0.00     0.176 C 
ATOM     25  C   UNL     1       1.567  23.214  33.783  1.00  0.00     0.177 C 
BRANCH  21  26
ATOM     26  O   UNL     1       3.260  25.634  31.832  1.00  0.00    -0.387 OA
ATOM     27  H   UNL     1       3.368  26.328  32.539  1.00  0.00     0.211 HD
ENDBRANCH  21  26
BRANCH  23  28
ATOM     28  O   UNL     1       0.852  25.513  34.093  1.00  0.00    -0.387 OA
ATOM     29  H   UNL     1       0.013  25.295  33.607  1.00  0.00     0.211 HD
ENDBRANCH  23  28
BRANCH  24  30
ATOM     30  C   UNL     1       4.002  22.353  33.517  1.00  0.00     0.191 C 
BRANCH  30  31
ATOM     31  O   UNL     1       4.101  21.678  34.740  1.00  0.00    -0.394 OA
ATOM     32  H   UNL     1       5.064  21.496  34.909  1.00  0.00     0.210 HD
ENDBRANCH  30  31
ENDBRANCH  24  30
BRANCH  25  33
ATOM     33  O   UNL     1       1.654  22.900  35.148  1.00  0.00    -0.388 OA
ATOM     34  H   UNL     1       0.733  22.701  35.463  1.00  0.00     0.211 HD
ENDBRANCH  25  33
ENDBRANCH  11  20
BRANCH  10  35
ATOM     35  O   UNL     1       1.683  21.628  29.267  1.00  0.00    -0.507 OA
ATOM     36  H   UNL     1       1.822  21.258  28.332  1.00  0.00     0.293 HD
ENDBRANCH  10  35
TORSDOF 9
ENDMDL
MODEL 5
REMARK VINA RESULT:    -5.800      4.030      6.873
REMARK INTER + INTRA:          -8.646
REMARK INTER:                  -8.074
REMARK INTRA:                  -0.572
REMARK UNBOUND:                -0.811
REMARK SMILES O=c1c(-c2ccc(O)cc2)coc2c([C@@H]3O[C@@H](CO)[C@@H](O)[C@H](O)[C@H]3O)c(O)ccc12
REMARK SMILES IDX 3 1 11 2 12 3 13 4 30 5 2 6 1 7 29 8 28 9 26 10 14 11 4 12
REMARK SMILES IDX 5 13 6 14 7 15 10 16 9 17 8 18 15 20 24 21 16 22 22 23 17 24
REMARK SMILES IDX 20 25 25 26 23 28 18 30 19 31 21 33 27 35
REMARK H PARENT 8 19 25 27 23 29 19 32 21 34 27 36
REMARK Flexibility Score: inf
ROOT
ATOM      1  C   UNL     1      -2.571  29.076  34.468  1.00  0.00     0.065 A 
ATOM      2  C   UNL     1      -2.172  30.391  34.746  1.00  0.00     0.208 A 
ATOM      3  O   UNL     1      -0.906  30.774  34.605  1.00  0.00    -0.463 OA
ATOM      4  C   UNL     1       0.064  29.970  34.186  1.00  0.00     0.147 A 
ATOM      5  C   UNL     1      -0.242  28.620  33.898  1.00  0.00     0.066 A 
ATOM      6  C   UNL     1      -1.581  28.189  34.005  1.00  0.00     0.200 A 
ATOM      7  O   UNL     1      -1.879  27.012  33.661  1.00  0.00    -0.288 OA
ATOM      8  C   UNL     1       0.768  27.733  33.502  1.00  0.00     0.020 A 
ATOM      9  C   UNL     1       2.087  28.164  33.447  1.00  0.00     0.047 A 
ATOM     10  C   UNL     1       2.411  29.493  33.728  1.00  0.00     0.125 A 
ATOM     11  C   UNL     1       1.400  30.441  34.026  1.00  0.00     0.069 A 
ENDROOT
BRANCH   1  12
ATOM     12  C   UNL     1      -4.012  28.705  34.657  1.00  0.00    -0.011 A 
ATOM     13  C   UNL     1      -4.624  28.753  35.930  1.00  0.00     0.013 A 
ATOM     14  C   UNL     1      -5.752  27.978  36.183  1.00  0.00     0.047 A 
ATOM     15  C   UNL     1      -6.398  27.297  35.141  1.00  0.00     0.115 A 
ATOM     16  C   UNL     1      -4.729  28.112  33.593  1.00  0.00     0.013 A 
ATOM     17  C   UNL     1      -5.907  27.393  33.838  1.00  0.00     0.047 A 
BRANCH  15  18
ATOM     18  O   UNL     1      -7.540  26.541  35.391  1.00  0.00    -0.508 OA
ATOM     19  H   UNL     1      -8.430  26.977  35.608  1.00  0.00     0.293 HD
ENDBRANCH  15  18
ENDBRANCH   1  12
BRANCH  11  20
ATOM     20  C   UNL     1       1.829  31.919  34.071  1.00  0.00     0.188 C 
ATOM     21  C   UNL     1       0.765  33.033  34.370  1.00  0.00     0.179 C 
ATOM     22  O   UNL     1       3.046  32.065  34.786  1.00  0.00    -0.362 OA
ATOM     23  C   UNL     1       0.606  33.361  35.874  1.00  0.00     0.177 C 
ATOM     24  C   UNL     1       2.942  32.405  36.163  1.00  0.00     0.176 C 
ATOM     25  C   UNL     1       1.492  32.443  36.734  1.00  0.00     0.177 C 
BRANCH  21  26
ATOM     26  O   UNL     1       1.120  34.218  33.695  1.00  0.00    -0.387 OA
ATOM     27  H   UNL     1       2.115  34.261  33.669  1.00  0.00     0.211 HD
ENDBRANCH  21  26
BRANCH  23  28
ATOM     28  O   UNL     1      -0.748  33.233  36.236  1.00  0.00    -0.387 OA
ATOM     29  H   UNL     1      -0.820  32.439  36.830  1.00  0.00     0.211 HD
ENDBRANCH  23  28
BRANCH  24  30
ATOM     30  C   UNL     1       3.722  33.723  36.368  1.00  0.00     0.191 C 
BRANCH  30  31
ATOM     31  O   UNL     1       4.122  33.886  37.700  1.00  0.00    -0.394 OA
ATOM     32  H   UNL     1       4.985  34.380  37.699  1.00  0.00     0.210 HD
ENDBRANCH  30  31
ENDBRANCH  24  30
BRANCH  25  33
ATOM     33  O   UNL     1       1.512  32.884  38.067  1.00  0.00    -0.388 OA
ATOM     34  H   UNL     1       1.538  32.075  38.643  1.00  0.00     0.211 HD
ENDBRANCH  25  33
ENDBRANCH  11  20
BRANCH  10  35
ATOM     35  O   UNL     1       3.749  29.874  33.768  1.00  0.00    -0.507 OA
ATOM     36  H   UNL     1       4.268  29.767  34.634  1.00  0.00     0.293 HD
ENDBRANCH  10  35
TORSDOF 9
ENDMDL
MODEL 6
REMARK VINA RESULT:    -5.718      2.240      4.254
REMARK INTER + INTRA:          -8.535
REMARK INTER:                  -7.902
REMARK INTRA:                  -0.633
REMARK UNBOUND:                -0.811
REMARK SMILES O=c1c(-c2ccc(O)cc2)coc2c([C@@H]3O[C@@H](CO)[C@@H](O)[C@H](O)[C@H]3O)c(O)ccc12
REMARK SMILES IDX 3 1 11 2 12 3 13 4 30 5 2 6 1 7 29 8 28 9 26 10 14 11 4 12
REMARK SMILES IDX 5 13 6 14 7 15 10 16 9 17 8 18 15 20 24 21 16 22 22 23 17 24
REMARK SMILES IDX 20 25 25 26 23 28 18 30 19 31 21 33 27 35
REMARK H PARENT 8 19 25 27 23 29 19 32 21 34 27 36
REMARK Flexibility Score: inf
ROOT
ATOM      1  C   UNL     1      -5.020  25.441  33.130  1.00  0.00     0.065 A 
ATOM      2  C   UNL     1      -3.712  25.892  33.358  1.00  0.00     0.208 A 
ATOM      3  O   UNL     1      -2.746  25.693  32.466  1.00  0.00    -0.463 OA
ATOM      4  C   UNL     1      -2.933  25.079  31.303  1.00  0.00     0.147 A 
ATOM      5  C   UNL     1      -4.217  24.575  30.994  1.00  0.00     0.066 A 
ATOM      6  C   UNL     1      -5.272  24.798  31.904  1.00  0.00     0.200 A 
ATOM      7  O   UNL     1      -6.439  24.433  31.594  1.00  0.00    -0.288 OA
ATOM      8  C   UNL     1      -4.435  23.878  29.799  1.00  0.00     0.020 A 
ATOM      9  C   UNL     1      -3.375  23.629  28.937  1.00  0.00     0.047 A 
ATOM     10  C   UNL     1      -2.099  24.116  29.224  1.00  0.00     0.125 A 
ATOM     11  C   UNL     1      -1.867  24.917  30.370  1.00  0.00     0.069 A 
ENDROOT
BRANCH   1  12
ATOM     12  C   UNL     1      -6.061  25.689  34.180  1.00  0.00    -0.011 A 
ATOM     13  C   UNL     1      -6.218  26.961  34.777  1.00  0.00     0.013 A 
ATOM     14  C   UNL     1      -6.808  27.066  36.033  1.00  0.00     0.047 A 
ATOM     15  C   UNL     1      -7.417  25.952  36.631  1.00  0.00     0.115 A 
ATOM     16  C   UNL     1      -6.773  24.600  34.733  1.00  0.00     0.013 A 
ATOM     17  C   UNL     1      -7.431  24.726  35.964  1.00  0.00     0.047 A 
BRANCH  15  18
ATOM     18  O   UNL     1      -8.027  26.064  37.877  1.00  0.00    -0.508 OA
ATOM     19  H   UNL     1      -8.182  26.967  38.314  1.00  0.00     0.293 HD
ENDBRANCH  15  18
ENDBRANCH   1  12
BRANCH  11  20
ATOM     20  C   UNL     1      -0.496  25.612  30.464  1.00  0.00     0.188 C 
ATOM     21  C   UNL     1      -0.267  26.752  31.517  1.00  0.00     0.179 C 
ATOM     22  O   UNL     1       0.553  24.659  30.397  1.00  0.00    -0.362 OA
ATOM     23  C   UNL     1       0.248  26.248  32.886  1.00  0.00     0.177 C 
ATOM     24  C   UNL     1       1.081  24.200  31.635  1.00  0.00     0.176 C 
ATOM     25  C   UNL     1       0.340  24.713  32.908  1.00  0.00     0.177 C 
BRANCH  21  26
ATOM     26  O   UNL     1       0.663  27.683  31.011  1.00  0.00    -0.387 OA
ATOM     27  H   UNL     1       0.981  28.234  31.777  1.00  0.00     0.211 HD
ENDBRANCH  21  26
BRANCH  23  28
ATOM     28  O   UNL     1      -0.607  26.713  33.904  1.00  0.00    -0.387 OA
ATOM     29  H   UNL     1      -0.040  27.181  34.572  1.00  0.00     0.211 HD
ENDBRANCH  23  28
BRANCH  24  30
ATOM     30  C   UNL     1       2.593  24.514  31.632  1.00  0.00     0.191 C 
BRANCH  30  31
ATOM     31  O   UNL     1       2.919  25.481  30.672  1.00  0.00    -0.394 OA
ATOM     32  H   UNL     1       2.227  25.444  29.959  1.00  0.00     0.210 HD
ENDBRANCH  30  31
ENDBRANCH  24  30
BRANCH  25  33
ATOM     33  O   UNL     1       1.009  24.274  34.062  1.00  0.00    -0.388 OA
ATOM     34  H   UNL     1       1.454  23.415  33.834  1.00  0.00     0.211 HD
ENDBRANCH  25  33
ENDBRANCH  11  20
BRANCH  10  35
ATOM     35  O   UNL     1      -1.034  23.765  28.400  1.00  0.00    -0.507 OA
ATOM     36  H   UNL     1      -0.109  24.128  28.606  1.00  0.00     0.293 HD
ENDBRANCH  10  35
TORSDOF 9
ENDMDL
MODEL 7
REMARK VINA RESULT:    -5.643      7.199     10.836
REMARK INTER + INTRA:          -8.434
REMARK INTER:                  -8.010
REMARK INTRA:                  -0.424
REMARK UNBOUND:                -0.811
REMARK SMILES O=c1c(-c2ccc(O)cc2)coc2c([C@@H]3O[C@@H](CO)[C@@H](O)[C@H](O)[C@H]3O)c(O)ccc12
REMARK SMILES IDX 3 1 11 2 12 3 13 4 30 5 2 6 1 7 29 8 28 9 26 10 14 11 4 12
REMARK SMILES IDX 5 13 6 14 7 15 10 16 9 17 8 18 15 20 24 21 16 22 22 23 17 24
REMARK SMILES IDX 20 25 25 26 23 28 18 30 19 31 21 33 27 35
REMARK H PARENT 8 19 25 27 23 29 19 32 21 34 27 36
REMARK Flexibility Score: inf
ROOT
ATOM      1  C   UNL     1       2.203  29.743  35.959  1.00  0.00     0.065 A 
ATOM      2  C   UNL     1       2.155  31.126  35.725  1.00  0.00     0.208 A 
ATOM      3  O   UNL     1       2.567  31.997  36.642  1.00  0.00    -0.463 OA
ATOM      4  C   UNL     1       3.059  31.645  37.824  1.00  0.00     0.147 A 
ATOM      5  C   UNL     1       3.129  30.272  38.155  1.00  0.00     0.066 A 
ATOM      6  C   UNL     1       2.732  29.320  37.193  1.00  0.00     0.200 A 
ATOM      7  O   UNL     1       2.878  28.092  37.444  1.00  0.00    -0.288 OA
ATOM      8  C   UNL     1       3.597  29.869  39.412  1.00  0.00     0.020 A 
ATOM      9  C   UNL     1       3.940  30.822  40.363  1.00  0.00     0.047 A 
ATOM     10  C   UNL     1       3.877  32.183  40.057  1.00  0.00     0.125 A 
ATOM     11  C   UNL     1       3.512  32.621  38.759  1.00  0.00     0.069 A 
ENDROOT
BRANCH   1  12
ATOM     12  C   UNL     1       1.714  28.815  34.889  1.00  0.00    -0.011 A 
ATOM     13  C   UNL     1       2.518  28.490  33.772  1.00  0.00     0.013 A 
ATOM     14  C   UNL     1       1.919  28.053  32.595  1.00  0.00     0.047 A 
ATOM     15  C   UNL     1       0.550  27.751  32.559  1.00  0.00     0.115 A 
ATOM     16  C   UNL     1       0.362  28.402  34.880  1.00  0.00     0.013 A 
ATOM     17  C   UNL     1      -0.223  27.891  33.714  1.00  0.00     0.047 A 
BRANCH  15  18
ATOM     18  O   UNL     1      -0.044  27.291  31.387  1.00  0.00    -0.508 OA
ATOM     19  H   UNL     1       0.020  27.813  30.519  1.00  0.00     0.293 HD
ENDBRANCH  15  18
ENDBRANCH   1  12
BRANCH  11  20
ATOM     20  C   UNL     1       3.716  34.115  38.449  1.00  0.00     0.188 C 
ATOM     21  C   UNL     1       3.172  34.717  37.107  1.00  0.00     0.179 C 
ATOM     22  O   UNL     1       3.446  34.905  39.597  1.00  0.00    -0.362 OA
ATOM     23  C   UNL     1       1.725  35.259  37.203  1.00  0.00     0.177 C 
ATOM     24  C   UNL     1       2.138  35.454  39.703  1.00  0.00     0.176 C 
ATOM     25  C   UNL     1       1.133  35.001  38.600  1.00  0.00     0.177 C 
BRANCH  21  26
ATOM     26  O   UNL     1       4.010  35.770  36.687  1.00  0.00    -0.387 OA
ATOM     27  H   UNL     1       4.620  35.986  37.444  1.00  0.00     0.211 HD
ENDBRANCH  21  26
BRANCH  23  28
ATOM     28  O   UNL     1       0.936  34.656  36.205  1.00  0.00    -0.387 OA
ATOM     29  H   UNL     1       1.516  34.533  35.407  1.00  0.00     0.211 HD
ENDBRANCH  23  28
BRANCH  24  30
ATOM     30  C   UNL     1       2.293  36.987  39.806  1.00  0.00     0.191 C 
BRANCH  30  31
ATOM     31  O   UNL     1       2.878  37.368  41.020  1.00  0.00    -0.394 OA
ATOM     32  H   UNL     1       2.300  38.067  41.428  1.00  0.00     0.210 HD
ENDBRANCH  30  31
ENDBRANCH  24  30
BRANCH  25  33
ATOM     33  O   UNL     1      -0.086  35.682  38.752  1.00  0.00    -0.388 OA
ATOM     34  H   UNL     1      -0.593  35.567  37.906  1.00  0.00     0.211 HD
ENDBRANCH  25  33
ENDBRANCH  11  20
BRANCH  10  35
ATOM     35  O   UNL     1       4.125  33.118  41.057  1.00  0.00    -0.507 OA
ATOM     36  H   UNL     1       4.017  34.106  40.848  1.00  0.00     0.293 HD
ENDBRANCH  10  35
TORSDOF 9
ENDMDL
MODEL 8
REMARK VINA RESULT:    -5.633      2.098      3.147
REMARK INTER + INTRA:          -8.421
REMARK INTER:                  -7.803
REMARK INTRA:                  -0.617
REMARK UNBOUND:                -0.811
REMARK SMILES O=c1c(-c2ccc(O)cc2)coc2c([C@@H]3O[C@@H](CO)[C@@H](O)[C@H](O)[C@H]3O)c(O)ccc12
REMARK SMILES IDX 3 1 11 2 12 3 13 4 30 5 2 6 1 7 29 8 28 9 26 10 14 11 4 12
REMARK SMILES IDX 5 13 6 14 7 15 10 16 9 17 8 18 15 20 24 21 16 22 22 23 17 24
REMARK SMILES IDX 20 25 25 26 23 28 18 30 19 31 21 33 27 35
REMARK H PARENT 8 19 25 27 23 29 19 32 21 34 27 36
REMARK Flexibility Score: inf
ROOT
ATOM      1  C   UNL     1      -3.439  27.250  33.803  1.00  0.00     0.065 A 
ATOM      2  C   UNL     1      -2.523  26.210  33.587  1.00  0.00     0.208 A 
ATOM      3  O   UNL     1      -1.211  26.427  33.616  1.00  0.00    -0.463 OA
ATOM      4  C   UNL     1      -0.666  27.613  33.859  1.00  0.00     0.147 A 
ATOM      5  C   UNL     1      -1.513  28.725  34.071  1.00  0.00     0.066 A 
ATOM      6  C   UNL     1      -2.909  28.524  34.081  1.00  0.00     0.200 A 
ATOM      7  O   UNL     1      -3.669  29.491  34.362  1.00  0.00    -0.288 OA
ATOM      8  C   UNL     1      -0.970  29.999  34.280  1.00  0.00     0.020 A 
ATOM      9  C   UNL     1       0.405  30.186  34.222  1.00  0.00     0.047 A 
ATOM     10  C   UNL     1       1.259  29.102  34.012  1.00  0.00     0.125 A 
ATOM     11  C   UNL     1       0.748  27.784  33.905  1.00  0.00     0.069 A 
ENDROOT
BRANCH   1  12
ATOM     12  C   UNL     1      -4.905  26.941  33.748  1.00  0.00    -0.011 A 
ATOM     13  C   UNL     1      -5.767  27.261  34.822  1.00  0.00     0.013 A 
ATOM     14  C   UNL     1      -6.963  26.567  34.977  1.00  0.00     0.047 A 
ATOM     15  C   UNL     1      -7.414  25.689  33.981  1.00  0.00     0.115 A 
ATOM     16  C   UNL     1      -5.416  26.145  32.697  1.00  0.00     0.013 A 
ATOM     17  C   UNL     1      -6.656  25.505  32.822  1.00  0.00     0.047 A 
BRANCH  15  18
ATOM     18  O   UNL     1      -8.622  25.013  34.127  1.00  0.00    -0.508 OA
ATOM     19  H   UNL     1      -8.999  24.790  35.042  1.00  0.00     0.293 HD
ENDBRANCH  15  18
ENDBRANCH   1  12
BRANCH  11  20
ATOM     20  C   UNL     1       1.777  26.639  33.929  1.00  0.00     0.188 C 
ATOM     21  C   UNL     1       1.289  25.149  33.983  1.00  0.00     0.179 C 
ATOM     22  O   UNL     1       2.816  26.879  32.993  1.00  0.00    -0.362 OA
ATOM     23  C   UNL     1       1.078  24.507  32.591  1.00  0.00     0.177 C 
ATOM     24  C   UNL     1       2.678  26.274  31.713  1.00  0.00     0.176 C 
ATOM     25  C   UNL     1       1.330  25.529  31.469  1.00  0.00     0.177 C 
BRANCH  21  26
ATOM     26  O   UNL     1       2.226  24.369  34.691  1.00  0.00    -0.387 OA
ATOM     27  H   UNL     1       2.279  23.483  34.240  1.00  0.00     0.211 HD
ENDBRANCH  21  26
BRANCH  23  28
ATOM     28  O   UNL     1      -0.229  23.989  32.512  1.00  0.00    -0.387 OA
ATOM     29  H   UNL     1      -0.729  24.551  31.862  1.00  0.00     0.211 HD
ENDBRANCH  23  28
BRANCH  24  30
ATOM     30  C   UNL     1       3.924  25.388  31.491  1.00  0.00     0.191 C 
BRANCH  30  31
ATOM     31  O   UNL     1       4.124  25.107  30.134  1.00  0.00    -0.394 OA
ATOM     32  H   UNL     1       4.279  25.971  29.666  1.00  0.00     0.210 HD
ENDBRANCH  30  31
ENDBRANCH  24  30
BRANCH  25  33
ATOM     33  O   UNL     1       1.353  24.894  30.218  1.00  0.00    -0.388 OA
ATOM     34  H   UNL     1       1.531  23.930  30.381  1.00  0.00     0.211 HD
ENDBRANCH  25  33
ENDBRANCH  11  20
BRANCH  10  35
ATOM     35  O   UNL     1       2.622  29.329  33.853  1.00  0.00    -0.507 OA
ATOM     36  H   UNL     1       3.017  29.338  32.918  1.00  0.00     0.293 HD
ENDBRANCH  10  35
TORSDOF 9
ENDMDL
MODEL 9
REMARK VINA RESULT:    -5.499      6.276     10.504
REMARK INTER + INTRA:          -8.239
REMARK INTER:                  -7.348
REMARK INTRA:                  -0.891
REMARK UNBOUND:                -0.811
REMARK SMILES O=c1c(-c2ccc(O)cc2)coc2c([C@@H]3O[C@@H](CO)[C@@H](O)[C@H](O)[C@H]3O)c(O)ccc12
REMARK SMILES IDX 3 1 11 2 12 3 13 4 30 5 2 6 1 7 29 8 28 9 26 10 14 11 4 12
REMARK SMILES IDX 5 13 6 14 7 15 10 16 9 17 8 18 15 20 24 21 16 22 22 23 17 24
REMARK SMILES IDX 20 25 25 26 23 28 18 30 19 31 21 33 27 35
REMARK H PARENT 8 19 25 27 23 29 19 32 21 34 27 36
REMARK Flexibility Score: inf
ROOT
ATOM      1  C   UNL     1       2.688  32.237  38.009  1.00  0.00     0.065 A 
ATOM      2  C   UNL     1       1.885  32.068  36.871  1.00  0.00     0.208 A 
ATOM      3  O   UNL     1       1.834  30.906  36.227  1.00  0.00    -0.463 OA
ATOM      4  C   UNL     1       2.510  29.826  36.601  1.00  0.00     0.147 A 
ATOM      5  C   UNL     1       3.360  29.907  37.729  1.00  0.00     0.066 A 
ATOM      6  C   UNL     1       3.412  31.115  38.455  1.00  0.00     0.200 A 
ATOM      7  O   UNL     1       4.095  31.168  39.514  1.00  0.00    -0.288 OA
ATOM      8  C   UNL     1       4.125  28.801  38.120  1.00  0.00     0.020 A 
ATOM      9  C   UNL     1       4.095  27.635  37.366  1.00  0.00     0.047 A 
ATOM     10  C   UNL     1       3.264  27.534  36.249  1.00  0.00     0.125 A 
ATOM     11  C   UNL     1       2.397  28.596  35.889  1.00  0.00     0.069 A 
ENDROOT
BRANCH   1  12
ATOM     12  C   UNL     1       2.709  33.575  38.684  1.00  0.00    -0.011 A 
ATOM     13  C   UNL     1       1.815  33.884  39.735  1.00  0.00     0.013 A 
ATOM     14  C   UNL     1       1.509  35.213  40.012  1.00  0.00     0.047 A 
ATOM     15  C   UNL     1       2.215  36.254  39.389  1.00  0.00     0.115 A 
ATOM     16  C   UNL     1       3.493  34.621  38.145  1.00  0.00     0.013 A 
ATOM     17  C   UNL     1       3.234  35.956  38.482  1.00  0.00     0.047 A 
BRANCH  15  18
ATOM     18  O   UNL     1       1.924  37.582  39.684  1.00  0.00    -0.508 OA
ATOM     19  H   UNL     1       1.254  37.832  40.405  1.00  0.00     0.293 HD
ENDBRANCH  15  18
ENDBRANCH   1  12
BRANCH  11  20
ATOM     20  C   UNL     1       1.346  28.296  34.805  1.00  0.00     0.188 C 
ATOM     21  C   UNL     1       0.256  29.367  34.452  1.00  0.00     0.179 C 
ATOM     22  O   UNL     1       1.953  27.686  33.676  1.00  0.00    -0.362 OA
ATOM     23  C   UNL     1       0.677  30.344  33.328  1.00  0.00     0.177 C 
ATOM     24  C   UNL     1       2.319  28.546  32.603  1.00  0.00     0.176 C 
ATOM     25  C   UNL     1       2.120  30.069  32.871  1.00  0.00     0.177 C 
BRANCH  21  26
ATOM     26  O   UNL     1      -0.931  28.721  34.054  1.00  0.00    -0.387 OA
ATOM     27  H   UNL     1      -0.673  27.857  33.631  1.00  0.00     0.211 HD
ENDBRANCH  21  26
BRANCH  23  28
ATOM     28  O   UNL     1       0.541  31.668  33.787  1.00  0.00    -0.387 OA
ATOM     29  H   UNL     1      -0.317  32.017  33.426  1.00  0.00     0.211 HD
ENDBRANCH  23  28
BRANCH  24  30
ATOM     30  C   UNL     1       1.586  28.039  31.342  1.00  0.00     0.191 C 
BRANCH  30  31
ATOM     31  O   UNL     1       0.470  27.260  31.670  1.00  0.00    -0.394 OA
ATOM     32  H   UNL     1       0.286  26.655  30.902  1.00  0.00     0.210 HD
ENDBRANCH  30  31
ENDBRANCH  24  30
BRANCH  25  33
ATOM     33  O   UNL     1       2.420  30.803  31.713  1.00  0.00    -0.388 OA
ATOM     34  H   UNL     1       3.050  30.255  31.174  1.00  0.00     0.211 HD
ENDBRANCH  25  33
ENDBRANCH  11  20
BRANCH  10  35
ATOM     35  O   UNL     1       3.330  26.396  35.451  1.00  0.00    -0.507 OA
ATOM     36  H   UNL     1       3.026  26.452  34.484  1.00  0.00     0.293 HD
ENDBRANCH  10  35
TORSDOF 9
ENDMDL
