MODEL 1
REMARK VINA RESULT:    -2.127      0.000      0.000
REMARK INTER + INTRA:          -7.067
REMARK INTER:                  -3.992
REMARK INTRA:                  -3.075
REMARK UNBOUND:                -3.075
REMARK SMILES CCCCCCCCC=CCCCCCCCC(=O)[O-]
REMARK SMILES IDX 10 1 9 2 11 3 12 4 13 5 14 6 15 7 16 8 17 9 18 10 19 11
REMARK SMILES IDX 20 12 8 13 7 14 6 15 5 16 4 17 3 18 2 19 1 20
REMARK H PARENT
REMARK Flexibility Score: inf
ROOT
ATOM      1  C   UNL     1     178.029 204.836 202.601  1.00  0.00    -0.031 C 
ATOM      2  C   UNL     1     176.851 205.441 202.840  1.00  0.00    -0.031 C 
ENDROOT
BRANCH   1   3
ATOM      3  C   UNL     1     178.701 204.724 201.251  1.00  0.00     0.027 C 
BRANCH   3   4
ATOM      4  C   UNL     1     178.014 203.697 200.331  1.00  0.00     0.004 C 
BRANCH   4   5
ATOM      5  C   UNL     1     178.528 203.672 198.879  1.00  0.00     0.000 C 
BRANCH   5   6
ATOM      6  C   UNL     1     177.490 204.177 197.868  1.00  0.00     0.000 C 
BRANCH   6   7
ATOM      7  C   UNL     1     176.180 204.567 198.572  1.00  0.00     0.000 C 
BRANCH   7   8
ATOM      8  C   UNL     1     175.320 205.527 197.735  1.00  0.00     0.006 C 
BRANCH   8   9
ATOM      9  C   UNL     1     175.993 205.927 196.416  1.00  0.00     0.053 C 
BRANCH   9  10
ATOM     10  C   UNL     1     175.893 207.405 196.206  1.00  0.00     0.041 C 
ATOM     11  O   UNL     1     175.287 208.122 197.044  1.00  0.00    -0.550 OA
ATOM     12  O   UNL     1     176.509 207.997 195.111  1.00  0.00    -0.550 OA
ENDBRANCH   9  10
ENDBRANCH   8   9
ENDBRANCH   7   8
ENDBRANCH   6   7
ENDBRANCH   5   6
ENDBRANCH   4   5
ENDBRANCH   3   4
ENDBRANCH   1   3
BRANCH   2  13
ATOM     13  C   UNL     1     175.989 206.122 201.805  1.00  0.00     0.027 C 
BRANCH  13  14
ATOM     14  C   UNL     1     176.243 207.639 201.706  1.00  0.00     0.004 C 
BRANCH  14  15
ATOM     15  C   UNL     1     176.699 208.118 200.313  1.00  0.00     0.000 C 
BRANCH  15  16
ATOM     16  C   UNL     1     178.218 208.099 200.064  1.00  0.00     0.000 C 
BRANCH  16  17
ATOM     17  C   UNL     1     178.605 207.419 198.738  1.00  0.00    -0.000 C 
BRANCH  17  18
ATOM     18  C   UNL     1     180.099 207.055 198.667  1.00  0.00    -0.000 C 
BRANCH  18  19
ATOM     19  C   UNL     1     180.582 206.562 197.290  1.00  0.00    -0.003 C 
ATOM     20  C   UNL     1     179.793 207.163 196.129  1.00  0.00     0.004 C 
ENDBRANCH  18  19
ENDBRANCH  17  18
ENDBRANCH  16  17
ENDBRANCH  15  16
ENDBRANCH  14  15
ENDBRANCH  13  14
ENDBRANCH   2  13
TORSDOF 15
ENDMDL
MODEL 2
REMARK VINA RESULT:    -2.033      2.371      4.744
REMARK INTER + INTRA:          -6.891
REMARK INTER:                  -3.950
REMARK INTRA:                  -2.941
REMARK UNBOUND:                -3.075
REMARK SMILES CCCCCCCCC=CCCCCCCCC(=O)[O-]
REMARK SMILES IDX 10 1 9 2 11 3 12 4 13 5 14 6 15 7 16 8 17 9 18 10 19 11
REMARK SMILES IDX 20 12 8 13 7 14 6 15 5 16 4 17 3 18 2 19 1 20
REMARK H PARENT
REMARK Flexibility Score: inf
ROOT
ATOM      1  C   UNL     1     175.810 206.762 199.494  1.00  0.00    -0.031 C 
ATOM      2  C   UNL     1     176.446 206.518 198.333  1.00  0.00    -0.031 C 
ENDROOT
BRANCH   1   3
ATOM      3  C   UNL     1     175.990 207.996 200.351  1.00  0.00     0.027 C 
BRANCH   3   4
ATOM      4  C   UNL     1     176.247 207.657 201.831  1.00  0.00     0.004 C 
BRANCH   4   5
ATOM      5  C   UNL     1     176.842 206.260 202.089  1.00  0.00     0.000 C 
BRANCH   5   6
ATOM      6  C   UNL     1     175.909 205.353 202.904  1.00  0.00     0.000 C 
BRANCH   6   7
ATOM      7  C   UNL     1     175.340 204.224 202.030  1.00  0.00     0.000 C 
BRANCH   7   8
ATOM      8  C   UNL     1     173.810 204.289 201.901  1.00  0.00     0.006 C 
BRANCH   8   9
ATOM      9  C   UNL     1     173.210 205.525 202.582  1.00  0.00     0.053 C 
BRANCH   9  10
ATOM     10  C   UNL     1     172.714 206.497 201.558  1.00  0.00     0.041 C 
ATOM     11  O   UNL     1     172.614 207.719 201.843  1.00  0.00    -0.550 OA
ATOM     12  O   UNL     1     172.407 206.061 200.276  1.00  0.00    -0.550 OA
ENDBRANCH   9  10
ENDBRANCH   8   9
ENDBRANCH   7   8
ENDBRANCH   6   7
ENDBRANCH   5   6
ENDBRANCH   4   5
ENDBRANCH   3   4
ENDBRANCH   1   3
BRANCH   2  13
ATOM     13  C   UNL     1     177.449 207.434 197.673  1.00  0.00     0.027 C 
BRANCH  13  14
ATOM     14  C   UNL     1     178.698 206.694 197.156  1.00  0.00     0.004 C 
BRANCH  14  15
ATOM     15  C   UNL     1     179.972 206.939 197.990  1.00  0.00     0.000 C 
BRANCH  15  16
ATOM     16  C   UNL     1     179.744 207.281 199.474  1.00  0.00     0.000 C 
BRANCH  16  17
ATOM     17  C   UNL     1     179.871 206.061 200.403  1.00  0.00    -0.000 C 
BRANCH  17  18
ATOM     18  C   UNL     1     180.660 204.903 199.766  1.00  0.00    -0.000 C 
BRANCH  18  19
ATOM     19  C   UNL     1     179.898 203.568 199.680  1.00  0.00    -0.003 C 
ATOM     20  C   UNL     1     178.384 203.735 199.797  1.00  0.00     0.004 C 
ENDBRANCH  18  19
ENDBRANCH  17  18
ENDBRANCH  16  17
ENDBRANCH  15  16
ENDBRANCH  14  15
ENDBRANCH  13  14
ENDBRANCH   2  13
TORSDOF 15
ENDMDL
MODEL 3
REMARK VINA RESULT:    -1.976      1.705      3.765
REMARK INTER + INTRA:          -6.783
REMARK INTER:                  -3.756
REMARK INTRA:                  -3.027
REMARK UNBOUND:                -3.075
REMARK SMILES CCCCCCCCC=CCCCCCCCC(=O)[O-]
REMARK SMILES IDX 10 1 9 2 11 3 12 4 13 5 14 6 15 7 16 8 17 9 18 10 19 11
REMARK SMILES IDX 20 12 8 13 7 14 6 15 5 16 4 17 3 18 2 19 1 20
REMARK H PARENT
REMARK Flexibility Score: inf
ROOT
ATOM      1  C   UNL     1     177.526 203.954 201.000  1.00  0.00    -0.031 C 
ATOM      2  C   UNL     1     176.964 204.461 202.113  1.00  0.00    -0.031 C 
ENDROOT
BRANCH   1   3
ATOM      3  C   UNL     1     178.382 204.724 200.019  1.00  0.00     0.027 C 
BRANCH   3   4
ATOM      4  C   UNL     1     179.852 204.824 200.466  1.00  0.00     0.004 C 
BRANCH   4   5
ATOM      5  C   UNL     1     180.317 206.234 200.877  1.00  0.00     0.000 C 
BRANCH   5   6
ATOM      6  C   UNL     1     180.343 207.222 199.702  1.00  0.00     0.000 C 
BRANCH   6   7
ATOM      7  C   UNL     1     181.074 206.618 198.493  1.00  0.00     0.000 C 
BRANCH   7   8
ATOM      8  C   UNL     1     180.518 207.124 197.152  1.00  0.00     0.006 C 
BRANCH   8   9
ATOM      9  C   UNL     1     178.992 206.997 197.058  1.00  0.00     0.053 C 
BRANCH   9  10
ATOM     10  C   UNL     1     178.593 206.474 195.715  1.00  0.00     0.041 C 
ATOM     11  O   UNL     1     179.067 206.991 194.669  1.00  0.00    -0.550 OA
ATOM     12  O   UNL     1     177.736 205.385 195.617  1.00  0.00    -0.550 OA
ENDBRANCH   9  10
ENDBRANCH   8   9
ENDBRANCH   7   8
ENDBRANCH   6   7
ENDBRANCH   5   6
ENDBRANCH   4   5
ENDBRANCH   3   4
ENDBRANCH   1   3
BRANCH   2  13
ATOM     13  C   UNL     1     177.090 205.889 202.586  1.00  0.00     0.027 C 
BRANCH  13  14
ATOM     14  C   UNL     1     176.000 206.816 202.017  1.00  0.00     0.004 C 
BRANCH  14  15
ATOM     15  C   UNL     1     176.540 208.083 201.322  1.00  0.00     0.000 C 
BRANCH  15  16
ATOM     16  C   UNL     1     176.611 208.023 199.786  1.00  0.00     0.000 C 
BRANCH  16  17
ATOM     17  C   UNL     1     175.319 207.488 199.141  1.00  0.00    -0.000 C 
BRANCH  17  18
ATOM     18  C   UNL     1     175.557 206.248 198.262  1.00  0.00    -0.000 C 
BRANCH  18  19
ATOM     19  C   UNL     1     174.767 204.995 198.680  1.00  0.00    -0.003 C 
ATOM     20  C   UNL     1     173.703 205.283 199.738  1.00  0.00     0.004 C 
ENDBRANCH  18  19
ENDBRANCH  17  18
ENDBRANCH  16  17
ENDBRANCH  15  16
ENDBRANCH  14  15
ENDBRANCH  13  14
ENDBRANCH   2  13
TORSDOF 15
ENDMDL
MODEL 4
REMARK VINA RESULT:    -1.946      1.844      4.538
REMARK INTER + INTRA:          -6.728
REMARK INTER:                  -3.730
REMARK INTRA:                  -2.998
REMARK UNBOUND:                -3.075
REMARK SMILES CCCCCCCCC=CCCCCCCCC(=O)[O-]
REMARK SMILES IDX 10 1 9 2 11 3 12 4 13 5 14 6 15 7 16 8 17 9 18 10 19 11
REMARK SMILES IDX 20 12 8 13 7 14 6 15 5 16 4 17 3 18 2 19 1 20
REMARK H PARENT
REMARK Flexibility Score: inf
ROOT
ATOM      1  C   UNL     1     175.537 206.669 197.545  1.00  0.00    -0.031 C 
ATOM      2  C   UNL     1     174.365 206.864 198.178  1.00  0.00    -0.031 C 
ENDROOT
BRANCH   1   3
ATOM      3  C   UNL     1     176.838 206.276 198.209  1.00  0.00     0.027 C 
BRANCH   3   4
ATOM      4  C   UNL     1     177.845 207.440 198.276  1.00  0.00     0.004 C 
BRANCH   4   5
ATOM      5  C   UNL     1     178.533 207.634 199.640  1.00  0.00     0.000 C 
BRANCH   5   6
ATOM      6  C   UNL     1     179.999 207.181 199.641  1.00  0.00     0.000 C 
BRANCH   6   7
ATOM      7  C   UNL     1     180.494 206.915 198.210  1.00  0.00     0.000 C 
BRANCH   7   8
ATOM      8  C   UNL     1     180.925 205.455 197.995  1.00  0.00     0.006 C 
BRANCH   8   9
ATOM      9  C   UNL     1     180.076 204.737 196.938  1.00  0.00     0.053 C 
BRANCH   9  10
ATOM     10  C   UNL     1     180.057 205.520 195.663  1.00  0.00     0.041 C 
ATOM     11  O   UNL     1     181.102 205.622 194.969  1.00  0.00    -0.550 OA
ATOM     12  O   UNL     1     178.875 206.097 195.218  1.00  0.00    -0.550 OA
ENDBRANCH   9  10
ENDBRANCH   8   9
ENDBRANCH   7   8
ENDBRANCH   6   7
ENDBRANCH   5   6
ENDBRANCH   4   5
ENDBRANCH   3   4
ENDBRANCH   1   3
BRANCH   2  13
ATOM     13  C   UNL     1     174.136 206.721 199.663  1.00  0.00     0.027 C 
BRANCH  13  14
ATOM     14  C   UNL     1     174.588 207.954 200.469  1.00  0.00     0.004 C 
BRANCH  14  15
ATOM     15  C   UNL     1     175.599 207.643 201.592  1.00  0.00     0.000 C 
BRANCH  15  16
ATOM     16  C   UNL     1     175.898 206.152 201.828  1.00  0.00     0.000 C 
BRANCH  16  17
ATOM     17  C   UNL     1     177.046 205.915 202.825  1.00  0.00    -0.000 C 
BRANCH  17  18
ATOM     18  C   UNL     1     178.159 205.018 202.255  1.00  0.00    -0.000 C 
BRANCH  18  19
ATOM     19  C   UNL     1     177.775 204.237 200.985  1.00  0.00    -0.003 C 
ATOM     20  C   UNL     1     178.945 203.460 200.383  1.00  0.00     0.004 C 
ENDBRANCH  18  19
ENDBRANCH  17  18
ENDBRANCH  16  17
ENDBRANCH  15  16
ENDBRANCH  14  15
ENDBRANCH  13  14
ENDBRANCH   2  13
TORSDOF 15
ENDMDL
MODEL 5
REMARK VINA RESULT:    -1.934      2.952      4.696
REMARK INTER + INTRA:          -6.705
REMARK INTER:                  -3.868
REMARK INTRA:                  -2.837
REMARK UNBOUND:                -3.075
REMARK SMILES CCCCCCCCC=CCCCCCCCC(=O)[O-]
REMARK SMILES IDX 10 1 9 2 11 3 12 4 13 5 14 6 15 7 16 8 17 9 18 10 19 11
REMARK SMILES IDX 20 12 8 13 7 14 6 15 5 16 4 17 3 18 2 19 1 20
REMARK H PARENT
REMARK Flexibility Score: inf
ROOT
ATOM      1  C   UNL     1     174.337 204.800 202.364  1.00  0.00    -0.031 C 
ATOM      2  C   UNL     1     173.256 205.519 202.718  1.00  0.00    -0.031 C 
ENDROOT
BRANCH   1   3
ATOM      3  C   UNL     1     174.788 204.533 200.945  1.00  0.00     0.027 C 
BRANCH   3   4
ATOM      4  C   UNL     1     175.925 205.470 200.497  1.00  0.00     0.004 C 
BRANCH   4   5
ATOM      5  C   UNL     1     176.328 206.547 201.522  1.00  0.00     0.000 C 
BRANCH   5   6
ATOM      6  C   UNL     1     177.028 207.753 200.881  1.00  0.00     0.000 C 
BRANCH   6   7
ATOM      7  C   UNL     1     177.181 207.556 199.364  1.00  0.00     0.000 C 
BRANCH   7   8
ATOM      8  C   UNL     1     178.646 207.386 198.933  1.00  0.00     0.006 C 
BRANCH   8   9
ATOM      9  C   UNL     1     179.586 207.130 200.118  1.00  0.00     0.053 C 
BRANCH   9  10
ATOM     10  C   UNL     1     179.883 205.670 200.243  1.00  0.00     0.041 C 
ATOM     11  O   UNL     1     179.581 205.051 201.298  1.00  0.00    -0.550 OA
ATOM     12  O   UNL     1     180.450 204.980 199.179  1.00  0.00    -0.550 OA
ENDBRANCH   9  10
ENDBRANCH   8   9
ENDBRANCH   7   8
ENDBRANCH   6   7
ENDBRANCH   5   6
ENDBRANCH   4   5
ENDBRANCH   3   4
ENDBRANCH   1   3
BRANCH   2  13
ATOM     13  C   UNL     1     172.301 206.194 201.764  1.00  0.00     0.027 C 
BRANCH  13  14
ATOM     14  C   UNL     1     172.550 207.707 201.623  1.00  0.00     0.004 C 
BRANCH  14  15
ATOM     15  C   UNL     1     173.233 208.120 200.304  1.00  0.00     0.000 C 
BRANCH  15  16
ATOM     16  C   UNL     1     172.915 207.238 199.083  1.00  0.00     0.000 C 
BRANCH  16  17
ATOM     17  C   UNL     1     173.767 207.584 197.848  1.00  0.00    -0.000 C 
BRANCH  17  18
ATOM     18  C   UNL     1     174.375 206.341 197.173  1.00  0.00    -0.000 C 
BRANCH  18  19
ATOM     19  C   UNL     1     175.524 206.633 196.190  1.00  0.00    -0.003 C 
ATOM     20  C   UNL     1     175.815 208.125 196.037  1.00  0.00     0.004 C 
ENDBRANCH  18  19
ENDBRANCH  17  18
ENDBRANCH  16  17
ENDBRANCH  15  16
ENDBRANCH  14  15
ENDBRANCH  13  14
ENDBRANCH   2  13
TORSDOF 15
ENDMDL
MODEL 6
REMARK VINA RESULT:    -1.910      2.023      4.078
REMARK INTER + INTRA:          -6.660
REMARK INTER:                  -3.655
REMARK INTRA:                  -3.005
REMARK UNBOUND:                -3.075
REMARK SMILES CCCCCCCCC=CCCCCCCCC(=O)[O-]
REMARK SMILES IDX 10 1 9 2 11 3 12 4 13 5 14 6 15 7 16 8 17 9 18 10 19 11
REMARK SMILES IDX 20 12 8 13 7 14 6 15 5 16 4 17 3 18 2 19 1 20
REMARK H PARENT
REMARK Flexibility Score: inf
ROOT
ATOM      1  C   UNL     1     177.428 203.476 198.581  1.00  0.00    -0.031 C 
ATOM      2  C   UNL     1     178.706 203.634 198.188  1.00  0.00    -0.031 C 
ENDROOT
BRANCH   1   3
ATOM      3  C   UNL     1     176.973 202.686 199.788  1.00  0.00     0.027 C 
BRANCH   3   4
ATOM      4  C   UNL     1     176.778 203.568 201.035  1.00  0.00     0.004 C 
BRANCH   4   5
ATOM      5  C   UNL     1     176.504 205.056 200.749  1.00  0.00     0.000 C 
BRANCH   5   6
ATOM      6  C   UNL     1     175.994 205.819 201.979  1.00  0.00     0.000 C 
BRANCH   6   7
ATOM      7  C   UNL     1     176.412 207.296 201.922  1.00  0.00     0.000 C 
BRANCH   7   8
ATOM      8  C   UNL     1     175.543 208.121 200.959  1.00  0.00     0.006 C 
BRANCH   8   9
ATOM      9  C   UNL     1     174.042 207.865 201.149  1.00  0.00     0.053 C 
BRANCH   9  10
ATOM     10  C   UNL     1     173.408 207.491 199.846  1.00  0.00     0.041 C 
ATOM     11  O   UNL     1     172.177 207.685 199.664  1.00  0.00    -0.550 OA
ATOM     12  O   UNL     1     174.184 206.974 198.816  1.00  0.00    -0.550 OA
ENDBRANCH   9  10
ENDBRANCH   8   9
ENDBRANCH   7   8
ENDBRANCH   6   7
ENDBRANCH   5   6
ENDBRANCH   4   5
ENDBRANCH   3   4
ENDBRANCH   1   3
BRANCH   2  13
ATOM     13  C   UNL     1     179.915 203.056 198.882  1.00  0.00     0.027 C 
BRANCH  13  14
ATOM     14  C   UNL     1     180.794 204.125 199.559  1.00  0.00     0.004 C 
BRANCH  14  15
ATOM     15  C   UNL     1     180.391 204.453 201.012  1.00  0.00     0.000 C 
BRANCH  15  16
ATOM     16  C   UNL     1     179.950 205.905 201.270  1.00  0.00     0.000 C 
BRANCH  16  17
ATOM     17  C   UNL     1     180.237 206.845 200.086  1.00  0.00    -0.000 C 
BRANCH  17  18
ATOM     18  C   UNL     1     178.972 207.538 199.551  1.00  0.00    -0.000 C 
BRANCH  18  19
ATOM     19  C   UNL     1     178.638 207.234 198.079  1.00  0.00    -0.003 C 
ATOM     20  C   UNL     1     179.879 207.017 197.216  1.00  0.00     0.004 C 
ENDBRANCH  18  19
ENDBRANCH  17  18
ENDBRANCH  16  17
ENDBRANCH  15  16
ENDBRANCH  14  15
ENDBRANCH  13  14
ENDBRANCH   2  13
TORSDOF 15
ENDMDL
MODEL 7
REMARK VINA RESULT:    -1.909      1.546      3.305
REMARK INTER + INTRA:          -6.658
REMARK INTER:                  -3.632
REMARK INTRA:                  -3.025
REMARK UNBOUND:                -3.075
REMARK SMILES CCCCCCCCC=CCCCCCCCC(=O)[O-]
REMARK SMILES IDX 10 1 9 2 11 3 12 4 13 5 14 6 15 7 16 8 17 9 18 10 19 11
REMARK SMILES IDX 20 12 8 13 7 14 6 15 5 16 4 17 3 18 2 19 1 20
REMARK H PARENT
REMARK Flexibility Score: inf
ROOT
ATOM      1  C   UNL     1     176.969 204.229 200.189  1.00  0.00    -0.031 C 
ATOM      2  C   UNL     1     178.216 204.499 199.757  1.00  0.00    -0.031 C 
ENDROOT
BRANCH   1   3
ATOM      3  C   UNL     1     176.522 204.227 201.634  1.00  0.00     0.027 C 
BRANCH   3   4
ATOM      4  C   UNL     1     175.741 205.499 202.015  1.00  0.00     0.004 C 
BRANCH   4   5
ATOM      5  C   UNL     1     176.610 206.726 202.347  1.00  0.00     0.000 C 
BRANCH   5   6
ATOM      6  C   UNL     1     176.270 207.951 201.488  1.00  0.00     0.000 C 
BRANCH   6   7
ATOM      7  C   UNL     1     175.264 207.587 200.385  1.00  0.00     0.000 C 
BRANCH   7   8
ATOM      8  C   UNL     1     175.872 207.675 198.976  1.00  0.00     0.006 C 
BRANCH   8   9
ATOM      9  C   UNL     1     175.417 206.530 198.062  1.00  0.00     0.053 C 
BRANCH   9  10
ATOM     10  C   UNL     1     174.173 206.913 197.324  1.00  0.00     0.041 C 
ATOM     11  O   UNL     1     173.849 208.125 197.220  1.00  0.00    -0.550 OA
ATOM     12  O   UNL     1     173.398 205.937 196.711  1.00  0.00    -0.550 OA
ENDBRANCH   9  10
ENDBRANCH   8   9
ENDBRANCH   7   8
ENDBRANCH   6   7
ENDBRANCH   5   6
ENDBRANCH   4   5
ENDBRANCH   3   4
ENDBRANCH   1   3
BRANCH   2  13
ATOM     13  C   UNL     1     179.390 204.854 200.636  1.00  0.00     0.027 C 
BRANCH  13  14
ATOM     14  C   UNL     1     179.752 206.350 200.591  1.00  0.00     0.004 C 
BRANCH  14  15
ATOM     15  C   UNL     1     179.499 207.025 199.227  1.00  0.00     0.000 C 
BRANCH  15  16
ATOM     16  C   UNL     1     180.681 207.003 198.241  1.00  0.00     0.000 C 
BRANCH  16  17
ATOM     17  C   UNL     1     180.242 207.075 196.768  1.00  0.00    -0.000 C 
BRANCH  17  18
ATOM     18  C   UNL     1     178.768 206.684 196.562  1.00  0.00    -0.000 C 
BRANCH  18  19
ATOM     19  C   UNL     1     178.540 205.233 196.098  1.00  0.00    -0.003 C 
ATOM     20  C   UNL     1     177.248 205.055 195.304  1.00  0.00     0.004 C 
ENDBRANCH  18  19
ENDBRANCH  17  18
ENDBRANCH  16  17
ENDBRANCH  15  16
ENDBRANCH  14  15
ENDBRANCH  13  14
ENDBRANCH   2  13
TORSDOF 15
ENDMDL
MODEL 8
REMARK VINA RESULT:    -1.861      2.582      5.530
REMARK INTER + INTRA:          -6.568
REMARK INTER:                  -3.508
REMARK INTRA:                  -3.060
REMARK UNBOUND:                -3.075
REMARK SMILES CCCCCCCCC=CCCCCCCCC(=O)[O-]
REMARK SMILES IDX 10 1 9 2 11 3 12 4 13 5 14 6 15 7 16 8 17 9 18 10 19 11
REMARK SMILES IDX 20 12 8 13 7 14 6 15 5 16 4 17 3 18 2 19 1 20
REMARK H PARENT
REMARK Flexibility Score: inf
ROOT
ATOM      1  C   UNL     1     175.845 207.846 199.121  1.00  0.00    -0.031 C 
ATOM      2  C   UNL     1     175.718 206.693 198.438  1.00  0.00    -0.031 C 
ENDROOT
BRANCH   1   3
ATOM      3  C   UNL     1     175.287 208.116 200.500  1.00  0.00     0.027 C 
BRANCH   3   4
ATOM      4  C   UNL     1     176.318 207.863 201.617  1.00  0.00     0.004 C 
BRANCH   4   5
ATOM      5  C   UNL     1     176.232 206.478 202.286  1.00  0.00     0.000 C 
BRANCH   5   6
ATOM      6  C   UNL     1     177.588 205.761 202.354  1.00  0.00     0.000 C 
BRANCH   6   7
ATOM      7  C   UNL     1     178.153 205.520 200.946  1.00  0.00     0.000 C 
BRANCH   7   8
ATOM      8  C   UNL     1     179.524 206.184 200.736  1.00  0.00     0.006 C 
BRANCH   8   9
ATOM      9  C   UNL     1     179.478 207.327 199.713  1.00  0.00     0.053 C 
BRANCH   9  10
ATOM     10  C   UNL     1     179.690 206.797 198.330  1.00  0.00     0.041 C 
ATOM     11  O   UNL     1     179.081 207.313 197.356  1.00  0.00    -0.550 OA
ATOM     12  O   UNL     1     180.595 205.767 198.109  1.00  0.00    -0.550 OA
ENDBRANCH   9  10
ENDBRANCH   8   9
ENDBRANCH   7   8
ENDBRANCH   6   7
ENDBRANCH   5   6
ENDBRANCH   4   5
ENDBRANCH   3   4
ENDBRANCH   1   3
BRANCH   2  13
ATOM     13  C   UNL     1     175.000 205.459 198.927  1.00  0.00     0.027 C 
BRANCH  13  14
ATOM     14  C   UNL     1     173.517 205.415 198.513  1.00  0.00     0.004 C 
BRANCH  14  15
ATOM     15  C   UNL     1     172.528 205.720 199.657  1.00  0.00     0.000 C 
BRANCH  15  16
ATOM     16  C   UNL     1     173.020 205.376 201.075  1.00  0.00     0.000 C 
BRANCH  16  17
ATOM     17  C   UNL     1     172.651 203.947 201.514  1.00  0.00    -0.000 C 
BRANCH  17  18
ATOM     18  C   UNL     1     173.835 203.189 202.141  1.00  0.00    -0.000 C 
BRANCH  18  19
ATOM     19  C   UNL     1     174.549 202.205 201.197  1.00  0.00    -0.003 C 
ATOM     20  C   UNL     1     176.030 202.527 201.005  1.00  0.00     0.004 C 
ENDBRANCH  18  19
ENDBRANCH  17  18
ENDBRANCH  16  17
ENDBRANCH  15  16
ENDBRANCH  14  15
ENDBRANCH  13  14
ENDBRANCH   2  13
TORSDOF 15
ENDMDL
MODEL 9
REMARK VINA RESULT:    -1.857      2.322      4.094
REMARK INTER + INTRA:          -6.559
REMARK INTER:                  -3.742
REMARK INTRA:                  -2.818
REMARK UNBOUND:                -3.075
REMARK SMILES CCCCCCCCC=CCCCCCCCC(=O)[O-]
REMARK SMILES IDX 10 1 9 2 11 3 12 4 13 5 14 6 15 7 16 8 17 9 18 10 19 11
REMARK SMILES IDX 20 12 8 13 7 14 6 15 5 16 4 17 3 18 2 19 1 20
REMARK H PARENT
REMARK Flexibility Score: inf
ROOT
ATOM      1  C   UNL     1     177.795 203.859 200.187  1.00  0.00    -0.031 C 
ATOM      2  C   UNL     1     179.038 204.251 199.848  1.00  0.00    -0.031 C 
ENDROOT
BRANCH   1   3
ATOM      3  C   UNL     1     177.237 203.825 201.592  1.00  0.00     0.027 C 
BRANCH   3   4
ATOM      4  C   UNL     1     176.135 204.877 201.818  1.00  0.00     0.004 C 
BRANCH   4   5
ATOM      5  C   UNL     1     176.541 206.069 202.706  1.00  0.00     0.000 C 
BRANCH   5   6
ATOM      6  C   UNL     1     176.634 207.390 201.929  1.00  0.00     0.000 C 
BRANCH   6   7
ATOM      7  C   UNL     1     176.018 207.248 200.528  1.00  0.00     0.000 C 
BRANCH   7   8
ATOM      8  C   UNL     1     174.769 208.124 200.339  1.00  0.00     0.006 C 
BRANCH   8   9
ATOM      9  C   UNL     1     173.639 207.391 199.604  1.00  0.00     0.053 C 
BRANCH   9  10
ATOM     10  C   UNL     1     172.446 207.246 200.495  1.00  0.00     0.041 C 
ATOM     11  O   UNL     1     171.291 207.173 199.998  1.00  0.00    -0.550 OA
ATOM     12  O   UNL     1     172.611 207.141 201.870  1.00  0.00    -0.550 OA
ENDBRANCH   9  10
ENDBRANCH   8   9
ENDBRANCH   7   8
ENDBRANCH   6   7
ENDBRANCH   5   6
ENDBRANCH   4   5
ENDBRANCH   3   4
ENDBRANCH   1   3
BRANCH   2  13
ATOM     13  C   UNL     1     180.097 204.733 200.809  1.00  0.00     0.027 C 
BRANCH  13  14
ATOM     14  C   UNL     1     180.055 206.255 201.045  1.00  0.00     0.004 C 
BRANCH  14  15
ATOM     15  C   UNL     1     179.608 207.077 199.819  1.00  0.00     0.000 C 
BRANCH  15  16
ATOM     16  C   UNL     1     180.550 207.025 198.602  1.00  0.00     0.000 C 
BRANCH  16  17
ATOM     17  C   UNL     1     179.801 207.033 197.256  1.00  0.00    -0.000 C 
BRANCH  17  18
ATOM     18  C   UNL     1     178.271 207.039 197.423  1.00  0.00    -0.000 C 
BRANCH  18  19
ATOM     19  C   UNL     1     177.552 205.801 196.856  1.00  0.00    -0.003 C 
ATOM     20  C   UNL     1     176.078 205.731 197.251  1.00  0.00     0.004 C 
ENDBRANCH  18  19
ENDBRANCH  17  18
ENDBRANCH  16  17
ENDBRANCH  15  16
ENDBRANCH  14  15
ENDBRANCH  13  14
ENDBRANCH   2  13
TORSDOF 15
ENDMDL
