MODEL 1
REMARK VINA RESULT:     0.000      0.000      0.000
REMARK INTER + INTRA:          -2.446
REMARK INTER:                   0.000
REMARK INTRA:                  -2.446
REMARK UNBOUND:                -2.446
REMARK SMILES CCCCCCCCCCCCCCO
REMARK SMILES IDX 8 1 7 2 6 3 5 4 4 5 3 6 2 7 1 8 9 9 10 10 11 11 12 12 13 13
REMARK SMILES IDX 14 14 15 15
REMARK H PARENT 15 16
REMARK Flexibility Score: inf
ROOT
ATOM      1  C   UNL     1       4.457  13.983 -52.139  1.00  0.00     0.000 C 
ENDROOT
BRANCH   1   2
ATOM      2  C   UNL     1       4.125  15.391 -52.651  1.00  0.00    -0.000 C 
BRANCH   2   3
ATOM      3  C   UNL     1       3.329  16.183 -51.605  1.00  0.00    -0.000 C 
BRANCH   3   4
ATOM      4  C   UNL     1       3.258  15.424 -50.275  1.00  0.00    -0.000 C 
BRANCH   4   5
ATOM      5  C   UNL     1       3.972  16.201 -49.160  1.00  0.00    -0.000 C 
BRANCH   5   6
ATOM      6  C   UNL     1       4.801  15.294 -48.233  1.00  0.00    -0.000 C 
BRANCH   6   7
ATOM      7  C   UNL     1       4.580  13.785 -48.437  1.00  0.00    -0.003 C 
ATOM      8  C   UNL     1       5.880  12.983 -48.423  1.00  0.00     0.004 C 
ENDBRANCH   6   7
ENDBRANCH   5   6
ENDBRANCH   4   5
ENDBRANCH   3   4
ENDBRANCH   2   3
ENDBRANCH   1   2
BRANCH   1   9
ATOM      9  C   UNL     1       5.971  13.707 -52.090  1.00  0.00     0.000 C 
BRANCH   9  10
ATOM     10  C   UNL     1       6.863  14.964 -52.131  1.00  0.00     0.000 C 
BRANCH  10  11
ATOM     11  C   UNL     1       7.512  15.352 -50.787  1.00  0.00     0.000 C 
BRANCH  11  12
ATOM     12  C   UNL     1       7.409  16.844 -50.423  1.00  0.00     0.002 C 
BRANCH  12  13
ATOM     13  C   UNL     1       6.809  17.692 -51.553  1.00  0.00     0.028 C 
BRANCH  13  14
ATOM     14  C   UNL     1       5.948  18.827 -50.991  1.00  0.00     0.156 C 
BRANCH  14  15
ATOM     15  O   UNL     1       5.051  19.284 -51.967  1.00  0.00    -0.396 OA
ATOM     16  H   UNL     1       5.174  20.268 -52.028  1.00  0.00     0.210 HD
ENDBRANCH  14  15
ENDBRANCH  13  14
ENDBRANCH  12  13
ENDBRANCH  11  12
ENDBRANCH  10  11
ENDBRANCH   9  10
ENDBRANCH   1   9
TORSDOF 13
ENDMDL
MODEL 2
REMARK VINA RESULT:     0.001      8.026     10.279
REMARK INTER + INTRA:          -2.445
REMARK INTER:                   0.000
REMARK INTRA:                  -2.445
REMARK UNBOUND:                -2.446
REMARK SMILES CCCCCCCCCCCCCCO
REMARK SMILES IDX 8 1 7 2 6 3 5 4 4 5 3 6 2 7 1 8 9 9 10 10 11 11 12 12 13 13
REMARK SMILES IDX 14 14 15 15
REMARK H PARENT 15 16
REMARK Flexibility Score: inf
ROOT
ATOM      1  C   UNL     1      -3.781  10.654 -46.853  1.00  0.00     0.000 C 
ENDROOT
BRANCH   1   2
ATOM      2  C   UNL     1      -2.371  10.847 -47.428  1.00  0.00    -0.000 C 
BRANCH   2   3
ATOM      3  C   UNL     1      -1.638  11.990 -46.715  1.00  0.00    -0.000 C 
BRANCH   3   4
ATOM      4  C   UNL     1      -1.137  13.036 -47.719  1.00  0.00    -0.000 C 
BRANCH   4   5
ATOM      5  C   UNL     1      -1.771  12.820 -49.100  1.00  0.00    -0.000 C 
BRANCH   5   6
ATOM      6  C   UNL     1      -2.542  14.053 -49.605  1.00  0.00    -0.000 C 
BRANCH   6   7
ATOM      7  C   UNL     1      -3.968  13.765 -50.108  1.00  0.00    -0.003 C 
ATOM      8  C   UNL     1      -4.238  12.276 -50.318  1.00  0.00     0.004 C 
ENDBRANCH   6   7
ENDBRANCH   5   6
ENDBRANCH   4   5
ENDBRANCH   3   4
ENDBRANCH   2   3
ENDBRANCH   1   2
BRANCH   1   9
ATOM      9  C   UNL     1      -4.280  11.883 -46.071  1.00  0.00     0.000 C 
BRANCH   9  10
ATOM     10  C   UNL     1      -5.376  12.704 -46.779  1.00  0.00     0.000 C 
BRANCH  10  11
ATOM     11  C   UNL     1      -5.214  14.235 -46.684  1.00  0.00     0.000 C 
BRANCH  11  12
ATOM     12  C   UNL     1      -3.971  14.709 -45.911  1.00  0.00     0.002 C 
BRANCH  12  13
ATOM     13  C   UNL     1      -3.318  15.950 -46.535  1.00  0.00     0.028 C 
BRANCH  13  14
ATOM     14  C   UNL     1      -4.293  16.674 -47.467  1.00  0.00     0.156 C 
BRANCH  14  15
ATOM     15  O   UNL     1      -3.596  17.271 -48.528  1.00  0.00    -0.396 OA
ATOM     16  H   UNL     1      -3.367  16.544 -49.163  1.00  0.00     0.210 HD
ENDBRANCH  14  15
ENDBRANCH  13  14
ENDBRANCH  12  13
ENDBRANCH  11  12
ENDBRANCH  10  11
ENDBRANCH   9  10
ENDBRANCH   1   9
TORSDOF 13
ENDMDL
MODEL 3
REMARK VINA RESULT:     0.001      4.519      6.623
REMARK INTER + INTRA:          -2.444
REMARK INTER:                   0.000
REMARK INTRA:                  -2.444
REMARK UNBOUND:                -2.446
REMARK SMILES CCCCCCCCCCCCCCO
REMARK SMILES IDX 8 1 7 2 6 3 5 4 4 5 3 6 2 7 1 8 9 9 10 10 11 11 12 12 13 13
REMARK SMILES IDX 14 14 15 15
REMARK H PARENT 15 16
REMARK Flexibility Score: inf
ROOT
ATOM      1  C   UNL     1       7.021  14.620 -47.553  1.00  0.00     0.000 C 
ENDROOT
BRANCH   1   2
ATOM      2  C   UNL     1       7.384  13.747 -48.763  1.00  0.00    -0.000 C 
BRANCH   2   3
ATOM      3  C   UNL     1       8.341  14.486 -49.706  1.00  0.00    -0.000 C 
BRANCH   3   4
ATOM      4  C   UNL     1       8.830  15.798 -49.081  1.00  0.00    -0.000 C 
BRANCH   4   5
ATOM      5  C   UNL     1      10.347  15.765 -48.850  1.00  0.00    -0.000 C 
BRANCH   5   6
ATOM      6  C   UNL     1      10.761  16.383 -47.502  1.00  0.00    -0.000 C 
BRANCH   6   7
ATOM      7  C   UNL     1       9.634  17.115 -46.752  1.00  0.00    -0.003 C 
ATOM      8  C   UNL     1       9.628  16.827 -45.252  1.00  0.00     0.004 C 
ENDBRANCH   6   7
ENDBRANCH   5   6
ENDBRANCH   4   5
ENDBRANCH   3   4
ENDBRANCH   2   3
ENDBRANCH   1   2
BRANCH   1   9
ATOM      9  C   UNL     1       7.415  13.975 -46.211  1.00  0.00     0.000 C 
BRANCH   9  10
ATOM     10  C   UNL     1       8.431  12.820 -46.318  1.00  0.00     0.000 C 
BRANCH  10  11
ATOM     11  C   UNL     1       9.860  13.158 -45.846  1.00  0.00     0.000 C 
BRANCH  11  12
ATOM     12  C   UNL     1      10.980  12.727 -46.810  1.00  0.00     0.002 C 
BRANCH  12  13
ATOM     13  C   UNL     1      10.469  11.855 -47.965  1.00  0.00     0.028 C 
BRANCH  13  14
ATOM     14  C   UNL     1      11.256  12.128 -49.250  1.00  0.00     0.156 C 
BRANCH  14  15
ATOM     15  O   UNL     1      10.509  11.735 -50.369  1.00  0.00    -0.396 OA
ATOM     16  H   UNL     1      11.119  11.784 -51.151  1.00  0.00     0.210 HD
ENDBRANCH  14  15
ENDBRANCH  13  14
ENDBRANCH  12  13
ENDBRANCH  11  12
ENDBRANCH  10  11
ENDBRANCH   9  10
ENDBRANCH   1   9
TORSDOF 13
ENDMDL
MODEL 4
REMARK VINA RESULT:     0.001      5.943      8.204
REMARK INTER + INTRA:          -2.444
REMARK INTER:                   0.000
REMARK INTRA:                  -2.444
REMARK UNBOUND:                -2.446
REMARK SMILES CCCCCCCCCCCCCCO
REMARK SMILES IDX 8 1 7 2 6 3 5 4 4 5 3 6 2 7 1 8 9 9 10 10 11 11 12 12 13 13
REMARK SMILES IDX 14 14 15 15
REMARK H PARENT 15 16
REMARK Flexibility Score: inf
ROOT
ATOM      1  C   UNL     1       2.388  14.300 -47.368  1.00  0.00     0.000 C 
ENDROOT
BRANCH   1   2
ATOM      2  C   UNL     1       1.853  14.239 -45.930  1.00  0.00    -0.000 C 
BRANCH   2   3
ATOM      3  C   UNL     1       1.188  12.886 -45.648  1.00  0.00    -0.000 C 
BRANCH   3   4
ATOM      4  C   UNL     1      -0.254  13.070 -45.163  1.00  0.00    -0.000 C 
BRANCH   4   5
ATOM      5  C   UNL     1      -0.728  14.514 -45.383  1.00  0.00    -0.000 C 
BRANCH   5   6
ATOM      6  C   UNL     1      -2.006  14.601 -46.237  1.00  0.00    -0.000 C 
BRANCH   6   7
ATOM      7  C   UNL     1      -1.901  15.521 -47.467  1.00  0.00    -0.003 C 
ATOM      8  C   UNL     1      -0.731  16.500 -47.383  1.00  0.00     0.004 C 
ENDBRANCH   6   7
ENDBRANCH   5   6
ENDBRANCH   4   5
ENDBRANCH   3   4
ENDBRANCH   2   3
ENDBRANCH   1   2
BRANCH   1   9
ATOM      9  C   UNL     1       1.784  13.212 -48.276  1.00  0.00     0.000 C 
BRANCH   9  10
ATOM     10  C   UNL     1       0.818  13.732 -49.359  1.00  0.00     0.000 C 
BRANCH  10  11
ATOM     11  C   UNL     1      -0.446  12.876 -49.577  1.00  0.00     0.000 C 
BRANCH  11  12
ATOM     12  C   UNL     1      -0.577  11.663 -48.638  1.00  0.00     0.002 C 
BRANCH  12  13
ATOM     13  C   UNL     1      -2.010  11.455 -48.129  1.00  0.00     0.028 C 
BRANCH  13  14
ATOM     14  C   UNL     1      -3.021  12.179 -49.023  1.00  0.00     0.156 C 
BRANCH  14  15
ATOM     15  O   UNL     1      -4.134  12.580 -48.269  1.00  0.00    -0.396 OA
ATOM     16  H   UNL     1      -4.094  13.571 -48.209  1.00  0.00     0.210 HD
ENDBRANCH  14  15
ENDBRANCH  13  14
ENDBRANCH  12  13
ENDBRANCH  11  12
ENDBRANCH  10  11
ENDBRANCH   9  10
ENDBRANCH   1   9
TORSDOF 13
ENDMDL
MODEL 5
REMARK VINA RESULT:     0.002      4.826      6.600
REMARK INTER + INTRA:          -2.442
REMARK INTER:                   0.000
REMARK INTRA:                  -2.442
REMARK UNBOUND:                -2.446
REMARK SMILES CCCCCCCCCCCCCCO
REMARK SMILES IDX 8 1 7 2 6 3 5 4 4 5 3 6 2 7 1 8 9 9 10 10 11 11 12 12 13 13
REMARK SMILES IDX 14 14 15 15
REMARK H PARENT 15 16
REMARK Flexibility Score: inf
ROOT
ATOM      1  C   UNL     1       7.628  20.697 -52.472  1.00  0.00     0.000 C 
ENDROOT
BRANCH   1   2
ATOM      2  C   UNL     1       6.516  21.009 -53.482  1.00  0.00    -0.000 C 
BRANCH   2   3
ATOM      3  C   UNL     1       5.216  20.285 -53.110  1.00  0.00    -0.000 C 
BRANCH   3   4
ATOM      4  C   UNL     1       5.318  19.648 -51.718  1.00  0.00    -0.000 C 
BRANCH   4   5
ATOM      5  C   UNL     1       4.327  20.298 -50.742  1.00  0.00    -0.000 C 
BRANCH   5   6
ATOM      6  C   UNL     1       4.932  20.545 -49.349  1.00  0.00    -0.000 C 
BRANCH   6   7
ATOM      7  C   UNL     1       6.304  19.888 -49.113  1.00  0.00    -0.003 C 
ATOM      8  C   UNL     1       7.268  20.779 -48.332  1.00  0.00     0.004 C 
ENDBRANCH   6   7
ENDBRANCH   5   6
ENDBRANCH   4   5
ENDBRANCH   3   4
ENDBRANCH   2   3
ENDBRANCH   1   2
BRANCH   1   9
ATOM      9  C   UNL     1       8.177  21.959 -51.780  1.00  0.00     0.000 C 
BRANCH   9  10
ATOM     10  C   UNL     1       7.273  23.204 -51.886  1.00  0.00     0.000 C 
BRANCH  10  11
ATOM     11  C   UNL     1       6.623  23.657 -50.563  1.00  0.00     0.000 C 
BRANCH  11  12
ATOM     12  C   UNL     1       5.125  23.997 -50.660  1.00  0.00     0.002 C 
BRANCH  12  13
ATOM     13  C   UNL     1       4.570  23.844 -52.082  1.00  0.00     0.028 C 
BRANCH  13  14
ATOM     14  C   UNL     1       3.062  23.579 -52.059  1.00  0.00     0.156 C 
BRANCH  14  15
ATOM     15  O   UNL     1       2.695  22.777 -53.149  1.00  0.00    -0.396 OA
ATOM     16  H   UNL     1       3.352  22.033 -53.189  1.00  0.00     0.210 HD
ENDBRANCH  14  15
ENDBRANCH  13  14
ENDBRANCH  12  13
ENDBRANCH  11  12
ENDBRANCH  10  11
ENDBRANCH   9  10
ENDBRANCH   1   9
TORSDOF 13
ENDMDL
MODEL 6
REMARK VINA RESULT:     0.002      2.295      4.600
REMARK INTER + INTRA:          -2.442
REMARK INTER:                   0.000
REMARK INTRA:                  -2.442
REMARK UNBOUND:                -2.446
REMARK SMILES CCCCCCCCCCCCCCO
REMARK SMILES IDX 8 1 7 2 6 3 5 4 4 5 3 6 2 7 1 8 9 9 10 10 11 11 12 12 13 13
REMARK SMILES IDX 14 14 15 15
REMARK H PARENT 15 16
REMARK Flexibility Score: inf
ROOT
ATOM      1  C   UNL     1       7.977  16.430 -46.547  1.00  0.00     0.000 C 
ENDROOT
BRANCH   1   2
ATOM      2  C   UNL     1       7.351  15.076 -46.184  1.00  0.00    -0.000 C 
BRANCH   2   3
ATOM      3  C   UNL     1       5.829  15.195 -46.043  1.00  0.00    -0.000 C 
BRANCH   3   4
ATOM      4  C   UNL     1       5.110  14.195 -46.957  1.00  0.00    -0.000 C 
BRANCH   4   5
ATOM      5  C   UNL     1       6.077  13.603 -47.992  1.00  0.00    -0.000 C 
BRANCH   5   6
ATOM      6  C   UNL     1       5.636  13.868 -49.443  1.00  0.00    -0.000 C 
BRANCH   6   7
ATOM      7  C   UNL     1       6.718  14.491 -50.344  1.00  0.00    -0.003 C 
ATOM      8  C   UNL     1       8.123  14.381 -49.755  1.00  0.00     0.004 C 
ENDBRANCH   6   7
ENDBRANCH   5   6
ENDBRANCH   4   5
ENDBRANCH   3   4
ENDBRANCH   2   3
ENDBRANCH   1   2
BRANCH   1   9
ATOM      9  C   UNL     1       6.944  17.443 -47.075  1.00  0.00     0.000 C 
BRANCH   9  10
ATOM     10  C   UNL     1       7.073  17.780 -48.574  1.00  0.00     0.000 C 
BRANCH  10  11
ATOM     11  C   UNL     1       5.738  17.900 -49.337  1.00  0.00     0.000 C 
BRANCH  11  12
ATOM     12  C   UNL     1       4.485  17.560 -48.508  1.00  0.00     0.002 C 
BRANCH  12  13
ATOM     13  C   UNL     1       3.412  16.827 -49.324  1.00  0.00     0.028 C 
BRANCH  13  14
ATOM     14  C   UNL     1       3.711  16.908 -50.824  1.00  0.00     0.156 C 
BRANCH  14  15
ATOM     15  O   UNL     1       3.348  15.709 -51.455  1.00  0.00    -0.396 OA
ATOM     16  H   UNL     1       3.888  15.651 -52.286  1.00  0.00     0.210 HD
ENDBRANCH  14  15
ENDBRANCH  13  14
ENDBRANCH  12  13
ENDBRANCH  11  12
ENDBRANCH  10  11
ENDBRANCH   9  10
ENDBRANCH   1   9
TORSDOF 13
ENDMDL
MODEL 7
REMARK VINA RESULT:     0.002      7.120      8.894
REMARK INTER + INTRA:          -2.442
REMARK INTER:                   0.000
REMARK INTRA:                  -2.442
REMARK UNBOUND:                -2.446
REMARK SMILES CCCCCCCCCCCCCCO
REMARK SMILES IDX 8 1 7 2 6 3 5 4 4 5 3 6 2 7 1 8 9 9 10 10 11 11 12 12 13 13
REMARK SMILES IDX 14 14 15 15
REMARK H PARENT 15 16
REMARK Flexibility Score: inf
ROOT
ATOM      1  C   UNL     1      -2.329   8.065 -52.687  1.00  0.00     0.000 C 
ENDROOT
BRANCH   1   2
ATOM      2  C   UNL     1      -1.745   7.213 -51.552  1.00  0.00    -0.000 C 
BRANCH   2   3
ATOM      3  C   UNL     1      -1.394   8.082 -50.338  1.00  0.00    -0.000 C 
BRANCH   3   4
ATOM      4  C   UNL     1       0.070   7.889 -49.924  1.00  0.00    -0.000 C 
BRANCH   4   5
ATOM      5  C   UNL     1       0.857   7.155 -51.019  1.00  0.00    -0.000 C 
BRANCH   5   6
ATOM      6  C   UNL     1       2.065   7.961 -51.531  1.00  0.00    -0.000 C 
BRANCH   6   7
ATOM      7  C   UNL     1       2.176   8.057 -53.063  1.00  0.00    -0.003 C 
ATOM      8  C   UNL     1       1.240   7.093 -53.792  1.00  0.00     0.004 C 
ENDBRANCH   6   7
ENDBRANCH   5   6
ENDBRANCH   4   5
ENDBRANCH   3   4
ENDBRANCH   2   3
ENDBRANCH   1   2
BRANCH   1   9
ATOM      9  C   UNL     1      -2.006   9.563 -52.537  1.00  0.00     0.000 C 
BRANCH   9  10
ATOM     10  C   UNL     1      -0.961  10.106 -53.532  1.00  0.00     0.000 C 
BRANCH  10  11
ATOM     11  C   UNL     1       0.084  11.065 -52.928  1.00  0.00     0.000 C 
BRANCH  11  12
ATOM     12  C   UNL     1      -0.076  11.334 -51.421  1.00  0.00     0.002 C 
BRANCH  12  13
ATOM     13  C   UNL     1       1.268  11.463 -50.692  1.00  0.00     0.028 C 
BRANCH  13  14
ATOM     14  C   UNL     1       2.386  11.851 -51.664  1.00  0.00     0.156 C 
BRANCH  14  15
ATOM     15  O   UNL     1       3.566  11.164 -51.345  1.00  0.00    -0.396 OA
ATOM     16  H   UNL     1       4.319  11.736 -51.648  1.00  0.00     0.210 HD
ENDBRANCH  14  15
ENDBRANCH  13  14
ENDBRANCH  12  13
ENDBRANCH  11  12
ENDBRANCH  10  11
ENDBRANCH   9  10
ENDBRANCH   1   9
TORSDOF 13
ENDMDL
MODEL 8
REMARK VINA RESULT:     0.008      7.874     10.192
REMARK INTER + INTRA:          -2.432
REMARK INTER:                   0.000
REMARK INTRA:                  -2.432
REMARK UNBOUND:                -2.446
REMARK SMILES CCCCCCCCCCCCCCO
REMARK SMILES IDX 8 1 7 2 6 3 5 4 4 5 3 6 2 7 1 8 9 9 10 10 11 11 12 12 13 13
REMARK SMILES IDX 14 14 15 15
REMARK H PARENT 15 16
REMARK Flexibility Score: inf
ROOT
ATOM      1  C   UNL     1       3.517  14.791 -40.335  1.00  0.00     0.000 C 
ENDROOT
BRANCH   1   2
ATOM      2  C   UNL     1       4.241  13.841 -39.371  1.00  0.00    -0.000 C 
BRANCH   2   3
ATOM      3  C   UNL     1       5.688  13.601 -39.821  1.00  0.00    -0.000 C 
BRANCH   3   4
ATOM      4  C   UNL     1       5.980  12.103 -39.967  1.00  0.00    -0.000 C 
BRANCH   4   5
ATOM      5  C   UNL     1       4.677  11.297 -40.068  1.00  0.00    -0.000 C 
BRANCH   5   6
ATOM      6  C   UNL     1       4.494  10.623 -41.441  1.00  0.00    -0.000 C 
BRANCH   6   7
ATOM      7  C   UNL     1       3.059  10.664 -41.995  1.00  0.00    -0.003 C 
ATOM      8  C   UNL     1       2.077  11.372 -41.063  1.00  0.00     0.004 C 
ENDBRANCH   6   7
ENDBRANCH   5   6
ENDBRANCH   4   5
ENDBRANCH   3   4
ENDBRANCH   2   3
ENDBRANCH   1   2
BRANCH   1   9
ATOM      9  C   UNL     1       4.260  14.967 -41.672  1.00  0.00     0.000 C 
BRANCH   9  10
ATOM     10  C   UNL     1       3.595  14.278 -42.880  1.00  0.00     0.000 C 
BRANCH  10  11
ATOM     11  C   UNL     1       4.558  13.520 -43.816  1.00  0.00     0.000 C 
BRANCH  11  12
ATOM     12  C   UNL     1       6.053  13.755 -43.535  1.00  0.00     0.002 C 
BRANCH  12  13
ATOM     13  C   UNL     1       6.879  12.462 -43.584  1.00  0.00     0.028 C 
BRANCH  13  14
ATOM     14  C   UNL     1       8.258  12.666 -42.951  1.00  0.00     0.156 C 
BRANCH  14  15
ATOM     15  O   UNL     1       8.287  13.867 -42.229  1.00  0.00    -0.396 OA
ATOM     16  H   UNL     1       7.701  13.738 -41.438  1.00  0.00     0.210 HD
ENDBRANCH  14  15
ENDBRANCH  13  14
ENDBRANCH  12  13
ENDBRANCH  11  12
ENDBRANCH  10  11
ENDBRANCH   9  10
ENDBRANCH   1   9
TORSDOF 13
ENDMDL
MODEL 9
REMARK VINA RESULT:     0.010      5.123      7.003
REMARK INTER + INTRA:          -2.428
REMARK INTER:                   0.000
REMARK INTRA:                  -2.428
REMARK UNBOUND:                -2.446
REMARK SMILES CCCCCCCCCCCCCCO
REMARK SMILES IDX 8 1 7 2 6 3 5 4 4 5 3 6 2 7 1 8 9 9 10 10 11 11 12 12 13 13
REMARK SMILES IDX 14 14 15 15
REMARK H PARENT 15 16
REMARK Flexibility Score: inf
ROOT
ATOM      1  C   UNL     1      -0.241   9.386 -53.347  1.00  0.00     0.000 C 
ENDROOT
BRANCH   1   2
ATOM      2  C   UNL     1       0.343   8.534 -52.211  1.00  0.00    -0.000 C 
BRANCH   2   3
ATOM      3  C   UNL     1       0.712   9.406 -51.005  1.00  0.00    -0.000 C 
BRANCH   3   4
ATOM      4  C   UNL     1       2.179   9.204 -50.606  1.00  0.00    -0.000 C 
BRANCH   4   5
ATOM      5  C   UNL     1       2.956   8.480 -51.715  1.00  0.00    -0.000 C 
BRANCH   5   6
ATOM      6  C   UNL     1       4.139   9.304 -52.254  1.00  0.00    -0.000 C 
BRANCH   6   7
ATOM      7  C   UNL     1       4.243   9.358 -53.789  1.00  0.00    -0.003 C 
ATOM      8  C   UNL     1       3.291   8.389 -54.488  1.00  0.00     0.004 C 
ENDBRANCH   6   7
ENDBRANCH   5   6
ENDBRANCH   4   5
ENDBRANCH   3   4
ENDBRANCH   2   3
ENDBRANCH   1   2
BRANCH   1   9
ATOM      9  C   UNL     1       0.082  10.884 -53.197  1.00  0.00     0.000 C 
BRANCH   9  10
ATOM     10  C   UNL     1       1.112  11.431 -54.205  1.00  0.00     0.000 C 
BRANCH  10  11
ATOM     11  C   UNL     1       2.183  12.367 -53.607  1.00  0.00     0.000 C 
BRANCH  11  12
ATOM     12  C   UNL     1       2.026  12.654 -52.103  1.00  0.00     0.002 C 
BRANCH  12  13
ATOM     13  C   UNL     1       3.372  12.805 -51.381  1.00  0.00     0.028 C 
BRANCH  13  14
ATOM     14  C   UNL     1       4.441  13.368 -52.322  1.00  0.00     0.156 C 
BRANCH  14  15
ATOM     15  O   UNL     1       5.579  12.550 -52.308  1.00  0.00    -0.396 OA
ATOM     16  H   UNL     1       6.352  13.134 -52.522  1.00  0.00     0.210 HD
ENDBRANCH  14  15
ENDBRANCH  13  14
ENDBRANCH  12  13
ENDBRANCH  11  12
ENDBRANCH  10  11
ENDBRANCH   9  10
ENDBRANCH   1   9
TORSDOF 13
ENDMDL
