MODEL 1
REMARK VINA RESULT:    -3.976      0.000      0.000
REMARK INTER + INTRA:          -5.582
REMARK INTER:                  -5.370
REMARK INTRA:                  -0.212
REMARK UNBOUND:                -0.212
REMARK SMILES COc1ccc(-c2cc(=O)c3c(OC)c(OC)c(OC)c(OC)c3o2)cc1
REMARK SMILES IDX 7 1 8 2 9 3 10 4 11 5 24 6 25 7 21 8 18 9 15 10 12 11 6 12
REMARK SMILES IDX 3 13 4 14 27 15 5 16 26 17 2 18 1 19 22 20 23 21 13 22 14 23
REMARK SMILES IDX 19 24 20 25 16 26 17 27
REMARK H PARENT
REMARK Flexibility Score: inf
ROOT
ATOM      1  C   UNL     1      35.480  -3.730  48.640  1.00  0.00     0.138 A 
ATOM      2  C   UNL     1      34.749  -2.538  48.541  1.00  0.00     0.100 A 
ATOM      3  C   UNL     1      34.570  -1.948  47.290  1.00  0.00     0.197 A 
ATOM      4  O   UNL     1      33.913  -0.875  47.214  1.00  0.00    -0.289 OA
ATOM      5  C   UNL     1      35.131  -2.553  46.145  1.00  0.00     0.115 A 
ATOM      6  C   UNL     1      35.861  -3.747  46.325  1.00  0.00     0.188 A 
ATOM      7  O   UNL     1      36.000  -4.269  47.542  1.00  0.00    -0.452 OA
ATOM      8  C   UNL     1      36.440  -4.411  45.238  1.00  0.00     0.209 A 
ATOM      9  C   UNL     1      36.321  -3.867  43.933  1.00  0.00     0.211 A 
ATOM     10  C   UNL     1      35.627  -2.643  43.753  1.00  0.00     0.208 A 
ATOM     11  C   UNL     1      34.981  -2.025  44.846  1.00  0.00     0.179 A 
ENDROOT
BRANCH   1  12
ATOM     12  C   UNL     1      35.704  -4.408  49.943  1.00  0.00     0.018 A 
ATOM     13  C   UNL     1      36.062  -5.690  52.434  1.00  0.00     0.118 A 
ATOM     14  C   UNL     1      37.120  -4.976  51.843  1.00  0.00     0.047 A 
ATOM     15  C   UNL     1      34.830  -5.751  51.776  1.00  0.00     0.047 A 
ATOM     16  C   UNL     1      36.941  -4.339  50.611  1.00  0.00     0.016 A 
ATOM     17  C   UNL     1      34.648  -5.114  50.545  1.00  0.00     0.016 A 
BRANCH  13  18
ATOM     18  O   UNL     1      36.192  -6.346  53.668  1.00  0.00    -0.497 OA
ATOM     19  C   UNL     1      36.556  -7.715  53.817  1.00  0.00     0.278 C 
ENDBRANCH  13  18
ENDBRANCH   1  12
BRANCH   8  20
ATOM     20  O   UNL     1      37.125  -5.608  45.531  1.00  0.00    -0.490 OA
ATOM     21  C   UNL     1      36.947  -6.874  44.904  1.00  0.00     0.278 C 
ENDBRANCH   8  20
BRANCH  11  22
ATOM     22  O   UNL     1      34.181  -0.893  44.646  1.00  0.00    -0.492 OA
ATOM     23  C   UNL     1      32.936  -0.952  43.958  1.00  0.00     0.278 C 
ENDBRANCH  11  22
BRANCH   9  24
ATOM     24  O   UNL     1      36.913  -4.563  42.861  1.00  0.00    -0.490 OA
ATOM     25  C   UNL     1      36.280  -5.475  41.970  1.00  0.00     0.279 C 
ENDBRANCH   9  24
BRANCH  10  26
ATOM     26  O   UNL     1      35.593  -2.034  42.495  1.00  0.00    -0.490 OA
ATOM     27  C   UNL     1      36.481  -0.983  42.129  1.00  0.00     0.278 C 
ENDBRANCH  10  26
TORSDOF 6
ENDMDL
MODEL 2
REMARK VINA RESULT:    -2.915      2.975     10.087
REMARK INTER + INTRA:          -4.150
REMARK INTER:                  -3.754
REMARK INTRA:                  -0.396
REMARK UNBOUND:                -0.212
REMARK SMILES COc1ccc(-c2cc(=O)c3c(OC)c(OC)c(OC)c(OC)c3o2)cc1
REMARK SMILES IDX 7 1 8 2 9 3 10 4 11 5 24 6 25 7 21 8 18 9 15 10 12 11 6 12
REMARK SMILES IDX 3 13 4 14 27 15 5 16 26 17 2 18 1 19 22 20 23 21 13 22 14 23
REMARK SMILES IDX 19 24 20 25 16 26 17 27
REMARK H PARENT
REMARK Flexibility Score: inf
ROOT
ATOM      1  C   UNL     1      36.245  -4.316  51.402  1.00  0.00     0.138 A 
ATOM      2  C   UNL     1      36.571  -5.680  51.420  1.00  0.00     0.100 A 
ATOM      3  C   UNL     1      36.782  -6.315  52.644  1.00  0.00     0.197 A 
ATOM      4  O   UNL     1      37.077  -7.541  52.648  1.00  0.00    -0.289 OA
ATOM      5  C   UNL     1      36.672  -5.579  53.843  1.00  0.00     0.115 A 
ATOM      6  C   UNL     1      36.349  -4.209  53.743  1.00  0.00     0.188 A 
ATOM      7  O   UNL     1      36.156  -3.651  52.550  1.00  0.00    -0.452 OA
ATOM      8  C   UNL     1      36.213  -3.414  54.887  1.00  0.00     0.209 A 
ATOM      9  C   UNL     1      36.430  -3.978  56.170  1.00  0.00     0.211 A 
ATOM     10  C   UNL     1      36.799  -5.345  56.272  1.00  0.00     0.208 A 
ATOM     11  C   UNL     1      36.856  -6.154  55.116  1.00  0.00     0.179 A 
ENDROOT
BRANCH   1  12
ATOM     12  C   UNL     1      36.007  -3.582  50.132  1.00  0.00     0.018 A 
ATOM     13  C   UNL     1      35.613  -2.148  47.731  1.00  0.00     0.118 A 
ATOM     14  C   UNL     1      34.514  -2.674  48.434  1.00  0.00     0.047 A 
ATOM     15  C   UNL     1      36.901  -2.338  48.239  1.00  0.00     0.047 A 
ATOM     16  C   UNL     1      34.710  -3.381  49.624  1.00  0.00     0.016 A 
ATOM     17  C   UNL     1      37.099  -3.043  49.430  1.00  0.00     0.016 A 
BRANCH  13  18
ATOM     18  O   UNL     1      35.468  -1.433  46.533  1.00  0.00    -0.497 OA
ATOM     19  C   UNL     1      36.426  -1.426  45.479  1.00  0.00     0.278 C 
ENDBRANCH  13  18
ENDBRANCH   1  12
BRANCH   8  20
ATOM     20  O   UNL     1      35.864  -2.065  54.670  1.00  0.00    -0.490 OA
ATOM     21  C   UNL     1      36.731  -0.937  54.710  1.00  0.00     0.278 C 
ENDBRANCH   8  20
BRANCH  11  22
ATOM     22  O   UNL     1      37.084  -7.531  55.229  1.00  0.00    -0.492 OA
ATOM     23  C   UNL     1      36.045  -8.452  55.546  1.00  0.00     0.278 C 
ENDBRANCH  11  22
BRANCH   9  24
ATOM     24  O   UNL     1      36.281  -3.150  57.300  1.00  0.00    -0.490 OA
ATOM     25  C   UNL     1      35.089  -2.525  57.760  1.00  0.00     0.279 C 
ENDBRANCH   9  24
BRANCH  10  26
ATOM     26  O   UNL     1      37.125  -5.892  57.517  1.00  0.00    -0.490 OA
ATOM     27  C   UNL     1      36.160  -6.076  58.548  1.00  0.00     0.278 C 
ENDBRANCH  10  26
TORSDOF 6
ENDMDL
MODEL 3
REMARK VINA RESULT:    -2.877      3.287     10.408
REMARK INTER + INTRA:          -4.099
REMARK INTER:                  -5.125
REMARK INTRA:                   1.027
REMARK UNBOUND:                -0.212
REMARK SMILES COc1ccc(-c2cc(=O)c3c(OC)c(OC)c(OC)c(OC)c3o2)cc1
REMARK SMILES IDX 7 1 8 2 9 3 10 4 11 5 24 6 25 7 21 8 18 9 15 10 12 11 6 12
REMARK SMILES IDX 3 13 4 14 27 15 5 16 26 17 2 18 1 19 22 20 23 21 13 22 14 23
REMARK SMILES IDX 19 24 20 25 16 26 17 27
REMARK H PARENT
REMARK Flexibility Score: inf
ROOT
ATOM      1  C   UNL     1      36.264  -4.766  51.979  1.00  0.00     0.138 A 
ATOM      2  C   UNL     1      36.606  -6.108  52.201  1.00  0.00     0.100 A 
ATOM      3  C   UNL     1      36.816  -6.552  53.506  1.00  0.00     0.197 A 
ATOM      4  O   UNL     1      37.125  -7.760  53.693  1.00  0.00    -0.289 OA
ATOM      5  C   UNL     1      36.691  -5.648  54.582  1.00  0.00     0.115 A 
ATOM      6  C   UNL     1      36.353  -4.312  54.279  1.00  0.00     0.188 A 
ATOM      7  O   UNL     1      36.160  -3.939  53.016  1.00  0.00    -0.452 OA
ATOM      8  C   UNL     1      36.201  -3.358  55.292  1.00  0.00     0.209 A 
ATOM      9  C   UNL     1      36.417  -3.723  56.646  1.00  0.00     0.211 A 
ATOM     10  C   UNL     1      36.801  -5.055  56.951  1.00  0.00     0.208 A 
ATOM     11  C   UNL     1      36.873  -6.026  55.928  1.00  0.00     0.179 A 
ENDROOT
BRANCH   1  12
ATOM     12  C   UNL     1      36.025  -4.232  50.614  1.00  0.00     0.018 A 
ATOM     13  C   UNL     1      35.501  -3.230  48.025  1.00  0.00     0.118 A 
ATOM     14  C   UNL     1      36.759  -3.778  48.335  1.00  0.00     0.047 A 
ATOM     15  C   UNL     1      34.512  -3.194  49.012  1.00  0.00     0.047 A 
ATOM     16  C   UNL     1      37.016  -4.276  49.616  1.00  0.00     0.016 A 
ATOM     17  C   UNL     1      34.767  -3.694  50.293  1.00  0.00     0.016 A 
BRANCH  13  18
ATOM     18  O   UNL     1      35.195  -2.718  46.756  1.00  0.00    -0.497 OA
ATOM     19  C   UNL     1      34.639  -3.484  45.692  1.00  0.00     0.278 C 
ENDBRANCH  13  18
ENDBRANCH   1  12
BRANCH   8  20
ATOM     20  O   UNL     1      35.838  -2.060  54.877  1.00  0.00    -0.490 OA
ATOM     21  C   UNL     1      36.709  -0.959  54.642  1.00  0.00     0.278 C 
ENDBRANCH   8  20
BRANCH  11  22
ATOM     22  O   UNL     1      37.116  -7.368  56.245  1.00  0.00    -0.492 OA
ATOM     23  C   UNL     1      37.090  -7.852  57.583  1.00  0.00     0.278 C 
ENDBRANCH  11  22
BRANCH   9  24
ATOM     24  O   UNL     1      36.252  -2.738  57.640  1.00  0.00    -0.490 OA
ATOM     25  C   UNL     1      35.057  -2.412  58.340  1.00  0.00     0.279 C 
ENDBRANCH   9  24
BRANCH  10  26
ATOM     26  O   UNL     1      37.125  -5.408  58.264  1.00  0.00    -0.490 OA
ATOM     27  C   UNL     1      36.138  -5.766  59.226  1.00  0.00     0.278 C 
ENDBRANCH  10  26
TORSDOF 6
ENDMDL
