MODEL 1
REMARK VINA RESULT:    -6.236      0.000      0.000
REMARK INTER + INTRA:         -10.275
REMARK INTER:                  -8.788
REMARK INTRA:                  -1.487
REMARK UNBOUND:                -1.487
REMARK SMILES C[C@H](CO)CCC(=O)[C@@H](C)[C@H]1C(=O)C[C@@H]2[C@@H]3CC=C4C[C@@H](O)CC[C@@]4(C)[C@H]3CC[C@@]21C
REMARK SMILES IDX 6 1 5 2 2 3 1 4 3 5 4 6 7 8 8 9 9 10 10 11 11 12 12 13 30 14
REMARK SMILES IDX 13 15 14 16 15 17 29 18 31 19 16 20 28 21 27 22 17 23 25 24
REMARK SMILES IDX 18 25 19 26 24 27 26 28 20 29 23 30 21 31 22 32
REMARK H PARENT 4 7 22 33
REMARK Flexibility Score: inf
ROOT
ATOM      1  C   UNL     1     171.024 161.319 180.705  1.00  0.00     0.076 C 
ENDROOT
BRANCH   1   2
ATOM      2  C   UNL     1     171.707 161.146 179.332  1.00  0.00     0.013 C 
BRANCH   2   3
ATOM      3  C   UNL     1     172.958 160.233 179.288  1.00  0.00     0.012 C 
ATOM      4  C   UNL     1     173.576 159.990 180.670  1.00  0.00     0.010 C 
BRANCH   3   5
ATOM      5  C   UNL     1     174.014 160.735 178.280  1.00  0.00     0.159 C 
BRANCH   5   6
ATOM      6  O   UNL     1     175.228 160.056 178.454  1.00  0.00    -0.396 OA
ATOM      7  H   UNL     1     175.053 159.100 178.245  1.00  0.00     0.210 HD
ENDBRANCH   5   6
ENDBRANCH   3   5
ENDBRANCH   2   3
ENDBRANCH   1   2
BRANCH   1   8
ATOM      8  C   UNL     1     170.214 162.593 180.825  1.00  0.00     0.136 C 
ATOM      9  O   UNL     1     169.190 162.572 181.488  1.00  0.00    -0.299 OA
BRANCH   8  10
ATOM     10  C   UNL     1     170.615 163.873 180.097  1.00  0.00     0.064 C 
ATOM     11  C   UNL     1     169.368 164.755 179.899  1.00  0.00     0.017 C 
BRANCH  10  12
ATOM     12  C   UNL     1     171.764 164.704 180.785  1.00  0.00     0.072 C 
ATOM     13  C   UNL     1     172.292 164.033 182.017  1.00  0.00     0.137 C 
ATOM     14  C   UNL     1     173.079 164.975 179.972  1.00  0.00    -0.019 C 
ATOM     15  O   UNL     1     171.654 163.930 183.053  1.00  0.00    -0.299 OA
ATOM     16  C   UNL     1     173.693 163.561 181.888  1.00  0.00     0.080 C 
ATOM     17  C   UNL     1     174.033 163.829 180.409  1.00  0.00     0.007 C 
ATOM     18  C   UNL     1     173.658 166.351 180.434  1.00  0.00     0.008 C 
ATOM     19  C   UNL     1     172.871 164.995 178.441  1.00  0.00     0.012 C 
ATOM     20  C   UNL     1     175.542 164.078 180.103  1.00  0.00     0.001 C 
ATOM     21  C   UNL     1     175.116 166.577 180.024  1.00  0.00     0.005 C 
ATOM     22  C   UNL     1     176.048 165.464 180.564  1.00  0.00     0.003 C 
ATOM     23  C   UNL     1     176.410 162.985 180.741  1.00  0.00     0.031 C 
ATOM     24  C   UNL     1     177.585 165.700 180.221  1.00  0.00    -0.008 C 
ATOM     25  C   UNL     1     177.854 163.181 180.414  1.00  0.00    -0.027 C 
ATOM     26  C   UNL     1     178.408 164.397 180.246  1.00  0.00    -0.065 C 
ATOM     27  C   UNL     1     177.773 166.322 178.798  1.00  0.00     0.014 C 
ATOM     28  C   UNL     1     178.156 166.667 181.290  1.00  0.00     0.016 C 
ATOM     29  C   UNL     1     179.863 164.470 179.824  1.00  0.00     0.063 C 
ATOM     30  C   UNL     1     179.239 166.404 178.326  1.00  0.00     0.033 C 
ATOM     31  C   UNL     1     179.960 165.049 178.409  1.00  0.00     0.118 C 
BRANCH  31  32
ATOM     32  O   UNL     1     179.404 164.141 177.491  1.00  0.00    -0.393 OA
ATOM     33  H   UNL     1     178.649 163.690 177.954  1.00  0.00     0.210 HD
ENDBRANCH  31  32
ENDBRANCH  10  12
ENDBRANCH   8  10
ENDBRANCH   1   8
TORSDOF 8
ENDMDL
MODEL 2
REMARK VINA RESULT:    -6.109     14.229     17.825
REMARK INTER + INTRA:         -10.096
REMARK INTER:                  -8.608
REMARK INTRA:                  -1.488
REMARK UNBOUND:                -1.487
REMARK SMILES C[C@H](CO)CCC(=O)[C@@H](C)[C@H]1C(=O)C[C@@H]2[C@@H]3CC=C4C[C@@H](O)CC[C@@]4(C)[C@H]3CC[C@@]21C
REMARK SMILES IDX 6 1 5 2 2 3 1 4 3 5 4 6 7 8 8 9 9 10 10 11 11 12 12 13 30 14
REMARK SMILES IDX 13 15 14 16 15 17 29 18 31 19 16 20 28 21 27 22 17 23 25 24
REMARK SMILES IDX 18 25 19 26 24 27 26 28 20 29 23 30 21 31 22 32
REMARK H PARENT 4 7 22 33
REMARK Flexibility Score: inf
ROOT
ATOM      1  C   UNL     1     165.243 178.095 177.476  1.00  0.00     0.076 C 
ENDROOT
BRANCH   1   2
ATOM      2  C   UNL     1     164.160 177.132 176.946  1.00  0.00     0.013 C 
BRANCH   2   3
ATOM      3  C   UNL     1     162.855 177.778 176.418  1.00  0.00     0.012 C 
ATOM      4  C   UNL     1     161.777 176.750 176.052  1.00  0.00     0.010 C 
BRANCH   3   5
ATOM      5  C   UNL     1     163.116 178.758 175.253  1.00  0.00     0.159 C 
BRANCH   5   6
ATOM      6  O   UNL     1     163.008 180.086 175.689  1.00  0.00    -0.396 OA
ATOM      7  H   UNL     1     162.280 180.106 176.366  1.00  0.00     0.210 HD
ENDBRANCH   5   6
ENDBRANCH   3   5
ENDBRANCH   2   3
ENDBRANCH   1   2
BRANCH   1   8
ATOM      8  C   UNL     1     164.792 178.924 178.661  1.00  0.00     0.136 C 
ATOM      9  O   UNL     1     164.013 179.843 178.467  1.00  0.00    -0.299 OA
BRANCH   8  10
ATOM     10  C   UNL     1     165.328 178.674 180.068  1.00  0.00     0.064 C 
ATOM     11  C   UNL     1     165.652 180.025 180.733  1.00  0.00     0.017 C 
BRANCH  10  12
ATOM     12  C   UNL     1     164.387 177.822 181.002  1.00  0.00     0.072 C 
ATOM     13  C   UNL     1     162.951 178.236 180.894  1.00  0.00     0.137 C 
ATOM     14  C   UNL     1     164.299 176.274 180.761  1.00  0.00    -0.019 C 
ATOM     15  O   UNL     1     162.522 179.298 181.318  1.00  0.00    -0.299 OA
ATOM     16  C   UNL     1     162.075 177.206 180.282  1.00  0.00     0.080 C 
ATOM     17  C   UNL     1     163.060 176.108 179.837  1.00  0.00     0.007 C 
ATOM     18  C   UNL     1     164.030 175.584 182.137  1.00  0.00     0.008 C 
ATOM     19  C   UNL     1     165.573 175.670 180.126  1.00  0.00     0.012 C 
ATOM     20  C   UNL     1     162.473 174.663 179.780  1.00  0.00     0.001 C 
ATOM     21  C   UNL     1     163.543 174.138 182.019  1.00  0.00     0.005 C 
ATOM     22  C   UNL     1     162.251 174.028 181.172  1.00  0.00     0.003 C 
ATOM     23  C   UNL     1     161.151 174.649 179.001  1.00  0.00     0.031 C 
ATOM     24  C   UNL     1     161.670 172.549 181.085  1.00  0.00    -0.008 C 
ATOM     25  C   UNL     1     160.601 173.265 178.894  1.00  0.00    -0.027 C 
ATOM     26  C   UNL     1     160.769 172.334 179.853  1.00  0.00    -0.065 C 
ATOM     27  C   UNL     1     162.811 171.482 180.997  1.00  0.00     0.014 C 
ATOM     28  C   UNL     1     160.828 172.304 182.364  1.00  0.00     0.016 C 
ATOM     29  C   UNL     1     160.246 170.935 179.594  1.00  0.00     0.063 C 
ATOM     30  C   UNL     1     162.322 170.046 180.722  1.00  0.00     0.033 C 
ATOM     31  C   UNL     1     161.421 169.959 179.479  1.00  0.00     0.118 C 
BRANCH  31  32
ATOM     32  O   UNL     1     162.160 170.248 178.319  1.00  0.00    -0.393 OA
ATOM     33  H   UNL     1     161.551 170.736 177.704  1.00  0.00     0.210 HD
ENDBRANCH  31  32
ENDBRANCH  10  12
ENDBRANCH   8  10
ENDBRANCH   1   8
TORSDOF 8
ENDMDL
MODEL 3
REMARK VINA RESULT:    -6.095     13.894     16.823
REMARK INTER + INTRA:         -10.076
REMARK INTER:                  -8.079
REMARK INTRA:                  -1.997
REMARK UNBOUND:                -1.487
REMARK SMILES C[C@H](CO)CCC(=O)[C@@H](C)[C@H]1C(=O)C[C@@H]2[C@@H]3CC=C4C[C@@H](O)CC[C@@]4(C)[C@H]3CC[C@@]21C
REMARK SMILES IDX 6 1 5 2 2 3 1 4 3 5 4 6 7 8 8 9 9 10 10 11 11 12 12 13 30 14
REMARK SMILES IDX 13 15 14 16 15 17 29 18 31 19 16 20 28 21 27 22 17 23 25 24
REMARK SMILES IDX 18 25 19 26 24 27 26 28 20 29 23 30 21 31 22 32
REMARK H PARENT 4 7 22 33
REMARK Flexibility Score: inf
ROOT
ATOM      1  C   UNL     1     162.175 176.382 179.734  1.00  0.00     0.076 C 
ENDROOT
BRANCH   1   2
ATOM      2  C   UNL     1     161.748 177.559 180.636  1.00  0.00     0.013 C 
BRANCH   2   3
ATOM      3  C   UNL     1     162.629 178.832 180.580  1.00  0.00     0.012 C 
ATOM      4  C   UNL     1     163.378 179.106 181.890  1.00  0.00     0.010 C 
BRANCH   3   5
ATOM      5  C   UNL     1     161.838 180.073 180.114  1.00  0.00     0.159 C 
BRANCH   5   6
ATOM      6  O   UNL     1     161.775 180.125 178.715  1.00  0.00    -0.396 OA
ATOM      7  H   UNL     1     162.065 181.039 178.451  1.00  0.00     0.210 HD
ENDBRANCH   5   6
ENDBRANCH   3   5
ENDBRANCH   2   3
ENDBRANCH   1   2
BRANCH   1   8
ATOM      8  C   UNL     1     161.917 176.622 178.260  1.00  0.00     0.136 C 
ATOM      9  O   UNL     1     160.995 177.355 177.942  1.00  0.00    -0.299 OA
BRANCH   8  10
ATOM     10  C   UNL     1     162.739 175.930 177.177  1.00  0.00     0.064 C 
ATOM     11  C   UNL     1     161.878 175.772 175.911  1.00  0.00     0.017 C 
BRANCH  10  12
ATOM     12  C   UNL     1     164.104 176.631 176.821  1.00  0.00     0.072 C 
ATOM     13  C   UNL     1     164.038 178.120 176.979  1.00  0.00     0.137 C 
ATOM     14  C   UNL     1     165.374 176.270 177.671  1.00  0.00    -0.019 C 
ATOM     15  O   UNL     1     163.394 178.847 176.240  1.00  0.00    -0.299 OA
ATOM     16  C   UNL     1     164.883 178.644 178.081  1.00  0.00     0.080 C 
ATOM     17  C   UNL     1     165.419 177.371 178.766  1.00  0.00     0.007 C 
ATOM     18  C   UNL     1     166.627 176.392 176.745  1.00  0.00     0.008 C 
ATOM     19  C   UNL     1     165.328 174.852 178.285  1.00  0.00     0.012 C 
ATOM     20  C   UNL     1     166.794 177.526 179.486  1.00  0.00     0.001 C 
ATOM     21  C   UNL     1     167.954 176.446 177.505  1.00  0.00     0.005 C 
ATOM     22  C   UNL     1     167.995 177.619 178.516  1.00  0.00     0.003 C 
ATOM     23  C   UNL     1     166.788 178.756 180.403  1.00  0.00     0.031 C 
ATOM     24  C   UNL     1     169.387 177.756 179.277  1.00  0.00    -0.008 C 
ATOM     25  C   UNL     1     168.080 178.889 181.138  1.00  0.00    -0.027 C 
ATOM     26  C   UNL     1     169.263 178.507 180.617  1.00  0.00    -0.065 C 
ATOM     27  C   UNL     1     170.009 176.358 179.603  1.00  0.00     0.014 C 
ATOM     28  C   UNL     1     170.346 178.548 178.352  1.00  0.00     0.016 C 
ATOM     29  C   UNL     1     170.497 178.603 181.492  1.00  0.00     0.063 C 
ATOM     30  C   UNL     1     171.262 176.411 180.501  1.00  0.00     0.033 C 
ATOM     31  C   UNL     1     171.021 177.197 181.800  1.00  0.00     0.118 C 
BRANCH  31  32
ATOM     32  O   UNL     1     170.099 176.521 182.617  1.00  0.00    -0.393 OA
ATOM     33  H   UNL     1     169.210 176.929 182.446  1.00  0.00     0.210 HD
ENDBRANCH  31  32
ENDBRANCH  10  12
ENDBRANCH   8  10
ENDBRANCH   1   8
TORSDOF 8
ENDMDL
MODEL 4
REMARK VINA RESULT:    -6.037     13.865     17.448
REMARK INTER + INTRA:          -9.995
REMARK INTER:                  -8.707
REMARK INTRA:                  -1.288
REMARK UNBOUND:                -1.487
REMARK SMILES C[C@H](CO)CCC(=O)[C@@H](C)[C@H]1C(=O)C[C@@H]2[C@@H]3CC=C4C[C@@H](O)CC[C@@]4(C)[C@H]3CC[C@@]21C
REMARK SMILES IDX 6 1 5 2 2 3 1 4 3 5 4 6 7 8 8 9 9 10 10 11 11 12 12 13 30 14
REMARK SMILES IDX 13 15 14 16 15 17 29 18 31 19 16 20 28 21 27 22 17 23 25 24
REMARK SMILES IDX 18 25 19 26 24 27 26 28 20 29 23 30 21 31 22 32
REMARK H PARENT 4 7 22 33
REMARK Flexibility Score: inf
ROOT
ATOM      1  C   UNL     1     170.997 179.816 178.138  1.00  0.00     0.076 C 
ENDROOT
BRANCH   1   2
ATOM      2  C   UNL     1     171.714 179.644 176.784  1.00  0.00     0.013 C 
BRANCH   2   3
ATOM      3  C   UNL     1     171.069 178.661 175.776  1.00  0.00     0.012 C 
ATOM      4  C   UNL     1     171.843 177.344 175.638  1.00  0.00     0.010 C 
BRANCH   3   5
ATOM      5  C   UNL     1     170.820 179.313 174.399  1.00  0.00     0.159 C 
BRANCH   5   6
ATOM      6  O   UNL     1     169.448 179.350 174.109  1.00  0.00    -0.396 OA
ATOM      7  H   UNL     1     169.367 179.393 173.119  1.00  0.00     0.210 HD
ENDBRANCH   5   6
ENDBRANCH   3   5
ENDBRANCH   2   3
ENDBRANCH   1   2
BRANCH   1   8
ATOM      8  C   UNL     1     171.637 179.036 179.269  1.00  0.00     0.136 C 
ATOM      9  O   UNL     1     172.338 179.637 180.067  1.00  0.00    -0.299 OA
BRANCH   8  10
ATOM     10  C   UNL     1     171.474 177.524 179.397  1.00  0.00     0.064 C 
ATOM     11  C   UNL     1     172.784 176.917 179.931  1.00  0.00     0.017 C 
BRANCH  10  12
ATOM     12  C   UNL     1     170.257 177.054 180.281  1.00  0.00     0.072 C 
ATOM     13  C   UNL     1     170.066 177.916 181.491  1.00  0.00     0.137 C 
ATOM     14  C   UNL     1     168.823 177.065 179.644  1.00  0.00    -0.019 C 
ATOM     15  O   UNL     1     170.837 177.927 182.438  1.00  0.00    -0.299 OA
ATOM     16  C   UNL     1     168.814 178.712 181.469  1.00  0.00     0.080 C 
ATOM     17  C   UNL     1     168.234 178.439 180.068  1.00  0.00     0.007 C 
ATOM     18  C   UNL     1     167.995 175.911 180.296  1.00  0.00     0.008 C 
ATOM     19  C   UNL     1     168.823 176.890 178.108  1.00  0.00     0.012 C 
ATOM     20  C   UNL     1     166.682 178.553 179.950  1.00  0.00     0.001 C 
ATOM     21  C   UNL     1     166.486 176.027 180.069  1.00  0.00     0.005 C 
ATOM     22  C   UNL     1     165.923 177.371 180.595  1.00  0.00     0.003 C 
ATOM     23  C   UNL     1     166.189 179.868 180.569  1.00  0.00     0.031 C 
ATOM     24  C   UNL     1     164.344 177.502 180.444  1.00  0.00    -0.008 C 
ATOM     25  C   UNL     1     164.712 180.016 180.419  1.00  0.00    -0.027 C 
ATOM     26  C   UNL     1     163.866 178.967 180.430  1.00  0.00    -0.065 C 
ATOM     27  C   UNL     1     163.833 176.852 179.115  1.00  0.00     0.014 C 
ATOM     28  C   UNL     1     163.699 176.782 181.656  1.00  0.00     0.016 C 
ATOM     29  C   UNL     1     162.394 179.230 180.176  1.00  0.00     0.063 C 
ATOM     30  C   UNL     1     162.341 177.106 178.814  1.00  0.00     0.033 C 
ATOM     31  C   UNL     1     161.981 178.600 178.842  1.00  0.00     0.118 C 
BRANCH  31  32
ATOM     32  O   UNL     1     162.617 179.277 177.786  1.00  0.00    -0.393 OA
ATOM     33  H   UNL     1     162.026 179.191 176.993  1.00  0.00     0.210 HD
ENDBRANCH  31  32
ENDBRANCH  10  12
ENDBRANCH   8  10
ENDBRANCH   1   8
TORSDOF 8
ENDMDL
MODEL 5
REMARK VINA RESULT:    -6.023     13.538     17.270
REMARK INTER + INTRA:          -9.975
REMARK INTER:                  -9.486
REMARK INTRA:                  -0.489
REMARK UNBOUND:                -1.487
REMARK SMILES C[C@H](CO)CCC(=O)[C@@H](C)[C@H]1C(=O)C[C@@H]2[C@@H]3CC=C4C[C@@H](O)CC[C@@]4(C)[C@H]3CC[C@@]21C
REMARK SMILES IDX 6 1 5 2 2 3 1 4 3 5 4 6 7 8 8 9 9 10 10 11 11 12 12 13 30 14
REMARK SMILES IDX 13 15 14 16 15 17 29 18 31 19 16 20 28 21 27 22 17 23 25 24
REMARK SMILES IDX 18 25 19 26 24 27 26 28 20 29 23 30 21 31 22 32
REMARK H PARENT 4 7 22 33
REMARK Flexibility Score: inf
ROOT
ATOM      1  C   UNL     1     173.528 178.665 180.894  1.00  0.00     0.076 C 
ENDROOT
BRANCH   1   2
ATOM      2  C   UNL     1     174.748 179.424 180.331  1.00  0.00     0.013 C 
BRANCH   2   3
ATOM      3  C   UNL     1     176.114 178.699 180.411  1.00  0.00     0.012 C 
ATOM      4  C   UNL     1     176.461 178.217 181.825  1.00  0.00     0.010 C 
BRANCH   3   5
ATOM      5  C   UNL     1     177.260 179.539 179.806  1.00  0.00     0.159 C 
BRANCH   5   6
ATOM      6  O   UNL     1     177.482 179.184 178.468  1.00  0.00    -0.396 OA
ATOM      7  H   UNL     1     176.721 179.551 177.945  1.00  0.00     0.210 HD
ENDBRANCH   5   6
ENDBRANCH   3   5
ENDBRANCH   2   3
ENDBRANCH   1   2
BRANCH   1   8
ATOM      8  C   UNL     1     172.317 178.702 179.985  1.00  0.00     0.136 C 
ATOM      9  O   UNL     1     171.783 179.778 179.768  1.00  0.00    -0.299 OA
BRANCH   8  10
ATOM     10  C   UNL     1     171.721 177.430 179.388  1.00  0.00     0.064 C 
ATOM     11  C   UNL     1     172.808 176.341 179.327  1.00  0.00     0.017 C 
BRANCH  10  12
ATOM     12  C   UNL     1     170.442 176.879 180.124  1.00  0.00     0.072 C 
ATOM     13  C   UNL     1     170.233 177.523 181.461  1.00  0.00     0.137 C 
ATOM     14  C   UNL     1     169.042 177.081 179.443  1.00  0.00    -0.019 C 
ATOM     15  O   UNL     1     170.957 177.324 182.425  1.00  0.00    -0.299 OA
ATOM     16  C   UNL     1     169.022 178.379 181.532  1.00  0.00     0.080 C 
ATOM     17  C   UNL     1     168.499 178.390 180.083  1.00  0.00     0.007 C 
ATOM     18  C   UNL     1     168.130 175.878 179.845  1.00  0.00     0.008 C 
ATOM     19  C   UNL     1     169.109 177.181 177.902  1.00  0.00     0.012 C 
ATOM     20  C   UNL     1     166.962 178.609 179.926  1.00  0.00     0.001 C 
ATOM     21  C   UNL     1     166.641 176.116 179.583  1.00  0.00     0.005 C 
ATOM     22  C   UNL     1     166.117 177.375 180.318  1.00  0.00     0.003 C 
ATOM     23  C   UNL     1     166.503 179.819 180.750  1.00  0.00     0.031 C 
ATOM     24  C   UNL     1     164.555 177.618 180.130  1.00  0.00    -0.008 C 
ATOM     25  C   UNL     1     165.043 180.072 180.571  1.00  0.00    -0.027 C 
ATOM     26  C   UNL     1     164.148 179.087 180.361  1.00  0.00    -0.065 C 
ATOM     27  C   UNL     1     164.079 177.242 178.688  1.00  0.00     0.014 C 
ATOM     28  C   UNL     1     163.819 176.732 181.168  1.00  0.00     0.016 C 
ATOM     29  C   UNL     1     162.705 179.471 180.099  1.00  0.00     0.063 C 
ATOM     30  C   UNL     1     162.618 177.628 178.378  1.00  0.00     0.033 C 
ATOM     31  C   UNL     1     162.329 179.111 178.659  1.00  0.00     0.118 C 
BRANCH  31  32
ATOM     32  O   UNL     1     163.046 179.927 177.768  1.00  0.00    -0.393 OA
ATOM     33  H   UNL     1     163.130 180.818 178.198  1.00  0.00     0.210 HD
ENDBRANCH  31  32
ENDBRANCH  10  12
ENDBRANCH   8  10
ENDBRANCH   1   8
TORSDOF 8
ENDMDL
MODEL 6
REMARK VINA RESULT:    -6.013     12.871     15.074
REMARK INTER + INTRA:          -9.962
REMARK INTER:                 -10.487
REMARK INTRA:                   0.525
REMARK UNBOUND:                -1.487
REMARK SMILES C[C@H](CO)CCC(=O)[C@@H](C)[C@H]1C(=O)C[C@@H]2[C@@H]3CC=C4C[C@@H](O)CC[C@@]4(C)[C@H]3CC[C@@]21C
REMARK SMILES IDX 6 1 5 2 2 3 1 4 3 5 4 6 7 8 8 9 9 10 10 11 11 12 12 13 30 14
REMARK SMILES IDX 13 15 14 16 15 17 29 18 31 19 16 20 28 21 27 22 17 23 25 24
REMARK SMILES IDX 18 25 19 26 24 27 26 28 20 29 23 30 21 31 22 32
REMARK H PARENT 4 7 22 33
REMARK Flexibility Score: inf
ROOT
ATOM      1  C   UNL     1     166.012 177.773 180.284  1.00  0.00     0.076 C 
ENDROOT
BRANCH   1   2
ATOM      2  C   UNL     1     164.910 178.738 180.766  1.00  0.00     0.013 C 
BRANCH   2   3
ATOM      3  C   UNL     1     164.119 179.493 179.668  1.00  0.00     0.012 C 
ATOM      4  C   UNL     1     162.658 179.758 180.052  1.00  0.00     0.010 C 
BRANCH   3   5
ATOM      5  C   UNL     1     164.222 178.801 178.292  1.00  0.00     0.159 C 
BRANCH   5   6
ATOM      6  O   UNL     1     164.720 179.687 177.326  1.00  0.00    -0.396 OA
ATOM      7  H   UNL     1     163.976 180.305 177.096  1.00  0.00     0.210 HD
ENDBRANCH   5   6
ENDBRANCH   3   5
ENDBRANCH   2   3
ENDBRANCH   1   2
BRANCH   1   8
ATOM      8  C   UNL     1     167.411 178.200 180.681  1.00  0.00     0.136 C 
ATOM      9  O   UNL     1     167.712 179.378 180.578  1.00  0.00    -0.299 OA
BRANCH   8  10
ATOM     10  C   UNL     1     168.458 177.192 181.146  1.00  0.00     0.064 C 
ATOM     11  C   UNL     1     168.820 176.261 179.974  1.00  0.00     0.017 C 
BRANCH  10  12
ATOM     12  C   UNL     1     169.764 177.819 181.765  1.00  0.00     0.072 C 
ATOM     13  C   UNL     1     170.421 176.906 182.755  1.00  0.00     0.137 C 
ATOM     14  C   UNL     1     170.954 178.166 180.802  1.00  0.00    -0.019 C 
ATOM     15  O   UNL     1     169.946 176.647 183.850  1.00  0.00    -0.299 OA
ATOM     16  C   UNL     1     171.742 176.393 182.313  1.00  0.00     0.080 C 
ATOM     17  C   UNL     1     171.867 176.910 180.867  1.00  0.00     0.007 C 
ATOM     18  C   UNL     1     171.710 179.400 181.392  1.00  0.00     0.008 C 
ATOM     19  C   UNL     1     170.512 178.480 179.354  1.00  0.00     0.012 C 
ATOM     20  C   UNL     1     173.326 177.132 180.358  1.00  0.00     0.001 C 
ATOM     21  C   UNL     1     173.099 179.621 180.788  1.00  0.00     0.005 C 
ATOM     22  C   UNL     1     174.009 178.380 180.961  1.00  0.00     0.003 C 
ATOM     23  C   UNL     1     174.190 175.895 180.642  1.00  0.00     0.031 C 
ATOM     24  C   UNL     1     175.488 178.594 180.412  1.00  0.00    -0.008 C 
ATOM     25  C   UNL     1     175.575 176.072 180.116  1.00  0.00    -0.027 C 
ATOM     26  C   UNL     1     176.195 177.268 180.071  1.00  0.00    -0.065 C 
ATOM     27  C   UNL     1     175.502 179.457 179.106  1.00  0.00     0.014 C 
ATOM     28  C   UNL     1     176.296 179.316 181.521  1.00  0.00     0.016 C 
ATOM     29  C   UNL     1     177.567 177.341 179.430  1.00  0.00     0.063 C 
ATOM     30  C   UNL     1     176.879 179.548 178.416  1.00  0.00     0.033 C 
ATOM     31  C   UNL     1     177.490 178.164 178.141  1.00  0.00     0.118 C 
BRANCH  31  32
ATOM     32  O   UNL     1     176.725 177.473 177.186  1.00  0.00    -0.393 OA
ATOM     33  H   UNL     1     177.280 177.405 176.366  1.00  0.00     0.210 HD
ENDBRANCH  31  32
ENDBRANCH  10  12
ENDBRANCH   8  10
ENDBRANCH   1   8
TORSDOF 8
ENDMDL
MODEL 7
REMARK VINA RESULT:    -6.012     12.416     15.584
REMARK INTER + INTRA:          -9.959
REMARK INTER:                  -8.335
REMARK INTRA:                  -1.624
REMARK UNBOUND:                -1.487
REMARK SMILES C[C@H](CO)CCC(=O)[C@@H](C)[C@H]1C(=O)C[C@@H]2[C@@H]3CC=C4C[C@@H](O)CC[C@@]4(C)[C@H]3CC[C@@]21C
REMARK SMILES IDX 6 1 5 2 2 3 1 4 3 5 4 6 7 8 8 9 9 10 10 11 11 12 12 13 30 14
REMARK SMILES IDX 13 15 14 16 15 17 29 18 31 19 16 20 28 21 27 22 17 23 25 24
REMARK SMILES IDX 18 25 19 26 24 27 26 28 20 29 23 30 21 31 22 32
REMARK H PARENT 4 7 22 33
REMARK Flexibility Score: inf
ROOT
ATOM      1  C   UNL     1     176.290 177.315 177.232  1.00  0.00     0.076 C 
ENDROOT
BRANCH   1   2
ATOM      2  C   UNL     1     175.603 178.572 176.659  1.00  0.00     0.013 C 
BRANCH   2   3
ATOM      3  C   UNL     1     174.381 178.336 175.736  1.00  0.00     0.012 C 
ATOM      4  C   UNL     1     173.440 177.240 176.249  1.00  0.00     0.010 C 
BRANCH   3   5
ATOM      5  C   UNL     1     174.795 178.082 174.271  1.00  0.00     0.159 C 
BRANCH   5   6
ATOM      6  O   UNL     1     174.429 176.789 173.869  1.00  0.00    -0.396 OA
ATOM      7  H   UNL     1     175.198 176.197 174.081  1.00  0.00     0.210 HD
ENDBRANCH   5   6
ENDBRANCH   3   5
ENDBRANCH   2   3
ENDBRANCH   1   2
BRANCH   1   8
ATOM      8  C   UNL     1     177.099 177.582 178.485  1.00  0.00     0.136 C 
ATOM      9  O   UNL     1     177.870 178.528 178.490  1.00  0.00    -0.299 OA
BRANCH   8  10
ATOM     10  C   UNL     1     177.013 176.672 179.707  1.00  0.00     0.064 C 
ATOM     11  C   UNL     1     178.402 176.577 180.365  1.00  0.00     0.017 C 
BRANCH  10  12
ATOM     12  C   UNL     1     175.933 177.085 180.776  1.00  0.00     0.072 C 
ATOM     13  C   UNL     1     175.809 178.572 180.916  1.00  0.00     0.137 C 
ATOM     14  C   UNL     1     174.442 176.655 180.536  1.00  0.00    -0.019 C 
ATOM     15  O   UNL     1     176.672 179.275 181.418  1.00  0.00    -0.299 OA
ATOM     16  C   UNL     1     174.508 179.112 180.449  1.00  0.00     0.080 C 
ATOM     17  C   UNL     1     173.805 177.886 179.833  1.00  0.00     0.007 C 
ATOM     18  C   UNL     1     173.771 176.436 181.931  1.00  0.00     0.008 C 
ATOM     19  C   UNL     1     174.294 175.370 179.690  1.00  0.00     0.012 C 
ATOM     20  C   UNL     1     172.246 177.923 179.860  1.00  0.00     0.001 C 
ATOM     21  C   UNL     1     172.242 176.390 181.880  1.00  0.00     0.005 C 
ATOM     22  C   UNL     1     171.643 177.678 181.262  1.00  0.00     0.003 C 
ATOM     23  C   UNL     1     171.728 179.261 179.314  1.00  0.00     0.031 C 
ATOM     24  C   UNL     1     170.052 177.702 181.258  1.00  0.00    -0.008 C 
ATOM     25  C   UNL     1     170.236 179.294 179.286  1.00  0.00    -0.027 C 
ATOM     26  C   UNL     1     169.473 178.654 180.193  1.00  0.00    -0.065 C 
ATOM     27  C   UNL     1     169.452 176.286 180.967  1.00  0.00     0.014 C 
ATOM     28  C   UNL     1     169.590 178.184 182.657  1.00  0.00     0.016 C 
ATOM     29  C   UNL     1     167.968 178.680 180.010  1.00  0.00     0.063 C 
ATOM     30  C   UNL     1     167.923 176.272 180.763  1.00  0.00     0.033 C 
ATOM     31  C   UNL     1     167.463 177.271 179.689  1.00  0.00     0.118 C 
BRANCH  31  32
ATOM     32  O   UNL     1     167.935 176.880 178.423  1.00  0.00    -0.393 OA
ATOM     33  H   UNL     1     168.840 177.275 178.319  1.00  0.00     0.210 HD
ENDBRANCH  31  32
ENDBRANCH  10  12
ENDBRANCH   8  10
ENDBRANCH   1   8
TORSDOF 8
ENDMDL
MODEL 8
REMARK VINA RESULT:    -5.968      8.422     11.627
REMARK INTER + INTRA:          -9.898
REMARK INTER:                  -8.650
REMARK INTRA:                  -1.248
REMARK UNBOUND:                -1.487
REMARK SMILES C[C@H](CO)CCC(=O)[C@@H](C)[C@H]1C(=O)C[C@@H]2[C@@H]3CC=C4C[C@@H](O)CC[C@@]4(C)[C@H]3CC[C@@]21C
REMARK SMILES IDX 6 1 5 2 2 3 1 4 3 5 4 6 7 8 8 9 9 10 10 11 11 12 12 13 30 14
REMARK SMILES IDX 13 15 14 16 15 17 29 18 31 19 16 20 28 21 27 22 17 23 25 24
REMARK SMILES IDX 18 25 19 26 24 27 26 28 20 29 23 30 21 31 22 32
REMARK H PARENT 4 7 22 33
REMARK Flexibility Score: inf
ROOT
ATOM      1  C   UNL     1     179.758 171.393 177.907  1.00  0.00     0.076 C 
ENDROOT
BRANCH   1   2
ATOM      2  C   UNL     1     179.836 170.647 176.559  1.00  0.00     0.013 C 
BRANCH   2   3
ATOM      3  C   UNL     1     178.547 170.630 175.699  1.00  0.00     0.012 C 
ATOM      4  C   UNL     1     177.898 169.243 175.611  1.00  0.00     0.010 C 
BRANCH   3   5
ATOM      5  C   UNL     1     178.770 171.236 174.297  1.00  0.00     0.159 C 
BRANCH   5   6
ATOM      6  O   UNL     1     178.982 172.620 174.382  1.00  0.00    -0.396 OA
ATOM      7  H   UNL     1     178.399 173.040 173.695  1.00  0.00     0.210 HD
ENDBRANCH   5   6
ENDBRANCH   3   5
ENDBRANCH   2   3
ENDBRANCH   1   2
BRANCH   1   8
ATOM      8  C   UNL     1     179.268 170.530 179.052  1.00  0.00     0.136 C 
ATOM      9  O   UNL     1     180.087 170.089 179.841  1.00  0.00    -0.299 OA
BRANCH   8  10
ATOM     10  C   UNL     1     177.796 170.157 179.205  1.00  0.00     0.064 C 
ATOM     11  C   UNL     1     177.692 168.718 179.743  1.00  0.00     0.017 C 
BRANCH  10  12
ATOM     12  C   UNL     1     176.947 171.134 180.103  1.00  0.00     0.072 C 
ATOM     13  C   UNL     1     177.697 171.588 181.318  1.00  0.00     0.137 C 
ATOM     14  C   UNL     1     176.475 172.497 179.484  1.00  0.00    -0.019 C 
ATOM     15  O   UNL     1     177.968 170.854 182.255  1.00  0.00    -0.299 OA
ATOM     16  C   UNL     1     178.028 173.035 181.313  1.00  0.00     0.080 C 
ATOM     17  C   UNL     1     177.574 173.507 179.918  1.00  0.00     0.007 C 
ATOM     18  C   UNL     1     175.112 172.882 180.143  1.00  0.00     0.008 C 
ATOM     19  C   UNL     1     176.308 172.458 177.947  1.00  0.00     0.012 C 
ATOM     20  C   UNL     1     177.161 175.009 179.819  1.00  0.00     0.001 C 
ATOM     21  C   UNL     1     174.716 174.346 179.934  1.00  0.00     0.005 C 
ATOM     22  C   UNL     1     175.794 175.320 180.470  1.00  0.00     0.003 C 
ATOM     23  C   UNL     1     178.236 175.906 180.447  1.00  0.00     0.031 C 
ATOM     24  C   UNL     1     175.388 176.854 180.339  1.00  0.00    -0.008 C 
ATOM     25  C   UNL     1     177.880 177.350 180.316  1.00  0.00    -0.027 C 
ATOM     26  C   UNL     1     176.609 177.795 180.335  1.00  0.00    -0.065 C 
ATOM     27  C   UNL     1     174.602 177.134 179.015  1.00  0.00     0.014 C 
ATOM     28  C   UNL     1     174.496 177.205 181.557  1.00  0.00     0.016 C 
ATOM     29  C   UNL     1     176.363 179.273 180.099  1.00  0.00     0.063 C 
ATOM     30  C   UNL     1     174.341 178.628 178.732  1.00  0.00     0.033 C 
ATOM     31  C   UNL     1     175.629 179.467 178.769  1.00  0.00     0.118 C 
BRANCH  31  32
ATOM     32  O   UNL     1     176.477 179.108 177.707  1.00  0.00    -0.393 OA
ATOM     33  H   UNL     1     175.957 179.227 176.870  1.00  0.00     0.210 HD
ENDBRANCH  31  32
ENDBRANCH  10  12
ENDBRANCH   8  10
ENDBRANCH   1   8
TORSDOF 8
ENDMDL
MODEL 9
REMARK VINA RESULT:    -5.947     15.590     18.672
REMARK INTER + INTRA:          -9.869
REMARK INTER:                  -8.414
REMARK INTRA:                  -1.455
REMARK UNBOUND:                -1.487
REMARK SMILES C[C@H](CO)CCC(=O)[C@@H](C)[C@H]1C(=O)C[C@@H]2[C@@H]3CC=C4C[C@@H](O)CC[C@@]4(C)[C@H]3CC[C@@]21C
REMARK SMILES IDX 6 1 5 2 2 3 1 4 3 5 4 6 7 8 8 9 9 10 10 11 11 12 12 13 30 14
REMARK SMILES IDX 13 15 14 16 15 17 29 18 31 19 16 20 28 21 27 22 17 23 25 24
REMARK SMILES IDX 18 25 19 26 24 27 26 28 20 29 23 30 21 31 22 32
REMARK H PARENT 4 7 22 33
REMARK Flexibility Score: inf
ROOT
ATOM      1  C   UNL     1     163.981 176.892 181.499  1.00  0.00     0.076 C 
ENDROOT
BRANCH   1   2
ATOM      2  C   UNL     1     164.590 178.308 181.427  1.00  0.00     0.013 C 
BRANCH   2   3
ATOM      3  C   UNL     1     163.632 179.455 181.018  1.00  0.00     0.012 C 
ATOM      4  C   UNL     1     162.190 179.234 181.489  1.00  0.00     0.010 C 
BRANCH   3   5
ATOM      5  C   UNL     1     163.690 179.756 179.505  1.00  0.00     0.159 C 
BRANCH   5   6
ATOM      6  O   UNL     1     164.908 179.324 178.959  1.00  0.00    -0.396 OA
ATOM      7  H   UNL     1     165.555 180.069 179.081  1.00  0.00     0.210 HD
ENDBRANCH   5   6
ENDBRANCH   3   5
ENDBRANCH   2   3
ENDBRANCH   1   2
BRANCH   1   8
ATOM      8  C   UNL     1     164.341 176.015 180.318  1.00  0.00     0.136 C 
ATOM      9  O   UNL     1     165.234 176.380 179.571  1.00  0.00    -0.299 OA
BRANCH   8  10
ATOM     10  C   UNL     1     163.581 174.727 180.011  1.00  0.00     0.064 C 
ATOM     11  C   UNL     1     163.037 174.136 181.325  1.00  0.00     0.017 C 
BRANCH  10  12
ATOM     12  C   UNL     1     162.418 174.870 178.958  1.00  0.00     0.072 C 
ATOM     13  C   UNL     1     161.678 176.165 179.099  1.00  0.00     0.137 C 
ATOM     14  C   UNL     1     162.788 174.871 177.432  1.00  0.00    -0.019 C 
ATOM     15  O   UNL     1     160.946 176.423 180.042  1.00  0.00    -0.299 OA
ATOM     16  C   UNL     1     161.860 177.089 177.951  1.00  0.00     0.080 C 
ATOM     17  C   UNL     1     162.913 176.379 177.078  1.00  0.00     0.007 C 
ATOM     18  C   UNL     1     161.596 174.239 176.645  1.00  0.00     0.008 C 
ATOM     19  C   UNL     1     164.085 174.096 177.106  1.00  0.00     0.012 C 
ATOM     20  C   UNL     1     162.847 176.703 175.553  1.00  0.00     0.001 C 
ATOM     21  C   UNL     1     161.635 174.513 175.139  1.00  0.00     0.005 C 
ATOM     22  C   UNL     1     161.659 176.030 174.827  1.00  0.00     0.003 C 
ATOM     23  C   UNL     1     162.785 178.219 175.325  1.00  0.00     0.031 C 
ATOM     24  C   UNL     1     161.626 176.360 173.270  1.00  0.00    -0.008 C 
ATOM     25  C   UNL     1     162.773 178.547 173.869  1.00  0.00    -0.027 C 
ATOM     26  C   UNL     1     162.196 177.755 172.944  1.00  0.00    -0.065 C 
ATOM     27  C   UNL     1     162.463 175.330 172.441  1.00  0.00     0.014 C 
ATOM     28  C   UNL     1     160.145 176.312 172.816  1.00  0.00     0.016 C 
ATOM     29  C   UNL     1     162.327 178.143 171.485  1.00  0.00     0.063 C 
ATOM     30  C   UNL     1     162.629 175.695 170.952  1.00  0.00     0.033 C 
ATOM     31  C   UNL     1     163.190 177.112 170.752  1.00  0.00     0.118 C 
BRANCH  31  32
ATOM     32  O   UNL     1     164.512 177.185 171.225  1.00  0.00    -0.393 OA
ATOM     33  H   UNL     1     164.595 176.514 171.953  1.00  0.00     0.210 HD
ENDBRANCH  31  32
ENDBRANCH  10  12
ENDBRANCH   8  10
ENDBRANCH   1   8
TORSDOF 8
ENDMDL
