MODEL 1
REMARK VINA RESULT:    -3.329      0.000      0.000
REMARK INTER + INTRA:          -6.160
REMARK INTER:                  -5.081
REMARK INTRA:                  -1.079
REMARK UNBOUND:                -1.079
REMARK SMILES CCCCCCCCCCC(=O)[O-]
REMARK SMILES IDX 7 1 8 2 9 3 10 4 11 5 12 6 13 7 6 8 5 9 4 10 3 11 2 12 1 13
REMARK H PARENT
REMARK Flexibility Score: inf
ROOT
ATOM      1  C   UNL     1     -95.278 148.086 240.258  1.00  0.00     0.000 C 
ENDROOT
BRANCH   1   2
ATOM      2  C   UNL     1     -95.209 149.600 240.012  1.00  0.00     0.000 C 
BRANCH   2   3
ATOM      3  C   UNL     1     -96.544 150.273 240.348  1.00  0.00     0.006 C 
BRANCH   3   4
ATOM      4  C   UNL     1     -97.610 149.234 240.704  1.00  0.00     0.053 C 
BRANCH   4   5
ATOM      5  C   UNL     1     -98.119 149.459 242.093  1.00  0.00     0.041 C 
ATOM      6  O   UNL     1     -98.077 148.530 242.942  1.00  0.00    -0.550 OA
ATOM      7  O   UNL     1     -98.594 150.710 242.464  1.00  0.00    -0.550 OA
ENDBRANCH   4   5
ENDBRANCH   3   4
ENDBRANCH   2   3
ENDBRANCH   1   2
BRANCH   1   8
ATOM      8  C   UNL     1     -94.528 147.274 239.190  1.00  0.00     0.000 C 
BRANCH   8   9
ATOM      9  C   UNL     1     -93.821 148.168 238.155  1.00  0.00    -0.000 C 
BRANCH   9  10
ATOM     10  C   UNL     1     -93.847 147.567 236.741  1.00  0.00    -0.000 C 
BRANCH  10  11
ATOM     11  C   UNL     1     -95.034 148.067 235.904  1.00  0.00    -0.000 C 
BRANCH  11  12
ATOM     12  C   UNL     1     -95.473 149.464 236.356  1.00  0.00    -0.003 C 
ATOM     13  C   UNL     1     -96.967 149.501 236.663  1.00  0.00     0.004 C 
ENDBRANCH  11  12
ENDBRANCH  10  11
ENDBRANCH   9  10
ENDBRANCH   8   9
ENDBRANCH   1   8
TORSDOF 9
ENDMDL
MODEL 2
REMARK VINA RESULT:    -3.293      1.129      1.562
REMARK INTER + INTRA:          -6.105
REMARK INTER:                  -4.781
REMARK INTRA:                  -1.324
REMARK UNBOUND:                -1.079
REMARK SMILES CCCCCCCCCCC(=O)[O-]
REMARK SMILES IDX 7 1 8 2 9 3 10 4 11 5 12 6 13 7 6 8 5 9 4 10 3 11 2 12 1 13
REMARK H PARENT
REMARK Flexibility Score: inf
ROOT
ATOM      1  C   UNL     1     -95.401 148.147 240.259  1.00  0.00     0.000 C 
ENDROOT
BRANCH   1   2
ATOM      2  C   UNL     1     -96.749 148.703 240.741  1.00  0.00     0.000 C 
BRANCH   2   3
ATOM      3  C   UNL     1     -96.811 150.224 240.562  1.00  0.00     0.006 C 
BRANCH   3   4
ATOM      4  C   UNL     1     -98.259 150.704 240.425  1.00  0.00     0.053 C 
BRANCH   4   5
ATOM      5  C   UNL     1     -99.058 150.309 241.627  1.00  0.00     0.041 C 
ATOM      6  O   UNL     1    -100.088 149.596 241.497  1.00  0.00    -0.550 OA
ATOM      7  O   UNL     1     -98.638 150.687 242.895  1.00  0.00    -0.550 OA
ENDBRANCH   4   5
ENDBRANCH   3   4
ENDBRANCH   2   3
ENDBRANCH   1   2
BRANCH   1   8
ATOM      8  C   UNL     1     -94.524 149.214 239.585  1.00  0.00     0.000 C 
BRANCH   8   9
ATOM      9  C   UNL     1     -93.929 148.733 238.249  1.00  0.00    -0.000 C 
BRANCH   9  10
ATOM     10  C   UNL     1     -95.010 148.301 237.245  1.00  0.00    -0.000 C 
BRANCH  10  11
ATOM     11  C   UNL     1     -95.742 149.493 236.610  1.00  0.00    -0.000 C 
BRANCH  11  12
ATOM     12  C   UNL     1     -97.244 149.438 236.914  1.00  0.00    -0.003 C 
ATOM     13  C   UNL     1     -97.694 148.013 237.219  1.00  0.00     0.004 C 
ENDBRANCH  11  12
ENDBRANCH  10  11
ENDBRANCH   9  10
ENDBRANCH   8   9
ENDBRANCH   1   8
TORSDOF 9
ENDMDL
MODEL 3
REMARK VINA RESULT:    -3.223      2.864      4.756
REMARK INTER + INTRA:          -5.997
REMARK INTER:                  -4.942
REMARK INTRA:                  -1.056
REMARK UNBOUND:                -1.079
REMARK SMILES CCCCCCCCCCC(=O)[O-]
REMARK SMILES IDX 7 1 8 2 9 3 10 4 11 5 12 6 13 7 6 8 5 9 4 10 3 11 2 12 1 13
REMARK H PARENT
REMARK Flexibility Score: inf
ROOT
ATOM      1  C   UNL     1     -94.333 148.893 239.115  1.00  0.00     0.000 C 
ENDROOT
BRANCH   1   2
ATOM      2  C   UNL     1     -93.786 147.987 238.001  1.00  0.00     0.000 C 
BRANCH   2   3
ATOM      3  C   UNL     1     -94.506 148.253 236.674  1.00  0.00     0.006 C 
BRANCH   3   4
ATOM      4  C   UNL     1     -95.355 149.525 236.753  1.00  0.00     0.053 C 
BRANCH   4   5
ATOM      5  C   UNL     1     -96.787 149.220 236.444  1.00  0.00     0.041 C 
ATOM      6  O   UNL     1     -97.443 149.970 235.674  1.00  0.00    -0.550 OA
ATOM      7  O   UNL     1     -97.383 148.079 236.967  1.00  0.00    -0.550 OA
ENDBRANCH   4   5
ENDBRANCH   3   4
ENDBRANCH   2   3
ENDBRANCH   1   2
BRANCH   1   8
ATOM      8  C   UNL     1     -95.160 148.122 240.156  1.00  0.00     0.000 C 
BRANCH   8   9
ATOM      9  C   UNL     1     -96.528 148.773 240.424  1.00  0.00    -0.000 C 
BRANCH   9  10
ATOM     10  C   UNL     1     -96.466 150.309 240.396  1.00  0.00    -0.000 C 
BRANCH  10  11
ATOM     11  C   UNL     1     -97.858 150.960 240.391  1.00  0.00    -0.000 C 
BRANCH  11  12
ATOM     12  C   UNL     1     -98.824 150.181 239.491  1.00  0.00    -0.003 C 
ATOM     13  C   UNL     1     -99.436 151.085 238.426  1.00  0.00     0.004 C 
ENDBRANCH  11  12
ENDBRANCH  10  11
ENDBRANCH   9  10
ENDBRANCH   8   9
ENDBRANCH   1   8
TORSDOF 9
ENDMDL
MODEL 4
REMARK VINA RESULT:    -3.190      1.606      2.773
REMARK INTER + INTRA:          -5.948
REMARK INTER:                  -5.369
REMARK INTRA:                  -0.579
REMARK UNBOUND:                -1.079
REMARK SMILES CCCCCCCCCCC(=O)[O-]
REMARK SMILES IDX 7 1 8 2 9 3 10 4 11 5 12 6 13 7 6 8 5 9 4 10 3 11 2 12 1 13
REMARK H PARENT
REMARK Flexibility Score: inf
ROOT
ATOM      1  C   UNL     1     -97.073 150.261 240.189  1.00  0.00     0.000 C 
ENDROOT
BRANCH   1   2
ATOM      2  C   UNL     1     -97.736 149.501 241.347  1.00  0.00     0.000 C 
BRANCH   2   3
ATOM      3  C   UNL     1     -98.786 150.372 242.046  1.00  0.00     0.006 C 
BRANCH   3   4
ATOM      4  C   UNL     1     -98.711 150.210 243.567  1.00  0.00     0.053 C 
BRANCH   4   5
ATOM      5  C   UNL     1     -99.401 151.348 244.250  1.00  0.00     0.041 C 
ATOM      6  O   UNL     1     -98.738 152.176 244.928  1.00  0.00    -0.550 OA
ATOM      7  O   UNL     1    -100.771 151.523 244.097  1.00  0.00    -0.550 OA
ENDBRANCH   4   5
ENDBRANCH   3   4
ENDBRANCH   2   3
ENDBRANCH   1   2
BRANCH   1   8
ATOM      8  C   UNL     1     -95.583 149.919 240.029  1.00  0.00     0.000 C 
BRANCH   8   9
ATOM      9  C   UNL     1     -95.295 148.421 240.232  1.00  0.00    -0.000 C 
BRANCH   9  10
ATOM     10  C   UNL     1     -94.586 147.787 239.024  1.00  0.00    -0.000 C 
BRANCH  10  11
ATOM     11  C   UNL     1     -94.109 148.830 238.002  1.00  0.00    -0.000 C 
BRANCH  11  12
ATOM     12  C   UNL     1     -94.705 148.552 236.617  1.00  0.00    -0.003 C 
ATOM     13  C   UNL     1     -95.827 149.533 236.292  1.00  0.00     0.004 C 
ENDBRANCH  11  12
ENDBRANCH  10  11
ENDBRANCH   9  10
ENDBRANCH   8   9
ENDBRANCH   1   8
TORSDOF 9
ENDMDL
MODEL 5
REMARK VINA RESULT:    -3.146      3.892      5.724
REMARK INTER + INTRA:          -5.880
REMARK INTER:                  -5.010
REMARK INTRA:                  -0.870
REMARK UNBOUND:                -1.079
REMARK SMILES CCCCCCCCCCC(=O)[O-]
REMARK SMILES IDX 7 1 8 2 9 3 10 4 11 5 12 6 13 7 6 8 5 9 4 10 3 11 2 12 1 13
REMARK H PARENT
REMARK Flexibility Score: inf
ROOT
ATOM      1  C   UNL     1     -94.999 149.526 237.136  1.00  0.00     0.000 C 
ENDROOT
BRANCH   1   2
ATOM      2  C   UNL     1     -96.474 149.157 236.916  1.00  0.00     0.000 C 
BRANCH   2   3
ATOM      3  C   UNL     1     -97.047 149.887 235.697  1.00  0.00     0.006 C 
BRANCH   3   4
ATOM      4  C   UNL     1     -95.949 150.637 234.937  1.00  0.00     0.053 C 
BRANCH   4   5
ATOM      5  C   UNL     1     -96.549 151.626 233.988  1.00  0.00     0.041 C 
ATOM      6  O   UNL     1     -97.312 151.236 233.066  1.00  0.00    -0.550 OA
ATOM      7  O   UNL     1     -96.304 152.983 234.152  1.00  0.00    -0.550 OA
ENDBRANCH   4   5
ENDBRANCH   3   4
ENDBRANCH   2   3
ENDBRANCH   1   2
BRANCH   1   8
ATOM      8  C   UNL     1     -94.313 148.637 238.185  1.00  0.00     0.000 C 
BRANCH   8   9
ATOM      9  C   UNL     1     -94.575 149.113 239.625  1.00  0.00    -0.000 C 
BRANCH   9  10
ATOM     10  C   UNL     1     -95.535 148.186 240.387  1.00  0.00    -0.000 C 
BRANCH  10  11
ATOM     11  C   UNL     1     -96.888 148.849 240.688  1.00  0.00    -0.000 C 
BRANCH  11  12
ATOM     12  C   UNL     1     -96.811 150.367 240.482  1.00  0.00    -0.003 C 
ATOM     13  C   UNL     1     -98.170 150.940 240.090  1.00  0.00     0.004 C 
ENDBRANCH  11  12
ENDBRANCH  10  11
ENDBRANCH   9  10
ENDBRANCH   8   9
ENDBRANCH   1   8
TORSDOF 9
ENDMDL
MODEL 6
REMARK VINA RESULT:    -3.143      3.505      5.722
REMARK INTER + INTRA:          -5.875
REMARK INTER:                  -5.246
REMARK INTRA:                  -0.629
REMARK UNBOUND:                -1.079
REMARK SMILES CCCCCCCCCCC(=O)[O-]
REMARK SMILES IDX 7 1 8 2 9 3 10 4 11 5 12 6 13 7 6 8 5 9 4 10 3 11 2 12 1 13
REMARK H PARENT
REMARK Flexibility Score: inf
ROOT
ATOM      1  C   UNL     1     -94.503 149.021 238.841  1.00  0.00     0.000 C 
ENDROOT
BRANCH   1   2
ATOM      2  C   UNL     1     -93.896 148.138 237.740  1.00  0.00     0.000 C 
BRANCH   2   3
ATOM      3  C   UNL     1     -94.667 148.293 236.425  1.00  0.00     0.006 C 
BRANCH   3   4
ATOM      4  C   UNL     1     -95.534 149.554 236.439  1.00  0.00     0.053 C 
BRANCH   4   5
ATOM      5  C   UNL     1     -95.849 149.992 235.044  1.00  0.00     0.041 C 
ATOM      6  O   UNL     1     -96.336 149.175 234.218  1.00  0.00    -0.550 OA
ATOM      7  O   UNL     1     -95.651 151.315 234.670  1.00  0.00    -0.550 OA
ENDBRANCH   4   5
ENDBRANCH   3   4
ENDBRANCH   2   3
ENDBRANCH   1   2
BRANCH   1   8
ATOM      8  C   UNL     1     -95.046 148.206 240.025  1.00  0.00     0.000 C 
BRANCH   8   9
ATOM      9  C   UNL     1     -96.380 148.757 240.560  1.00  0.00    -0.000 C 
BRANCH   9  10
ATOM     10  C   UNL     1     -96.548 150.260 240.288  1.00  0.00    -0.000 C 
BRANCH  10  11
ATOM     11  C   UNL     1     -97.950 150.776 240.646  1.00  0.00    -0.000 C 
BRANCH  11  12
ATOM     12  C   UNL     1     -98.623 149.861 241.677  1.00  0.00    -0.003 C 
ATOM     13  C   UNL     1     -98.818 150.580 243.008  1.00  0.00     0.004 C 
ENDBRANCH  11  12
ENDBRANCH  10  11
ENDBRANCH   9  10
ENDBRANCH   8   9
ENDBRANCH   1   8
TORSDOF 9
ENDMDL
MODEL 7
REMARK VINA RESULT:    -3.116      3.152      4.775
REMARK INTER + INTRA:          -5.834
REMARK INTER:                  -4.468
REMARK INTRA:                  -1.366
REMARK UNBOUND:                -1.079
REMARK SMILES CCCCCCCCCCC(=O)[O-]
REMARK SMILES IDX 7 1 8 2 9 3 10 4 11 5 12 6 13 7 6 8 5 9 4 10 3 11 2 12 1 13
REMARK H PARENT
REMARK Flexibility Score: inf
ROOT
ATOM      1  C   UNL     1     -96.907 148.702 240.712  1.00  0.00     0.000 C 
ENDROOT
BRANCH   1   2
ATOM      2  C   UNL     1     -95.619 148.118 240.114  1.00  0.00     0.000 C 
BRANCH   2   3
ATOM      3  C   UNL     1     -94.728 149.225 239.542  1.00  0.00     0.006 C 
BRANCH   3   4
ATOM      4  C   UNL     1     -94.675 149.156 238.013  1.00  0.00     0.053 C 
BRANCH   4   5
ATOM      5  C   UNL     1     -94.142 147.831 237.566  1.00  0.00     0.041 C 
ATOM      6  O   UNL     1     -94.797 147.126 236.754  1.00  0.00    -0.550 OA
ATOM      7  O   UNL     1     -92.898 147.399 238.007  1.00  0.00    -0.550 OA
ENDBRANCH   4   5
ENDBRANCH   3   4
ENDBRANCH   2   3
ENDBRANCH   1   2
BRANCH   1   8
ATOM      8  C   UNL     1     -96.900 150.239 240.754  1.00  0.00     0.000 C 
BRANCH   8   9
ATOM      9  C   UNL     1     -98.110 150.855 240.029  1.00  0.00    -0.000 C 
BRANCH   9  10
ATOM     10  C   UNL     1     -98.853 149.835 239.150  1.00  0.00    -0.000 C 
BRANCH  10  11
ATOM     11  C   UNL     1     -98.865 150.228 237.665  1.00  0.00    -0.000 C 
BRANCH  11  12
ATOM     12  C   UNL     1     -98.084 149.213 236.824  1.00  0.00    -0.003 C 
ATOM     13  C   UNL     1     -98.233 147.801 237.383  1.00  0.00     0.004 C 
ENDBRANCH  11  12
ENDBRANCH  10  11
ENDBRANCH   9  10
ENDBRANCH   8   9
ENDBRANCH   1   8
TORSDOF 9
ENDMDL
MODEL 8
REMARK VINA RESULT:    -3.101      2.218      4.793
REMARK INTER + INTRA:          -5.811
REMARK INTER:                  -4.844
REMARK INTRA:                  -0.967
REMARK UNBOUND:                -1.079
REMARK SMILES CCCCCCCCCCC(=O)[O-]
REMARK SMILES IDX 7 1 8 2 9 3 10 4 11 5 12 6 13 7 6 8 5 9 4 10 3 11 2 12 1 13
REMARK H PARENT
REMARK Flexibility Score: inf
ROOT
ATOM      1  C   UNL     1     -94.332 148.524 238.563  1.00  0.00     0.000 C 
ENDROOT
BRANCH   1   2
ATOM      2  C   UNL     1     -94.805 149.509 237.484  1.00  0.00     0.000 C 
BRANCH   2   3
ATOM      3  C   UNL     1     -95.564 148.781 236.369  1.00  0.00     0.006 C 
BRANCH   3   4
ATOM      4  C   UNL     1     -96.870 149.503 236.028  1.00  0.00     0.053 C 
BRANCH   4   5
ATOM      5  C   UNL     1     -97.875 149.314 237.119  1.00  0.00     0.041 C 
ATOM      6  O   UNL     1     -97.969 148.206 237.710  1.00  0.00    -0.550 OA
ATOM      7  O   UNL     1     -98.675 150.377 237.519  1.00  0.00    -0.550 OA
ENDBRANCH   4   5
ENDBRANCH   3   4
ENDBRANCH   2   3
ENDBRANCH   1   2
BRANCH   1   8
ATOM      8  C   UNL     1     -95.012 148.756 239.921  1.00  0.00     0.000 C 
BRANCH   8   9
ATOM      9  C   UNL     1     -95.696 150.132 240.013  1.00  0.00    -0.000 C 
BRANCH   9  10
ATOM     10  C   UNL     1     -97.085 150.057 240.667  1.00  0.00    -0.000 C 
BRANCH  10  11
ATOM     11  C   UNL     1     -97.331 148.723 241.388  1.00  0.00    -0.000 C 
BRANCH  11  12
ATOM     12  C   UNL     1     -98.253 148.917 242.597  1.00  0.00    -0.003 C 
ATOM     13  C   UNL     1     -98.590 150.390 242.804  1.00  0.00     0.004 C 
ENDBRANCH  11  12
ENDBRANCH  10  11
ENDBRANCH   9  10
ENDBRANCH   8   9
ENDBRANCH   1   8
TORSDOF 9
ENDMDL
MODEL 9
REMARK VINA RESULT:    -3.092      3.435      5.199
REMARK INTER + INTRA:          -5.798
REMARK INTER:                  -4.549
REMARK INTRA:                  -1.249
REMARK UNBOUND:                -1.079
REMARK SMILES CCCCCCCCCCC(=O)[O-]
REMARK SMILES IDX 7 1 8 2 9 3 10 4 11 5 12 6 13 7 6 8 5 9 4 10 3 11 2 12 1 13
REMARK H PARENT
REMARK Flexibility Score: inf
ROOT
ATOM      1  C   UNL     1     -95.125 148.723 239.911  1.00  0.00     0.000 C 
ENDROOT
BRANCH   1   2
ATOM      2  C   UNL     1     -94.467 148.535 238.536  1.00  0.00     0.000 C 
BRANCH   2   3
ATOM      3  C   UNL     1     -94.983 149.574 237.534  1.00  0.00     0.006 C 
BRANCH   3   4
ATOM      4  C   UNL     1     -95.332 148.920 236.194  1.00  0.00     0.053 C 
BRANCH   4   5
ATOM      5  C   UNL     1     -96.076 149.880 235.320  1.00  0.00     0.041 C 
ATOM      6  O   UNL     1     -97.281 150.155 235.562  1.00  0.00    -0.550 OA
ATOM      7  O   UNL     1     -95.424 150.509 234.268  1.00  0.00    -0.550 OA
ENDBRANCH   4   5
ENDBRANCH   3   4
ENDBRANCH   2   3
ENDBRANCH   1   2
BRANCH   1   8
ATOM      8  C   UNL     1     -95.729 150.124 240.096  1.00  0.00     0.000 C 
BRANCH   8   9
ATOM      9  C   UNL     1     -97.092 150.092 240.809  1.00  0.00    -0.000 C 
BRANCH   9  10
ATOM     10  C   UNL     1     -98.172 150.883 240.053  1.00  0.00    -0.000 C 
BRANCH  10  11
ATOM     11  C   UNL     1     -98.637 150.177 238.770  1.00  0.00    -0.000 C 
BRANCH  11  12
ATOM     12  C   UNL     1     -99.004 148.715 239.052  1.00  0.00    -0.003 C 
ATOM     13  C   UNL     1     -98.357 147.779 238.037  1.00  0.00     0.004 C 
ENDBRANCH  11  12
ENDBRANCH  10  11
ENDBRANCH   9  10
ENDBRANCH   8   9
ENDBRANCH   1   8
TORSDOF 9
ENDMDL
