MODEL 1
REMARK VINA RESULT:    -5.969      0.000      0.000
REMARK INTER + INTRA:          -6.409
REMARK INTER:                  -6.318
REMARK INTRA:                  -0.092
REMARK UNBOUND:                -0.092
REMARK SMILES C=C(C)[C@@H]1CC=C(C)C(=O)C1
REMARK SMILES IDX 8 1 7 2 6 3 5 4 4 5 11 6 9 7 10 8 2 9 1 10 3 11
REMARK H PARENT
REMARK Flexibility Score: inf
ROOT
ATOM      1  C   UNL     1      -8.632  35.119  42.947  1.00  0.00     0.048 C 
ATOM      2  C   UNL     1      -8.642  33.630  42.732  1.00  0.00    -0.012 C 
ATOM      3  C   UNL     1      -9.010  32.813  43.733  1.00  0.00    -0.019 C 
ATOM      4  C   UNL     1      -9.055  31.317  43.566  1.00  0.00     0.036 C 
ATOM      5  C   UNL     1      -7.970  30.835  42.585  1.00  0.00     0.025 C 
ATOM      6  C   UNL     1      -8.097  31.576  41.241  1.00  0.00     0.089 C 
ATOM      7  C   UNL     1      -8.130  33.064  41.459  1.00  0.00     0.158 C 
ATOM      8  O   UNL     1      -7.751  33.829  40.532  1.00  0.00    -0.295 OA
ENDROOT
BRANCH   5   9
ATOM      9  C   UNL     1      -8.011  29.324  42.399  1.00  0.00    -0.077 C 
ATOM     10  C   UNL     1      -7.697  28.487  43.402  1.00  0.00     0.008 C 
ATOM     11  C   UNL     1      -8.410  28.737  41.069  1.00  0.00     0.039 C 
ENDBRANCH   5   9
TORSDOF 1
ENDMDL
MODEL 2
REMARK VINA RESULT:    -5.953      1.920      3.339
REMARK INTER + INTRA:          -6.393
REMARK INTER:                  -6.295
REMARK INTRA:                  -0.098
REMARK UNBOUND:                -0.092
REMARK SMILES C=C(C)[C@@H]1CC=C(C)C(=O)C1
REMARK SMILES IDX 8 1 7 2 6 3 5 4 4 5 11 6 9 7 10 8 2 9 1 10 3 11
REMARK H PARENT
REMARK Flexibility Score: inf
ROOT
ATOM      1  C   UNL     1      -7.470  30.606  45.238  1.00  0.00     0.048 C 
ATOM      2  C   UNL     1      -7.890  30.279  43.831  1.00  0.00    -0.012 C 
ATOM      3  C   UNL     1      -7.915  28.999  43.421  1.00  0.00    -0.019 C 
ATOM      4  C   UNL     1      -8.344  28.615  42.030  1.00  0.00     0.036 C 
ATOM      5  C   UNL     1      -7.962  29.706  41.010  1.00  0.00     0.025 C 
ATOM      6  C   UNL     1      -8.537  31.067  41.444  1.00  0.00     0.089 C 
ATOM      7  C   UNL     1      -8.154  31.375  42.865  1.00  0.00     0.158 C 
ATOM      8  O   UNL     1      -8.096  32.577  43.239  1.00  0.00    -0.295 OA
ENDROOT
BRANCH   5   9
ATOM      9  C   UNL     1      -8.399  29.334  39.600  1.00  0.00    -0.077 C 
ATOM     10  C   UNL     1      -8.383  30.235  38.603  1.00  0.00     0.008 C 
ATOM     11  C   UNL     1      -8.862  27.932  39.297  1.00  0.00     0.039 C 
ENDBRANCH   5   9
TORSDOF 1
ENDMDL
MODEL 3
REMARK VINA RESULT:    -5.934      1.523      2.441
REMARK INTER + INTRA:          -6.372
REMARK INTER:                  -6.277
REMARK INTRA:                  -0.095
REMARK UNBOUND:                -0.092
REMARK SMILES C=C(C)[C@@H]1CC=C(C)C(=O)C1
REMARK SMILES IDX 8 1 7 2 6 3 5 4 4 5 11 6 9 7 10 8 2 9 1 10 3 11
REMARK H PARENT
REMARK Flexibility Score: inf
ROOT
ATOM      1  C   UNL     1      -9.228  34.570  40.409  1.00  0.00     0.048 C 
ATOM      2  C   UNL     1      -8.724  33.436  41.260  1.00  0.00    -0.012 C 
ATOM      3  C   UNL     1      -8.435  32.252  40.692  1.00  0.00    -0.019 C 
ATOM      4  C   UNL     1      -7.911  31.090  41.493  1.00  0.00     0.036 C 
ATOM      5  C   UNL     1      -8.482  31.099  42.924  1.00  0.00     0.025 C 
ATOM      6  C   UNL     1      -8.200  32.452  43.604  1.00  0.00     0.089 C 
ATOM      7  C   UNL     1      -8.665  33.587  42.735  1.00  0.00     0.158 C 
ATOM      8  O   UNL     1      -8.970  34.686  43.272  1.00  0.00    -0.295 OA
ENDROOT
BRANCH   5   9
ATOM      9  C   UNL     1      -7.952  29.934  43.749  1.00  0.00    -0.077 C 
ATOM     10  C   UNL     1      -7.895  28.690  43.245  1.00  0.00     0.008 C 
ATOM     11  C   UNL     1      -7.478  30.162  45.161  1.00  0.00     0.039 C 
ENDBRANCH   5   9
TORSDOF 1
ENDMDL
MODEL 4
REMARK VINA RESULT:    -5.824      1.652      4.355
REMARK INTER + INTRA:          -6.256
REMARK INTER:                  -6.159
REMARK INTRA:                  -0.097
REMARK UNBOUND:                -0.092
REMARK SMILES C=C(C)[C@@H]1CC=C(C)C(=O)C1
REMARK SMILES IDX 8 1 7 2 6 3 5 4 4 5 11 6 9 7 10 8 2 9 1 10 3 11
REMARK H PARENT
REMARK Flexibility Score: inf
ROOT
ATOM      1  C   UNL     1      -7.880  28.546  43.379  1.00  0.00     0.048 C 
ATOM      2  C   UNL     1      -7.979  29.989  42.965  1.00  0.00    -0.012 C 
ATOM      3  C   UNL     1      -8.185  30.939  43.894  1.00  0.00    -0.019 C 
ATOM      4  C   UNL     1      -8.274  32.398  43.537  1.00  0.00     0.036 C 
ATOM      5  C   UNL     1      -8.894  32.591  42.140  1.00  0.00     0.025 C 
ATOM      6  C   UNL     1      -8.110  31.780  41.090  1.00  0.00     0.089 C 
ATOM      7  C   UNL     1      -7.974  30.347  41.524  1.00  0.00     0.158 C 
ATOM      8  O   UNL     1      -7.817  29.453  40.650  1.00  0.00    -0.295 OA
ENDROOT
BRANCH   5   9
ATOM      9  C   UNL     1      -8.981  34.064  41.761  1.00  0.00    -0.077 C 
ATOM     10  C   UNL     1      -9.380  34.448  40.537  1.00  0.00     0.008 C 
ATOM     11  C   UNL     1      -8.617  35.125  42.768  1.00  0.00     0.039 C 
ENDBRANCH   5   9
TORSDOF 1
ENDMDL
MODEL 5
REMARK VINA RESULT:    -5.793      1.957      4.658
REMARK INTER + INTRA:          -6.223
REMARK INTER:                  -6.128
REMARK INTRA:                  -0.095
REMARK UNBOUND:                -0.092
REMARK SMILES C=C(C)[C@@H]1CC=C(C)C(=O)C1
REMARK SMILES IDX 8 1 7 2 6 3 5 4 4 5 11 6 9 7 10 8 2 9 1 10 3 11
REMARK H PARENT
REMARK Flexibility Score: inf
ROOT
ATOM      1  C   UNL     1      -7.852  28.461  43.359  1.00  0.00     0.048 C 
ATOM      2  C   UNL     1      -8.254  29.875  43.037  1.00  0.00    -0.012 C 
ATOM      3  C   UNL     1      -8.749  30.169  41.822  1.00  0.00    -0.019 C 
ATOM      4  C   UNL     1      -9.183  31.563  41.453  1.00  0.00     0.036 C 
ATOM      5  C   UNL     1      -8.324  32.620  42.172  1.00  0.00     0.025 C 
ATOM      6  C   UNL     1      -8.348  32.384  43.694  1.00  0.00     0.089 C 
ATOM      7  C   UNL     1      -7.988  30.960  44.014  1.00  0.00     0.158 C 
ATOM      8  O   UNL     1      -7.490  30.691  45.140  1.00  0.00    -0.295 OA
ENDROOT
BRANCH   5   9
ATOM      9  C   UNL     1      -8.759  34.035  41.816  1.00  0.00    -0.077 C 
ATOM     10  C   UNL     1      -9.163  34.351  40.574  1.00  0.00     0.008 C 
ATOM     11  C   UNL     1      -8.742  35.117  42.865  1.00  0.00     0.039 C 
ENDBRANCH   5   9
TORSDOF 1
ENDMDL
MODEL 6
REMARK VINA RESULT:    -5.782      1.700      4.385
REMARK INTER + INTRA:          -6.211
REMARK INTER:                  -6.122
REMARK INTRA:                  -0.089
REMARK UNBOUND:                -0.092
REMARK SMILES C=C(C)[C@@H]1CC=C(C)C(=O)C1
REMARK SMILES IDX 8 1 7 2 6 3 5 4 4 5 11 6 9 7 10 8 2 9 1 10 3 11
REMARK H PARENT
REMARK Flexibility Score: inf
ROOT
ATOM      1  C   UNL     1      -9.015  27.704  40.012  1.00  0.00     0.048 C 
ATOM      2  C   UNL     1      -8.610  29.042  40.567  1.00  0.00    -0.012 C 
ATOM      3  C   UNL     1      -8.317  29.163  41.874  1.00  0.00    -0.019 C 
ATOM      4  C   UNL     1      -7.890  30.474  42.477  1.00  0.00     0.036 C 
ATOM      5  C   UNL     1      -8.564  31.661  41.762  1.00  0.00     0.025 C 
ATOM      6  C   UNL     1      -8.290  31.598  40.248  1.00  0.00     0.089 C 
ATOM      7  C   UNL     1      -8.655  30.246  39.700  1.00  0.00     0.158 C 
ATOM      8  O   UNL     1      -8.963  30.140  38.483  1.00  0.00    -0.295 OA
ENDROOT
BRANCH   5   9
ATOM      9  C   UNL     1      -8.132  32.995  42.357  1.00  0.00    -0.077 C 
ATOM     10  C   UNL     1      -8.841  33.588  43.331  1.00  0.00     0.008 C 
ATOM     11  C   UNL     1      -6.886  33.678  41.854  1.00  0.00     0.039 C 
ENDBRANCH   5   9
TORSDOF 1
ENDMDL
MODEL 7
REMARK VINA RESULT:    -5.781      1.540      2.136
REMARK INTER + INTRA:          -6.211
REMARK INTER:                  -6.115
REMARK INTRA:                  -0.096
REMARK UNBOUND:                -0.092
REMARK SMILES C=C(C)[C@@H]1CC=C(C)C(=O)C1
REMARK SMILES IDX 8 1 7 2 6 3 5 4 4 5 11 6 9 7 10 8 2 9 1 10 3 11
REMARK H PARENT
REMARK Flexibility Score: inf
ROOT
ATOM      1  C   UNL     1      -8.991  35.001  43.066  1.00  0.00     0.048 C 
ATOM      2  C   UNL     1      -8.624  33.553  42.890  1.00  0.00    -0.012 C 
ATOM      3  C   UNL     1      -7.906  33.170  41.820  1.00  0.00    -0.019 C 
ATOM      4  C   UNL     1      -7.497  31.737  41.605  1.00  0.00     0.036 C 
ATOM      5  C   UNL     1      -8.555  30.767  42.166  1.00  0.00     0.025 C 
ATOM      6  C   UNL     1      -8.832  31.079  43.649  1.00  0.00     0.089 C 
ATOM      7  C   UNL     1      -9.158  32.536  43.830  1.00  0.00     0.158 C 
ATOM      8  O   UNL     1      -9.860  32.889  44.815  1.00  0.00    -0.295 OA
ENDROOT
BRANCH   5   9
ATOM      9  C   UNL     1      -8.148  29.313  41.964  1.00  0.00    -0.077 C 
ATOM     10  C   UNL     1      -7.878  28.512  43.007  1.00  0.00     0.008 C 
ATOM     11  C   UNL     1      -8.042  28.745  40.572  1.00  0.00     0.039 C 
ENDBRANCH   5   9
TORSDOF 1
ENDMDL
MODEL 8
REMARK VINA RESULT:    -5.708      1.808      2.736
REMARK INTER + INTRA:          -6.133
REMARK INTER:                  -6.037
REMARK INTRA:                  -0.096
REMARK UNBOUND:                -0.092
REMARK SMILES C=C(C)[C@@H]1CC=C(C)C(=O)C1
REMARK SMILES IDX 8 1 7 2 6 3 5 4 4 5 11 6 9 7 10 8 2 9 1 10 3 11
REMARK H PARENT
REMARK Flexibility Score: inf
ROOT
ATOM      1  C   UNL     1      -8.094  33.663  38.502  1.00  0.00     0.048 C 
ATOM      2  C   UNL     1      -8.239  32.868  39.771  1.00  0.00    -0.012 C 
ATOM      3  C   UNL     1      -7.702  33.331  40.914  1.00  0.00    -0.019 C 
ATOM      4  C   UNL     1      -7.833  32.585  42.215  1.00  0.00     0.036 C 
ATOM      5  C   UNL     1      -7.866  31.062  41.982  1.00  0.00     0.025 C 
ATOM      6  C   UNL     1      -8.983  30.698  40.986  1.00  0.00     0.089 C 
ATOM      7  C   UNL     1      -8.863  31.522  39.734  1.00  0.00     0.158 C 
ATOM      8  O   UNL     1      -9.335  31.072  38.656  1.00  0.00    -0.295 OA
ENDROOT
BRANCH   5   9
ATOM      9  C   UNL     1      -8.008  30.296  43.291  1.00  0.00    -0.077 C 
ATOM     10  C   UNL     1      -8.190  30.934  44.459  1.00  0.00     0.008 C 
ATOM     11  C   UNL     1      -7.946  28.790  43.294  1.00  0.00     0.039 C 
ENDBRANCH   5   9
TORSDOF 1
ENDMDL
MODEL 9
REMARK VINA RESULT:    -5.694      2.084      4.733
REMARK INTER + INTRA:          -6.118
REMARK INTER:                  -6.030
REMARK INTRA:                  -0.089
REMARK UNBOUND:                -0.092
REMARK SMILES C=C(C)[C@@H]1CC=C(C)C(=O)C1
REMARK SMILES IDX 8 1 7 2 6 3 5 4 4 5 11 6 9 7 10 8 2 9 1 10 3 11
REMARK H PARENT
REMARK Flexibility Score: inf
ROOT
ATOM      1  C   UNL     1      -8.997  27.827  40.232  1.00  0.00     0.048 C 
ATOM      2  C   UNL     1      -8.833  29.211  40.799  1.00  0.00    -0.012 C 
ATOM      3  C   UNL     1      -8.972  30.283  39.999  1.00  0.00    -0.019 C 
ATOM      4  C   UNL     1      -8.836  31.689  40.518  1.00  0.00     0.036 C 
ATOM      5  C   UNL     1      -7.815  31.759  41.670  1.00  0.00     0.025 C 
ATOM      6  C   UNL     1      -8.193  30.761  42.781  1.00  0.00     0.089 C 
ATOM      7  C   UNL     1      -8.398  29.386  42.207  1.00  0.00     0.158 C 
ATOM      8  O   UNL     1      -8.234  28.381  42.949  1.00  0.00    -0.295 OA
ENDROOT
BRANCH   5   9
ATOM      9  C   UNL     1      -7.675  33.176  42.211  1.00  0.00    -0.077 C 
ATOM     10  C   UNL     1      -6.656  33.968  41.840  1.00  0.00     0.008 C 
ATOM     11  C   UNL     1      -8.692  33.716  43.184  1.00  0.00     0.039 C 
ENDBRANCH   5   9
TORSDOF 1
ENDMDL
