MODEL 1
REMARK VINA RESULT:    -4.530      0.000      0.000
REMARK INTER + INTRA:          -7.659
REMARK INTER:                  -7.046
REMARK INTRA:                  -0.613
REMARK UNBOUND:                -0.613
REMARK SMILES COc1cc(CNC(=O)CCCCC=CC(C)C)ccc1O
REMARK SMILES IDX 11 1 12 2 13 3 14 4 15 5 16 6 17 7 18 8 10 9 8 10 9 11 7 12
REMARK SMILES IDX 6 14 5 15 4 16 19 17 3 18 20 19 21 20 2 21 1 22 22 23
REMARK H PARENT 7 13 22 24
REMARK Flexibility Score: inf
ROOT
ATOM      1  C   UNL     1       2.436  18.381 -32.772  1.00  0.00     0.010 C 
ENDROOT
BRANCH   1   2
ATOM      2  C   UNL     1       3.928  18.002 -32.667  1.00  0.00     0.005 C 
BRANCH   2   3
ATOM      3  C   UNL     1       4.867  19.183 -32.372  1.00  0.00     0.027 C 
BRANCH   3   4
ATOM      4  C   UNL     1       4.927  19.521 -30.907  1.00  0.00    -0.031 C 
ATOM      5  C   UNL     1       4.139  18.905 -30.010  1.00  0.00    -0.028 C 
BRANCH   5   6
ATOM      6  C   UNL     1       4.188  19.217 -28.531  1.00  0.00     0.005 C 
ATOM      7  C   UNL     1       5.575  19.720 -28.113  1.00  0.00     0.012 C 
ATOM      8  C   UNL     1       3.091  20.212 -28.135  1.00  0.00     0.012 C 
ENDBRANCH   5   6
ENDBRANCH   3   4
ENDBRANCH   2   3
ENDBRANCH   1   2
BRANCH   1   9
ATOM      9  C   UNL     1       1.660  17.629 -33.868  1.00  0.00     0.100 C 
BRANCH   9  10
ATOM     10  C   UNL     1       1.793  18.291 -35.209  1.00  0.00     0.220 C 
ATOM     11  O   UNL     1       0.993  17.986 -36.135  1.00  0.00    -0.275 OA
ATOM     12  N   UNL     1       2.804  19.283 -35.426  1.00  0.00    -0.352 N 
ATOM     13  H   UNL     1       3.572  19.392 -34.726  1.00  0.00     0.163 HD
BRANCH  12  14
ATOM     14  C   UNL     1       2.698  20.276 -36.492  1.00  0.00     0.151 C 
BRANCH  14  15
ATOM     15  C   UNL     1       3.941  21.124 -36.517  1.00  0.00    -0.025 A 
ATOM     16  C   UNL     1       5.100  20.684 -35.858  1.00  0.00     0.056 A 
ATOM     17  C   UNL     1       3.929  22.388 -37.124  1.00  0.00     0.009 A 
ATOM     18  C   UNL     1       6.246  21.502 -35.803  1.00  0.00     0.160 A 
ATOM     19  C   UNL     1       5.065  23.197 -37.082  1.00  0.00     0.050 A 
ATOM     20  C   UNL     1       6.222  22.760 -36.422  1.00  0.00     0.157 A 
BRANCH  18  21
ATOM     21  O   UNL     1       7.417  21.104 -35.139  1.00  0.00    -0.493 OA
ATOM     22  C   UNL     1       7.579  19.859 -34.469  1.00  0.00     0.278 C 
ENDBRANCH  18  21
BRANCH  20  23
ATOM     23  O   UNL     1       7.352  23.574 -36.372  1.00  0.00    -0.504 OA
ATOM     24  H   UNL     1       8.043  23.568 -37.114  1.00  0.00     0.293 HD
ENDBRANCH  20  23
ENDBRANCH  14  15
ENDBRANCH  12  14
ENDBRANCH   9  10
ENDBRANCH   1   9
TORSDOF 10
ENDMDL
MODEL 2
REMARK VINA RESULT:    -3.865      1.323      1.964
REMARK INTER + INTRA:          -6.625
REMARK INTER:                  -5.882
REMARK INTRA:                  -0.743
REMARK UNBOUND:                -0.613
REMARK SMILES COc1cc(CNC(=O)CCCCC=CC(C)C)ccc1O
REMARK SMILES IDX 11 1 12 2 13 3 14 4 15 5 16 6 17 7 18 8 10 9 8 10 9 11 7 12
REMARK SMILES IDX 6 14 5 15 4 16 19 17 3 18 20 19 21 20 2 21 1 22 22 23
REMARK H PARENT 7 13 22 24
REMARK Flexibility Score: inf
ROOT
ATOM      1  C   UNL     1       3.307  18.585 -31.836  1.00  0.00     0.010 C 
ENDROOT
BRANCH   1   2
ATOM      2  C   UNL     1       2.742  18.841 -30.423  1.00  0.00     0.005 C 
BRANCH   2   3
ATOM      3  C   UNL     1       3.563  19.827 -29.576  1.00  0.00     0.027 C 
BRANCH   3   4
ATOM      4  C   UNL     1       4.446  19.132 -28.575  1.00  0.00    -0.031 C 
ATOM      5  C   UNL     1       5.587  18.526 -28.944  1.00  0.00    -0.028 C 
BRANCH   5   6
ATOM      6  C   UNL     1       6.498  17.831 -27.958  1.00  0.00     0.005 C 
ATOM      7  C   UNL     1       6.026  16.400 -27.676  1.00  0.00     0.012 C 
ATOM      8  C   UNL     1       7.956  17.854 -28.433  1.00  0.00     0.012 C 
ENDBRANCH   5   6
ENDBRANCH   3   4
ENDBRANCH   2   3
ENDBRANCH   1   2
BRANCH   1   9
ATOM      9  C   UNL     1       2.466  17.630 -32.700  1.00  0.00     0.100 C 
BRANCH   9  10
ATOM     10  C   UNL     1       2.161  18.210 -34.051  1.00  0.00     0.220 C 
ATOM     11  O   UNL     1       1.011  18.062 -34.546  1.00  0.00    -0.275 OA
ATOM     12  N   UNL     1       3.163  18.950 -34.760  1.00  0.00    -0.352 N 
ATOM     13  H   UNL     1       4.156  18.907 -34.435  1.00  0.00     0.163 HD
BRANCH  12  14
ATOM     14  C   UNL     1       2.820  19.913 -35.803  1.00  0.00     0.151 C 
BRANCH  14  15
ATOM     15  C   UNL     1       3.998  20.813 -36.065  1.00  0.00    -0.025 A 
ATOM     16  C   UNL     1       5.258  20.487 -35.538  1.00  0.00     0.056 A 
ATOM     17  C   UNL     1       3.833  22.017 -36.765  1.00  0.00     0.009 A 
ATOM     18  C   UNL     1       6.351  21.358 -35.706  1.00  0.00     0.160 A 
ATOM     19  C   UNL     1       4.916  22.879 -36.943  1.00  0.00     0.050 A 
ATOM     20  C   UNL     1       6.173  22.555 -36.415  1.00  0.00     0.157 A 
BRANCH  18  21
ATOM     21  O   UNL     1       7.621  21.074 -35.179  1.00  0.00    -0.493 OA
ATOM     22  C   UNL     1       7.947  19.893 -34.455  1.00  0.00     0.278 C 
ENDBRANCH  18  21
BRANCH  20  23
ATOM     23  O   UNL     1       7.251  23.422 -36.585  1.00  0.00    -0.504 OA
ATOM     24  H   UNL     1       7.348  24.263 -36.029  1.00  0.00     0.293 HD
ENDBRANCH  20  23
ENDBRANCH  14  15
ENDBRANCH  12  14
ENDBRANCH   9  10
ENDBRANCH   1   9
TORSDOF 10
ENDMDL
MODEL 3
REMARK VINA RESULT:    -2.505      2.522      6.713
REMARK INTER + INTRA:          -4.510
REMARK INTER:                  -3.667
REMARK INTRA:                  -0.842
REMARK UNBOUND:                -0.613
REMARK SMILES COc1cc(CNC(=O)CCCCC=CC(C)C)ccc1O
REMARK SMILES IDX 11 1 12 2 13 3 14 4 15 5 16 6 17 7 18 8 10 9 8 10 9 11 7 12
REMARK SMILES IDX 6 14 5 15 4 16 19 17 3 18 20 19 21 20 2 21 1 22 22 23
REMARK H PARENT 7 13 22 24
REMARK Flexibility Score: inf
ROOT
ATOM      1  C   UNL     1       5.948  21.708 -36.979  1.00  0.00     0.010 C 
ENDROOT
BRANCH   1   2
ATOM      2  C   UNL     1       4.485  22.179 -37.119  1.00  0.00     0.005 C 
BRANCH   2   3
ATOM      3  C   UNL     1       3.549  21.694 -36.000  1.00  0.00     0.027 C 
BRANCH   3   4
ATOM      4  C   UNL     1       3.031  20.302 -36.243  1.00  0.00    -0.031 C 
ATOM      5  C   UNL     1       2.472  19.578 -35.259  1.00  0.00    -0.028 C 
BRANCH   5   6
ATOM      6  C   UNL     1       1.933  18.182 -35.478  1.00  0.00     0.005 C 
ATOM      7  C   UNL     1       1.265  17.637 -34.210  1.00  0.00     0.012 C 
ATOM      8  C   UNL     1       0.977  18.135 -36.676  1.00  0.00     0.012 C 
ENDBRANCH   5   6
ENDBRANCH   3   4
ENDBRANCH   2   3
ENDBRANCH   1   2
BRANCH   1   9
ATOM      9  C   UNL     1       6.547  21.887 -35.572  1.00  0.00     0.100 C 
BRANCH   9  10
ATOM     10  C   UNL     1       6.811  20.571 -34.899  1.00  0.00     0.220 C 
ATOM     11  O   UNL     1       7.948  20.038 -35.001  1.00  0.00    -0.275 OA
ATOM     12  N   UNL     1       5.783  19.940 -34.124  1.00  0.00    -0.352 N 
ATOM     13  H   UNL     1       4.800  20.286 -34.199  1.00  0.00     0.163 HD
BRANCH  12  14
ATOM     14  C   UNL     1       6.090  18.956 -33.089  1.00  0.00     0.151 C 
BRANCH  14  15
ATOM     15  C   UNL     1       5.060  19.036 -31.996  1.00  0.00    -0.025 A 
ATOM     16  C   UNL     1       5.443  19.419 -30.700  1.00  0.00     0.056 A 
ATOM     17  C   UNL     1       3.733  18.654 -32.238  1.00  0.00     0.009 A 
ATOM     18  C   UNL     1       4.507  19.420 -29.648  1.00  0.00     0.160 A 
ATOM     19  C   UNL     1       2.799  18.664 -31.201  1.00  0.00     0.050 A 
ATOM     20  C   UNL     1       3.181  19.044 -29.907  1.00  0.00     0.157 A 
BRANCH  18  21
ATOM     21  O   UNL     1       4.857  19.780 -28.337  1.00  0.00    -0.493 OA
ATOM     22  C   UNL     1       6.189  19.798 -27.835  1.00  0.00     0.278 C 
ENDBRANCH  18  21
BRANCH  20  23
ATOM     23  O   UNL     1       2.250  19.043 -28.870  1.00  0.00    -0.504 OA
ATOM     24  H   UNL     1       1.285  19.309 -29.025  1.00  0.00     0.293 HD
ENDBRANCH  20  23
ENDBRANCH  14  15
ENDBRANCH  12  14
ENDBRANCH   9  10
ENDBRANCH   1   9
TORSDOF 10
ENDMDL
MODEL 4
REMARK VINA RESULT:    -2.192      2.733      6.367
REMARK INTER + INTRA:          -4.022
REMARK INTER:                  -3.282
REMARK INTRA:                  -0.741
REMARK UNBOUND:                -0.613
REMARK SMILES COc1cc(CNC(=O)CCCCC=CC(C)C)ccc1O
REMARK SMILES IDX 11 1 12 2 13 3 14 4 15 5 16 6 17 7 18 8 10 9 8 10 9 11 7 12
REMARK SMILES IDX 6 14 5 15 4 16 19 17 3 18 20 19 21 20 2 21 1 22 22 23
REMARK H PARENT 7 13 22 24
REMARK Flexibility Score: inf
ROOT
ATOM      1  C   UNL     1       3.508  21.202 -35.421  1.00  0.00     0.010 C 
ENDROOT
BRANCH   1   2
ATOM      2  C   UNL     1       4.090  22.012 -36.600  1.00  0.00     0.005 C 
BRANCH   2   3
ATOM      3  C   UNL     1       5.573  22.385 -36.446  1.00  0.00     0.027 C 
BRANCH   3   4
ATOM      4  C   UNL     1       6.203  21.761 -35.230  1.00  0.00    -0.031 C 
ATOM      5  C   UNL     1       6.846  20.582 -35.297  1.00  0.00    -0.028 C 
BRANCH   5   6
ATOM      6  C   UNL     1       7.497  19.939 -34.094  1.00  0.00     0.005 C 
ATOM      7  C   UNL     1       6.478  19.150 -33.263  1.00  0.00     0.012 C 
ATOM      8  C   UNL     1       8.682  19.058 -34.506  1.00  0.00     0.012 C 
ENDBRANCH   5   6
ENDBRANCH   3   4
ENDBRANCH   2   3
ENDBRANCH   1   2
BRANCH   1   9
ATOM      9  C   UNL     1       3.242  19.719 -35.732  1.00  0.00     0.100 C 
BRANCH   9  10
ATOM     10  C   UNL     1       2.650  18.994 -34.558  1.00  0.00     0.220 C 
ATOM     11  O   UNL     1       1.584  18.337 -34.706  1.00  0.00    -0.275 OA
ATOM     12  N   UNL     1       3.307  19.027 -33.284  1.00  0.00    -0.352 N 
ATOM     13  H   UNL     1       4.074  19.718 -33.122  1.00  0.00     0.163 HD
BRANCH  12  14
ATOM     14  C   UNL     1       3.074  18.004 -32.268  1.00  0.00     0.151 C 
BRANCH  14  15
ATOM     15  C   UNL     1       3.288  18.595 -30.900  1.00  0.00    -0.025 A 
ATOM     16  C   UNL     1       4.577  18.622 -30.344  1.00  0.00     0.056 A 
ATOM     17  C   UNL     1       2.199  19.045 -30.141  1.00  0.00     0.009 A 
ATOM     18  C   UNL     1       4.781  19.097 -29.034  1.00  0.00     0.160 A 
ATOM     19  C   UNL     1       2.397  19.526 -28.845  1.00  0.00     0.050 A 
ATOM     20  C   UNL     1       3.683  19.552 -28.289  1.00  0.00     0.157 A 
BRANCH  18  21
ATOM     21  O   UNL     1       6.052  19.124 -28.438  1.00  0.00    -0.493 OA
ATOM     22  C   UNL     1       6.871  17.977 -28.235  1.00  0.00     0.278 C 
ENDBRANCH  18  21
BRANCH  20  23
ATOM     23  O   UNL     1       3.878  20.023 -26.992  1.00  0.00    -0.504 OA
ATOM     24  H   UNL     1       3.121  20.434 -26.458  1.00  0.00     0.293 HD
ENDBRANCH  20  23
ENDBRANCH  14  15
ENDBRANCH  12  14
ENDBRANCH   9  10
ENDBRANCH   1   9
TORSDOF 10
ENDMDL
MODEL 5
REMARK VINA RESULT:    -1.942      2.190      5.000
REMARK INTER + INTRA:          -3.633
REMARK INTER:                  -3.039
REMARK INTRA:                  -0.594
REMARK UNBOUND:                -0.613
REMARK SMILES COc1cc(CNC(=O)CCCCC=CC(C)C)ccc1O
REMARK SMILES IDX 11 1 12 2 13 3 14 4 15 5 16 6 17 7 18 8 10 9 8 10 9 11 7 12
REMARK SMILES IDX 6 14 5 15 4 16 19 17 3 18 20 19 21 20 2 21 1 22 22 23
REMARK H PARENT 7 13 22 24
REMARK Flexibility Score: inf
ROOT
ATOM      1  C   UNL     1       4.058  20.477 -29.131  1.00  0.00     0.010 C 
ENDROOT
BRANCH   1   2
ATOM      2  C   UNL     1       2.833  19.544 -29.242  1.00  0.00     0.005 C 
BRANCH   2   3
ATOM      3  C   UNL     1       3.011  18.371 -30.220  1.00  0.00     0.027 C 
BRANCH   3   4
ATOM      4  C   UNL     1       2.618  18.728 -31.628  1.00  0.00    -0.031 C 
ATOM      5  C   UNL     1       2.627  17.815 -32.614  1.00  0.00    -0.028 C 
BRANCH   5   6
ATOM      6  C   UNL     1       2.225  18.144 -34.034  1.00  0.00     0.005 C 
ATOM      7  C   UNL     1       1.387  17.018 -34.651  1.00  0.00     0.012 C 
ATOM      8  C   UNL     1       1.494  19.489 -34.110  1.00  0.00     0.012 C 
ENDBRANCH   5   6
ENDBRANCH   3   4
ENDBRANCH   2   3
ENDBRANCH   1   2
BRANCH   1   9
ATOM      9  C   UNL     1       5.354  19.781 -28.680  1.00  0.00     0.100 C 
BRANCH   9  10
ATOM     10  C   UNL     1       6.178  19.312 -29.845  1.00  0.00     0.220 C 
ATOM     11  O   UNL     1       7.257  18.696 -29.635  1.00  0.00    -0.275 OA
ATOM     12  N   UNL     1       5.725  19.541 -31.185  1.00  0.00    -0.352 N 
ATOM     13  H   UNL     1       4.939  20.208 -31.353  1.00  0.00     0.163 HD
BRANCH  12  14
ATOM     14  C   UNL     1       6.194  18.733 -32.308  1.00  0.00     0.151 C 
BRANCH  14  15
ATOM     15  C   UNL     1       6.279  19.587 -33.544  1.00  0.00    -0.025 A 
ATOM     16  C   UNL     1       5.103  20.055 -34.152  1.00  0.00     0.056 A 
ATOM     17  C   UNL     1       7.519  19.854 -34.142  1.00  0.00     0.009 A 
ATOM     18  C   UNL     1       5.161  20.787 -35.354  1.00  0.00     0.160 A 
ATOM     19  C   UNL     1       7.583  20.588 -35.328  1.00  0.00     0.050 A 
ATOM     20  C   UNL     1       6.409  21.054 -35.936  1.00  0.00     0.157 A 
BRANCH  18  21
ATOM     21  O   UNL     1       4.006  21.257 -36.000  1.00  0.00    -0.493 OA
ATOM     22  C   UNL     1       3.585  22.617 -36.008  1.00  0.00     0.278 C 
ENDBRANCH  18  21
BRANCH  20  23
ATOM     23  O   UNL     1       6.474  21.778 -37.125  1.00  0.00    -0.504 OA
ATOM     24  H   UNL     1       6.324  21.335 -38.024  1.00  0.00     0.293 HD
ENDBRANCH  20  23
ENDBRANCH  14  15
ENDBRANCH  12  14
ENDBRANCH   9  10
ENDBRANCH   1   9
TORSDOF 10
ENDMDL
MODEL 6
REMARK VINA RESULT:    -1.653      2.650      6.641
REMARK INTER + INTRA:          -3.184
REMARK INTER:                  -3.169
REMARK INTRA:                  -0.014
REMARK UNBOUND:                -0.613
REMARK SMILES COc1cc(CNC(=O)CCCCC=CC(C)C)ccc1O
REMARK SMILES IDX 11 1 12 2 13 3 14 4 15 5 16 6 17 7 18 8 10 9 8 10 9 11 7 12
REMARK SMILES IDX 6 14 5 15 4 16 19 17 3 18 20 19 21 20 2 21 1 22 22 23
REMARK H PARENT 7 13 22 24
REMARK Flexibility Score: inf
ROOT
ATOM      1  C   UNL     1       4.181  20.015 -34.348  1.00  0.00     0.010 C 
ENDROOT
BRANCH   1   2
ATOM      2  C   UNL     1       5.419  19.462 -33.608  1.00  0.00     0.005 C 
BRANCH   2   3
ATOM      3  C   UNL     1       6.766  19.883 -34.218  1.00  0.00     0.027 C 
BRANCH   3   4
ATOM      4  C   UNL     1       6.604  20.684 -35.481  1.00  0.00    -0.031 C 
ATOM      5  C   UNL     1       5.970  21.869 -35.487  1.00  0.00    -0.028 C 
BRANCH   5   6
ATOM      6  C   UNL     1       5.804  22.699 -36.739  1.00  0.00     0.005 C 
ATOM      7  C   UNL     1       4.322  22.943 -37.054  1.00  0.00     0.012 C 
ATOM      8  C   UNL     1       6.577  24.019 -36.640  1.00  0.00     0.012 C 
ENDBRANCH   5   6
ENDBRANCH   3   4
ENDBRANCH   2   3
ENDBRANCH   1   2
BRANCH   1   9
ATOM      9  C   UNL     1       3.157  18.947 -34.769  1.00  0.00     0.100 C 
BRANCH   9  10
ATOM     10  C   UNL     1       2.520  18.278 -33.585  1.00  0.00     0.220 C 
ATOM     11  O   UNL     1       2.208  17.058 -33.653  1.00  0.00    -0.275 OA
ATOM     12  N   UNL     1       2.294  19.015 -32.376  1.00  0.00    -0.352 N 
ATOM     13  H   UNL     1       2.378  20.056 -32.389  1.00  0.00     0.163 HD
BRANCH  12  14
ATOM     14  C   UNL     1       2.138  18.352 -31.084  1.00  0.00     0.151 C 
BRANCH  14  15
ATOM     15  C   UNL     1       3.154  18.892 -30.114  1.00  0.00    -0.025 A 
ATOM     16  C   UNL     1       4.513  18.580 -30.279  1.00  0.00     0.056 A 
ATOM     17  C   UNL     1       2.748  19.640 -29.000  1.00  0.00     0.009 A 
ATOM     18  C   UNL     1       5.466  19.010 -29.335  1.00  0.00     0.160 A 
ATOM     19  C   UNL     1       3.690  20.078 -28.067  1.00  0.00     0.050 A 
ATOM     20  C   UNL     1       5.046  19.764 -28.230  1.00  0.00     0.157 A 
BRANCH  18  21
ATOM     21  O   UNL     1       6.830  18.702 -29.457  1.00  0.00    -0.493 OA
ATOM     22  C   UNL     1       7.567  17.925 -28.518  1.00  0.00     0.278 C 
ENDBRANCH  18  21
BRANCH  20  23
ATOM     23  O   UNL     1       5.984  20.193 -27.292  1.00  0.00    -0.504 OA
ATOM     24  H   UNL     1       6.078  21.171 -27.046  1.00  0.00     0.293 HD
ENDBRANCH  20  23
ENDBRANCH  14  15
ENDBRANCH  12  14
ENDBRANCH   9  10
ENDBRANCH   1   9
TORSDOF 10
ENDMDL
MODEL 7
REMARK VINA RESULT:    -1.629      3.343      7.163
REMARK INTER + INTRA:          -3.147
REMARK INTER:                  -2.600
REMARK INTRA:                  -0.546
REMARK UNBOUND:                -0.613
REMARK SMILES COc1cc(CNC(=O)CCCCC=CC(C)C)ccc1O
REMARK SMILES IDX 11 1 12 2 13 3 14 4 15 5 16 6 17 7 18 8 10 9 8 10 9 11 7 12
REMARK SMILES IDX 6 14 5 15 4 16 19 17 3 18 20 19 21 20 2 21 1 22 22 23
REMARK H PARENT 7 13 22 24
REMARK Flexibility Score: inf
ROOT
ATOM      1  C   UNL     1       1.713  18.773 -33.927  1.00  0.00     0.010 C 
ENDROOT
BRANCH   1   2
ATOM      2  C   UNL     1       2.127  18.527 -35.393  1.00  0.00     0.005 C 
BRANCH   2   3
ATOM      3  C   UNL     1       2.623  19.779 -36.135  1.00  0.00     0.027 C 
BRANCH   3   4
ATOM      4  C   UNL     1       3.941  20.278 -35.608  1.00  0.00    -0.031 C 
ATOM      5  C   UNL     1       4.417  21.492 -35.936  1.00  0.00    -0.028 C 
BRANCH   5   6
ATOM      6  C   UNL     1       5.731  22.023 -35.411  1.00  0.00     0.005 C 
ATOM      7  C   UNL     1       6.712  20.883 -35.110  1.00  0.00     0.012 C 
ATOM      8  C   UNL     1       6.344  23.046 -36.373  1.00  0.00     0.012 C 
ENDBRANCH   5   6
ENDBRANCH   3   4
ENDBRANCH   2   3
ENDBRANCH   1   2
BRANCH   1   9
ATOM      9  C   UNL     1       2.228  17.721 -32.930  1.00  0.00     0.100 C 
BRANCH   9  10
ATOM     10  C   UNL     1       3.115  18.325 -31.880  1.00  0.00     0.220 C 
ATOM     11  O   UNL     1       4.271  18.718 -32.194  1.00  0.00    -0.275 OA
ATOM     12  N   UNL     1       2.640  18.478 -30.536  1.00  0.00    -0.352 N 
ATOM     13  H   UNL     1       1.766  17.985 -30.243  1.00  0.00     0.163 HD
BRANCH  12  14
ATOM     14  C   UNL     1       3.224  19.449 -29.615  1.00  0.00     0.151 C 
BRANCH  14  15
ATOM     15  C   UNL     1       4.592  18.984 -29.193  1.00  0.00    -0.025 A 
ATOM     16  C   UNL     1       4.753  17.708 -28.631  1.00  0.00     0.056 A 
ATOM     17  C   UNL     1       5.695  19.845 -29.280  1.00  0.00     0.009 A 
ATOM     18  C   UNL     1       6.011  17.289 -28.156  1.00  0.00     0.160 A 
ATOM     19  C   UNL     1       6.947  19.430 -28.820  1.00  0.00     0.050 A 
ATOM     20  C   UNL     1       7.108  18.157 -28.258  1.00  0.00     0.157 A 
BRANCH  18  21
ATOM     21  O   UNL     1       6.208  16.027 -27.573  1.00  0.00    -0.493 OA
ATOM     22  C   UNL     1       5.355  15.453 -26.588  1.00  0.00     0.278 C 
ENDBRANCH  18  21
BRANCH  20  23
ATOM     23  O   UNL     1       8.355  17.749 -27.790  1.00  0.00    -0.504 OA
ATOM     24  H   UNL     1       8.718  18.069 -26.899  1.00  0.00     0.293 HD
ENDBRANCH  20  23
ENDBRANCH  14  15
ENDBRANCH  12  14
ENDBRANCH   9  10
ENDBRANCH   1   9
TORSDOF 10
ENDMDL
