MODEL 1
REMARK VINA RESULT:    -3.390      0.000      0.000
REMARK INTER + INTRA:          -5.377
REMARK INTER:                  -4.975
REMARK INTRA:                  -0.402
REMARK UNBOUND:                -0.402
REMARK SMILES CCCCCCCCCC=O
REMARK SMILES IDX 6 1 5 2 4 3 3 4 2 5 1 6 7 7 8 8 9 9 10 10 11 11
REMARK H PARENT
REMARK Flexibility Score: inf
ROOT
ATOM      1  C   UNL     1      -4.911  -8.896  -3.165  1.00  0.00     0.000 C 
ENDROOT
BRANCH   1   2
ATOM      2  C   UNL     1      -3.657  -9.672  -2.730  1.00  0.00     0.000 C 
BRANCH   2   3
ATOM      3  C   UNL     1      -3.606  -9.928  -1.213  1.00  0.00    -0.000 C 
BRANCH   3   4
ATOM      4  C   UNL     1      -4.975  -9.962  -0.503  1.00  0.00    -0.000 C 
BRANCH   4   5
ATOM      5  C   UNL     1      -5.152  -8.924   0.619  1.00  0.00    -0.003 C 
ATOM      6  C   UNL     1      -4.478  -9.340   1.927  1.00  0.00     0.004 C 
ENDBRANCH   4   5
ENDBRANCH   3   4
ENDBRANCH   2   3
ENDBRANCH   1   2
BRANCH   1   7
ATOM      7  C   UNL     1      -5.187  -9.008  -4.675  1.00  0.00     0.000 C 
BRANCH   7   8
ATOM      8  C   UNL     1      -6.672  -9.254  -5.016  1.00  0.00     0.008 C 
BRANCH   8   9
ATOM      9  C   UNL     1      -7.604  -8.873  -3.857  1.00  0.00     0.072 C 
BRANCH   9  10
ATOM     10  C   UNL     1      -8.976  -8.539  -4.358  1.00  0.00     0.224 C 
ATOM     11  O   UNL     1      -9.119  -7.864  -5.366  1.00  0.00    -0.303 OA
ENDBRANCH   9  10
ENDBRANCH   8   9
ENDBRANCH   7   8
ENDBRANCH   1   7
TORSDOF 8
ENDMDL
MODEL 2
REMARK VINA RESULT:    -3.280     19.273     20.137
REMARK INTER + INTRA:          -5.216
REMARK INTER:                  -4.509
REMARK INTRA:                  -0.707
REMARK UNBOUND:                -0.402
REMARK SMILES CCCCCCCCCC=O
REMARK SMILES IDX 6 1 5 2 4 3 3 4 2 5 1 6 7 7 8 8 9 9 10 10 11 11
REMARK H PARENT
REMARK Flexibility Score: inf
ROOT
ATOM      1  C   UNL     1       7.938   3.536   5.668  1.00  0.00     0.000 C 
ENDROOT
BRANCH   1   2
ATOM      2  C   UNL     1       8.174   2.198   4.947  1.00  0.00     0.000 C 
BRANCH   2   3
ATOM      3  C   UNL     1       7.782   0.979   5.801  1.00  0.00    -0.000 C 
BRANCH   3   4
ATOM      4  C   UNL     1       6.805   1.271   6.959  1.00  0.00    -0.000 C 
BRANCH   4   5
ATOM      5  C   UNL     1       7.364   0.998   8.367  1.00  0.00    -0.003 C 
ATOM      6  C   UNL     1       8.683   0.226   8.344  1.00  0.00     0.004 C 
ENDBRANCH   4   5
ENDBRANCH   3   4
ENDBRANCH   2   3
ENDBRANCH   1   2
BRANCH   1   7
ATOM      7  C   UNL     1       6.917   4.430   4.944  1.00  0.00     0.000 C 
BRANCH   7   8
ATOM      8  C   UNL     1       5.606   4.638   5.733  1.00  0.00     0.008 C 
BRANCH   8   9
ATOM      9  C   UNL     1       5.861   4.848   7.233  1.00  0.00     0.072 C 
BRANCH   9  10
ATOM     10  C   UNL     1       5.219   6.114   7.713  1.00  0.00     0.224 C 
ATOM     11  O   UNL     1       4.462   6.739   6.986  1.00  0.00    -0.303 OA
ENDBRANCH   9  10
ENDBRANCH   8   9
ENDBRANCH   7   8
ENDBRANCH   1   7
TORSDOF 8
ENDMDL
MODEL 3
REMARK VINA RESULT:    -3.251     19.151     19.896
REMARK INTER + INTRA:          -5.173
REMARK INTER:                  -4.370
REMARK INTRA:                  -0.803
REMARK UNBOUND:                -0.402
REMARK SMILES CCCCCCCCCC=O
REMARK SMILES IDX 6 1 5 2 4 3 3 4 2 5 1 6 7 7 8 8 9 9 10 10 11 11
REMARK H PARENT
REMARK Flexibility Score: inf
ROOT
ATOM      1  C   UNL     1       7.179   1.180   6.714  1.00  0.00     0.000 C 
ENDROOT
BRANCH   1   2
ATOM      2  C   UNL     1       8.140   0.452   7.669  1.00  0.00     0.000 C 
BRANCH   2   3
ATOM      3  C   UNL     1       9.405  -0.071   6.965  1.00  0.00    -0.000 C 
BRANCH   3   4
ATOM      4  C   UNL     1       9.245  -0.374   5.461  1.00  0.00    -0.000 C 
BRANCH   4   5
ATOM      5  C   UNL     1      10.123   0.479   4.528  1.00  0.00    -0.003 C 
ATOM      6  C   UNL     1      10.899   1.567   5.270  1.00  0.00     0.004 C 
ENDBRANCH   4   5
ENDBRANCH   3   4
ENDBRANCH   2   3
ENDBRANCH   1   2
BRANCH   1   7
ATOM      7  C   UNL     1       7.416   2.700   6.676  1.00  0.00     0.000 C 
BRANCH   7   8
ATOM      8  C   UNL     1       7.524   3.274   5.247  1.00  0.00     0.008 C 
BRANCH   8   9
ATOM      9  C   UNL     1       6.807   4.624   5.110  1.00  0.00     0.072 C 
BRANCH   9  10
ATOM     10  C   UNL     1       5.466   4.590   5.779  1.00  0.00     0.224 C 
ATOM     11  O   UNL     1       4.442   4.642   5.117  1.00  0.00    -0.303 OA
ENDBRANCH   9  10
ENDBRANCH   8   9
ENDBRANCH   7   8
ENDBRANCH   1   7
TORSDOF 8
ENDMDL
MODEL 4
REMARK VINA RESULT:    -3.239     10.777     11.897
REMARK INTER + INTRA:          -5.156
REMARK INTER:                  -4.489
REMARK INTRA:                  -0.667
REMARK UNBOUND:                -0.402
REMARK SMILES CCCCCCCCCC=O
REMARK SMILES IDX 6 1 5 2 4 3 3 4 2 5 1 6 7 7 8 8 9 9 10 10 11 11
REMARK H PARENT
REMARK Flexibility Score: inf
ROOT
ATOM      1  C   UNL     1       3.802  -5.285  -7.117  1.00  0.00     0.000 C 
ENDROOT
BRANCH   1   2
ATOM      2  C   UNL     1       4.047  -6.205  -5.909  1.00  0.00     0.000 C 
BRANCH   2   3
ATOM      3  C   UNL     1       5.325  -5.844  -5.130  1.00  0.00    -0.000 C 
BRANCH   3   4
ATOM      4  C   UNL     1       6.016  -4.535  -5.565  1.00  0.00    -0.000 C 
BRANCH   4   5
ATOM      5  C   UNL     1       6.338  -3.558  -4.421  1.00  0.00    -0.003 C 
ATOM      6  C   UNL     1       5.491  -2.287  -4.467  1.00  0.00     0.004 C 
ENDBRANCH   4   5
ENDBRANCH   3   4
ENDBRANCH   2   3
ENDBRANCH   1   2
BRANCH   1   7
ATOM      7  C   UNL     1       2.306  -5.078  -7.414  1.00  0.00     0.000 C 
BRANCH   7   8
ATOM      8  C   UNL     1       1.861  -3.602  -7.354  1.00  0.00     0.008 C 
BRANCH   8   9
ATOM      9  C   UNL     1       3.054  -2.640  -7.263  1.00  0.00     0.072 C 
BRANCH   9  10
ATOM     10  C   UNL     1       2.601  -1.254  -6.918  1.00  0.00     0.224 C 
ATOM     11  O   UNL     1       1.414  -1.008  -6.775  1.00  0.00    -0.303 OA
ENDBRANCH   9  10
ENDBRANCH   8   9
ENDBRANCH   7   8
ENDBRANCH   1   7
TORSDOF 8
ENDMDL
MODEL 5
REMARK VINA RESULT:    -3.177     11.548     13.306
REMARK INTER + INTRA:          -5.065
REMARK INTER:                  -4.382
REMARK INTRA:                  -0.683
REMARK UNBOUND:                -0.402
REMARK SMILES CCCCCCCCCC=O
REMARK SMILES IDX 6 1 5 2 4 3 3 4 2 5 1 6 7 7 8 8 9 9 10 10 11 11
REMARK H PARENT
REMARK Flexibility Score: inf
ROOT
ATOM      1  C   UNL     1       4.642  -5.821  -5.736  1.00  0.00     0.000 C 
ENDROOT
BRANCH   1   2
ATOM      2  C   UNL     1       4.187  -5.027  -6.972  1.00  0.00     0.000 C 
BRANCH   2   3
ATOM      3  C   UNL     1       2.657  -5.001  -7.140  1.00  0.00    -0.000 C 
BRANCH   3   4
ATOM      4  C   UNL     1       2.033  -3.598  -7.282  1.00  0.00    -0.000 C 
BRANCH   4   5
ATOM      5  C   UNL     1       3.015  -2.427  -7.103  1.00  0.00    -0.003 C 
ATOM      6  C   UNL     1       2.321  -1.065  -7.091  1.00  0.00     0.004 C 
ENDBRANCH   4   5
ENDBRANCH   3   4
ENDBRANCH   2   3
ENDBRANCH   1   2
BRANCH   1   7
ATOM      7  C   UNL     1       5.532  -4.995  -4.791  1.00  0.00     0.000 C 
BRANCH   7   8
ATOM      8  C   UNL     1       6.082  -3.702  -5.431  1.00  0.00     0.008 C 
BRANCH   8   9
ATOM      9  C   UNL     1       5.803  -2.464  -4.567  1.00  0.00     0.072 C 
BRANCH   9  10
ATOM     10  C   UNL     1       6.987  -2.130  -3.711  1.00  0.00     0.224 C 
ATOM     11  O   UNL     1       7.065  -2.555  -2.569  1.00  0.00    -0.303 OA
ENDBRANCH   9  10
ENDBRANCH   8   9
ENDBRANCH   7   8
ENDBRANCH   1   7
TORSDOF 8
ENDMDL
MODEL 6
REMARK VINA RESULT:    -3.130      9.791     11.123
REMARK INTER + INTRA:          -4.996
REMARK INTER:                  -4.325
REMARK INTRA:                  -0.671
REMARK UNBOUND:                -0.402
REMARK SMILES CCCCCCCCCC=O
REMARK SMILES IDX 6 1 5 2 4 3 3 4 2 5 1 6 7 7 8 8 9 9 10 10 11 11
REMARK H PARENT
REMARK Flexibility Score: inf
ROOT
ATOM      1  C   UNL     1       2.251  -5.879  -8.009  1.00  0.00     0.000 C 
ENDROOT
BRANCH   1   2
ATOM      2  C   UNL     1       1.772  -7.116  -7.230  1.00  0.00     0.000 C 
BRANCH   2   3
ATOM      3  C   UNL     1       2.928  -8.031  -6.788  1.00  0.00    -0.000 C 
BRANCH   3   4
ATOM      4  C   UNL     1       3.723  -7.544  -5.559  1.00  0.00    -0.000 C 
BRANCH   4   5
ATOM      5  C   UNL     1       5.070  -6.872  -5.879  1.00  0.00    -0.003 C 
ATOM      6  C   UNL     1       5.280  -5.566  -5.115  1.00  0.00     0.004 C 
ENDBRANCH   4   5
ENDBRANCH   3   4
ENDBRANCH   2   3
ENDBRANCH   1   2
BRANCH   1   7
ATOM      7  C   UNL     1       2.079  -4.572  -7.217  1.00  0.00     0.000 C 
BRANCH   7   8
ATOM      8  C   UNL     1       3.220  -3.557  -7.441  1.00  0.00     0.008 C 
BRANCH   8   9
ATOM      9  C   UNL     1       2.714  -2.243  -8.052  1.00  0.00     0.072 C 
BRANCH   9  10
ATOM     10  C   UNL     1       2.350  -1.258  -6.982  1.00  0.00     0.224 C 
ATOM     11  O   UNL     1       1.180  -0.995  -6.755  1.00  0.00    -0.303 OA
ENDBRANCH   9  10
ENDBRANCH   8   9
ENDBRANCH   7   8
ENDBRANCH   1   7
TORSDOF 8
ENDMDL
MODEL 7
REMARK VINA RESULT:    -3.110      9.671     10.994
REMARK INTER + INTRA:          -4.967
REMARK INTER:                  -4.392
REMARK INTRA:                  -0.575
REMARK UNBOUND:                -0.402
REMARK SMILES CCCCCCCCCC=O
REMARK SMILES IDX 6 1 5 2 4 3 3 4 2 5 1 6 7 7 8 8 9 9 10 10 11 11
REMARK H PARENT
REMARK Flexibility Score: inf
ROOT
ATOM      1  C   UNL     1       1.807  -4.685  -8.772  1.00  0.00     0.000 C 
ENDROOT
BRANCH   1   2
ATOM      2  C   UNL     1       1.605  -6.209  -8.741  1.00  0.00     0.000 C 
BRANCH   2   3
ATOM      3  C   UNL     1       1.495  -6.771  -7.312  1.00  0.00    -0.000 C 
BRANCH   3   4
ATOM      4  C   UNL     1       2.021  -8.209  -7.126  1.00  0.00    -0.000 C 
BRANCH   4   5
ATOM      5  C   UNL     1       3.233  -8.342  -6.187  1.00  0.00    -0.003 C 
ATOM      6  C   UNL     1       3.856  -6.995  -5.823  1.00  0.00     0.004 C 
ENDBRANCH   4   5
ENDBRANCH   3   4
ENDBRANCH   2   3
ENDBRANCH   1   2
BRANCH   1   7
ATOM      7  C   UNL     1       2.077  -4.091  -7.379  1.00  0.00     0.000 C 
BRANCH   7   8
ATOM      8  C   UNL     1       3.403  -3.305  -7.287  1.00  0.00     0.008 C 
BRANCH   8   9
ATOM      9  C   UNL     1       3.198  -1.885  -6.741  1.00  0.00     0.072 C 
BRANCH   9  10
ATOM     10  C   UNL     1       2.032  -1.218  -7.406  1.00  0.00     0.224 C 
ATOM     11  O   UNL     1       1.058  -0.878  -6.752  1.00  0.00    -0.303 OA
ENDBRANCH   9  10
ENDBRANCH   8   9
ENDBRANCH   7   8
ENDBRANCH   1   7
TORSDOF 8
ENDMDL
MODEL 8
REMARK VINA RESULT:    -3.100      9.674     11.131
REMARK INTER + INTRA:          -4.952
REMARK INTER:                  -4.133
REMARK INTRA:                  -0.819
REMARK UNBOUND:                -0.402
REMARK SMILES CCCCCCCCCC=O
REMARK SMILES IDX 6 1 5 2 4 3 3 4 2 5 1 6 7 7 8 8 9 9 10 10 11 11
REMARK H PARENT
REMARK Flexibility Score: inf
ROOT
ATOM      1  C   UNL     1       4.663  -5.528  -6.913  1.00  0.00     0.000 C 
ENDROOT
BRANCH   1   2
ATOM      2  C   UNL     1       4.055  -6.504  -5.891  1.00  0.00     0.000 C 
BRANCH   2   3
ATOM      3  C   UNL     1       3.148  -7.565  -6.540  1.00  0.00    -0.000 C 
BRANCH   3   4
ATOM      4  C   UNL     1       1.769  -7.057  -7.009  1.00  0.00    -0.000 C 
BRANCH   4   5
ATOM      5  C   UNL     1       1.313  -7.583  -8.381  1.00  0.00    -0.003 C 
ATOM      6  C   UNL     1       1.210  -6.482  -9.436  1.00  0.00     0.004 C 
ENDBRANCH   4   5
ENDBRANCH   3   4
ENDBRANCH   2   3
ENDBRANCH   1   2
BRANCH   1   7
ATOM      7  C   UNL     1       4.133  -4.093  -6.753  1.00  0.00     0.000 C 
BRANCH   7   8
ATOM      8  C   UNL     1       3.186  -3.651  -7.890  1.00  0.00     0.008 C 
BRANCH   8   9
ATOM      9  C   UNL     1       1.769  -3.354  -7.380  1.00  0.00     0.072 C 
BRANCH   9  10
ATOM     10  C   UNL     1       1.356  -1.956  -7.727  1.00  0.00     0.224 C 
ATOM     11  O   UNL     1       1.110  -1.147  -6.847  1.00  0.00    -0.303 OA
ENDBRANCH   9  10
ENDBRANCH   8   9
ENDBRANCH   7   8
ENDBRANCH   1   7
TORSDOF 8
ENDMDL
MODEL 9
REMARK VINA RESULT:    -3.048     19.313     20.324
REMARK INTER + INTRA:          -4.876
REMARK INTER:                  -3.975
REMARK INTRA:                  -0.900
REMARK UNBOUND:                -0.402
REMARK SMILES CCCCCCCCCC=O
REMARK SMILES IDX 6 1 5 2 4 3 3 4 2 5 1 6 7 7 8 8 9 9 10 10 11 11
REMARK H PARENT
REMARK Flexibility Score: inf
ROOT
ATOM      1  C   UNL     1       6.196   1.493   7.238  1.00  0.00     0.000 C 
ENDROOT
BRANCH   1   2
ATOM      2  C   UNL     1       5.694   2.701   8.047  1.00  0.00     0.000 C 
BRANCH   2   3
ATOM      3  C   UNL     1       5.998   4.048   7.367  1.00  0.00    -0.000 C 
BRANCH   3   4
ATOM      4  C   UNL     1       5.745   4.090   5.845  1.00  0.00    -0.000 C 
BRANCH   4   5
ATOM      5  C   UNL     1       6.929   4.595   5.002  1.00  0.00    -0.003 C 
ATOM      6  C   UNL     1       8.210   4.765   5.817  1.00  0.00     0.004 C 
ENDBRANCH   4   5
ENDBRANCH   3   4
ENDBRANCH   2   3
ENDBRANCH   1   2
BRANCH   1   7
ATOM      7  C   UNL     1       7.688   1.201   7.468  1.00  0.00     0.000 C 
BRANCH   7   8
ATOM      8  C   UNL     1       8.341   0.382   6.333  1.00  0.00     0.008 C 
BRANCH   8   9
ATOM      9  C   UNL     1       8.401   1.166   5.015  1.00  0.00     0.072 C 
BRANCH   9  10
ATOM     10  C   UNL     1       9.777   1.116   4.423  1.00  0.00     0.224 C 
ATOM     11  O   UNL     1      10.635   1.908   4.784  1.00  0.00    -0.303 OA
ENDBRANCH   9  10
ENDBRANCH   8   9
ENDBRANCH   7   8
ENDBRANCH   1   7
TORSDOF 8
ENDMDL
