MODEL 1
REMARK VINA RESULT:    -5.241      0.000      0.000
REMARK INTER + INTRA:         -11.583
REMARK INTER:                  -9.531
REMARK INTRA:                  -2.052
REMARK UNBOUND:                -2.052
REMARK SMILES CCCCCC=CCC=CCCCCCCCC(=O)[O-]
REMARK SMILES IDX 11 1 12 2 13 3 14 4 15 5 16 6 17 7 18 8 19 9 20 10 10 11
REMARK SMILES IDX 9 12 8 13 7 14 6 15 5 16 4 17 3 18 2 19 1 20
REMARK H PARENT
REMARK Flexibility Score: inf
ROOT
ATOM      1  C   UNL     1     -25.905 -34.789 -11.106  1.00  0.00     0.027 C 
ENDROOT
BRANCH   1   2
ATOM      2  C   UNL     1     -27.377 -34.790 -11.548  1.00  0.00     0.004 C 
BRANCH   2   3
ATOM      3  C   UNL     1     -27.524 -35.008 -13.063  1.00  0.00     0.000 C 
BRANCH   3   4
ATOM      4  C   UNL     1     -27.733 -33.694 -13.840  1.00  0.00     0.000 C 
BRANCH   4   5
ATOM      5  C   UNL     1     -28.324 -32.537 -13.014  1.00  0.00     0.000 C 
BRANCH   5   6
ATOM      6  C   UNL     1     -27.616 -31.198 -13.267  1.00  0.00     0.006 C 
BRANCH   6   7
ATOM      7  C   UNL     1     -26.263 -31.149 -12.552  1.00  0.00     0.053 C 
BRANCH   7   8
ATOM      8  C   UNL     1     -26.449 -30.858 -11.096  1.00  0.00     0.041 C 
ATOM      9  O   UNL     1     -25.790 -31.496 -10.233  1.00  0.00    -0.550 OA
ATOM     10  O   UNL     1     -27.389 -29.919 -10.689  1.00  0.00    -0.550 OA
ENDBRANCH   7   8
ENDBRANCH   6   7
ENDBRANCH   5   6
ENDBRANCH   4   5
ENDBRANCH   3   4
ENDBRANCH   2   3
ENDBRANCH   1   2
BRANCH   1  11
ATOM     11  C   UNL     1     -24.991 -35.360 -12.163  1.00  0.00    -0.031 C 
ATOM     12  C   UNL     1     -23.914 -34.733 -12.671  1.00  0.00    -0.027 C 
BRANCH  12  13
ATOM     13  C   UNL     1     -23.407 -33.382 -12.232  1.00  0.00     0.054 C 
BRANCH  13  14
ATOM     14  C   UNL     1     -22.016 -33.155 -12.751  1.00  0.00    -0.027 C 
ATOM     15  C   UNL     1     -21.540 -33.843 -13.800  1.00  0.00    -0.031 C 
BRANCH  15  16
ATOM     16  C   UNL     1     -20.147 -33.620 -14.323  1.00  0.00     0.027 C 
BRANCH  16  17
ATOM     17  C   UNL     1     -19.089 -34.388 -13.517  1.00  0.00     0.004 C 
BRANCH  17  18
ATOM     18  C   UNL     1     -19.461 -35.867 -13.335  1.00  0.00     0.000 C 
BRANCH  18  19
ATOM     19  C   UNL     1     -19.092 -36.356 -11.929  1.00  0.00    -0.003 C 
ATOM     20  C   UNL     1     -19.901 -35.626 -10.862  1.00  0.00     0.004 C 
ENDBRANCH  18  19
ENDBRANCH  17  18
ENDBRANCH  16  17
ENDBRANCH  15  16
ENDBRANCH  13  14
ENDBRANCH  12  13
ENDBRANCH   1  11
TORSDOF 14
ENDMDL
MODEL 2
REMARK VINA RESULT:    -5.153      1.335      2.588
REMARK INTER + INTRA:         -11.423
REMARK INTER:                  -9.505
REMARK INTRA:                  -1.918
REMARK UNBOUND:                -2.052
REMARK SMILES CCCCCC=CCC=CCCCCCCCC(=O)[O-]
REMARK SMILES IDX 11 1 12 2 13 3 14 4 15 5 16 6 17 7 18 8 19 9 20 10 10 11
REMARK SMILES IDX 9 12 8 13 7 14 6 15 5 16 4 17 3 18 2 19 1 20
REMARK H PARENT
REMARK Flexibility Score: inf
ROOT
ATOM      1  C   UNL     1     -27.577 -35.066 -13.149  1.00  0.00     0.027 C 
ENDROOT
BRANCH   1   2
ATOM      2  C   UNL     1     -27.754 -33.775 -13.964  1.00  0.00     0.004 C 
BRANCH   2   3
ATOM      3  C   UNL     1     -28.294 -32.619 -13.104  1.00  0.00     0.000 C 
BRANCH   3   4
ATOM      4  C   UNL     1     -27.236 -31.534 -12.825  1.00  0.00     0.000 C 
BRANCH   4   5
ATOM      5  C   UNL     1     -27.667 -30.450 -11.820  1.00  0.00     0.000 C 
BRANCH   5   6
ATOM      6  C   UNL     1     -26.839 -30.471 -10.527  1.00  0.00     0.006 C 
BRANCH   6   7
ATOM      7  C   UNL     1     -25.662 -31.444 -10.644  1.00  0.00     0.053 C 
BRANCH   7   8
ATOM      8  C   UNL     1     -24.363 -30.703 -10.607  1.00  0.00     0.041 C 
ATOM      9  O   UNL     1     -23.910 -30.164 -11.651  1.00  0.00    -0.550 OA
ATOM     10  O   UNL     1     -23.625 -30.651  -9.430  1.00  0.00    -0.550 OA
ENDBRANCH   7   8
ENDBRANCH   6   7
ENDBRANCH   5   6
ENDBRANCH   4   5
ENDBRANCH   3   4
ENDBRANCH   2   3
ENDBRANCH   1   2
BRANCH   1  11
ATOM     11  C   UNL     1     -26.869 -34.822 -11.839  1.00  0.00    -0.031 C 
ATOM     12  C   UNL     1     -25.567 -35.076 -11.607  1.00  0.00    -0.027 C 
BRANCH  12  13
ATOM     13  C   UNL     1     -24.587 -35.594 -12.631  1.00  0.00     0.054 C 
BRANCH  13  14
ATOM     14  C   UNL     1     -23.253 -34.927 -12.457  1.00  0.00    -0.027 C 
ATOM     15  C   UNL     1     -23.096 -33.611 -12.664  1.00  0.00    -0.031 C 
BRANCH  15  16
ATOM     16  C   UNL     1     -21.761 -32.939 -12.493  1.00  0.00     0.027 C 
BRANCH  16  17
ATOM     17  C   UNL     1     -21.163 -32.476 -13.829  1.00  0.00     0.004 C 
BRANCH  17  18
ATOM     18  C   UNL     1     -20.572 -33.644 -14.634  1.00  0.00     0.000 C 
BRANCH  18  19
ATOM     19  C   UNL     1     -19.337 -34.224 -13.933  1.00  0.00    -0.003 C 
ATOM     20  C   UNL     1     -19.607 -35.635 -13.421  1.00  0.00     0.004 C 
ENDBRANCH  18  19
ENDBRANCH  17  18
ENDBRANCH  16  17
ENDBRANCH  15  16
ENDBRANCH  13  14
ENDBRANCH  12  13
ENDBRANCH   1  11
TORSDOF 14
ENDMDL
MODEL 3
REMARK VINA RESULT:    -4.993      2.157      3.451
REMARK INTER + INTRA:         -11.131
REMARK INTER:                  -9.030
REMARK INTRA:                  -2.101
REMARK UNBOUND:                -2.052
REMARK SMILES CCCCCC=CCC=CCCCCCCCC(=O)[O-]
REMARK SMILES IDX 11 1 12 2 13 3 14 4 15 5 16 6 17 7 18 8 19 9 20 10 10 11
REMARK SMILES IDX 9 12 8 13 7 14 6 15 5 16 4 17 3 18 2 19 1 20
REMARK H PARENT
REMARK Flexibility Score: inf
ROOT
ATOM      1  C   UNL     1     -26.262 -30.953 -11.040  1.00  0.00     0.027 C 
ENDROOT
BRANCH   1   2
ATOM      2  C   UNL     1     -27.746 -30.780 -11.399  1.00  0.00     0.004 C 
BRANCH   2   3
ATOM      3  C   UNL     1     -28.032 -31.156 -12.863  1.00  0.00     0.000 C 
BRANCH   3   4
ATOM      4  C   UNL     1     -28.495 -32.616 -13.028  1.00  0.00     0.000 C 
BRANCH   4   5
ATOM      5  C   UNL     1     -27.412 -33.589 -13.529  1.00  0.00     0.000 C 
BRANCH   5   6
ATOM      6  C   UNL     1     -27.051 -34.667 -12.498  1.00  0.00     0.006 C 
BRANCH   6   7
ATOM      7  C   UNL     1     -25.606 -34.504 -12.018  1.00  0.00     0.053 C 
BRANCH   7   8
ATOM      8  C   UNL     1     -24.727 -35.546 -12.634  1.00  0.00     0.041 C 
ATOM      9  O   UNL     1     -25.215 -36.408 -13.412  1.00  0.00    -0.550 OA
ATOM     10  O   UNL     1     -23.377 -35.598 -12.309  1.00  0.00    -0.550 OA
ENDBRANCH   7   8
ENDBRANCH   6   7
ENDBRANCH   5   6
ENDBRANCH   4   5
ENDBRANCH   3   4
ENDBRANCH   2   3
ENDBRANCH   1   2
BRANCH   1  11
ATOM     11  C   UNL     1     -25.350 -30.577 -12.182  1.00  0.00    -0.031 C 
ATOM     12  C   UNL     1     -24.055 -30.931 -12.284  1.00  0.00    -0.027 C 
BRANCH  12  13
ATOM     13  C   UNL     1     -23.314 -31.807 -11.304  1.00  0.00     0.054 C 
BRANCH  13  14
ATOM     14  C   UNL     1     -21.987 -32.217 -11.875  1.00  0.00    -0.027 C 
ATOM     15  C   UNL     1     -21.862 -32.590 -13.157  1.00  0.00    -0.031 C 
BRANCH  15  16
ATOM     16  C   UNL     1     -20.534 -33.003 -13.733  1.00  0.00     0.027 C 
BRANCH  16  17
ATOM     17  C   UNL     1     -20.515 -34.477 -14.162  1.00  0.00     0.004 C 
BRANCH  17  18
ATOM     18  C   UNL     1     -19.426 -35.278 -13.434  1.00  0.00     0.000 C 
BRANCH  18  19
ATOM     19  C   UNL     1     -19.999 -35.986 -12.199  1.00  0.00    -0.003 C 
ATOM     20  C   UNL     1     -19.669 -35.219 -10.923  1.00  0.00     0.004 C 
ENDBRANCH  18  19
ENDBRANCH  17  18
ENDBRANCH  16  17
ENDBRANCH  15  16
ENDBRANCH  13  14
ENDBRANCH  12  13
ENDBRANCH   1  11
TORSDOF 14
ENDMDL
MODEL 4
REMARK VINA RESULT:    -4.970      2.854      6.672
REMARK INTER + INTRA:         -11.089
REMARK INTER:                  -8.962
REMARK INTRA:                  -2.127
REMARK UNBOUND:                -2.052
REMARK SMILES CCCCCC=CCC=CCCCCCCCC(=O)[O-]
REMARK SMILES IDX 11 1 12 2 13 3 14 4 15 5 16 6 17 7 18 8 19 9 20 10 10 11
REMARK SMILES IDX 9 12 8 13 7 14 6 15 5 16 4 17 3 18 2 19 1 20
REMARK H PARENT
REMARK Flexibility Score: inf
ROOT
ATOM      1  C   UNL     1     -25.556 -31.159 -11.022  1.00  0.00     0.027 C 
ENDROOT
BRANCH   1   2
ATOM      2  C   UNL     1     -24.106 -31.616 -10.797  1.00  0.00     0.004 C 
BRANCH   2   3
ATOM      3  C   UNL     1     -23.401 -31.968 -12.118  1.00  0.00     0.000 C 
BRANCH   3   4
ATOM      4  C   UNL     1     -22.270 -32.998 -11.938  1.00  0.00     0.000 C 
BRANCH   4   5
ATOM      5  C   UNL     1     -21.142 -32.914 -12.983  1.00  0.00     0.000 C 
BRANCH   5   6
ATOM      6  C   UNL     1     -20.988 -34.202 -13.803  1.00  0.00     0.006 C 
BRANCH   6   7
ATOM      7  C   UNL     1     -21.196 -35.440 -12.925  1.00  0.00     0.053 C 
BRANCH   7   8
ATOM      8  C   UNL     1     -19.922 -35.815 -12.237  1.00  0.00     0.041 C 
ATOM      9  O   UNL     1     -19.773 -35.586 -11.008  1.00  0.00    -0.550 OA
ATOM     10  O   UNL     1     -18.877 -36.372 -12.964  1.00  0.00    -0.550 OA
ENDBRANCH   7   8
ENDBRANCH   6   7
ENDBRANCH   5   6
ENDBRANCH   4   5
ENDBRANCH   3   4
ENDBRANCH   2   3
ENDBRANCH   1   2
BRANCH   1  11
ATOM     11  C   UNL     1     -25.763 -30.571 -12.396  1.00  0.00    -0.031 C 
ATOM     12  C   UNL     1     -26.920 -30.601 -13.082  1.00  0.00    -0.027 C 
BRANCH  12  13
ATOM     13  C   UNL     1     -28.218 -31.178 -12.572  1.00  0.00     0.054 C 
BRANCH  13  14
ATOM     14  C   UNL     1     -28.311 -32.635 -12.923  1.00  0.00    -0.027 C 
ATOM     15  C   UNL     1     -27.766 -33.120 -14.049  1.00  0.00    -0.031 C 
BRANCH  15  16
ATOM     16  C   UNL     1     -27.858 -34.579 -14.405  1.00  0.00     0.027 C 
BRANCH  16  17
ATOM     17  C   UNL     1     -27.278 -35.486 -13.311  1.00  0.00     0.004 C 
BRANCH  17  18
ATOM     18  C   UNL     1     -25.744 -35.553 -13.366  1.00  0.00     0.000 C 
BRANCH  18  19
ATOM     19  C   UNL     1     -25.129 -35.138 -12.024  1.00  0.00    -0.003 C 
ATOM     20  C   UNL     1     -26.206 -34.711 -11.032  1.00  0.00     0.004 C 
ENDBRANCH  18  19
ENDBRANCH  17  18
ENDBRANCH  16  17
ENDBRANCH  15  16
ENDBRANCH  13  14
ENDBRANCH  12  13
ENDBRANCH   1  11
TORSDOF 14
ENDMDL
MODEL 5
REMARK VINA RESULT:    -4.881      1.919      3.723
REMARK INTER + INTRA:         -10.927
REMARK INTER:                  -8.517
REMARK INTRA:                  -2.410
REMARK UNBOUND:                -2.052
REMARK SMILES CCCCCC=CCC=CCCCCCCCC(=O)[O-]
REMARK SMILES IDX 11 1 12 2 13 3 14 4 15 5 16 6 17 7 18 8 19 9 20 10 10 11
REMARK SMILES IDX 9 12 8 13 7 14 6 15 5 16 4 17 3 18 2 19 1 20
REMARK H PARENT
REMARK Flexibility Score: inf
ROOT
ATOM      1  C   UNL     1     -28.678 -32.872 -12.639  1.00  0.00     0.027 C 
ENDROOT
BRANCH   1   2
ATOM      2  C   UNL     1     -28.461 -31.390 -12.984  1.00  0.00     0.004 C 
BRANCH   2   3
ATOM      3  C   UNL     1     -27.725 -30.639 -11.862  1.00  0.00     0.000 C 
BRANCH   3   4
ATOM      4  C   UNL     1     -26.313 -31.194 -11.594  1.00  0.00     0.000 C 
BRANCH   4   5
ATOM      5  C   UNL     1     -25.255 -30.813 -12.646  1.00  0.00     0.000 C 
BRANCH   5   6
ATOM      6  C   UNL     1     -23.847 -31.309 -12.287  1.00  0.00     0.006 C 
BRANCH   6   7
ATOM      7  C   UNL     1     -23.720 -31.551 -10.779  1.00  0.00     0.053 C 
BRANCH   7   8
ATOM      8  C   UNL     1     -22.569 -30.776 -10.219  1.00  0.00     0.041 C 
ATOM      9  O   UNL     1     -22.548 -30.466  -8.998  1.00  0.00    -0.550 OA
ATOM     10  O   UNL     1     -21.544 -30.351 -11.055  1.00  0.00    -0.550 OA
ENDBRANCH   7   8
ENDBRANCH   6   7
ENDBRANCH   5   6
ENDBRANCH   4   5
ENDBRANCH   3   4
ENDBRANCH   2   3
ENDBRANCH   1   2
BRANCH   1  11
ATOM     11  C   UNL     1     -27.887 -33.790 -13.538  1.00  0.00    -0.031 C 
ATOM     12  C   UNL     1     -26.922 -34.632 -13.124  1.00  0.00    -0.027 C 
BRANCH  12  13
ATOM     13  C   UNL     1     -26.508 -34.839 -11.688  1.00  0.00     0.054 C 
BRANCH  13  14
ATOM     14  C   UNL     1     -25.056 -35.217 -11.617  1.00  0.00    -0.027 C 
ATOM     15  C   UNL     1     -24.216 -34.964 -12.632  1.00  0.00    -0.031 C 
BRANCH  15  16
ATOM     16  C   UNL     1     -22.761 -35.342 -12.565  1.00  0.00     0.027 C 
BRANCH  16  17
ATOM     17  C   UNL     1     -21.852 -34.286 -13.211  1.00  0.00     0.004 C 
BRANCH  17  18
ATOM     18  C   UNL     1     -20.881 -33.660 -12.200  1.00  0.00     0.000 C 
BRANCH  18  19
ATOM     19  C   UNL     1     -19.680 -33.026 -12.912  1.00  0.00    -0.003 C 
ATOM     20  C   UNL     1     -19.240 -33.868 -14.105  1.00  0.00     0.004 C 
ENDBRANCH  18  19
ENDBRANCH  17  18
ENDBRANCH  16  17
ENDBRANCH  15  16
ENDBRANCH  13  14
ENDBRANCH  12  13
ENDBRANCH   1  11
TORSDOF 14
ENDMDL
MODEL 6
REMARK VINA RESULT:    -4.870      1.091      2.149
REMARK INTER + INTRA:         -10.908
REMARK INTER:                  -9.053
REMARK INTRA:                  -1.855
REMARK UNBOUND:                -2.052
REMARK SMILES CCCCCC=CCC=CCCCCCCCC(=O)[O-]
REMARK SMILES IDX 11 1 12 2 13 3 14 4 15 5 16 6 17 7 18 8 19 9 20 10 10 11
REMARK SMILES IDX 9 12 8 13 7 14 6 15 5 16 4 17 3 18 2 19 1 20
REMARK H PARENT
REMARK Flexibility Score: inf
ROOT
ATOM      1  C   UNL     1     -26.090 -34.694 -11.153  1.00  0.00     0.027 C 
ENDROOT
BRANCH   1   2
ATOM      2  C   UNL     1     -27.569 -34.744 -11.568  1.00  0.00     0.004 C 
BRANCH   2   3
ATOM      3  C   UNL     1     -27.737 -34.822 -13.095  1.00  0.00     0.000 C 
BRANCH   3   4
ATOM      4  C   UNL     1     -27.694 -33.440 -13.774  1.00  0.00     0.000 C 
BRANCH   4   5
ATOM      5  C   UNL     1     -28.523 -32.346 -13.076  1.00  0.00     0.000 C 
BRANCH   5   6
ATOM      6  C   UNL     1     -27.679 -31.137 -12.647  1.00  0.00     0.006 C 
BRANCH   6   7
ATOM      7  C   UNL     1     -26.190 -31.390 -12.901  1.00  0.00     0.053 C 
BRANCH   7   8
ATOM      8  C   UNL     1     -25.380 -31.012 -11.701  1.00  0.00     0.041 C 
ATOM      9  O   UNL     1     -24.252 -30.471 -11.842  1.00  0.00    -0.550 OA
ATOM     10  O   UNL     1     -25.849 -31.305 -10.426  1.00  0.00    -0.550 OA
ENDBRANCH   7   8
ENDBRANCH   6   7
ENDBRANCH   5   6
ENDBRANCH   4   5
ENDBRANCH   3   4
ENDBRANCH   2   3
ENDBRANCH   1   2
BRANCH   1  11
ATOM     11  C   UNL     1     -25.241 -35.654 -11.949  1.00  0.00    -0.031 C 
ATOM     12  C   UNL     1     -24.107 -35.327 -12.596  1.00  0.00    -0.027 C 
BRANCH  12  13
ATOM     13  C   UNL     1     -23.466 -33.961 -12.589  1.00  0.00     0.054 C 
BRANCH  13  14
ATOM     14  C   UNL     1     -22.010 -34.069 -12.939  1.00  0.00    -0.027 C 
ATOM     15  C   UNL     1     -21.339 -35.222 -12.794  1.00  0.00    -0.031 C 
BRANCH  15  16
ATOM     16  C   UNL     1     -19.880 -35.335 -13.142  1.00  0.00     0.027 C 
BRANCH  16  17
ATOM     17  C   UNL     1     -19.473 -34.383 -14.275  1.00  0.00     0.004 C 
BRANCH  17  18
ATOM     18  C   UNL     1     -18.875 -33.071 -13.744  1.00  0.00     0.000 C 
BRANCH  18  19
ATOM     19  C   UNL     1     -19.267 -31.888 -14.637  1.00  0.00    -0.003 C 
ATOM     20  C   UNL     1     -20.390 -32.270 -15.596  1.00  0.00     0.004 C 
ENDBRANCH  18  19
ENDBRANCH  17  18
ENDBRANCH  16  17
ENDBRANCH  15  16
ENDBRANCH  13  14
ENDBRANCH  12  13
ENDBRANCH   1  11
TORSDOF 14
ENDMDL
MODEL 7
REMARK VINA RESULT:    -4.787      2.946      6.668
REMARK INTER + INTRA:         -10.756
REMARK INTER:                  -8.603
REMARK INTRA:                  -2.154
REMARK UNBOUND:                -2.052
REMARK SMILES CCCCCC=CCC=CCCCCCCCC(=O)[O-]
REMARK SMILES IDX 11 1 12 2 13 3 14 4 15 5 16 6 17 7 18 8 19 9 20 10 10 11
REMARK SMILES IDX 9 12 8 13 7 14 6 15 5 16 4 17 3 18 2 19 1 20
REMARK H PARENT
REMARK Flexibility Score: inf
ROOT
ATOM      1  C   UNL     1     -24.476 -35.503 -12.589  1.00  0.00     0.027 C 
ENDROOT
BRANCH   1   2
ATOM      2  C   UNL     1     -23.261 -34.563 -12.644  1.00  0.00     0.004 C 
BRANCH   2   3
ATOM      3  C   UNL     1     -21.932 -35.336 -12.589  1.00  0.00     0.000 C 
BRANCH   3   4
ATOM      4  C   UNL     1     -20.831 -34.580 -11.821  1.00  0.00     0.000 C 
BRANCH   4   5
ATOM      5  C   UNL     1     -21.036 -33.057 -11.720  1.00  0.00     0.000 C 
BRANCH   5   6
ATOM      6  C   UNL     1     -20.204 -32.272 -12.744  1.00  0.00     0.006 C 
BRANCH   6   7
ATOM      7  C   UNL     1     -21.085 -31.750 -13.883  1.00  0.00     0.053 C 
BRANCH   7   8
ATOM      8  C   UNL     1     -20.728 -32.421 -15.172  1.00  0.00     0.041 C 
ATOM      9  O   UNL     1     -20.395 -33.635 -15.183  1.00  0.00    -0.550 OA
ATOM     10  O   UNL     1     -20.713 -31.692 -16.354  1.00  0.00    -0.550 OA
ENDBRANCH   7   8
ENDBRANCH   6   7
ENDBRANCH   5   6
ENDBRANCH   4   5
ENDBRANCH   3   4
ENDBRANCH   2   3
ENDBRANCH   1   2
BRANCH   1  11
ATOM     11  C   UNL     1     -25.454 -35.109 -11.509  1.00  0.00    -0.031 C 
ATOM     12  C   UNL     1     -26.754 -34.827 -11.712  1.00  0.00    -0.027 C 
BRANCH  12  13
ATOM     13  C   UNL     1     -27.465 -34.910 -13.040  1.00  0.00     0.054 C 
BRANCH  13  14
ATOM     14  C   UNL     1     -27.840 -33.535 -13.515  1.00  0.00    -0.027 C 
ATOM     15  C   UNL     1     -28.054 -32.531 -12.651  1.00  0.00    -0.031 C 
BRANCH  15  16
ATOM     16  C   UNL     1     -28.432 -31.153 -13.122  1.00  0.00     0.027 C 
BRANCH  16  17
ATOM     17  C   UNL     1     -27.246 -30.179 -13.090  1.00  0.00     0.004 C 
BRANCH  17  18
ATOM     18  C   UNL     1     -26.374 -30.367 -11.839  1.00  0.00     0.000 C 
BRANCH  18  19
ATOM     19  C   UNL     1     -24.948 -30.782 -12.222  1.00  0.00    -0.003 C 
ATOM     20  C   UNL     1     -24.217 -31.399 -11.034  1.00  0.00     0.004 C 
ENDBRANCH  18  19
ENDBRANCH  17  18
ENDBRANCH  16  17
ENDBRANCH  15  16
ENDBRANCH  13  14
ENDBRANCH  12  13
ENDBRANCH   1  11
TORSDOF 14
ENDMDL
MODEL 8
REMARK VINA RESULT:    -4.726      2.779      7.181
REMARK INTER + INTRA:         -10.645
REMARK INTER:                  -8.670
REMARK INTRA:                  -1.975
REMARK UNBOUND:                -2.052
REMARK SMILES CCCCCC=CCC=CCCCCCCCC(=O)[O-]
REMARK SMILES IDX 11 1 12 2 13 3 14 4 15 5 16 6 17 7 18 8 19 9 20 10 10 11
REMARK SMILES IDX 9 12 8 13 7 14 6 15 5 16 4 17 3 18 2 19 1 20
REMARK H PARENT
REMARK Flexibility Score: inf
ROOT
ATOM      1  C   UNL     1     -24.419 -35.304 -12.988  1.00  0.00     0.027 C 
ENDROOT
BRANCH   1   2
ATOM      2  C   UNL     1     -22.980 -35.075 -12.499  1.00  0.00     0.004 C 
BRANCH   2   3
ATOM      3  C   UNL     1     -22.612 -33.582 -12.470  1.00  0.00     0.000 C 
BRANCH   3   4
ATOM      4  C   UNL     1     -21.557 -33.204 -13.526  1.00  0.00     0.000 C 
BRANCH   4   5
ATOM      5  C   UNL     1     -20.753 -34.387 -14.096  1.00  0.00     0.000 C 
BRANCH   5   6
ATOM      6  C   UNL     1     -19.240 -34.239 -13.888  1.00  0.00     0.006 C 
BRANCH   6   7
ATOM      7  C   UNL     1     -18.875 -34.366 -12.405  1.00  0.00     0.053 C 
BRANCH   7   8
ATOM      8  C   UNL     1     -19.246 -35.720 -11.888  1.00  0.00     0.041 C 
ATOM      9  O   UNL     1     -18.877 -36.756 -12.501  1.00  0.00    -0.550 OA
ATOM     10  O   UNL     1     -20.043 -35.837 -10.755  1.00  0.00    -0.550 OA
ENDBRANCH   7   8
ENDBRANCH   6   7
ENDBRANCH   5   6
ENDBRANCH   4   5
ENDBRANCH   3   4
ENDBRANCH   2   3
ENDBRANCH   1   2
BRANCH   1  11
ATOM     11  C   UNL     1     -25.415 -35.303 -11.855  1.00  0.00    -0.031 C 
ATOM     12  C   UNL     1     -26.741 -35.118 -11.993  1.00  0.00    -0.027 C 
BRANCH  12  13
ATOM     13  C   UNL     1     -27.461 -34.937 -13.307  1.00  0.00     0.054 C 
BRANCH  13  14
ATOM     14  C   UNL     1     -27.679 -33.476 -13.582  1.00  0.00    -0.027 C 
ATOM     15  C   UNL     1     -28.365 -32.699 -12.731  1.00  0.00    -0.031 C 
BRANCH  15  16
ATOM     16  C   UNL     1     -28.588 -31.236 -13.003  1.00  0.00     0.027 C 
BRANCH  16  17
ATOM     17  C   UNL     1     -27.591 -30.343 -12.250  1.00  0.00     0.004 C 
BRANCH  17  18
ATOM     18  C   UNL     1     -27.084 -31.002 -10.959  1.00  0.00     0.000 C 
BRANCH  18  19
ATOM     19  C   UNL     1     -25.564 -31.204 -11.006  1.00  0.00    -0.003 C 
ATOM     20  C   UNL     1     -25.001 -30.828 -12.373  1.00  0.00     0.004 C 
ENDBRANCH  18  19
ENDBRANCH  17  18
ENDBRANCH  16  17
ENDBRANCH  15  16
ENDBRANCH  13  14
ENDBRANCH  12  13
ENDBRANCH   1  11
TORSDOF 14
ENDMDL
MODEL 9
REMARK VINA RESULT:    -4.631      2.010      3.398
REMARK INTER + INTRA:         -10.474
REMARK INTER:                  -8.627
REMARK INTRA:                  -1.847
REMARK UNBOUND:                -2.052
REMARK SMILES CCCCCC=CCC=CCCCCCCCC(=O)[O-]
REMARK SMILES IDX 11 1 12 2 13 3 14 4 15 5 16 6 17 7 18 8 19 9 20 10 10 11
REMARK SMILES IDX 9 12 8 13 7 14 6 15 5 16 4 17 3 18 2 19 1 20
REMARK H PARENT
REMARK Flexibility Score: inf
ROOT
ATOM      1  C   UNL     1     -25.199 -31.351 -11.254  1.00  0.00     0.027 C 
ENDROOT
BRANCH   1   2
ATOM      2  C   UNL     1     -26.010 -30.120 -10.819  1.00  0.00     0.004 C 
BRANCH   2   3
ATOM      3  C   UNL     1     -27.483 -30.219 -11.250  1.00  0.00     0.000 C 
BRANCH   3   4
ATOM      4  C   UNL     1     -27.649 -30.552 -12.745  1.00  0.00     0.000 C 
BRANCH   4   5
ATOM      5  C   UNL     1     -28.638 -31.693 -13.050  1.00  0.00     0.000 C 
BRANCH   5   6
ATOM      6  C   UNL     1     -27.938 -33.018 -13.384  1.00  0.00     0.006 C 
BRANCH   6   7
ATOM      7  C   UNL     1     -27.938 -33.958 -12.174  1.00  0.00     0.053 C 
BRANCH   7   8
ATOM      8  C   UNL     1     -26.691 -34.784 -12.151  1.00  0.00     0.041 C 
ATOM      9  O   UNL     1     -25.977 -34.825 -11.114  1.00  0.00    -0.550 OA
ATOM     10  O   UNL     1     -26.287 -35.466 -13.292  1.00  0.00    -0.550 OA
ENDBRANCH   7   8
ENDBRANCH   6   7
ENDBRANCH   5   6
ENDBRANCH   4   5
ENDBRANCH   3   4
ENDBRANCH   2   3
ENDBRANCH   1   2
BRANCH   1  11
ATOM     11  C   UNL     1     -23.873 -31.444 -10.540  1.00  0.00    -0.031 C 
ATOM     12  C   UNL     1     -22.681 -31.139 -11.084  1.00  0.00    -0.027 C 
BRANCH  12  13
ATOM     13  C   UNL     1     -22.474 -30.601 -12.479  1.00  0.00     0.054 C 
BRANCH  13  14
ATOM     14  C   UNL     1     -21.858 -31.654 -13.355  1.00  0.00    -0.027 C 
ATOM     15  C   UNL     1     -20.529 -31.829 -13.411  1.00  0.00    -0.031 C 
BRANCH  15  16
ATOM     16  C   UNL     1     -19.908 -32.882 -14.288  1.00  0.00     0.027 C 
BRANCH  16  17
ATOM     17  C   UNL     1     -20.774 -34.146 -14.387  1.00  0.00     0.004 C 
BRANCH  17  18
ATOM     18  C   UNL     1     -20.285 -35.258 -13.447  1.00  0.00     0.000 C 
BRANCH  18  19
ATOM     19  C   UNL     1     -21.242 -35.433 -12.261  1.00  0.00    -0.003 C 
ATOM     20  C   UNL     1     -22.680 -35.124 -12.663  1.00  0.00     0.004 C 
ENDBRANCH  18  19
ENDBRANCH  17  18
ENDBRANCH  16  17
ENDBRANCH  15  16
ENDBRANCH  13  14
ENDBRANCH  12  13
ENDBRANCH   1  11
TORSDOF 14
ENDMDL
