MODEL 1
REMARK VINA RESULT:    -3.031      0.000      0.000
REMARK INTER + INTRA:          -3.297
REMARK INTER:                  -3.297
REMARK INTRA:                   0.000
REMARK UNBOUND:                 0.000
REMARK SMILES [NH3+]CC(=O)[O-]
REMARK SMILES IDX 2 1 1 2 3 6 4 7 5 8
REMARK H PARENT 1 3 1 4 1 5
REMARK Flexibility Score: inf
ROOT
ATOM      1  C   UNL     1     -19.651  27.200  -9.727  1.00  0.00     0.312 C 
ENDROOT
BRANCH   1   2
ATOM      2  N   UNL     1     -19.090  27.835  -8.535  1.00  0.00    -0.353 N 
ATOM      3  H   UNL     1     -19.176  27.180  -7.725  1.00  0.00     0.344 HD
ATOM      4  H   UNL     1     -19.614  28.714  -8.316  1.00  0.00     0.344 HD
ATOM      5  H   UNL     1     -18.079  28.054  -8.688  1.00  0.00     0.344 HD
ENDBRANCH   1   2
BRANCH   1   6
ATOM      6  C   UNL     1     -20.715  26.216  -9.349  1.00  0.00     0.096 C 
ATOM      7  O   UNL     1     -21.027  25.287 -10.138  1.00  0.00    -0.544 OA
ATOM      8  O   UNL     1     -21.397  26.358  -8.147  1.00  0.00    -0.544 OA
ENDBRANCH   1   6
TORSDOF 2
ENDMDL
MODEL 2
REMARK VINA RESULT:    -3.014      0.114      1.447
REMARK INTER + INTRA:          -3.278
REMARK INTER:                  -3.278
REMARK INTRA:                   0.000
REMARK UNBOUND:                 0.000
REMARK SMILES [NH3+]CC(=O)[O-]
REMARK SMILES IDX 2 1 1 2 3 6 4 7 5 8
REMARK H PARENT 1 3 1 4 1 5
REMARK Flexibility Score: inf
ROOT
ATOM      1  C   UNL     1     -19.637  27.189  -9.722  1.00  0.00     0.312 C 
ENDROOT
BRANCH   1   2
ATOM      2  N   UNL     1     -19.080  27.843  -8.540  1.00  0.00    -0.353 N 
ATOM      3  H   UNL     1     -18.573  27.133  -7.963  1.00  0.00     0.344 HD
ATOM      4  H   UNL     1     -19.848  28.259  -7.964  1.00  0.00     0.344 HD
ATOM      5  H   UNL     1     -18.407  28.591  -8.826  1.00  0.00     0.344 HD
ENDBRANCH   1   2
BRANCH   1   6
ATOM      6  C   UNL     1     -20.762  26.277  -9.341  1.00  0.00     0.096 C 
ATOM      7  O   UNL     1     -21.277  26.351  -8.195  1.00  0.00    -0.544 OA
ATOM      8  O   UNL     1     -21.206  25.311 -10.235  1.00  0.00    -0.544 OA
ENDBRANCH   1   6
TORSDOF 2
ENDMDL
MODEL 3
REMARK VINA RESULT:    -2.906      2.552      2.706
REMARK INTER + INTRA:          -3.161
REMARK INTER:                  -3.161
REMARK INTRA:                   0.000
REMARK UNBOUND:                 0.000
REMARK SMILES [NH3+]CC(=O)[O-]
REMARK SMILES IDX 2 1 1 2 3 6 4 7 5 8
REMARK H PARENT 1 3 1 4 1 5
REMARK Flexibility Score: inf
ROOT
ATOM      1  C   UNL     1     -21.103  26.485  -8.229  1.00  0.00     0.312 C 
ENDROOT
BRANCH   1   2
ATOM      2  N   UNL     1     -20.986  25.430  -9.234  1.00  0.00    -0.353 N 
ATOM      3  H   UNL     1     -20.991  25.861 -10.186  1.00  0.00     0.344 HD
ATOM      4  H   UNL     1     -21.795  24.770  -9.157  1.00  0.00     0.344 HD
ATOM      5  H   UNL     1     -20.089  24.907  -9.103  1.00  0.00     0.344 HD
ENDBRANCH   1   2
BRANCH   1   6
ATOM      6  C   UNL     1     -20.607  27.789  -8.772  1.00  0.00     0.096 C 
ATOM      7  O   UNL     1     -19.375  28.046  -8.777  1.00  0.00    -0.544 OA
ATOM      8  O   UNL     1     -21.511  28.740  -9.228  1.00  0.00    -0.544 OA
ENDBRANCH   1   6
TORSDOF 2
ENDMDL
MODEL 4
REMARK VINA RESULT:    -2.899      1.832      2.278
REMARK INTER + INTRA:          -3.153
REMARK INTER:                  -3.153
REMARK INTRA:                   0.000
REMARK UNBOUND:                 0.000
REMARK SMILES [NH3+]CC(=O)[O-]
REMARK SMILES IDX 2 1 1 2 3 6 4 7 5 8
REMARK H PARENT 1 3 1 4 1 5
REMARK Flexibility Score: inf
ROOT
ATOM      1  C   UNL     1     -21.409  26.679  -8.150  1.00  0.00     0.312 C 
ENDROOT
BRANCH   1   2
ATOM      2  N   UNL     1     -22.158  27.918  -8.350  1.00  0.00    -0.353 N 
ATOM      3  H   UNL     1     -23.093  27.831  -7.890  1.00  0.00     0.344 HD
ATOM      4  H   UNL     1     -22.300  28.091  -9.372  1.00  0.00     0.344 HD
ATOM      5  H   UNL     1     -21.643  28.723  -7.923  1.00  0.00     0.344 HD
ENDBRANCH   1   2
BRANCH   1   6
ATOM      6  C   UNL     1     -20.626  26.331  -9.378  1.00  0.00     0.096 C 
ATOM      7  O   UNL     1     -19.603  26.996  -9.687  1.00  0.00    -0.544 OA
ATOM      8  O   UNL     1     -21.057  25.304 -10.208  1.00  0.00    -0.544 OA
ENDBRANCH   1   6
TORSDOF 2
ENDMDL
MODEL 5
REMARK VINA RESULT:    -2.898      2.389      2.577
REMARK INTER + INTRA:          -3.152
REMARK INTER:                  -3.152
REMARK INTRA:                   0.000
REMARK UNBOUND:                 0.000
REMARK SMILES [NH3+]CC(=O)[O-]
REMARK SMILES IDX 2 1 1 2 3 6 4 7 5 8
REMARK H PARENT 1 3 1 4 1 5
REMARK Flexibility Score: inf
ROOT
ATOM      1  C   UNL     1     -21.400  28.267  -9.164  1.00  0.00     0.312 C 
ENDROOT
BRANCH   1   2
ATOM      2  N   UNL     1     -22.371  27.911  -8.130  1.00  0.00    -0.353 N 
ATOM      3  H   UNL     1     -21.869  27.466  -7.328  1.00  0.00     0.344 HD
ATOM      4  H   UNL     1     -23.068  27.231  -8.511  1.00  0.00     0.344 HD
ATOM      5  H   UNL     1     -22.862  28.769  -7.788  1.00  0.00     0.344 HD
ENDBRANCH   1   2
BRANCH   1   6
ATOM      6  C   UNL     1     -20.126  27.502  -8.978  1.00  0.00     0.096 C 
ATOM      7  O   UNL     1     -20.135  26.390  -8.388  1.00  0.00    -0.544 OA
ATOM      8  O   UNL     1     -18.923  28.041  -9.413  1.00  0.00    -0.544 OA
ENDBRANCH   1   6
TORSDOF 2
ENDMDL
MODEL 6
REMARK VINA RESULT:    -2.648      2.333      2.428
REMARK INTER + INTRA:          -2.880
REMARK INTER:                  -2.880
REMARK INTRA:                   0.000
REMARK UNBOUND:                 0.000
REMARK SMILES [NH3+]CC(=O)[O-]
REMARK SMILES IDX 2 1 1 2 3 6 4 7 5 8
REMARK H PARENT 1 3 1 4 1 5
REMARK Flexibility Score: inf
ROOT
ATOM      1  C   UNL     1     -21.374  25.875 -10.281  1.00  0.00     0.312 C 
ENDROOT
BRANCH   1   2
ATOM      2  N   UNL     1     -20.803  24.950  -9.304  1.00  0.00    -0.353 N 
ATOM      3  H   UNL     1     -21.504  24.773  -8.549  1.00  0.00     0.344 HD
ATOM      4  H   UNL     1     -19.943  25.365  -8.876  1.00  0.00     0.344 HD
ATOM      5  H   UNL     1     -20.566  24.041  -9.765  1.00  0.00     0.344 HD
ENDBRANCH   1   2
BRANCH   1   6
ATOM      6  C   UNL     1     -21.875  27.114  -9.605  1.00  0.00     0.096 C 
ATOM      7  O   UNL     1     -22.283  28.088 -10.289  1.00  0.00    -0.544 OA
ATOM      8  O   UNL     1     -21.844  27.210  -8.220  1.00  0.00    -0.544 OA
ENDBRANCH   1   6
TORSDOF 2
ENDMDL
MODEL 7
REMARK VINA RESULT:    -2.588     11.035     11.260
REMARK INTER + INTRA:          -2.815
REMARK INTER:                  -2.815
REMARK INTRA:                   0.000
REMARK UNBOUND:                 0.000
REMARK SMILES [NH3+]CC(=O)[O-]
REMARK SMILES IDX 2 1 1 2 3 6 4 7 5 8
REMARK H PARENT 1 3 1 4 1 5
REMARK Flexibility Score: inf
ROOT
ATOM      1  C   UNL     1     -22.658  33.594   0.404  1.00  0.00     0.312 C 
ENDROOT
BRANCH   1   2
ATOM      2  N   UNL     1     -22.459  34.522  -0.708  1.00  0.00    -0.353 N 
ATOM      3  H   UNL     1     -23.011  34.192  -1.532  1.00  0.00     0.344 HD
ATOM      4  H   UNL     1     -21.447  34.556  -0.970  1.00  0.00     0.344 HD
ATOM      5  H   UNL     1     -22.789  35.478  -0.441  1.00  0.00     0.344 HD
ENDBRANCH   1   2
BRANCH   1   6
ATOM      6  C   UNL     1     -22.100  32.245   0.072  1.00  0.00     0.096 C 
ATOM      7  O   UNL     1     -20.912  32.131  -0.326  1.00  0.00    -0.544 OA
ATOM      8  O   UNL     1     -22.909  31.119   0.155  1.00  0.00    -0.544 OA
ENDBRANCH   1   6
TORSDOF 2
ENDMDL
MODEL 8
REMARK VINA RESULT:    -2.582     10.716     10.979
REMARK INTER + INTRA:          -2.808
REMARK INTER:                  -2.808
REMARK INTRA:                   0.000
REMARK UNBOUND:                 0.000
REMARK SMILES [NH3+]CC(=O)[O-]
REMARK SMILES IDX 2 1 1 2 3 6 4 7 5 8
REMARK H PARENT 1 3 1 4 1 5
REMARK Flexibility Score: inf
ROOT
ATOM      1  C   UNL     1     -27.472  18.905  -4.093  1.00  0.00     0.312 C 
ENDROOT
BRANCH   1   2
ATOM      2  N   UNL     1     -27.652  18.581  -5.507  1.00  0.00    -0.353 N 
ATOM      3  H   UNL     1     -26.845  18.001  -5.831  1.00  0.00     0.344 HD
ATOM      4  H   UNL     1     -27.687  19.459  -6.075  1.00  0.00     0.344 HD
ATOM      5  H   UNL     1     -28.536  18.037  -5.641  1.00  0.00     0.344 HD
ENDBRANCH   1   2
BRANCH   1   6
ATOM      6  C   UNL     1     -26.139  19.548  -3.865  1.00  0.00     0.096 C 
ATOM      7  O   UNL     1     -25.079  18.914  -4.108  1.00  0.00    -0.544 OA
ATOM      8  O   UNL     1     -26.068  20.830  -3.335  1.00  0.00    -0.544 OA
ENDBRANCH   1   6
TORSDOF 2
ENDMDL
MODEL 9
REMARK VINA RESULT:    -2.564     12.876     13.229
REMARK INTER + INTRA:          -2.789
REMARK INTER:                  -2.789
REMARK INTRA:                   0.000
REMARK UNBOUND:                 0.000
REMARK SMILES [NH3+]CC(=O)[O-]
REMARK SMILES IDX 2 1 1 2 3 6 4 7 5 8
REMARK H PARENT 1 3 1 4 1 5
REMARK Flexibility Score: inf
ROOT
ATOM      1  C   UNL     1     -27.272  17.744  -4.389  1.00  0.00     0.312 C 
ENDROOT
BRANCH   1   2
ATOM      2  N   UNL     1     -27.640  18.596  -5.519  1.00  0.00    -0.353 N 
ATOM      3  H   UNL     1     -27.794  19.571  -5.176  1.00  0.00     0.344 HD
ATOM      4  H   UNL     1     -28.523  18.247  -5.959  1.00  0.00     0.344 HD
ATOM      5  H   UNL     1     -26.870  18.604  -6.228  1.00  0.00     0.344 HD
ENDBRANCH   1   2
BRANCH   1   6
ATOM      6  C   UNL     1     -28.162  16.542  -4.322  1.00  0.00     0.096 C 
ATOM      7  O   UNL     1     -29.156  16.533  -3.551  1.00  0.00    -0.544 OA
ATOM      8  O   UNL     1     -27.864  15.414  -5.075  1.00  0.00    -0.544 OA
ENDBRANCH   1   6
TORSDOF 2
ENDMDL
