MODEL 1
REMARK VINA RESULT:    -3.627      0.000      0.000
REMARK INTER + INTRA:          -4.955
REMARK INTER:                  -5.111
REMARK INTRA:                   0.156
REMARK UNBOUND:                 0.156
REMARK SMILES CC1=CCC(=C(C)C)C(=O)CC(C)=CCC1
REMARK SMILES IDX 12 1 14 2 13 3 15 4 16 5 2 6 1 7 3 8 11 10 9 11 10 12 5 13
REMARK SMILES IDX 6 14 7 15 8 16 4 17
REMARK H PARENT
REMARK Flexibility Score: 60.00
ROOT
ATOM      1  C   UNL     1     138.703 134.477 122.590  1.00  0.00    -0.070 C 
ATOM      2  C   UNL     1     137.949 134.837 121.519  1.00  0.00    -0.027 C 
ATOM      3  C   UNL     1     139.009 133.013 122.799  1.00  0.00     0.039 C 
ENDROOT
BRANCH   2   4
ATOM      4  C   UNL     1     137.622 136.251 121.101  1.00  0.00     0.032 C 
BRANCH   4   5
ATOM      5  C   UNL     1     138.518 136.772 119.969  1.00  0.00     0.034 C 
BRANCH   5   6
ATOM      6  C   UNL     1     139.507 137.787 120.508  1.00  0.00    -0.077 C 
ATOM      7  C   UNL     1     139.102 139.238 120.529  1.00  0.00     0.039 C 
ATOM      8  C   UNL     1     140.764 137.469 120.898  1.00  0.00    -0.023 CG0
ATOM      9  G   UNL     1     141.343 136.075 120.959  1.00  0.00     0.000 G0
ENDBRANCH   5   6
ENDBRANCH   4   5
ENDBRANCH   2   4
BRANCH   1  10
ATOM     10  C   UNL     1     139.148 135.434 123.688  1.00  0.00     0.111 C 
BRANCH  10  11
ATOM     11  C   UNL     1     140.497 136.063 123.441  1.00  0.00     0.163 C 
ATOM     12  O   UNL     1     140.790 137.095 124.105  1.00  0.00    -0.294 OA
BRANCH  11  13
ATOM     13  C   UNL     1     141.458 135.545 122.412  1.00  0.00    -0.002 C 
ATOM     14  C   UNL     1     142.383 134.589 122.737  1.00  0.00    -0.069 C 
ATOM     15  C   UNL     1     142.580 134.123 124.163  1.00  0.00     0.039 C 
ATOM     16  C   UNL     1     143.298 133.980 121.696  1.00  0.00     0.039 C 
BRANCH  13  17
ATOM     17  C   UNL     1     141.347 136.063 120.979  1.00  0.00     0.066 CG0
ATOM     18  G   UNL     1     140.761 137.454 120.920  1.00  0.00     0.000 G0
ENDBRANCH  13  17
ENDBRANCH  11  13
ENDBRANCH  10  11
ENDBRANCH   1  10
TORSDOF 0
ENDMDL
MODEL 2
REMARK VINA RESULT:    -3.590     12.275     14.236
REMARK INTER + INTRA:          -4.903
REMARK INTER:                  -5.181
REMARK INTRA:                   0.278
REMARK UNBOUND:                 0.156
REMARK SMILES CC1=CCC(=C(C)C)C(=O)CC(C)=CCC1
REMARK SMILES IDX 12 1 14 2 13 3 15 4 16 5 2 6 1 7 3 8 11 10 9 11 10 12 5 13
REMARK SMILES IDX 6 14 7 15 8 16 4 17
REMARK H PARENT
REMARK Flexibility Score: 60.00
ROOT
ATOM      1  C   UNL     1     130.382 142.605 115.927  1.00  0.00    -0.070 C 
ATOM      2  C   UNL     1     129.284 143.334 115.597  1.00  0.00    -0.027 C 
ATOM      3  C   UNL     1     131.300 143.130 117.004  1.00  0.00     0.039 C 
ENDROOT
BRANCH   2   4
ATOM      4  C   UNL     1     128.210 142.923 114.617  1.00  0.00     0.032 C 
BRANCH   4   5
ATOM      5  C   UNL     1     127.079 142.109 115.260  1.00  0.00     0.034 C 
BRANCH   5   6
ATOM      6  C   UNL     1     126.790 140.870 114.435  1.00  0.00    -0.077 C 
ATOM      7  C   UNL     1     125.906 141.009 113.223  1.00  0.00     0.039 C 
ATOM      8  C   UNL     1     127.220 139.631 114.773  1.00  0.00    -0.023 CG0
ATOM      9  G   UNL     1     128.122 139.298 115.938  1.00  0.00     0.000 G0
ENDBRANCH   5   6
ENDBRANCH   4   5
ENDBRANCH   2   4
BRANCH   1  10
ATOM     10  C   UNL     1     130.839 141.356 115.185  1.00  0.00     0.111 C 
BRANCH  10  11
ATOM     11  C   UNL     1     130.612 140.074 115.947  1.00  0.00     0.163 C 
ATOM     12  O   UNL     1     131.363 139.840 116.933  1.00  0.00    -0.294 OA
BRANCH  11  13
ATOM     13  C   UNL     1     129.580 139.063 115.544  1.00  0.00    -0.002 C 
ATOM     14  C   UNL     1     129.940 137.927 114.869  1.00  0.00    -0.069 C 
ATOM     15  C   UNL     1     131.353 137.709 114.373  1.00  0.00     0.039 C 
ATOM     16  C   UNL     1     128.935 136.846 114.536  1.00  0.00     0.039 C 
BRANCH  13  17
ATOM     17  C   UNL     1     128.125 139.296 115.949  1.00  0.00     0.066 CG0
ATOM     18  G   UNL     1     127.246 139.610 114.762  1.00  0.00     0.000 G0
ENDBRANCH  13  17
ENDBRANCH  11  13
ENDBRANCH  10  11
ENDBRANCH   1  10
TORSDOF 0
ENDMDL
MODEL 3
REMARK VINA RESULT:    -3.427     11.086     13.597
REMARK INTER + INTRA:          -4.672
REMARK INTER:                  -4.847
REMARK INTRA:                   0.174
REMARK UNBOUND:                 0.156
REMARK SMILES CC1=CCC(=C(C)C)C(=O)CC(C)=CCC1
REMARK SMILES IDX 12 1 14 2 13 3 15 4 16 5 2 6 1 7 3 8 11 10 9 11 10 12 5 13
REMARK SMILES IDX 6 14 7 15 8 16 4 17
REMARK H PARENT
REMARK Flexibility Score: 60.00
ROOT
ATOM      1  C   UNL     1     128.328 138.652 115.069  1.00  0.00    -0.070 C 
ATOM      2  C   UNL     1     129.427 138.018 114.585  1.00  0.00    -0.027 C 
ATOM      3  C   UNL     1     126.985 138.340 114.454  1.00  0.00     0.039 C 
ENDROOT
BRANCH   2   4
ATOM      4  C   UNL     1     130.830 138.133 115.134  1.00  0.00     0.032 C 
BRANCH   4   5
ATOM      5  C   UNL     1     131.577 139.377 114.635  1.00  0.00     0.034 C 
BRANCH   5   6
ATOM      6  C   UNL     1     132.166 140.140 115.806  1.00  0.00    -0.077 C 
ATOM      7  C   UNL     1     133.182 139.444 116.674  1.00  0.00     0.039 C 
ATOM      8  C   UNL     1     131.769 141.386 116.160  1.00  0.00    -0.023 CG0
ATOM      9  G   UNL     1     130.778 142.243 115.408  1.00  0.00     0.000 G0
ENDBRANCH   5   6
ENDBRANCH   4   5
ENDBRANCH   2   4
BRANCH   1  10
ATOM     10  C   UNL     1     128.366 139.773 116.099  1.00  0.00     0.111 C 
BRANCH  10  11
ATOM     11  C   UNL     1     128.425 141.155 115.497  1.00  0.00     0.163 C 
ATOM     12  O   UNL     1     127.671 141.397 114.515  1.00  0.00    -0.294 OA
BRANCH  11  13
ATOM     13  C   UNL     1     129.375 142.210 115.982  1.00  0.00    -0.002 C 
ATOM     14  C   UNL     1     129.005 143.084 116.970  1.00  0.00    -0.069 C 
ATOM     15  C   UNL     1     127.591 143.125 117.509  1.00  0.00     0.039 C 
ATOM     16  C   UNL     1     129.975 144.093 117.544  1.00  0.00     0.039 C 
BRANCH  13  17
ATOM     17  C   UNL     1     130.784 142.256 115.393  1.00  0.00     0.066 CG0
ATOM     18  G   UNL     1     131.752 141.389 116.164  1.00  0.00     0.000 G0
ENDBRANCH  13  17
ENDBRANCH  11  13
ENDBRANCH  10  11
ENDBRANCH   1  10
TORSDOF 0
ENDMDL
MODEL 4
REMARK VINA RESULT:    -3.405     11.363     14.168
REMARK INTER + INTRA:          -4.643
REMARK INTER:                  -5.036
REMARK INTRA:                   0.393
REMARK UNBOUND:                 0.156
REMARK SMILES CC1=CCC(=C(C)C)C(=O)CC(C)=CCC1
REMARK SMILES IDX 12 1 14 2 13 3 15 4 16 5 2 6 1 7 3 8 11 10 9 11 10 12 5 13
REMARK SMILES IDX 6 14 7 15 8 16 4 17
REMARK H PARENT
REMARK Flexibility Score: 60.00
ROOT
ATOM      1  C   UNL     1     130.420 143.647 116.112  1.00  0.00    -0.070 C 
ATOM      2  C   UNL     1     131.449 143.253 116.907  1.00  0.00    -0.027 C 
ATOM      3  C   UNL     1     129.738 144.960 116.411  1.00  0.00     0.039 C 
ENDROOT
BRANCH   2   4
ATOM      4  C   UNL     1     132.305 142.025 116.704  1.00  0.00     0.032 C 
BRANCH   4   5
ATOM      5  C   UNL     1     131.740 140.772 117.386  1.00  0.00     0.034 C 
BRANCH   5   6
ATOM      6  C   UNL     1     131.525 139.672 116.365  1.00  0.00    -0.077 C 
ATOM      7  C   UNL     1     132.737 139.017 115.755  1.00  0.00     0.039 C 
ATOM      8  C   UNL     1     130.303 139.301 115.914  1.00  0.00    -0.023 CG0
ATOM      9  G   UNL     1     128.980 139.831 116.414  1.00  0.00     0.000 G0
ENDBRANCH   5   6
ENDBRANCH   4   5
ENDBRANCH   2   4
BRANCH   1  10
ATOM     10  C   UNL     1     129.803 142.787 115.018  1.00  0.00     0.111 C 
BRANCH  10  11
ATOM     11  C   UNL     1     128.476 142.177 115.395  1.00  0.00     0.163 C 
ATOM     12  O   UNL     1     127.560 142.958 115.773  1.00  0.00    -0.294 OA
BRANCH  11  13
ATOM     13  C   UNL     1     128.233 140.696 115.392  1.00  0.00    -0.002 C 
ATOM     14  C   UNL     1     127.416 140.123 114.455  1.00  0.00    -0.069 C 
ATOM     15  C   UNL     1     126.610 140.957 113.483  1.00  0.00     0.039 C 
ATOM     16  C   UNL     1     127.232 138.623 114.370  1.00  0.00     0.039 C 
BRANCH  13  17
ATOM     17  C   UNL     1     128.962 139.832 116.420  1.00  0.00     0.066 CG0
ATOM     18  G   UNL     1     130.281 139.315 115.897  1.00  0.00     0.000 G0
ENDBRANCH  13  17
ENDBRANCH  11  13
ENDBRANCH  10  11
ENDBRANCH   1  10
TORSDOF 0
ENDMDL
MODEL 5
REMARK VINA RESULT:    -3.395      3.423      5.990
REMARK INTER + INTRA:          -4.627
REMARK INTER:                  -4.830
REMARK INTRA:                   0.203
REMARK UNBOUND:                 0.156
REMARK SMILES CC1=CCC(=C(C)C)C(=O)CC(C)=CCC1
REMARK SMILES IDX 12 1 14 2 13 3 15 4 16 5 2 6 1 7 3 8 11 10 9 11 10 12 5 13
REMARK SMILES IDX 6 14 7 15 8 16 4 17
REMARK H PARENT
REMARK Flexibility Score: 60.00
ROOT
ATOM      1  C   UNL     1     136.319 140.037 116.998  1.00  0.00    -0.070 C 
ATOM      2  C   UNL     1     137.073 141.153 116.825  1.00  0.00    -0.027 C 
ATOM      3  C   UNL     1     134.848 140.100 116.663  1.00  0.00     0.039 C 
ENDROOT
BRANCH   2   4
ATOM      4  C   UNL     1     138.568 141.250 117.017  1.00  0.00     0.032 C 
BRANCH   4   5
ATOM      5  C   UNL     1     138.985 141.364 118.490  1.00  0.00     0.034 C 
BRANCH   5   6
ATOM      6  C   UNL     1     140.137 140.423 118.783  1.00  0.00    -0.077 C 
ATOM      7  C   UNL     1     141.394 140.555 117.962  1.00  0.00     0.039 C 
ATOM      8  C   UNL     1     140.069 139.419 119.689  1.00  0.00    -0.023 CG0
ATOM      9  G   UNL     1     138.904 139.140 120.610  1.00  0.00     0.000 G0
ENDBRANCH   5   6
ENDBRANCH   4   5
ENDBRANCH   2   4
BRANCH   1  10
ATOM     10  C   UNL     1     136.819 138.753 117.647  1.00  0.00     0.111 C 
BRANCH  10  11
ATOM     11  C   UNL     1     136.775 138.773 119.155  1.00  0.00     0.163 C 
ATOM     12  O   UNL     1     135.798 139.353 119.703  1.00  0.00    -0.294 OA
BRANCH  11  13
ATOM     13  C   UNL     1     137.864 138.189 120.006  1.00  0.00    -0.002 C 
ATOM     14  C   UNL     1     137.963 136.835 120.183  1.00  0.00    -0.069 C 
ATOM     15  C   UNL     1     136.908 135.884 119.661  1.00  0.00     0.039 C 
ATOM     16  C   UNL     1     139.107 136.215 120.956  1.00  0.00     0.039 C 
BRANCH  13  17
ATOM     17  C   UNL     1     138.896 139.131 120.626  1.00  0.00     0.066 CG0
ATOM     18  G   UNL     1     140.042 139.418 119.685  1.00  0.00     0.000 G0
ENDBRANCH  13  17
ENDBRANCH  11  13
ENDBRANCH  10  11
ENDBRANCH   1  10
TORSDOF 0
ENDMDL
MODEL 6
REMARK VINA RESULT:    -3.345     12.262     13.828
REMARK INTER + INTRA:          -4.558
REMARK INTER:                  -4.754
REMARK INTRA:                   0.196
REMARK UNBOUND:                 0.156
REMARK SMILES CC1=CCC(=C(C)C)C(=O)CC(C)=CCC1
REMARK SMILES IDX 12 1 14 2 13 3 15 4 16 5 2 6 1 7 3 8 11 10 9 11 10 12 5 13
REMARK SMILES IDX 6 14 7 15 8 16 4 17
REMARK H PARENT
REMARK Flexibility Score: 60.00
ROOT
ATOM      1  C   UNL     1     127.401 141.414 114.862  1.00  0.00    -0.070 C 
ATOM      2  C   UNL     1     128.058 142.535 114.466  1.00  0.00    -0.027 C 
ATOM      3  C   UNL     1     126.674 140.597 113.822  1.00  0.00     0.039 C 
ENDROOT
BRANCH   2   4
ATOM      4  C   UNL     1     128.911 143.419 115.345  1.00  0.00     0.032 C 
BRANCH   4   5
ATOM      5  C   UNL     1     130.412 143.120 115.233  1.00  0.00     0.034 C 
BRANCH   5   6
ATOM      6  C   UNL     1     130.891 142.370 116.461  1.00  0.00    -0.077 C 
ATOM      7  C   UNL     1     131.406 143.169 117.629  1.00  0.00     0.039 C 
ATOM      8  C   UNL     1     130.953 141.019 116.533  1.00  0.00    -0.023 CG0
ATOM      9  G   UNL     1     130.471 140.056 115.474  1.00  0.00     0.000 G0
ENDBRANCH   5   6
ENDBRANCH   4   5
ENDBRANCH   2   4
BRANCH   1  10
ATOM     10  C   UNL     1     127.221 140.992 116.314  1.00  0.00     0.111 C 
BRANCH  10  11
ATOM     11  C   UNL     1     128.240 139.987 116.790  1.00  0.00     0.163 C 
ATOM     12  O   UNL     1     128.300 139.759 118.030  1.00  0.00    -0.294 OA
BRANCH  11  13
ATOM     13  C   UNL     1     129.204 139.308 115.863  1.00  0.00    -0.002 C 
ATOM     14  C   UNL     1     128.923 138.072 115.345  1.00  0.00    -0.069 C 
ATOM     15  C   UNL     1     127.716 137.276 115.791  1.00  0.00     0.039 C 
ATOM     16  C   UNL     1     129.832 137.408 114.332  1.00  0.00     0.039 C 
BRANCH  13  17
ATOM     17  C   UNL     1     130.480 140.046 115.462  1.00  0.00     0.066 CG0
ATOM     18  G   UNL     1     130.940 141.010 116.531  1.00  0.00     0.000 G0
ENDBRANCH  13  17
ENDBRANCH  11  13
ENDBRANCH  10  11
ENDBRANCH   1  10
TORSDOF 0
ENDMDL
MODEL 7
REMARK VINA RESULT:    -3.341      2.465      5.098
REMARK INTER + INTRA:          -4.552
REMARK INTER:                  -4.776
REMARK INTRA:                   0.225
REMARK UNBOUND:                 0.156
REMARK SMILES CC1=CCC(=C(C)C)C(=O)CC(C)=CCC1
REMARK SMILES IDX 12 1 14 2 13 3 15 4 16 5 2 6 1 7 3 8 11 10 9 11 10 12 5 13
REMARK SMILES IDX 6 14 7 15 8 16 4 17
REMARK H PARENT
REMARK Flexibility Score: 60.00
ROOT
ATOM      1  C   UNL     1     144.136 133.442 124.745  1.00  0.00    -0.070 C 
ATOM      2  C   UNL     1     144.746 134.457 125.410  1.00  0.00    -0.027 C 
ATOM      3  C   UNL     1     144.990 132.339 124.168  1.00  0.00     0.039 C 
ENDROOT
BRANCH   2   4
ATOM      4  C   UNL     1     144.051 135.589 126.129  1.00  0.00     0.032 C 
BRANCH   4   5
ATOM      5  C   UNL     1     143.739 136.785 125.221  1.00  0.00     0.034 C 
BRANCH   5   6
ATOM      6  C   UNL     1     142.351 137.320 125.516  1.00  0.00    -0.077 C 
ATOM      7  C   UNL     1     142.092 137.926 126.871  1.00  0.00     0.039 C 
ATOM      8  C   UNL     1     141.311 137.211 124.656  1.00  0.00    -0.023 CG0
ATOM      9  G   UNL     1     141.380 136.649 123.255  1.00  0.00     0.000 G0
ENDBRANCH   5   6
ENDBRANCH   4   5
ENDBRANCH   2   4
BRANCH   1  10
ATOM     10  C   UNL     1     142.651 133.405 124.410  1.00  0.00     0.111 C 
BRANCH  10  11
ATOM     11  C   UNL     1     142.278 134.218 123.195  1.00  0.00     0.163 C 
ATOM     12  O   UNL     1     143.020 134.124 122.179  1.00  0.00    -0.294 OA
BRANCH  11  13
ATOM     13  C   UNL     1     141.110 135.159 123.176  1.00  0.00    -0.002 C 
ATOM     14  C   UNL     1     139.827 134.681 123.155  1.00  0.00    -0.069 C 
ATOM     15  C   UNL     1     139.528 133.206 122.999  1.00  0.00     0.039 C 
ATOM     16  C   UNL     1     138.632 135.607 123.234  1.00  0.00     0.039 C 
BRANCH  13  17
ATOM     17  C   UNL     1     141.378 136.662 123.240  1.00  0.00     0.066 CG0
ATOM     18  G   UNL     1     141.317 137.192 124.653  1.00  0.00     0.000 G0
ENDBRANCH  13  17
ENDBRANCH  11  13
ENDBRANCH  10  11
ENDBRANCH   1  10
TORSDOF 0
ENDMDL
MODEL 8
REMARK VINA RESULT:    -3.322      1.706      3.642
REMARK INTER + INTRA:          -4.526
REMARK INTER:                  -4.717
REMARK INTRA:                   0.192
REMARK UNBOUND:                 0.156
REMARK SMILES CC1=CCC(=C(C)C)C(=O)CC(C)=CCC1
REMARK SMILES IDX 12 1 14 2 13 3 15 4 16 5 2 6 1 7 3 8 11 10 9 11 10 12 5 13
REMARK SMILES IDX 6 14 7 15 8 16 4 17
REMARK H PARENT
REMARK Flexibility Score: 60.00
ROOT
ATOM      1  C   UNL     1     139.150 136.948 120.007  1.00  0.00    -0.070 C 
ATOM      2  C   UNL     1     138.035 136.263 120.368  1.00  0.00    -0.027 C 
ATOM      3  C   UNL     1     138.990 138.215 119.201  1.00  0.00     0.039 C 
ENDROOT
BRANCH   2   4
ATOM      4  C   UNL     1     137.996 135.035 121.248  1.00  0.00     0.032 C 
BRANCH   4   5
ATOM      5  C   UNL     1     138.436 135.309 122.692  1.00  0.00     0.034 C 
BRANCH   5   6
ATOM      6  C   UNL     1     139.457 134.278 123.133  1.00  0.00    -0.077 C 
ATOM      7  C   UNL     1     139.059 132.825 123.113  1.00  0.00     0.039 C 
ATOM      8  C   UNL     1     140.680 134.599 123.618  1.00  0.00    -0.023 CG0
ATOM      9  G   UNL     1     141.258 135.992 123.701  1.00  0.00     0.000 G0
ENDBRANCH   5   6
ENDBRANCH   4   5
ENDBRANCH   2   4
BRANCH   1  10
ATOM     10  C   UNL     1     140.573 136.455 120.232  1.00  0.00     0.111 C 
BRANCH  10  11
ATOM     11  C   UNL     1     141.287 137.145 121.368  1.00  0.00     0.163 C 
ATOM     12  O   UNL     1     141.295 138.406 121.372  1.00  0.00    -0.294 OA
BRANCH  11  13
ATOM     13  C   UNL     1     142.023 136.394 122.439  1.00  0.00    -0.002 C 
ATOM     14  C   UNL     1     143.358 136.118 122.308  1.00  0.00    -0.069 C 
ATOM     15  C   UNL     1     144.112 136.419 121.031  1.00  0.00     0.039 C 
ATOM     16  C   UNL     1     144.144 135.450 123.415  1.00  0.00     0.039 C 
BRANCH  13  17
ATOM     17  C   UNL     1     141.267 135.994 123.705  1.00  0.00     0.066 CG0
ATOM     18  G   UNL     1     140.680 134.606 123.602  1.00  0.00     0.000 G0
ENDBRANCH  13  17
ENDBRANCH  11  13
ENDBRANCH  10  11
ENDBRANCH   1  10
TORSDOF 0
ENDMDL
MODEL 9
REMARK VINA RESULT:    -3.304      1.540      3.549
REMARK INTER + INTRA:          -4.500
REMARK INTER:                  -4.737
REMARK INTRA:                   0.237
REMARK UNBOUND:                 0.156
REMARK SMILES CC1=CCC(=C(C)C)C(=O)CC(C)=CCC1
REMARK SMILES IDX 12 1 14 2 13 3 15 4 16 5 2 6 1 7 3 8 11 10 9 11 10 12 5 13
REMARK SMILES IDX 6 14 7 15 8 16 4 17
REMARK H PARENT
REMARK Flexibility Score: 60.00
ROOT
ATOM      1  C   UNL     1     141.708 134.564 123.691  1.00  0.00    -0.070 C 
ATOM      2  C   UNL     1     140.651 133.711 123.682  1.00  0.00    -0.027 C 
ATOM      3  C   UNL     1     143.072 134.020 124.041  1.00  0.00     0.039 C 
ENDROOT
BRANCH   2   4
ATOM      4  C   UNL     1     139.239 134.055 123.268  1.00  0.00     0.032 C 
BRANCH   4   5
ATOM      5  C   UNL     1     139.040 134.076 121.747  1.00  0.00     0.034 C 
BRANCH   5   6
ATOM      6  C   UNL     1     138.334 135.351 121.329  1.00  0.00    -0.077 C 
ATOM      7  C   UNL     1     136.865 135.489 121.638  1.00  0.00     0.039 C 
ATOM      8  C   UNL     1     138.933 136.339 120.623  1.00  0.00    -0.023 CG0
ATOM      9  G   UNL     1     140.392 136.385 120.235  1.00  0.00     0.000 G0
ENDBRANCH   5   6
ENDBRANCH   4   5
ENDBRANCH   2   4
BRANCH   1  10
ATOM     10  C   UNL     1     141.597 136.072 123.515  1.00  0.00     0.111 C 
BRANCH  10  11
ATOM     11  C   UNL     1     142.114 136.573 122.190  1.00  0.00     0.163 C 
ATOM     12  O   UNL     1     143.350 136.457 121.964  1.00  0.00    -0.294 OA
BRANCH  11  13
ATOM     13  C   UNL     1     141.235 137.245 121.177  1.00  0.00    -0.002 C 
ATOM     14  C   UNL     1     141.216 138.610 121.062  1.00  0.00    -0.069 C 
ATOM     15  C   UNL     1     141.955 139.502 122.036  1.00  0.00     0.039 C 
ATOM     16  C   UNL     1     140.412 139.307 119.985  1.00  0.00     0.039 C 
BRANCH  13  17
ATOM     17  C   UNL     1     140.403 136.375 120.236  1.00  0.00     0.066 CG0
ATOM     18  G   UNL     1     138.940 136.366 120.614  1.00  0.00     0.000 G0
ENDBRANCH  13  17
ENDBRANCH  11  13
ENDBRANCH  10  11
ENDBRANCH   1  10
TORSDOF 0
ENDMDL
