MODEL 1
REMARK VINA RESULT:    -4.826      0.000      0.000
REMARK INTER + INTRA:          -9.844
REMARK INTER:                  -8.212
REMARK INTRA:                  -1.632
REMARK UNBOUND:                -1.632
REMARK SMILES CCCCCCCCCCCCCC(=O)[O-]
REMARK SMILES IDX 8 1 9 2 10 3 11 4 12 5 13 6 14 7 15 8 16 9 7 10 6 11 5 12
REMARK SMILES IDX 4 13 3 14 2 15 1 16
REMARK H PARENT
REMARK Flexibility Score: inf
ROOT
ATOM      1  C   UNL     1      74.145  12.027  19.376  1.00  0.00     0.000 C 
ENDROOT
BRANCH   1   2
ATOM      2  C   UNL     1      74.050  13.263  18.465  1.00  0.00     0.000 C 
BRANCH   2   3
ATOM      3  C   UNL     1      74.654  13.019  17.071  1.00  0.00     0.000 C 
BRANCH   3   4
ATOM      4  C   UNL     1      76.064  13.619  16.924  1.00  0.00     0.000 C 
BRANCH   4   5
ATOM      5  C   UNL     1      76.227  14.935  17.702  1.00  0.00     0.006 C 
BRANCH   5   6
ATOM      6  C   UNL     1      76.685  16.097  16.810  1.00  0.00     0.053 C 
BRANCH   6   7
ATOM      7  C   UNL     1      75.518  16.691  16.087  1.00  0.00     0.041 C 
ATOM      8  O   UNL     1      74.825  17.589  16.633  1.00  0.00    -0.550 OA
ATOM      9  O   UNL     1      75.164  16.217  14.830  1.00  0.00    -0.550 OA
ENDBRANCH   6   7
ENDBRANCH   5   6
ENDBRANCH   4   5
ENDBRANCH   3   4
ENDBRANCH   2   3
ENDBRANCH   1   2
BRANCH   1  10
ATOM     10  C   UNL     1      75.475  11.959  20.143  1.00  0.00     0.000 C 
BRANCH  10  11
ATOM     11  C   UNL     1      76.448  10.926  19.548  1.00  0.00    -0.000 C 
BRANCH  11  12
ATOM     12  C   UNL     1      77.871  11.484  19.377  1.00  0.00    -0.000 C 
BRANCH  12  13
ATOM     13  C   UNL     1      78.085  12.809  20.129  1.00  0.00    -0.000 C 
BRANCH  13  14
ATOM     14  C   UNL     1      79.262  13.624  19.550  1.00  0.00    -0.000 C 
BRANCH  14  15
ATOM     15  C   UNL     1      79.729  14.767  20.467  1.00  0.00    -0.003 C 
ATOM     16  C   UNL     1      79.567  16.147  19.835  1.00  0.00     0.004 C 
ENDBRANCH  14  15
ENDBRANCH  13  14
ENDBRANCH  12  13
ENDBRANCH  11  12
ENDBRANCH  10  11
ENDBRANCH   1  10
TORSDOF 12
ENDMDL
MODEL 2
REMARK VINA RESULT:    -4.815      1.149      2.531
REMARK INTER + INTRA:          -9.824
REMARK INTER:                  -8.416
REMARK INTRA:                  -1.408
REMARK UNBOUND:                -1.632
REMARK SMILES CCCCCCCCCCCCCC(=O)[O-]
REMARK SMILES IDX 8 1 9 2 10 3 11 4 12 5 13 6 14 7 15 8 16 9 7 10 6 11 5 12
REMARK SMILES IDX 4 13 3 14 2 15 1 16
REMARK H PARENT
REMARK Flexibility Score: inf
ROOT
ATOM      1  C   UNL     1      76.661  10.929  20.000  1.00  0.00     0.000 C 
ENDROOT
BRANCH   1   2
ATOM      2  C   UNL     1      75.520  11.949  20.161  1.00  0.00     0.000 C 
BRANCH   2   3
ATOM      3  C   UNL     1      74.416  11.773  19.105  1.00  0.00     0.000 C 
BRANCH   3   4
ATOM      4  C   UNL     1      73.896  13.116  18.564  1.00  0.00     0.000 C 
BRANCH   4   5
ATOM      5  C   UNL     1      75.033  14.078  18.185  1.00  0.00     0.006 C 
BRANCH   5   6
ATOM      6  C   UNL     1      75.675  13.735  16.834  1.00  0.00     0.053 C 
BRANCH   6   7
ATOM      7  C   UNL     1      75.482  14.858  15.864  1.00  0.00     0.041 C 
ATOM      8  O   UNL     1      76.351  15.091  14.984  1.00  0.00    -0.550 OA
ATOM      9  O   UNL     1      74.366  15.680  15.964  1.00  0.00    -0.550 OA
ENDBRANCH   6   7
ENDBRANCH   5   6
ENDBRANCH   4   5
ENDBRANCH   3   4
ENDBRANCH   2   3
ENDBRANCH   1   2
BRANCH   1  10
ATOM     10  C   UNL     1      77.980  11.583  19.558  1.00  0.00     0.000 C 
BRANCH  10  11
ATOM     11  C   UNL     1      78.110  13.037  20.044  1.00  0.00    -0.000 C 
BRANCH  11  12
ATOM     12  C   UNL     1      78.803  13.945  19.014  1.00  0.00    -0.000 C 
BRANCH  12  13
ATOM     13  C   UNL     1      78.796  15.428  19.427  1.00  0.00    -0.000 C 
BRANCH  13  14
ATOM     14  C   UNL     1      80.115  15.848  20.110  1.00  0.00    -0.000 C 
BRANCH  14  15
ATOM     15  C   UNL     1      81.300  14.924  19.779  1.00  0.00    -0.003 C 
ATOM     16  C   UNL     1      81.922  14.281  21.016  1.00  0.00     0.004 C 
ENDBRANCH  14  15
ENDBRANCH  13  14
ENDBRANCH  12  13
ENDBRANCH  11  12
ENDBRANCH  10  11
ENDBRANCH   1  10
TORSDOF 12
ENDMDL
MODEL 3
REMARK VINA RESULT:    -4.744      3.183      5.466
REMARK INTER + INTRA:          -9.703
REMARK INTER:                  -8.684
REMARK INTRA:                  -1.019
REMARK UNBOUND:                -1.632
REMARK SMILES CCCCCCCCCCCCCC(=O)[O-]
REMARK SMILES IDX 8 1 9 2 10 3 11 4 12 5 13 6 14 7 15 8 16 9 7 10 6 11 5 12
REMARK SMILES IDX 4 13 3 14 2 15 1 16
REMARK H PARENT
REMARK Flexibility Score: inf
ROOT
ATOM      1  C   UNL     1      75.489  12.008  20.214  1.00  0.00     0.000 C 
ENDROOT
BRANCH   1   2
ATOM      2  C   UNL     1      76.571  10.957  19.907  1.00  0.00     0.000 C 
BRANCH   2   3
ATOM      3  C   UNL     1      77.847  11.578  19.314  1.00  0.00     0.000 C 
BRANCH   3   4
ATOM      4  C   UNL     1      78.051  13.039  19.751  1.00  0.00     0.000 C 
BRANCH   4   5
ATOM      5  C   UNL     1      79.498  13.518  19.548  1.00  0.00     0.006 C 
BRANCH   5   6
ATOM      6  C   UNL     1      79.966  14.475  20.653  1.00  0.00     0.053 C 
BRANCH   6   7
ATOM      7  C   UNL     1      81.415  14.803  20.479  1.00  0.00     0.041 C 
ATOM      8  O   UNL     1      81.798  15.472  19.483  1.00  0.00    -0.550 OA
ATOM      9  O   UNL     1      82.351  14.329  21.389  1.00  0.00    -0.550 OA
ENDBRANCH   6   7
ENDBRANCH   5   6
ENDBRANCH   4   5
ENDBRANCH   3   4
ENDBRANCH   2   3
ENDBRANCH   1   2
BRANCH   1  10
ATOM     10  C   UNL     1      74.227  11.824  19.355  1.00  0.00     0.000 C 
BRANCH  10  11
ATOM     11  C   UNL     1      73.737  13.146  18.737  1.00  0.00    -0.000 C 
BRANCH  11  12
ATOM     12  C   UNL     1      74.848  13.891  17.979  1.00  0.00    -0.000 C 
BRANCH  12  13
ATOM     13  C   UNL     1      75.167  13.256  16.613  1.00  0.00    -0.000 C 
BRANCH  13  14
ATOM     14  C   UNL     1      75.371  14.317  15.511  1.00  0.00    -0.000 C 
BRANCH  14  15
ATOM     15  C   UNL     1      75.380  15.761  16.043  1.00  0.00    -0.003 C 
ATOM     16  C   UNL     1      74.727  16.755  15.085  1.00  0.00     0.004 C 
ENDBRANCH  14  15
ENDBRANCH  13  14
ENDBRANCH  12  13
ENDBRANCH  11  12
ENDBRANCH  10  11
ENDBRANCH   1  10
TORSDOF 12
ENDMDL
MODEL 4
REMARK VINA RESULT:    -4.724      1.707      3.754
REMARK INTER + INTRA:          -9.671
REMARK INTER:                  -7.950
REMARK INTRA:                  -1.721
REMARK UNBOUND:                -1.632
REMARK SMILES CCCCCCCCCCCCCC(=O)[O-]
REMARK SMILES IDX 8 1 9 2 10 3 11 4 12 5 13 6 14 7 15 8 16 9 7 10 6 11 5 12
REMARK SMILES IDX 4 13 3 14 2 15 1 16
REMARK H PARENT
REMARK Flexibility Score: inf
ROOT
ATOM      1  C   UNL     1      78.536  11.894  18.347  1.00  0.00     0.000 C 
ENDROOT
BRANCH   1   2
ATOM      2  C   UNL     1      78.021  11.687  19.783  1.00  0.00     0.000 C 
BRANCH   2   3
ATOM      3  C   UNL     1      76.667  10.960  19.826  1.00  0.00     0.000 C 
BRANCH   3   4
ATOM      4  C   UNL     1      75.505  11.897  20.199  1.00  0.00     0.000 C 
BRANCH   4   5
ATOM      5  C   UNL     1      74.382  11.890  19.149  1.00  0.00     0.006 C 
BRANCH   5   6
ATOM      6  C   UNL     1      74.026  13.297  18.652  1.00  0.00     0.053 C 
BRANCH   6   7
ATOM      7  C   UNL     1      74.900  13.680  17.499  1.00  0.00     0.041 C 
ATOM      8  O   UNL     1      75.176  14.891  17.289  1.00  0.00    -0.550 OA
ATOM      9  O   UNL     1      75.369  12.706  16.628  1.00  0.00    -0.550 OA
ENDBRANCH   6   7
ENDBRANCH   5   6
ENDBRANCH   4   5
ENDBRANCH   3   4
ENDBRANCH   2   3
ENDBRANCH   1   2
BRANCH   1  10
ATOM     10  C   UNL     1      78.601  13.378  17.951  1.00  0.00     0.000 C 
BRANCH  10  11
ATOM     11  C   UNL     1      78.225  14.316  19.112  1.00  0.00    -0.000 C 
BRANCH  11  12
ATOM     12  C   UNL     1      78.876  15.703  18.985  1.00  0.00    -0.000 C 
BRANCH  12  13
ATOM     13  C   UNL     1      79.907  15.980  20.094  1.00  0.00    -0.000 C 
BRANCH  13  14
ATOM     14  C   UNL     1      80.221  14.718  20.926  1.00  0.00    -0.000 C 
BRANCH  14  15
ATOM     15  C   UNL     1      81.703  14.307  20.885  1.00  0.00    -0.003 C 
ATOM     16  C   UNL     1      81.958  13.072  20.023  1.00  0.00     0.004 C 
ENDBRANCH  14  15
ENDBRANCH  13  14
ENDBRANCH  12  13
ENDBRANCH  11  12
ENDBRANCH  10  11
ENDBRANCH   1  10
TORSDOF 12
ENDMDL
MODEL 5
REMARK VINA RESULT:    -4.632      1.566      2.430
REMARK INTER + INTRA:          -9.513
REMARK INTER:                  -7.545
REMARK INTRA:                  -1.968
REMARK UNBOUND:                -1.632
REMARK SMILES CCCCCCCCCCCCCC(=O)[O-]
REMARK SMILES IDX 8 1 9 2 10 3 11 4 12 5 13 6 14 7 15 8 16 9 7 10 6 11 5 12
REMARK SMILES IDX 4 13 3 14 2 15 1 16
REMARK H PARENT
REMARK Flexibility Score: inf
ROOT
ATOM      1  C   UNL     1      73.637  13.116  18.641  1.00  0.00     0.000 C 
ENDROOT
BRANCH   1   2
ATOM      2  C   UNL     1      74.391  12.936  17.311  1.00  0.00     0.000 C 
BRANCH   2   3
ATOM      3  C   UNL     1      74.871  14.272  16.718  1.00  0.00     0.000 C 
BRANCH   3   4
ATOM      4  C   UNL     1      75.634  15.132  17.740  1.00  0.00     0.000 C 
BRANCH   4   5
ATOM      5  C   UNL     1      76.868  15.816  17.130  1.00  0.00     0.006 C 
BRANCH   5   6
ATOM      6  C   UNL     1      76.804  15.899  15.599  1.00  0.00     0.053 C 
BRANCH   6   7
ATOM      7  C   UNL     1      76.335  17.253  15.169  1.00  0.00     0.041 C 
ATOM      8  O   UNL     1      75.103  17.514  15.131  1.00  0.00    -0.550 OA
ATOM      9  O   UNL     1      77.254  18.212  14.763  1.00  0.00    -0.550 OA
ENDBRANCH   6   7
ENDBRANCH   5   6
ENDBRANCH   4   5
ENDBRANCH   3   4
ENDBRANCH   2   3
ENDBRANCH   1   2
BRANCH   1  10
ATOM     10  C   UNL     1      74.117  12.142  19.728  1.00  0.00     0.000 C 
BRANCH  10  11
ATOM     11  C   UNL     1      75.482  11.512  19.397  1.00  0.00    -0.000 C 
BRANCH  11  12
ATOM     12  C   UNL     1      76.588  11.955  20.369  1.00  0.00    -0.000 C 
BRANCH  12  13
ATOM     13  C   UNL     1      77.751  12.674  19.661  1.00  0.00    -0.000 C 
BRANCH  13  14
ATOM     14  C   UNL     1      78.381  11.807  18.549  1.00  0.00    -0.000 C 
BRANCH  14  15
ATOM     15  C   UNL     1      78.204  12.393  17.138  1.00  0.00    -0.003 C 
ATOM     16  C   UNL     1      77.492  11.441  16.179  1.00  0.00     0.004 C 
ENDBRANCH  14  15
ENDBRANCH  13  14
ENDBRANCH  12  13
ENDBRANCH  11  12
ENDBRANCH  10  11
ENDBRANCH   1  10
TORSDOF 12
ENDMDL
MODEL 6
REMARK VINA RESULT:    -4.628      2.826      4.976
REMARK INTER + INTRA:          -9.507
REMARK INTER:                  -7.778
REMARK INTRA:                  -1.729
REMARK UNBOUND:                -1.632
REMARK SMILES CCCCCCCCCCCCCC(=O)[O-]
REMARK SMILES IDX 8 1 9 2 10 3 11 4 12 5 13 6 14 7 15 8 16 9 7 10 6 11 5 12
REMARK SMILES IDX 4 13 3 14 2 15 1 16
REMARK H PARENT
REMARK Flexibility Score: inf
ROOT
ATOM      1  C   UNL     1      75.234  11.440  19.039  1.00  0.00     0.000 C 
ENDROOT
BRANCH   1   2
ATOM      2  C   UNL     1      76.298  11.365  20.148  1.00  0.00     0.000 C 
BRANCH   2   3
ATOM      3  C   UNL     1      77.681  10.956  19.614  1.00  0.00     0.000 C 
BRANCH   3   4
ATOM      4  C   UNL     1      78.463  12.144  19.029  1.00  0.00     0.000 C 
BRANCH   4   5
ATOM      5  C   UNL     1      78.236  13.445  19.816  1.00  0.00     0.006 C 
BRANCH   5   6
ATOM      6  C   UNL     1      78.907  14.660  19.161  1.00  0.00     0.053 C 
BRANCH   6   7
ATOM      7  C   UNL     1      80.004  15.183  20.034  1.00  0.00     0.041 C 
ATOM      8  O   UNL     1      80.632  16.224  19.707  1.00  0.00    -0.550 OA
ATOM      9  O   UNL     1      80.367  14.494  21.184  1.00  0.00    -0.550 OA
ENDBRANCH   6   7
ENDBRANCH   5   6
ENDBRANCH   4   5
ENDBRANCH   3   4
ENDBRANCH   2   3
ENDBRANCH   1   2
BRANCH   1  10
ATOM     10  C   UNL     1      73.994  12.245  19.463  1.00  0.00     0.000 C 
BRANCH  10  11
ATOM     11  C   UNL     1      73.683  13.402  18.497  1.00  0.00    -0.000 C 
BRANCH  11  12
ATOM     12  C   UNL     1      74.951  14.121  18.009  1.00  0.00    -0.000 C 
BRANCH  12  13
ATOM     13  C   UNL     1      74.844  14.592  16.547  1.00  0.00    -0.000 C 
BRANCH  13  14
ATOM     14  C   UNL     1      75.253  13.487  15.549  1.00  0.00    -0.000 C 
BRANCH  14  15
ATOM     15  C   UNL     1      76.717  13.039  15.694  1.00  0.00    -0.003 C 
ATOM     16  C   UNL     1      76.881  11.521  15.700  1.00  0.00     0.004 C 
ENDBRANCH  14  15
ENDBRANCH  13  14
ENDBRANCH  12  13
ENDBRANCH  11  12
ENDBRANCH  10  11
ENDBRANCH   1  10
TORSDOF 12
ENDMDL
MODEL 7
REMARK VINA RESULT:    -4.625      2.769      5.116
REMARK INTER + INTRA:          -9.501
REMARK INTER:                  -8.420
REMARK INTRA:                  -1.081
REMARK UNBOUND:                -1.632
REMARK SMILES CCCCCCCCCCCCCC(=O)[O-]
REMARK SMILES IDX 8 1 9 2 10 3 11 4 12 5 13 6 14 7 15 8 16 9 7 10 6 11 5 12
REMARK SMILES IDX 4 13 3 14 2 15 1 16
REMARK H PARENT
REMARK Flexibility Score: inf
ROOT
ATOM      1  C   UNL     1      73.845  13.265  18.307  1.00  0.00     0.000 C 
ENDROOT
BRANCH   1   2
ATOM      2  C   UNL     1      74.087  12.215  19.405  1.00  0.00     0.000 C 
BRANCH   2   3
ATOM      3  C   UNL     1      75.417  11.464  19.224  1.00  0.00     0.000 C 
BRANCH   3   4
ATOM      4  C   UNL     1      76.422  11.761  20.350  1.00  0.00     0.000 C 
BRANCH   4   5
ATOM      5  C   UNL     1      77.847  11.991  19.822  1.00  0.00     0.006 C 
BRANCH   5   6
ATOM      6  C   UNL     1      78.064  13.416  19.297  1.00  0.00     0.053 C 
BRANCH   6   7
ATOM      7  C   UNL     1      79.379  13.952  19.768  1.00  0.00     0.041 C 
ATOM      8  O   UNL     1      79.482  15.154  20.126  1.00  0.00    -0.550 OA
ATOM      9  O   UNL     1      80.504  13.136  19.765  1.00  0.00    -0.550 OA
ENDBRANCH   6   7
ENDBRANCH   5   6
ENDBRANCH   4   5
ENDBRANCH   3   4
ENDBRANCH   2   3
ENDBRANCH   1   2
BRANCH   1  10
ATOM     10  C   UNL     1      74.886  13.190  17.178  1.00  0.00     0.000 C 
BRANCH  10  11
ATOM     11  C   UNL     1      74.983  14.500  16.376  1.00  0.00    -0.000 C 
BRANCH  11  12
ATOM     12  C   UNL     1      75.531  15.667  17.214  1.00  0.00    -0.000 C 
BRANCH  12  13
ATOM     13  C   UNL     1      75.100  17.042  16.673  1.00  0.00    -0.000 C 
BRANCH  13  14
ATOM     14  C   UNL     1      75.458  17.219  15.181  1.00  0.00    -0.000 C 
BRANCH  14  15
ATOM     15  C   UNL     1      76.886  17.743  14.950  1.00  0.00    -0.003 C 
ATOM     16  C   UNL     1      77.352  18.712  16.034  1.00  0.00     0.004 C 
ENDBRANCH  14  15
ENDBRANCH  13  14
ENDBRANCH  12  13
ENDBRANCH  11  12
ENDBRANCH  10  11
ENDBRANCH   1  10
TORSDOF 12
ENDMDL
MODEL 8
REMARK VINA RESULT:    -4.606      1.654      2.914
REMARK INTER + INTRA:          -9.470
REMARK INTER:                  -8.324
REMARK INTRA:                  -1.146
REMARK UNBOUND:                -1.632
REMARK SMILES CCCCCCCCCCCCCC(=O)[O-]
REMARK SMILES IDX 8 1 9 2 10 3 11 4 12 5 13 6 14 7 15 8 16 9 7 10 6 11 5 12
REMARK SMILES IDX 4 13 3 14 2 15 1 16
REMARK H PARENT
REMARK Flexibility Score: inf
ROOT
ATOM      1  C   UNL     1      74.815  13.127  17.155  1.00  0.00     0.000 C 
ENDROOT
BRANCH   1   2
ATOM      2  C   UNL     1      74.987  14.445  16.379  1.00  0.00     0.000 C 
BRANCH   2   3
ATOM      3  C   UNL     1      75.449  15.604  17.278  1.00  0.00     0.000 C 
BRANCH   3   4
ATOM      4  C   UNL     1      75.068  16.982  16.708  1.00  0.00     0.000 C 
BRANCH   4   5
ATOM      5  C   UNL     1      75.380  17.105  15.207  1.00  0.00     0.006 C 
BRANCH   5   6
ATOM      6  C   UNL     1      76.436  18.177  14.907  1.00  0.00     0.053 C 
BRANCH   6   7
ATOM      7  C   UNL     1      77.805  17.667  15.232  1.00  0.00     0.041 C 
ATOM      8  O   UNL     1      78.394  16.885  14.440  1.00  0.00    -0.550 OA
ATOM      9  O   UNL     1      78.410  18.014  16.433  1.00  0.00    -0.550 OA
ENDBRANCH   6   7
ENDBRANCH   5   6
ENDBRANCH   4   5
ENDBRANCH   3   4
ENDBRANCH   2   3
ENDBRANCH   1   2
BRANCH   1  10
ATOM     10  C   UNL     1      73.746  13.225  18.256  1.00  0.00     0.000 C 
BRANCH  10  11
ATOM     11  C   UNL     1      74.029  12.283  19.439  1.00  0.00    -0.000 C 
BRANCH  11  12
ATOM     12  C   UNL     1      75.310  11.455  19.242  1.00  0.00    -0.000 C 
BRANCH  12  13
ATOM     13  C   UNL     1      76.361  11.714  20.336  1.00  0.00    -0.000 C 
BRANCH  13  14
ATOM     14  C   UNL     1      77.757  12.007  19.745  1.00  0.00    -0.000 C 
BRANCH  14  15
ATOM     15  C   UNL     1      77.977  13.489  19.394  1.00  0.00    -0.003 C 
ATOM     16  C   UNL     1      79.300  14.038  19.922  1.00  0.00     0.004 C 
ENDBRANCH  14  15
ENDBRANCH  13  14
ENDBRANCH  12  13
ENDBRANCH  11  12
ENDBRANCH  10  11
ENDBRANCH   1  10
TORSDOF 12
ENDMDL
MODEL 9
REMARK VINA RESULT:    -4.489      1.515      2.359
REMARK INTER + INTRA:          -9.271
REMARK INTER:                  -7.329
REMARK INTRA:                  -1.942
REMARK UNBOUND:                -1.632
REMARK SMILES CCCCCCCCCCCCCC(=O)[O-]
REMARK SMILES IDX 8 1 9 2 10 3 11 4 12 5 13 6 14 7 15 8 16 9 7 10 6 11 5 12
REMARK SMILES IDX 4 13 3 14 2 15 1 16
REMARK H PARENT
REMARK Flexibility Score: inf
ROOT
ATOM      1  C   UNL     1      76.019  11.973  20.154  1.00  0.00     0.000 C 
ENDROOT
BRANCH   1   2
ATOM      2  C   UNL     1      74.727  11.760  19.346  1.00  0.00     0.000 C 
BRANCH   2   3
ATOM      3  C   UNL     1      74.069  13.084  18.921  1.00  0.00     0.000 C 
BRANCH   3   4
ATOM      4  C   UNL     1      74.370  13.450  17.457  1.00  0.00     0.000 C 
BRANCH   4   5
ATOM      5  C   UNL     1      75.101  14.796  17.325  1.00  0.00     0.006 C 
BRANCH   5   6
ATOM      6  C   UNL     1      75.129  15.317  15.882  1.00  0.00     0.053 C 
BRANCH   6   7
ATOM      7  C   UNL     1      75.279  16.806  15.869  1.00  0.00     0.041 C 
ATOM      8  O   UNL     1      74.692  17.510  16.732  1.00  0.00    -0.550 OA
ATOM      9  O   UNL     1      76.025  17.421  14.871  1.00  0.00    -0.550 OA
ENDBRANCH   6   7
ENDBRANCH   5   6
ENDBRANCH   4   5
ENDBRANCH   3   4
ENDBRANCH   2   3
ENDBRANCH   1   2
BRANCH   1  10
ATOM     10  C   UNL     1      76.975  10.772  20.068  1.00  0.00     0.000 C 
BRANCH  10  11
ATOM     11  C   UNL     1      76.687   9.874  18.852  1.00  0.00    -0.000 C 
BRANCH  11  12
ATOM     12  C   UNL     1      77.695  10.085  17.710  1.00  0.00    -0.000 C 
BRANCH  12  13
ATOM     13  C   UNL     1      77.090  10.843  16.515  1.00  0.00    -0.000 C 
BRANCH  13  14
ATOM     14  C   UNL     1      77.657  12.274  16.386  1.00  0.00    -0.000 C 
BRANCH  14  15
ATOM     15  C   UNL     1      78.799  12.574  17.373  1.00  0.00    -0.003 C 
ATOM     16  C   UNL     1      78.525  13.791  18.254  1.00  0.00     0.004 C 
ENDBRANCH  14  15
ENDBRANCH  13  14
ENDBRANCH  12  13
ENDBRANCH  11  12
ENDBRANCH  10  11
ENDBRANCH   1  10
TORSDOF 12
ENDMDL
