MODEL 1
REMARK VINA RESULT:    -2.162      0.000      0.000
REMARK INTER + INTRA:          -3.086
REMARK INTER:                  -2.858
REMARK INTRA:                  -0.228
REMARK UNBOUND:                -0.228
REMARK SMILES CCCCCCCO
REMARK SMILES IDX 5 1 4 2 3 3 2 4 1 5 6 6 7 7 8 8
REMARK H PARENT 8 9
REMARK Flexibility Score: inf
ROOT
ATOM      1  C   UNL     1     131.249 146.349 138.316  1.00  0.00     0.002 C 
ENDROOT
BRANCH   1   2
ATOM      2  C   UNL     1     131.629 144.907 137.949  1.00  0.00     0.000 C 
BRANCH   2   3
ATOM      3  C   UNL     1     132.849 144.439 138.751  1.00  0.00    -0.000 C 
BRANCH   3   4
ATOM      4  C   UNL     1     133.593 143.317 138.018  1.00  0.00    -0.003 C 
ATOM      5  C   UNL     1     132.743 142.737 136.890  1.00  0.00     0.004 C 
ENDBRANCH   3   4
ENDBRANCH   2   3
ENDBRANCH   1   2
BRANCH   1   6
ATOM      6  C   UNL     1     131.445 146.651 139.811  1.00  0.00     0.028 C 
BRANCH   6   7
ATOM      7  C   UNL     1     132.208 147.956 140.056  1.00  0.00     0.156 C 
BRANCH   7   8
ATOM      8  O   UNL     1     133.493 147.852 139.511  1.00  0.00    -0.396 OA
ATOM      9  H   UNL     1     133.978 147.193 140.073  1.00  0.00     0.210 HD
ENDBRANCH   7   8
ENDBRANCH   6   7
ENDBRANCH   1   6
TORSDOF 6
ENDMDL
MODEL 2
REMARK VINA RESULT:    -2.153      9.804     11.076
REMARK INTER + INTRA:          -3.073
REMARK INTER:                  -2.904
REMARK INTRA:                  -0.168
REMARK UNBOUND:                -0.228
REMARK SMILES CCCCCCCO
REMARK SMILES IDX 5 1 4 2 3 3 2 4 1 5 6 6 7 7 8 8
REMARK H PARENT 8 9
REMARK Flexibility Score: inf
ROOT
ATOM      1  C   UNL     1     142.482 144.549 138.436  1.00  0.00     0.002 C 
ENDROOT
BRANCH   1   2
ATOM      2  C   UNL     1     142.771 145.946 137.867  1.00  0.00     0.000 C 
BRANCH   2   3
ATOM      3  C   UNL     1     144.004 146.567 138.535  1.00  0.00    -0.000 C 
BRANCH   3   4
ATOM      4  C   UNL     1     144.722 145.544 139.424  1.00  0.00    -0.003 C 
ATOM      5  C   UNL     1     145.980 146.142 140.047  1.00  0.00     0.004 C 
ENDBRANCH   3   4
ENDBRANCH   2   3
ENDBRANCH   1   2
BRANCH   1   6
ATOM      6  C   UNL     1     141.450 143.771 137.603  1.00  0.00     0.028 C 
BRANCH   6   7
ATOM      7  C   UNL     1     140.312 144.658 137.091  1.00  0.00     0.156 C 
BRANCH   7   8
ATOM      8  O   UNL     1     140.356 144.709 135.693  1.00  0.00    -0.396 OA
ATOM      9  H   UNL     1     140.531 145.658 135.457  1.00  0.00     0.210 HD
ENDBRANCH   7   8
ENDBRANCH   6   7
ENDBRANCH   1   6
TORSDOF 6
ENDMDL
MODEL 3
REMARK VINA RESULT:    -2.140      2.816      4.878
REMARK INTER + INTRA:          -3.056
REMARK INTER:                  -2.863
REMARK INTRA:                  -0.193
REMARK UNBOUND:                -0.228
REMARK SMILES CCCCCCCO
REMARK SMILES IDX 5 1 4 2 3 3 2 4 1 5 6 6 7 7 8 8
REMARK H PARENT 8 9
REMARK Flexibility Score: inf
ROOT
ATOM      1  C   UNL     1     133.466 143.349 138.041  1.00  0.00     0.002 C 
ENDROOT
BRANCH   1   2
ATOM      2  C   UNL     1     133.279 144.520 139.016  1.00  0.00     0.000 C 
BRANCH   2   3
ATOM      3  C   UNL     1     131.847 145.064 138.953  1.00  0.00    -0.000 C 
BRANCH   3   4
ATOM      4  C   UNL     1     131.836 146.595 139.029  1.00  0.00    -0.003 C 
ATOM      5  C   UNL     1     133.129 147.126 139.642  1.00  0.00     0.004 C 
ENDBRANCH   3   4
ENDBRANCH   2   3
ENDBRANCH   1   2
BRANCH   1   6
ATOM      6  C   UNL     1     132.355 143.277 136.981  1.00  0.00     0.028 C 
BRANCH   6   7
ATOM      7  C   UNL     1     132.426 142.004 136.132  1.00  0.00     0.156 C 
BRANCH   7   8
ATOM      8  O   UNL     1     131.206 141.818 135.472  1.00  0.00    -0.396 OA
ATOM      9  H   UNL     1     130.502 142.134 136.097  1.00  0.00     0.210 HD
ENDBRANCH   7   8
ENDBRANCH   6   7
ENDBRANCH   1   6
TORSDOF 6
ENDMDL
MODEL 4
REMARK VINA RESULT:    -2.134      1.755      2.162
REMARK INTER + INTRA:          -3.047
REMARK INTER:                  -2.788
REMARK INTRA:                  -0.259
REMARK UNBOUND:                -0.228
REMARK SMILES CCCCCCCO
REMARK SMILES IDX 5 1 4 2 3 3 2 4 1 5 6 6 7 7 8 8
REMARK H PARENT 8 9
REMARK Flexibility Score: inf
ROOT
ATOM      1  C   UNL     1     132.822 145.826 139.335  1.00  0.00     0.002 C 
ENDROOT
BRANCH   1   2
ATOM      2  C   UNL     1     132.631 144.354 138.942  1.00  0.00     0.000 C 
BRANCH   2   3
ATOM      3  C   UNL     1     133.973 143.699 138.593  1.00  0.00    -0.000 C 
BRANCH   3   4
ATOM      4  C   UNL     1     133.829 142.753 137.396  1.00  0.00    -0.003 C 
ATOM      5  C   UNL     1     132.438 142.854 136.777  1.00  0.00     0.004 C 
ENDBRANCH   3   4
ENDBRANCH   2   3
ENDBRANCH   1   2
BRANCH   1   6
ATOM      6  C   UNL     1     131.658 146.719 138.876  1.00  0.00     0.028 C 
BRANCH   6   7
ATOM      7  C   UNL     1     130.699 146.000 137.924  1.00  0.00     0.156 C 
BRANCH   7   8
ATOM      8  O   UNL     1     130.882 146.488 136.625  1.00  0.00    -0.396 OA
ATOM      9  H   UNL     1     130.470 145.819 136.018  1.00  0.00     0.210 HD
ENDBRANCH   7   8
ENDBRANCH   6   7
ENDBRANCH   1   6
TORSDOF 6
ENDMDL
MODEL 5
REMARK VINA RESULT:    -2.130      9.618     10.741
REMARK INTER + INTRA:          -3.042
REMARK INTER:                  -2.785
REMARK INTRA:                  -0.258
REMARK UNBOUND:                -0.228
REMARK SMILES CCCCCCCO
REMARK SMILES IDX 5 1 4 2 3 3 2 4 1 5 6 6 7 7 8 8
REMARK H PARENT 8 9
REMARK Flexibility Score: inf
ROOT
ATOM      1  C   UNL     1     143.842 144.938 139.474  1.00  0.00     0.002 C 
ENDROOT
BRANCH   1   2
ATOM      2  C   UNL     1     142.431 144.612 138.962  1.00  0.00     0.000 C 
BRANCH   2   3
ATOM      3  C   UNL     1     142.322 143.138 138.557  1.00  0.00    -0.000 C 
BRANCH   3   4
ATOM      4  C   UNL     1     141.332 142.957 137.400  1.00  0.00    -0.003 C 
ATOM      5  C   UNL     1     140.952 144.300 136.784  1.00  0.00     0.004 C 
ENDBRANCH   3   4
ENDBRANCH   2   3
ENDBRANCH   1   2
BRANCH   1   6
ATOM      6  C   UNL     1     144.434 146.197 138.819  1.00  0.00     0.028 C 
BRANCH   6   7
ATOM      7  C   UNL     1     143.446 146.901 137.885  1.00  0.00     0.156 C 
BRANCH   7   8
ATOM      8  O   UNL     1     143.992 146.970 136.598  1.00  0.00    -0.396 OA
ATOM      9  H   UNL     1     144.723 146.298 136.572  1.00  0.00     0.210 HD
ENDBRANCH   7   8
ENDBRANCH   6   7
ENDBRANCH   1   6
TORSDOF 6
ENDMDL
MODEL 6
REMARK VINA RESULT:    -2.124     15.131     17.009
REMARK INTER + INTRA:          -3.035
REMARK INTER:                  -2.844
REMARK INTRA:                  -0.191
REMARK UNBOUND:                -0.228
REMARK SMILES CCCCCCCO
REMARK SMILES IDX 5 1 4 2 3 3 2 4 1 5 6 6 7 7 8 8
REMARK H PARENT 8 9
REMARK Flexibility Score: inf
ROOT
ATOM      1  C   UNL     1     144.683 135.797 138.341  1.00  0.00     0.002 C 
ENDROOT
BRANCH   1   2
ATOM      2  C   UNL     1     145.599 134.936 139.223  1.00  0.00     0.000 C 
BRANCH   2   3
ATOM      3  C   UNL     1     147.063 135.072 138.791  1.00  0.00    -0.000 C 
BRANCH   3   4
ATOM      4  C   UNL     1     147.888 133.864 139.250  1.00  0.00    -0.003 C 
ATOM      5  C   UNL     1     146.991 132.767 139.817  1.00  0.00     0.004 C 
ENDBRANCH   3   4
ENDBRANCH   2   3
ENDBRANCH   1   2
BRANCH   1   6
ATOM      6  C   UNL     1     145.432 136.451 137.169  1.00  0.00     0.028 C 
BRANCH   6   7
ATOM      7  C   UNL     1     144.818 137.787 136.744  1.00  0.00     0.156 C 
BRANCH   7   8
ATOM      8  O   UNL     1     145.366 138.181 135.517  1.00  0.00    -0.396 OA
ATOM      9  H   UNL     1     145.754 139.082 135.665  1.00  0.00     0.210 HD
ENDBRANCH   7   8
ENDBRANCH   6   7
ENDBRANCH   1   6
TORSDOF 6
ENDMDL
MODEL 7
REMARK VINA RESULT:    -2.090     11.213     12.184
REMARK INTER + INTRA:          -2.990
REMARK INTER:                  -2.833
REMARK INTRA:                  -0.157
REMARK UNBOUND:                -0.228
REMARK SMILES CCCCCCCO
REMARK SMILES IDX 5 1 4 2 3 3 2 4 1 5 6 6 7 7 8 8
REMARK H PARENT 8 9
REMARK Flexibility Score: inf
ROOT
ATOM      1  C   UNL     1     144.876 145.361 139.410  1.00  0.00     0.002 C 
ENDROOT
BRANCH   1   2
ATOM      2  C   UNL     1     143.934 146.235 138.570  1.00  0.00     0.000 C 
BRANCH   2   3
ATOM      3  C   UNL     1     142.677 145.455 138.165  1.00  0.00    -0.000 C 
BRANCH   3   4
ATOM      4  C   UNL     1     142.592 144.121 138.914  1.00  0.00    -0.003 C 
ATOM      5  C   UNL     1     141.894 143.058 138.071  1.00  0.00     0.004 C 
ENDBRANCH   3   4
ENDBRANCH   2   3
ENDBRANCH   1   2
BRANCH   1   6
ATOM      6  C   UNL     1     145.944 146.182 140.152  1.00  0.00     0.028 C 
BRANCH   6   7
ATOM      7  C   UNL     1     145.588 146.430 141.620  1.00  0.00     0.156 C 
BRANCH   7   8
ATOM      8  O   UNL     1     146.747 146.340 142.400  1.00  0.00    -0.396 OA
ATOM      9  H   UNL     1     146.492 146.648 143.309  1.00  0.00     0.210 HD
ENDBRANCH   7   8
ENDBRANCH   6   7
ENDBRANCH   1   6
TORSDOF 6
ENDMDL
MODEL 8
REMARK VINA RESULT:    -2.084      1.967      2.442
REMARK INTER + INTRA:          -2.982
REMARK INTER:                  -2.828
REMARK INTRA:                  -0.154
REMARK UNBOUND:                -0.228
REMARK SMILES CCCCCCCO
REMARK SMILES IDX 5 1 4 2 3 3 2 4 1 5 6 6 7 7 8 8
REMARK H PARENT 8 9
REMARK Flexibility Score: inf
ROOT
ATOM      1  C   UNL     1     131.863 146.509 139.011  1.00  0.00     0.002 C 
ENDROOT
BRANCH   1   2
ATOM      2  C   UNL     1     132.978 145.537 139.425  1.00  0.00     0.000 C 
BRANCH   2   3
ATOM      3  C   UNL     1     132.932 144.258 138.582  1.00  0.00    -0.000 C 
BRANCH   3   4
ATOM      4  C   UNL     1     134.308 143.584 138.528  1.00  0.00    -0.003 C 
ATOM      5  C   UNL     1     134.382 142.570 137.390  1.00  0.00     0.004 C 
ENDBRANCH   3   4
ENDBRANCH   2   3
ENDBRANCH   1   2
BRANCH   1   6
ATOM      6  C   UNL     1     130.717 145.812 138.260  1.00  0.00     0.028 C 
BRANCH   6   7
ATOM      7  C   UNL     1     130.082 146.702 137.189  1.00  0.00     0.156 C 
BRANCH   7   8
ATOM      8  O   UNL     1     130.852 146.646 136.022  1.00  0.00    -0.396 OA
ATOM      9  H   UNL     1     130.307 147.071 135.310  1.00  0.00     0.210 HD
ENDBRANCH   7   8
ENDBRANCH   6   7
ENDBRANCH   1   6
TORSDOF 6
ENDMDL
MODEL 9
REMARK VINA RESULT:    -2.079      3.129      4.353
REMARK INTER + INTRA:          -2.976
REMARK INTER:                  -2.682
REMARK INTRA:                  -0.294
REMARK UNBOUND:                -0.228
REMARK SMILES CCCCCCCO
REMARK SMILES IDX 5 1 4 2 3 3 2 4 1 5 6 6 7 7 8 8
REMARK H PARENT 8 9
REMARK Flexibility Score: inf
ROOT
ATOM      1  C   UNL     1     129.673 146.176 138.137  1.00  0.00     0.002 C 
ENDROOT
BRANCH   1   2
ATOM      2  C   UNL     1     131.191 146.249 137.918  1.00  0.00     0.000 C 
BRANCH   2   3
ATOM      3  C   UNL     1     131.946 146.093 139.244  1.00  0.00    -0.000 C 
BRANCH   3   4
ATOM      4  C   UNL     1     132.651 147.397 139.633  1.00  0.00    -0.003 C 
ATOM      5  C   UNL     1     131.899 148.121 140.745  1.00  0.00     0.004 C 
ENDBRANCH   3   4
ENDBRANCH   2   3
ENDBRANCH   1   2
BRANCH   1   6
ATOM      6  C   UNL     1     129.296 145.455 139.441  1.00  0.00     0.028 C 
BRANCH   6   7
ATOM      7  C   UNL     1     128.300 144.314 139.221  1.00  0.00     0.156 C 
BRANCH   7   8
ATOM      8  O   UNL     1     128.774 143.473 138.207  1.00  0.00    -0.396 OA
ATOM      9  H   UNL     1     127.973 143.149 137.720  1.00  0.00     0.210 HD
ENDBRANCH   7   8
ENDBRANCH   6   7
ENDBRANCH   1   6
TORSDOF 6
ENDMDL
