MODEL 1
REMARK VINA RESULT:    -5.059      0.000      0.000
REMARK INTER + INTRA:          -5.059
REMARK INTER:                  -5.059
REMARK INTRA:                   0.000
REMARK UNBOUND:                 0.000
REMARK SMILES C[C@@H]1C(=O)CC[C@H]2[C@]1(C)CC[C@H]1[C@]2(C)CC[C@@]2(C)[C@H]3CC(C)(C)CC[C@]3(C)CC[C@]12C
REMARK SMILES IDX 1 1 2 2 3 3 4 4 5 5 6 6 7 7 8 8 10 9 11 10 12 11 13 12 15 13
REMARK SMILES IDX 16 14 17 15 30 16 29 17 28 18 26 19 19 20 20 21 21 22 24 23
REMARK SMILES IDX 25 24 22 25 23 26 27 27 31 28 18 29 14 30 9 31
REMARK H PARENT
REMARK Flexibility Score: inf
ROOT
ATOM      1  C   UNL     1     104.624 114.902 112.091  1.00  0.00     0.016 C 
ATOM      2  C   UNL     1     106.027 115.535 112.062  1.00  0.00     0.059 C 
ATOM      3  C   UNL     1     105.947 116.861 111.339  1.00  0.00     0.136 C 
ATOM      4  O   UNL     1     105.574 117.859 111.937  1.00  0.00    -0.299 OA
ATOM      5  C   UNL     1     106.331 116.971 109.890  1.00  0.00     0.076 C 
ATOM      6  C   UNL     1     106.311 115.602 109.212  1.00  0.00     0.012 C 
ATOM      7  C   UNL     1     107.249 114.556 109.901  1.00  0.00     0.002 C 
ATOM      8  C   UNL     1     107.227 114.663 111.498  1.00  0.00    -0.020 C 
ATOM      9  C   UNL     1     107.251 113.260 112.170  1.00  0.00     0.008 C 
ATOM     10  C   UNL     1     108.292 112.336 111.546  1.00  0.00     0.005 C 
ATOM     11  C   UNL     1     108.027 112.021 110.040  1.00  0.00     0.002 C 
ATOM     12  C   UNL     1     107.116 113.090 109.261  1.00  0.00    -0.026 C 
ATOM     13  C   UNL     1     107.485 113.192 107.700  1.00  0.00     0.008 C 
ATOM     14  C   UNL     1     108.322 112.093 106.959  1.00  0.00     0.008 C 
ATOM     15  C   UNL     1     108.881 110.953 107.849  1.00  0.00    -0.024 C 
ATOM     16  C   UNL     1     109.335 111.605 109.243  1.00  0.00    -0.024 C 
ATOM     17  C   UNL     1     110.181 110.537 109.991  1.00  0.00     0.008 C 
ATOM     18  C   UNL     1     111.490 110.121 109.255  1.00  0.00     0.007 C 
ATOM     19  C   UNL     1     111.494 110.188 107.676  1.00  0.00    -0.029 C 
ATOM     20  C   UNL     1     110.028 110.051 107.167  1.00  0.00     0.002 C 
ATOM     21  C   UNL     1     109.986 109.978 105.618  1.00  0.00     0.011 C 
ATOM     22  C   UNL     1     110.828 108.790 105.027  1.00  0.00    -0.035 C 
ATOM     23  C   UNL     1     111.681 108.060 106.111  1.00  0.00     0.007 C 
ATOM     24  C   UNL     1     112.384 109.001 107.111  1.00  0.00     0.007 C 
ATOM     25  C   UNL     1     109.871 107.752 104.399  1.00  0.00     0.011 C 
ATOM     26  C   UNL     1     111.758 109.308 103.907  1.00  0.00     0.011 C 
ATOM     27  C   UNL     1     112.146 111.502 107.140  1.00  0.00     0.011 C 
ATOM     28  C   UNL     1     110.232 112.901 109.137  1.00  0.00     0.012 C 
ATOM     29  C   UNL     1     107.682 109.939 107.996  1.00  0.00     0.012 C 
ATOM     30  C   UNL     1     105.612 112.647 109.357  1.00  0.00     0.012 C 
ATOM     31  C   UNL     1     108.521 115.410 111.971  1.00  0.00     0.012 C 
ENDROOT
TORSDOF 0
ENDMDL
MODEL 2
REMARK VINA RESULT:    -5.041      2.219      3.847
REMARK INTER + INTRA:          -5.041
REMARK INTER:                  -5.041
REMARK INTRA:                   0.000
REMARK UNBOUND:                 0.000
REMARK SMILES C[C@@H]1C(=O)CC[C@H]2[C@]1(C)CC[C@H]1[C@]2(C)CC[C@@]2(C)[C@H]3CC(C)(C)CC[C@]3(C)CC[C@]12C
REMARK SMILES IDX 1 1 2 2 3 3 4 4 5 5 6 6 7 7 8 8 10 9 11 10 12 11 13 12 15 13
REMARK SMILES IDX 16 14 17 15 30 16 29 17 28 18 26 19 19 20 20 21 21 22 24 23
REMARK SMILES IDX 25 24 22 25 23 26 27 27 31 28 18 29 14 30 9 31
REMARK H PARENT
REMARK Flexibility Score: inf
ROOT
ATOM      1  C   UNL     1     106.395 112.320 113.509  1.00  0.00     0.016 C 
ATOM      2  C   UNL     1     105.480 112.368 112.271  1.00  0.00     0.059 C 
ATOM      3  C   UNL     1     104.390 111.332 112.432  1.00  0.00     0.136 C 
ATOM      4  O   UNL     1     103.401 111.588 113.101  1.00  0.00    -0.299 OA
ATOM      5  C   UNL     1     104.504 109.988 111.770  1.00  0.00     0.076 C 
ATOM      6  C   UNL     1     105.953 109.682 111.392  1.00  0.00     0.012 C 
ATOM      7  C   UNL     1     106.589 110.760 110.453  1.00  0.00     0.002 C 
ATOM      8  C   UNL     1     106.155 112.251 110.840  1.00  0.00    -0.020 C 
ATOM      9  C   UNL     1     107.342 113.249 110.708  1.00  0.00     0.008 C 
ATOM     10  C   UNL     1     108.115 113.061 109.407  1.00  0.00     0.005 C 
ATOM     11  C   UNL     1     108.792 111.661 109.277  1.00  0.00     0.002 C 
ATOM     12  C   UNL     1     108.147 110.496 110.176  1.00  0.00    -0.026 C 
ATOM     13  C   UNL     1     108.296 109.045 109.502  1.00  0.00     0.008 C 
ATOM     14  C   UNL     1     109.306 108.756 108.339  1.00  0.00     0.008 C 
ATOM     15  C   UNL     1     110.075 109.985 107.788  1.00  0.00    -0.024 C 
ATOM     16  C   UNL     1     109.058 111.225 107.773  1.00  0.00    -0.024 C 
ATOM     17  C   UNL     1     109.724 112.350 106.931  1.00  0.00     0.008 C 
ATOM     18  C   UNL     1     109.976 111.972 105.440  1.00  0.00     0.007 C 
ATOM     19  C   UNL     1     110.244 110.451 105.106  1.00  0.00    -0.029 C 
ATOM     20  C   UNL     1     110.816 109.754 106.376  1.00  0.00     0.002 C 
ATOM     21  C   UNL     1     111.221 108.289 106.068  1.00  0.00     0.011 C 
ATOM     22  C   UNL     1     112.283 108.166 104.916  1.00  0.00    -0.035 C 
ATOM     23  C   UNL     1     112.555 109.526 104.202  1.00  0.00     0.007 C 
ATOM     24  C   UNL     1     111.290 110.361 103.914  1.00  0.00     0.007 C 
ATOM     25  C   UNL     1     113.620 107.668 105.510  1.00  0.00     0.011 C 
ATOM     26  C   UNL     1     111.815 107.124 103.875  1.00  0.00     0.011 C 
ATOM     27  C   UNL     1     108.960 109.719 104.603  1.00  0.00     0.011 C 
ATOM     28  C   UNL     1     107.645 110.949 107.125  1.00  0.00     0.012 C 
ATOM     29  C   UNL     1     111.281 110.177 108.787  1.00  0.00     0.012 C 
ATOM     30  C   UNL     1     108.890 110.446 111.558  1.00  0.00     0.012 C 
ATOM     31  C   UNL     1     105.051 112.732 109.836  1.00  0.00     0.012 C 
ENDROOT
TORSDOF 0
ENDMDL
MODEL 3
REMARK VINA RESULT:    -5.030      4.155      6.201
REMARK INTER + INTRA:          -5.030
REMARK INTER:                  -5.030
REMARK INTRA:                   0.000
REMARK UNBOUND:                 0.000
REMARK SMILES C[C@@H]1C(=O)CC[C@H]2[C@]1(C)CC[C@H]1[C@]2(C)CC[C@@]2(C)[C@H]3CC(C)(C)CC[C@]3(C)CC[C@]12C
REMARK SMILES IDX 1 1 2 2 3 3 4 4 5 5 6 6 7 7 8 8 10 9 11 10 12 11 13 12 15 13
REMARK SMILES IDX 16 14 17 15 30 16 29 17 28 18 26 19 19 20 20 21 21 22 24 23
REMARK SMILES IDX 25 24 22 25 23 26 27 27 31 28 18 29 14 30 9 31
REMARK H PARENT
REMARK Flexibility Score: inf
ROOT
ATOM      1  C   UNL     1     114.917 115.450 112.207  1.00  0.00     0.016 C 
ATOM      2  C   UNL     1     115.557 114.051 112.140  1.00  0.00     0.059 C 
ATOM      3  C   UNL     1     116.873 114.155 111.402  1.00  0.00     0.136 C 
ATOM      4  O   UNL     1     117.877 114.521 111.996  1.00  0.00    -0.299 OA
ATOM      5  C   UNL     1     116.967 113.802 109.945  1.00  0.00     0.076 C 
ATOM      6  C   UNL     1     115.589 113.827 109.284  1.00  0.00     0.012 C 
ATOM      7  C   UNL     1     114.557 112.869 109.966  1.00  0.00     0.002 C 
ATOM      8  C   UNL     1     114.685 112.859 111.562  1.00  0.00    -0.020 C 
ATOM      9  C   UNL     1     113.291 112.811 112.251  1.00  0.00     0.008 C 
ATOM     10  C   UNL     1     112.365 111.779 111.617  1.00  0.00     0.005 C 
ATOM     11  C   UNL     1     112.029 112.073 110.121  1.00  0.00     0.002 C 
ATOM     12  C   UNL     1     113.083 113.007 109.348  1.00  0.00    -0.026 C 
ATOM     13  C   UNL     1     113.167 112.671 107.779  1.00  0.00     0.008 C 
ATOM     14  C   UNL     1     112.064 111.843 107.034  1.00  0.00     0.008 C 
ATOM     15  C   UNL     1     110.938 111.258 107.927  1.00  0.00    -0.024 C 
ATOM     16  C   UNL     1     111.610 110.779 109.302  1.00  0.00    -0.024 C 
ATOM     17  C   UNL     1     110.557 109.912 110.046  1.00  0.00     0.008 C 
ATOM     18  C   UNL     1     110.139 108.615 109.288  1.00  0.00     0.007 C 
ATOM     19  C   UNL     1     110.186 108.645 107.709  1.00  0.00    -0.029 C 
ATOM     20  C   UNL     1     110.034 110.120 107.232  1.00  0.00     0.002 C 
ATOM     21  C   UNL     1     109.941 110.194 105.685  1.00  0.00     0.011 C 
ATOM     22  C   UNL     1     108.751 109.357 105.092  1.00  0.00    -0.035 C 
ATOM     23  C   UNL     1     108.040 108.478 106.167  1.00  0.00     0.007 C 
ATOM     24  C   UNL     1     108.997 107.759 107.140  1.00  0.00     0.007 C 
ATOM     25  C   UNL     1     107.700 110.321 104.497  1.00  0.00     0.011 C 
ATOM     26  C   UNL     1     109.260 108.454 103.946  1.00  0.00     0.011 C 
ATOM     27  C   UNL     1     111.497 108.012 107.142  1.00  0.00     0.011 C 
ATOM     28  C   UNL     1     112.910 109.892 109.161  1.00  0.00     0.012 C 
ATOM     29  C   UNL     1     109.919 112.448 108.111  1.00  0.00     0.012 C 
ATOM     30  C   UNL     1     112.633 114.505 109.481  1.00  0.00     0.012 C 
ATOM     31  C   UNL     1     115.445 111.559 111.998  1.00  0.00     0.012 C 
ENDROOT
TORSDOF 0
ENDMDL
MODEL 4
REMARK VINA RESULT:    -4.992      4.800      8.667
REMARK INTER + INTRA:          -4.992
REMARK INTER:                  -4.992
REMARK INTRA:                   0.000
REMARK UNBOUND:                 0.000
REMARK SMILES C[C@@H]1C(=O)CC[C@H]2[C@]1(C)CC[C@H]1[C@]2(C)CC[C@@]2(C)[C@H]3CC(C)(C)CC[C@]3(C)CC[C@]12C
REMARK SMILES IDX 1 1 2 2 3 3 4 4 5 5 6 6 7 7 8 8 10 9 11 10 12 11 13 12 15 13
REMARK SMILES IDX 16 14 17 15 30 16 29 17 28 18 26 19 19 20 20 21 21 22 24 23
REMARK SMILES IDX 25 24 22 25 23 26 27 27 31 28 18 29 14 30 9 31
REMARK H PARENT
REMARK Flexibility Score: inf
ROOT
ATOM      1  C   UNL     1     115.343 105.297 112.207  1.00  0.00     0.016 C 
ATOM      2  C   UNL     1     113.940 104.666 112.124  1.00  0.00     0.059 C 
ATOM      3  C   UNL     1     114.044 103.350 111.385  1.00  0.00     0.136 C 
ATOM      4  O   UNL     1     114.397 102.344 111.981  1.00  0.00    -0.299 OA
ATOM      5  C   UNL     1     113.707 103.261 109.924  1.00  0.00     0.076 C 
ATOM      6  C   UNL     1     113.749 104.640 109.265  1.00  0.00     0.012 C 
ATOM      7  C   UNL     1     112.790 105.677 109.938  1.00  0.00     0.002 C 
ATOM      8  C   UNL     1     112.760 105.547 111.533  1.00  0.00    -0.020 C 
ATOM      9  C   UNL     1     112.714 106.940 112.224  1.00  0.00     0.008 C 
ATOM     10  C   UNL     1     111.695 107.874 111.579  1.00  0.00     0.005 C 
ATOM     11  C   UNL     1     112.009 108.210 110.087  1.00  0.00     0.002 C 
ATOM     12  C   UNL     1     112.944 107.151 109.323  1.00  0.00    -0.026 C 
ATOM     13  C   UNL     1     112.626 107.071 107.750  1.00  0.00     0.008 C 
ATOM     14  C   UNL     1     111.814 108.181 106.998  1.00  0.00     0.008 C 
ATOM     15  C   UNL     1     111.227 109.309 107.885  1.00  0.00    -0.024 C 
ATOM     16  C   UNL     1     110.727 108.638 109.254  1.00  0.00    -0.024 C 
ATOM     17  C   UNL     1     109.859 109.697 109.990  1.00  0.00     0.008 C 
ATOM     18  C   UNL     1     108.574 110.124 109.217  1.00  0.00     0.007 C 
ATOM     19  C   UNL     1     108.622 110.079 107.638  1.00  0.00    -0.029 C 
ATOM     20  C   UNL     1     110.103 110.222 107.179  1.00  0.00     0.002 C 
ATOM     21  C   UNL     1     110.196 110.316 105.633  1.00  0.00     0.011 C 
ATOM     22  C   UNL     1     109.373 111.513 105.032  1.00  0.00    -0.035 C 
ATOM     23  C   UNL     1     108.487 112.229 106.098  1.00  0.00     0.007 C 
ATOM     24  C   UNL     1     107.751 111.275 107.061  1.00  0.00     0.007 C 
ATOM     25  C   UNL     1     110.351 112.559 104.450  1.00  0.00     0.011 C 
ATOM     26  C   UNL     1     108.480 111.012 103.875  1.00  0.00     0.011 C 
ATOM     27  C   UNL     1     107.987 108.773 107.063  1.00  0.00     0.011 C 
ATOM     28  C   UNL     1     109.834 107.345 109.101  1.00  0.00     0.012 C 
ATOM     29  C   UNL     1     112.422 110.320 108.084  1.00  0.00     0.012 C 
ATOM     30  C   UNL     1     114.444 107.591 109.474  1.00  0.00     0.012 C 
ATOM     31  C   UNL     1     111.450 104.795 111.953  1.00  0.00     0.012 C 
ENDROOT
TORSDOF 0
ENDMDL
MODEL 5
REMARK VINA RESULT:    -4.981      4.521      7.031
REMARK INTER + INTRA:          -4.981
REMARK INTER:                  -4.981
REMARK INTRA:                   0.000
REMARK UNBOUND:                 0.000
REMARK SMILES C[C@@H]1C(=O)CC[C@H]2[C@]1(C)CC[C@H]1[C@]2(C)CC[C@@]2(C)[C@H]3CC(C)(C)CC[C@]3(C)CC[C@]12C
REMARK SMILES IDX 1 1 2 2 3 3 4 4 5 5 6 6 7 7 8 8 10 9 11 10 12 11 13 12 15 13
REMARK SMILES IDX 16 14 17 15 30 16 29 17 28 18 26 19 19 20 20 21 21 22 24 23
REMARK SMILES IDX 25 24 22 25 23 26 27 27 31 28 18 29 14 30 9 31
REMARK H PARENT
REMARK Flexibility Score: inf
ROOT
ATOM      1  C   UNL     1     107.765 106.443 113.631  1.00  0.00     0.016 C 
ATOM      2  C   UNL     1     107.621 105.553 112.383  1.00  0.00     0.059 C 
ATOM      3  C   UNL     1     108.596 104.402 112.491  1.00  0.00     0.136 C 
ATOM      4  O   UNL     1     108.305 103.418 113.154  1.00  0.00    -0.299 OA
ATOM      5  C   UNL     1     109.920 104.448 111.783  1.00  0.00     0.076 C 
ATOM      6  C   UNL     1     110.297 105.884 111.416  1.00  0.00     0.012 C 
ATOM      7  C   UNL     1     109.227 106.596 110.524  1.00  0.00     0.002 C 
ATOM      8  C   UNL     1     107.727 106.244 110.959  1.00  0.00    -0.020 C 
ATOM      9  C   UNL     1     106.797 107.488 110.879  1.00  0.00     0.008 C 
ATOM     10  C   UNL     1     106.984 108.271 109.583  1.00  0.00     0.005 C 
ATOM     11  C   UNL     1     108.417 108.868 109.414  1.00  0.00     0.002 C 
ATOM     12  C   UNL     1     109.572 108.141 110.261  1.00  0.00    -0.026 C 
ATOM     13  C   UNL     1     111.006 108.217 109.539  1.00  0.00     0.008 C 
ATOM     14  C   UNL     1     111.313 109.228 108.381  1.00  0.00     0.008 C 
ATOM     15  C   UNL     1     110.113 110.076 107.886  1.00  0.00    -0.024 C 
ATOM     16  C   UNL     1     108.815 109.133 107.900  1.00  0.00    -0.024 C 
ATOM     17  C   UNL     1     107.703 109.877 107.108  1.00  0.00     0.008 C 
ATOM     18  C   UNL     1     108.043 110.132 105.608  1.00  0.00     0.007 C 
ATOM     19  C   UNL     1     109.565 110.317 105.225  1.00  0.00    -0.029 C 
ATOM     20  C   UNL     1     110.338 110.825 106.477  1.00  0.00     0.002 C 
ATOM     21  C   UNL     1     111.813 111.150 106.123  1.00  0.00     0.011 C 
ATOM     22  C   UNL     1     111.958 112.222 104.983  1.00  0.00    -0.035 C 
ATOM     23  C   UNL     1     110.592 112.584 104.322  1.00  0.00     0.007 C 
ATOM     24  C   UNL     1     109.675 111.375 104.045  1.00  0.00     0.007 C 
ATOM     25  C   UNL     1     112.554 113.518 105.579  1.00  0.00     0.011 C 
ATOM     26  C   UNL     1     112.934 111.712 103.899  1.00  0.00     0.011 C 
ATOM     27  C   UNL     1     110.203 109.000 104.677  1.00  0.00     0.011 C 
ATOM     28  C   UNL     1     108.985 107.717 107.222  1.00  0.00     0.012 C 
ATOM     29  C   UNL     1     110.026 111.274 108.908  1.00  0.00     0.012 C 
ATOM     30  C   UNL     1     109.713 108.857 111.652  1.00  0.00     0.012 C 
ATOM     31  C   UNL     1     107.148 105.186 109.956  1.00  0.00     0.012 C 
ENDROOT
TORSDOF 0
ENDMDL
MODEL 6
REMARK VINA RESULT:    -4.922      4.153      6.170
REMARK INTER + INTRA:          -4.922
REMARK INTER:                  -4.922
REMARK INTRA:                   0.000
REMARK UNBOUND:                 0.000
REMARK SMILES C[C@@H]1C(=O)CC[C@H]2[C@]1(C)CC[C@H]1[C@]2(C)CC[C@@]2(C)[C@H]3CC(C)(C)CC[C@]3(C)CC[C@]12C
REMARK SMILES IDX 1 1 2 2 3 3 4 4 5 5 6 6 7 7 8 8 10 9 11 10 12 11 13 12 15 13
REMARK SMILES IDX 16 14 17 15 30 16 29 17 28 18 26 19 19 20 20 21 21 22 24 23
REMARK SMILES IDX 25 24 22 25 23 26 27 27 31 28 18 29 14 30 9 31
REMARK H PARENT
REMARK Flexibility Score: inf
ROOT
ATOM      1  C   UNL     1     105.428 104.706 112.214  1.00  0.00     0.016 C 
ATOM      2  C   UNL     1     104.747 106.084 112.109  1.00  0.00     0.059 C 
ATOM      3  C   UNL     1     103.444 105.926 111.358  1.00  0.00     0.136 C 
ATOM      4  O   UNL     1     102.445 105.543 111.946  1.00  0.00    -0.299 OA
ATOM      5  C   UNL     1     103.359 106.246 109.892  1.00  0.00     0.076 C 
ATOM      6  C   UNL     1     104.746 106.247 109.248  1.00  0.00     0.012 C 
ATOM      7  C   UNL     1     105.740 107.250 109.923  1.00  0.00     0.002 C 
ATOM      8  C   UNL     1     105.591 107.289 111.517  1.00  0.00    -0.020 C 
ATOM      9  C   UNL     1     106.975 107.392 112.221  1.00  0.00     0.008 C 
ATOM     10  C   UNL     1     107.878 108.438 111.577  1.00  0.00     0.005 C 
ATOM     11  C   UNL     1     108.241 108.122 110.092  1.00  0.00     0.002 C 
ATOM     12  C   UNL     1     107.225 107.142 109.326  1.00  0.00    -0.026 C 
ATOM     13  C   UNL     1     107.152 107.442 107.749  1.00  0.00     0.008 C 
ATOM     14  C   UNL     1     108.240 108.287 107.000  1.00  0.00     0.008 C 
ATOM     15  C   UNL     1     109.336 108.923 107.894  1.00  0.00    -0.024 C 
ATOM     16  C   UNL     1     108.633 109.411 109.250  1.00  0.00    -0.024 C 
ATOM     17  C   UNL     1     109.651 110.324 109.989  1.00  0.00     0.008 C 
ATOM     18  C   UNL     1     110.040 111.616 109.208  1.00  0.00     0.007 C 
ATOM     19  C   UNL     1     110.014 111.552 107.629  1.00  0.00    -0.029 C 
ATOM     20  C   UNL     1     110.216 110.072 107.186  1.00  0.00     0.002 C 
ATOM     21  C   UNL     1     110.330 109.968 105.642  1.00  0.00     0.011 C 
ATOM     22  C   UNL     1     111.503 110.828 105.046  1.00  0.00    -0.035 C 
ATOM     23  C   UNL     1     112.175 111.750 106.111  1.00  0.00     0.007 C 
ATOM     24  C   UNL     1     111.185 112.460 107.056  1.00  0.00     0.007 C 
ATOM     25  C   UNL     1     112.590 109.883 104.485  1.00  0.00     0.011 C 
ATOM     26  C   UNL     1     110.983 111.691 103.875  1.00  0.00     0.011 C 
ATOM     27  C   UNL     1     108.693 112.134 107.033  1.00  0.00     0.011 C 
ATOM     28  C   UNL     1     107.310 110.256 109.075  1.00  0.00     0.012 C 
ATOM     29  C   UNL     1     110.387 107.767 108.116  1.00  0.00     0.012 C 
ATOM     30  C   UNL     1     107.718 105.661 109.496  1.00  0.00     0.012 C 
ATOM     31  C   UNL     1     104.788 108.575 111.915  1.00  0.00     0.012 C 
ENDROOT
TORSDOF 0
ENDMDL
MODEL 7
REMARK VINA RESULT:    -4.897      2.483      3.902
REMARK INTER + INTRA:          -4.897
REMARK INTER:                  -4.897
REMARK INTRA:                   0.000
REMARK UNBOUND:                 0.000
REMARK SMILES C[C@@H]1C(=O)CC[C@H]2[C@]1(C)CC[C@H]1[C@]2(C)CC[C@@]2(C)[C@H]3CC(C)(C)CC[C@]3(C)CC[C@]12C
REMARK SMILES IDX 1 1 2 2 3 3 4 4 5 5 6 6 7 7 8 8 10 9 11 10 12 11 13 12 15 13
REMARK SMILES IDX 16 14 17 15 30 16 29 17 28 18 26 19 19 20 20 21 21 22 24 23
REMARK SMILES IDX 25 24 22 25 23 26 27 27 31 28 18 29 14 30 9 31
REMARK H PARENT
REMARK Flexibility Score: inf
ROOT
ATOM      1  C   UNL     1     111.756 113.850 113.956  1.00  0.00     0.016 C 
ATOM      2  C   UNL     1     111.952 114.756 112.726  1.00  0.00     0.059 C 
ATOM      3  C   UNL     1     110.937 115.876 112.781  1.00  0.00     0.136 C 
ATOM      4  O   UNL     1     111.155 116.862 113.468  1.00  0.00    -0.299 OA
ATOM      5  C   UNL     1     109.662 115.797 111.990  1.00  0.00     0.076 C 
ATOM      6  C   UNL     1     109.353 114.354 111.589  1.00  0.00     0.012 C 
ATOM      7  C   UNL     1     110.499 113.682 110.762  1.00  0.00     0.002 C 
ATOM      8  C   UNL     1     111.957 114.076 111.293  1.00  0.00    -0.020 C 
ATOM      9  C   UNL     1     112.928 112.861 111.263  1.00  0.00     0.008 C 
ATOM     10  C   UNL     1     112.847 112.085 109.952  1.00  0.00     0.005 C 
ATOM     11  C   UNL     1     111.446 111.447 109.688  1.00  0.00     0.002 C 
ATOM     12  C   UNL     1     110.218 112.130 110.466  1.00  0.00    -0.026 C 
ATOM     13  C   UNL     1     108.837 112.019 109.653  1.00  0.00     0.008 C 
ATOM     14  C   UNL     1     108.634 111.010 108.470  1.00  0.00     0.008 C 
ATOM     15  C   UNL     1     109.888 110.203 108.046  1.00  0.00    -0.024 C 
ATOM     16  C   UNL     1     111.153 111.184 108.150  1.00  0.00    -0.024 C 
ATOM     17  C   UNL     1     112.335 110.482 107.424  1.00  0.00     0.008 C 
ATOM     18  C   UNL     1     112.099 110.231 105.904  1.00  0.00     0.007 C 
ATOM     19  C   UNL     1     110.611 110.004 105.423  1.00  0.00    -0.029 C 
ATOM     20  C   UNL     1     109.776 109.461 106.621  1.00  0.00     0.002 C 
ATOM     21  C   UNL     1     108.337 109.096 106.171  1.00  0.00     0.011 C 
ATOM     22  C   UNL     1     108.297 108.031 105.016  1.00  0.00    -0.035 C 
ATOM     23  C   UNL     1     109.713 107.716 104.440  1.00  0.00     0.007 C 
ATOM     24  C   UNL     1     110.608 108.954 104.231  1.00  0.00     0.007 C 
ATOM     25  C   UNL     1     107.705 106.712 105.563  1.00  0.00     0.011 C 
ATOM     26  C   UNL     1     107.377 108.521 103.876  1.00  0.00     0.011 C 
ATOM     27  C   UNL     1     109.969 111.306 104.846  1.00  0.00     0.011 C 
ATOM     28  C   UNL     1     110.983 112.601 107.473  1.00  0.00     0.012 C 
ATOM     29  C   UNL     1     109.947 108.998 109.063  1.00  0.00     0.012 C 
ATOM     30  C   UNL     1     110.012 111.398 111.839  1.00  0.00     0.012 C 
ATOM     31  C   UNL     1     112.565 115.160 110.337  1.00  0.00     0.012 C 
ENDROOT
TORSDOF 0
ENDMDL
MODEL 8
REMARK VINA RESULT:    -4.829      4.228      7.047
REMARK INTER + INTRA:          -4.829
REMARK INTER:                  -4.829
REMARK INTRA:                   0.000
REMARK UNBOUND:                 0.000
REMARK SMILES C[C@@H]1C(=O)CC[C@H]2[C@]1(C)CC[C@H]1[C@]2(C)CC[C@@]2(C)[C@H]3CC(C)(C)CC[C@]3(C)CC[C@]12C
REMARK SMILES IDX 1 1 2 2 3 3 4 4 5 5 6 6 7 7 8 8 10 9 11 10 12 11 13 12 15 13
REMARK SMILES IDX 16 14 17 15 30 16 29 17 28 18 26 19 19 20 20 21 21 22 24 23
REMARK SMILES IDX 25 24 22 25 23 26 27 27 31 28 18 29 14 30 9 31
REMARK H PARENT
REMARK Flexibility Score: inf
ROOT
ATOM      1  C   UNL     1     108.016 109.212 103.875  1.00  0.00     0.016 C 
ATOM      2  C   UNL     1     107.745 110.119 105.090  1.00  0.00     0.059 C 
ATOM      3  C   UNL     1     108.119 111.539 104.729  1.00  0.00     0.136 C 
ATOM      4  O   UNL     1     107.332 112.237 104.106  1.00  0.00    -0.299 OA
ATOM      5  C   UNL     1     109.448 112.111 105.135  1.00  0.00     0.076 C 
ATOM      6  C   UNL     1     110.445 111.001 105.467  1.00  0.00     0.012 C 
ATOM      7  C   UNL     1     109.946 110.039 106.596  1.00  0.00     0.002 C 
ATOM      8  C   UNL     1     108.383 109.710 106.483  1.00  0.00    -0.020 C 
ATOM      9  C   UNL     1     108.083 108.219 106.810  1.00  0.00     0.008 C 
ATOM     10  C   UNL     1     108.809 107.743 108.065  1.00  0.00     0.005 C 
ATOM     11  C   UNL     1     110.365 107.790 107.943  1.00  0.00     0.002 C 
ATOM     12  C   UNL     1     110.941 108.803 106.839  1.00  0.00    -0.026 C 
ATOM     13  C   UNL     1     112.382 109.393 107.237  1.00  0.00     0.008 C 
ATOM     14  C   UNL     1     113.284 108.740 108.340  1.00  0.00     0.008 C 
ATOM     15  C   UNL     1     112.654 107.554 109.115  1.00  0.00    -0.024 C 
ATOM     16  C   UNL     1     111.104 107.894 109.345  1.00  0.00    -0.024 C 
ATOM     17  C   UNL     1     110.563 106.875 110.387  1.00  0.00     0.008 C 
ATOM     18  C   UNL     1     111.243 106.965 111.787  1.00  0.00     0.007 C 
ATOM     19  C   UNL     1     112.747 107.448 111.839  1.00  0.00    -0.029 C 
ATOM     20  C   UNL     1     113.420 107.136 110.470  1.00  0.00     0.002 C 
ATOM     21  C   UNL     1     114.934 107.471 110.510  1.00  0.00     0.011 C 
ATOM     22  C   UNL     1     115.713 106.695 111.632  1.00  0.00    -0.035 C 
ATOM     23  C   UNL     1     114.765 105.906 112.587  1.00  0.00     0.007 C 
ATOM     24  C   UNL     1     113.496 106.676 113.007  1.00  0.00     0.007 C 
ATOM     25  C   UNL     1     116.674 105.679 110.973  1.00  0.00     0.011 C 
ATOM     26  C   UNL     1     116.569 107.681 112.459  1.00  0.00     0.011 C 
ATOM     27  C   UNL     1     112.870 108.966 112.184  1.00  0.00     0.011 C 
ATOM     28  C   UNL     1     110.792 109.334 109.914  1.00  0.00     0.012 C 
ATOM     29  C   UNL     1     112.888 106.302 108.184  1.00  0.00     0.012 C 
ATOM     30  C   UNL     1     111.112 108.035 105.480  1.00  0.00     0.012 C 
ATOM     31  C   UNL     1     107.611 110.567 107.545  1.00  0.00     0.012 C 
ENDROOT
TORSDOF 0
ENDMDL
MODEL 9
REMARK VINA RESULT:    -4.813      3.070      7.927
REMARK INTER + INTRA:          -4.813
REMARK INTER:                  -4.813
REMARK INTRA:                   0.000
REMARK UNBOUND:                 0.000
REMARK SMILES C[C@@H]1C(=O)CC[C@H]2[C@]1(C)CC[C@H]1[C@]2(C)CC[C@@]2(C)[C@H]3CC(C)(C)CC[C@]3(C)CC[C@]12C
REMARK SMILES IDX 1 1 2 2 3 3 4 4 5 5 6 6 7 7 8 8 10 9 11 10 12 11 13 12 15 13
REMARK SMILES IDX 16 14 17 15 30 16 29 17 28 18 26 19 19 20 20 21 21 22 24 23
REMARK SMILES IDX 25 24 22 25 23 26 27 27 31 28 18 29 14 30 9 31
REMARK H PARENT
REMARK Flexibility Score: inf
ROOT
ATOM      1  C   UNL     1     112.294 110.838 103.875  1.00  0.00     0.016 C 
ATOM      2  C   UNL     1     112.507 109.899 105.077  1.00  0.00     0.059 C 
ATOM      3  C   UNL     1     112.126 108.494 104.668  1.00  0.00     0.136 C 
ATOM      4  O   UNL     1     112.926 107.799 104.058  1.00  0.00    -0.299 OA
ATOM      5  C   UNL     1     110.775 107.933 105.010  1.00  0.00     0.076 C 
ATOM      6  C   UNL     1     109.782 109.050 105.332  1.00  0.00     0.012 C 
ATOM      7  C   UNL     1     110.252 109.977 106.502  1.00  0.00     0.002 C 
ATOM      8  C   UNL     1     111.822 110.285 106.455  1.00  0.00    -0.020 C 
ATOM      9  C   UNL     1     112.131 111.763 106.829  1.00  0.00     0.008 C 
ATOM     10  C   UNL     1     111.366 112.220 108.066  1.00  0.00     0.005 C 
ATOM     11  C   UNL     1     109.815 112.200 107.886  1.00  0.00     0.002 C 
ATOM     12  C   UNL     1     109.266 111.222 106.737  1.00  0.00    -0.026 C 
ATOM     13  C   UNL     1     107.803 110.644 107.066  1.00  0.00     0.008 C 
ATOM     14  C   UNL     1     106.869 111.285 108.150  1.00  0.00     0.008 C 
ATOM     15  C   UNL     1     107.486 112.443 108.977  1.00  0.00    -0.024 C 
ATOM     16  C   UNL     1     109.022 112.073 109.256  1.00  0.00    -0.024 C 
ATOM     17  C   UNL     1     109.538 113.059 110.342  1.00  0.00     0.008 C 
ATOM     18  C   UNL     1     108.804 112.947 111.713  1.00  0.00     0.007 C 
ATOM     19  C   UNL     1     107.293 112.486 111.698  1.00  0.00    -0.029 C 
ATOM     20  C   UNL     1     106.676 112.840 110.312  1.00  0.00     0.002 C 
ATOM     21  C   UNL     1     105.157 112.528 110.287  1.00  0.00     0.011 C 
ATOM     22  C   UNL     1     104.347 113.289 111.398  1.00  0.00    -0.035 C 
ATOM     23  C   UNL     1     105.270 114.040 112.406  1.00  0.00     0.007 C 
ATOM     24  C   UNL     1     106.511 113.241 112.855  1.00  0.00     0.007 C 
ATOM     25  C   UNL     1     103.427 114.334 110.729  1.00  0.00     0.011 C 
ATOM     26  C   UNL     1     103.447 112.297 112.168  1.00  0.00     0.011 C 
ATOM     27  C   UNL     1     107.135 110.961 112.001  1.00  0.00     0.011 C 
ATOM     28  C   UNL     1     109.292 110.616 109.802  1.00  0.00     0.012 C 
ATOM     29  C   UNL     1     107.306 113.720 108.068  1.00  0.00     0.012 C 
ATOM     30  C   UNL     1     109.158 112.024 105.391  1.00  0.00     0.012 C 
ATOM     31  C   UNL     1     112.542 109.391 107.523  1.00  0.00     0.012 C 
ENDROOT
TORSDOF 0
ENDMDL
