MODEL 1
REMARK VINA RESULT:    -4.086      0.000      0.000
REMARK INTER + INTRA:          -8.415
REMARK INTER:                  -6.952
REMARK INTRA:                  -1.463
REMARK UNBOUND:                -1.463
REMARK SMILES CCCCCCCCCCCCCC(=O)[O-]
REMARK SMILES IDX 8 1 9 2 10 3 11 4 12 5 13 6 14 7 15 8 16 9 7 10 6 11 5 12
REMARK SMILES IDX 4 13 3 14 2 15 1 16
REMARK H PARENT
REMARK Flexibility Score: inf
ROOT
ATOM      1  C   UNL     1      -8.514 -37.597  -9.331  1.00  0.00     0.000 C 
ENDROOT
BRANCH   1   2
ATOM      2  C   UNL     1      -7.145 -38.044  -8.784  1.00  0.00     0.000 C 
BRANCH   2   3
ATOM      3  C   UNL     1      -6.173 -38.599  -9.840  1.00  0.00     0.000 C 
BRANCH   3   4
ATOM      4  C   UNL     1      -6.148 -40.134  -9.880  1.00  0.00     0.000 C 
BRANCH   4   5
ATOM      5  C   UNL     1      -7.055 -40.669 -10.999  1.00  0.00     0.006 C 
BRANCH   5   6
ATOM      6  C   UNL     1      -6.543 -40.289 -12.394  1.00  0.00     0.053 C 
BRANCH   6   7
ATOM      7  C   UNL     1      -7.577 -39.539 -13.179  1.00  0.00     0.041 C 
ATOM      8  O   UNL     1      -8.542 -38.985 -12.590  1.00  0.00    -0.550 OA
ATOM      9  O   UNL     1      -7.455 -39.426 -14.558  1.00  0.00    -0.550 OA
ENDBRANCH   6   7
ENDBRANCH   5   6
ENDBRANCH   4   5
ENDBRANCH   3   4
ENDBRANCH   2   3
ENDBRANCH   1   2
BRANCH   1  10
ATOM     10  C   UNL     1      -8.822 -36.094  -9.170  1.00  0.00     0.000 C 
BRANCH  10  11
ATOM     11  C   UNL     1      -8.416 -35.213 -10.369  1.00  0.00    -0.000 C 
BRANCH  11  12
ATOM     12  C   UNL     1      -6.971 -34.683 -10.330  1.00  0.00    -0.000 C 
BRANCH  12  13
ATOM     13  C   UNL     1      -6.636 -33.958  -9.016  1.00  0.00    -0.000 C 
BRANCH  13  14
ATOM     14  C   UNL     1      -5.582 -34.705  -8.182  1.00  0.00    -0.000 C 
BRANCH  14  15
ATOM     15  C   UNL     1      -4.529 -35.407  -9.052  1.00  0.00    -0.003 C 
ATOM     16  C   UNL     1      -3.302 -35.789  -8.228  1.00  0.00     0.004 C 
ENDBRANCH  14  15
ENDBRANCH  13  14
ENDBRANCH  12  13
ENDBRANCH  11  12
ENDBRANCH  10  11
ENDBRANCH   1  10
TORSDOF 12
ENDMDL
MODEL 2
REMARK VINA RESULT:    -3.837      1.489      3.169
REMARK INTER + INTRA:          -7.992
REMARK INTER:                  -7.155
REMARK INTRA:                  -0.837
REMARK UNBOUND:                -1.463
REMARK SMILES CCCCCCCCCCCCCC(=O)[O-]
REMARK SMILES IDX 8 1 9 2 10 3 11 4 12 5 13 6 14 7 15 8 16 9 7 10 6 11 5 12
REMARK SMILES IDX 4 13 3 14 2 15 1 16
REMARK H PARENT
REMARK Flexibility Score: inf
ROOT
ATOM      1  C   UNL     1      -5.376 -38.603 -10.339  1.00  0.00     0.000 C 
ENDROOT
BRANCH   1   2
ATOM      2  C   UNL     1      -6.083 -39.921  -9.965  1.00  0.00     0.000 C 
BRANCH   2   3
ATOM      3  C   UNL     1      -7.405 -40.183 -10.709  1.00  0.00     0.000 C 
BRANCH   3   4
ATOM      4  C   UNL     1      -7.267 -41.239 -11.816  1.00  0.00     0.000 C 
BRANCH   4   5
ATOM      5  C   UNL     1      -7.303 -40.585 -13.206  1.00  0.00     0.006 C 
BRANCH   5   6
ATOM      6  C   UNL     1      -6.261 -41.185 -14.159  1.00  0.00     0.053 C 
BRANCH   6   7
ATOM      7  C   UNL     1      -6.439 -40.686 -15.561  1.00  0.00     0.041 C 
ATOM      8  O   UNL     1      -5.904 -41.295 -16.524  1.00  0.00    -0.550 OA
ATOM      9  O   UNL     1      -7.222 -39.566 -15.805  1.00  0.00    -0.550 OA
ENDBRANCH   6   7
ENDBRANCH   5   6
ENDBRANCH   4   5
ENDBRANCH   3   4
ENDBRANCH   2   3
ENDBRANCH   1   2
BRANCH   1  10
ATOM     10  C   UNL     1      -5.501 -37.477  -9.294  1.00  0.00     0.000 C 
BRANCH  10  11
ATOM     11  C   UNL     1      -4.257 -36.575  -9.155  1.00  0.00    -0.000 C 
BRANCH  11  12
ATOM     12  C   UNL     1      -4.504 -35.222  -8.465  1.00  0.00    -0.000 C 
BRANCH  12  13
ATOM     13  C   UNL     1      -5.936 -35.082  -7.919  1.00  0.00    -0.000 C 
BRANCH  13  14
ATOM     14  C   UNL     1      -6.710 -33.931  -8.581  1.00  0.00    -0.000 C 
BRANCH  14  15
ATOM     15  C   UNL     1      -6.902 -34.137 -10.091  1.00  0.00    -0.003 C 
ATOM     16  C   UNL     1      -8.118 -35.015 -10.374  1.00  0.00     0.004 C 
ENDBRANCH  14  15
ENDBRANCH  13  14
ENDBRANCH  12  13
ENDBRANCH  11  12
ENDBRANCH  10  11
ENDBRANCH   1  10
TORSDOF 12
ENDMDL
MODEL 3
REMARK VINA RESULT:    -3.833      3.544      7.220
REMARK INTER + INTRA:          -7.985
REMARK INTER:                  -7.428
REMARK INTRA:                  -0.557
REMARK UNBOUND:                -1.463
REMARK SMILES CCCCCCCCCCCCCC(=O)[O-]
REMARK SMILES IDX 8 1 9 2 10 3 11 4 12 5 13 6 14 7 15 8 16 9 7 10 6 11 5 12
REMARK SMILES IDX 4 13 3 14 2 15 1 16
REMARK H PARENT
REMARK Flexibility Score: inf
ROOT
ATOM      1  C   UNL     1      -6.734 -40.436 -12.530  1.00  0.00     0.000 C 
ENDROOT
BRANCH   1   2
ATOM      2  C   UNL     1      -6.650 -40.250 -11.002  1.00  0.00     0.000 C 
BRANCH   2   3
ATOM      3  C   UNL     1      -5.499 -39.349 -10.520  1.00  0.00     0.000 C 
BRANCH   3   4
ATOM      4  C   UNL     1      -5.984 -38.163  -9.673  1.00  0.00     0.000 C 
BRANCH   4   5
ATOM      5  C   UNL     1      -4.978 -37.003  -9.724  1.00  0.00     0.006 C 
BRANCH   5   6
ATOM      6  C   UNL     1      -5.372 -35.850  -8.793  1.00  0.00     0.053 C 
BRANCH   6   7
ATOM      7  C   UNL     1      -6.093 -34.763  -9.531  1.00  0.00     0.041 C 
ATOM      8  O   UNL     1      -6.227 -34.826 -10.782  1.00  0.00    -0.550 OA
ATOM      9  O   UNL     1      -6.644 -33.696  -8.833  1.00  0.00    -0.550 OA
ENDBRANCH   6   7
ENDBRANCH   5   6
ENDBRANCH   4   5
ENDBRANCH   3   4
ENDBRANCH   2   3
ENDBRANCH   1   2
BRANCH   1  10
ATOM     10  C   UNL     1      -7.565 -39.370 -13.272  1.00  0.00     0.000 C 
BRANCH  10  11
ATOM     11  C   UNL     1      -7.638 -39.548 -14.802  1.00  0.00    -0.000 C 
BRANCH  11  12
ATOM     12  C   UNL     1      -6.646 -40.569 -15.390  1.00  0.00    -0.000 C 
BRANCH  12  13
ATOM     13  C   UNL     1      -6.545 -40.489 -16.923  1.00  0.00    -0.000 C 
BRANCH  13  14
ATOM     14  C   UNL     1      -7.348 -39.314 -17.506  1.00  0.00    -0.000 C 
BRANCH  14  15
ATOM     15  C   UNL     1      -7.233 -39.220 -19.034  1.00  0.00    -0.003 C 
ATOM     16  C   UNL     1      -5.801 -39.475 -19.494  1.00  0.00     0.004 C 
ENDBRANCH  14  15
ENDBRANCH  13  14
ENDBRANCH  12  13
ENDBRANCH  11  12
ENDBRANCH  10  11
ENDBRANCH   1  10
TORSDOF 12
ENDMDL
MODEL 4
REMARK VINA RESULT:    -3.806      1.925      6.085
REMARK INTER + INTRA:          -7.940
REMARK INTER:                  -7.018
REMARK INTRA:                  -0.921
REMARK UNBOUND:                -1.463
REMARK SMILES CCCCCCCCCCCCCC(=O)[O-]
REMARK SMILES IDX 8 1 9 2 10 3 11 4 12 5 13 6 14 7 15 8 16 9 7 10 6 11 5 12
REMARK SMILES IDX 4 13 3 14 2 15 1 16
REMARK H PARENT
REMARK Flexibility Score: inf
ROOT
ATOM      1  C   UNL     1      -6.024 -38.077  -9.611  1.00  0.00     0.000 C 
ENDROOT
BRANCH   1   2
ATOM      2  C   UNL     1      -4.858 -37.108  -9.338  1.00  0.00     0.000 C 
BRANCH   2   3
ATOM      3  C   UNL     1      -5.216 -35.615  -9.438  1.00  0.00     0.000 C 
BRANCH   3   4
ATOM      4  C   UNL     1      -6.306 -35.332 -10.483  1.00  0.00     0.000 C 
BRANCH   4   5
ATOM      5  C   UNL     1      -7.446 -34.500  -9.876  1.00  0.00     0.006 C 
BRANCH   5   6
ATOM      6  C   UNL     1      -8.597 -35.377  -9.365  1.00  0.00     0.053 C 
BRANCH   6   7
ATOM      7  C   UNL     1      -9.323 -36.050 -10.490  1.00  0.00     0.041 C 
ATOM      8  O   UNL     1      -9.368 -37.307 -10.554  1.00  0.00    -0.550 OA
ATOM      9  O   UNL     1      -9.976 -35.288 -11.449  1.00  0.00    -0.550 OA
ENDBRANCH   6   7
ENDBRANCH   5   6
ENDBRANCH   4   5
ENDBRANCH   3   4
ENDBRANCH   2   3
ENDBRANCH   1   2
BRANCH   1  10
ATOM     10  C   UNL     1      -5.681 -39.269 -10.528  1.00  0.00     0.000 C 
BRANCH  10  11
ATOM     11  C   UNL     1      -6.742 -39.596 -11.598  1.00  0.00    -0.000 C 
BRANCH  11  12
ATOM     12  C   UNL     1      -6.560 -40.951 -12.306  1.00  0.00    -0.000 C 
BRANCH  12  13
ATOM     13  C   UNL     1      -6.566 -40.829 -13.840  1.00  0.00    -0.000 C 
BRANCH  13  14
ATOM     14  C   UNL     1      -7.752 -40.001 -14.360  1.00  0.00    -0.000 C 
BRANCH  14  15
ATOM     15  C   UNL     1      -7.477 -39.370 -15.733  1.00  0.00    -0.003 C 
ATOM     16  C   UNL     1      -6.946 -40.408 -16.718  1.00  0.00     0.004 C 
ENDBRANCH  14  15
ENDBRANCH  13  14
ENDBRANCH  12  13
ENDBRANCH  11  12
ENDBRANCH  10  11
ENDBRANCH   1  10
TORSDOF 12
ENDMDL
MODEL 5
REMARK VINA RESULT:    -3.772      3.132      6.541
REMARK INTER + INTRA:          -7.882
REMARK INTER:                  -7.167
REMARK INTRA:                  -0.715
REMARK UNBOUND:                -1.463
REMARK SMILES CCCCCCCCCCCCCC(=O)[O-]
REMARK SMILES IDX 8 1 9 2 10 3 11 4 12 5 13 6 14 7 15 8 16 9 7 10 6 11 5 12
REMARK SMILES IDX 4 13 3 14 2 15 1 16
REMARK H PARENT
REMARK Flexibility Score: inf
ROOT
ATOM      1  C   UNL     1      -6.700 -40.092 -12.385  1.00  0.00     0.000 C 
ENDROOT
BRANCH   1   2
ATOM      2  C   UNL     1      -7.005 -40.771 -11.035  1.00  0.00     0.000 C 
BRANCH   2   3
ATOM      3  C   UNL     1      -6.229 -40.204  -9.833  1.00  0.00     0.000 C 
BRANCH   3   4
ATOM      4  C   UNL     1      -5.432 -38.937 -10.181  1.00  0.00     0.000 C 
BRANCH   4   5
ATOM      5  C   UNL     1      -5.996 -37.714  -9.441  1.00  0.00     0.006 C 
BRANCH   5   6
ATOM      6  C   UNL     1      -7.166 -37.067 -10.193  1.00  0.00     0.053 C 
BRANCH   6   7
ATOM      7  C   UNL     1      -7.042 -35.574 -10.232  1.00  0.00     0.041 C 
ATOM      8  O   UNL     1      -8.027 -34.864 -10.567  1.00  0.00    -0.550 OA
ATOM      9  O   UNL     1      -5.848 -34.966  -9.868  1.00  0.00    -0.550 OA
ENDBRANCH   6   7
ENDBRANCH   5   6
ENDBRANCH   4   5
ENDBRANCH   3   4
ENDBRANCH   2   3
ENDBRANCH   1   2
BRANCH   1  10
ATOM     10  C   UNL     1      -6.446 -41.059 -13.559  1.00  0.00     0.000 C 
BRANCH  10  11
ATOM     11  C   UNL     1      -6.853 -40.523 -14.946  1.00  0.00    -0.000 C 
BRANCH  11  12
ATOM     12  C   UNL     1      -7.774 -39.289 -14.926  1.00  0.00    -0.000 C 
BRANCH  12  13
ATOM     13  C   UNL     1      -7.986 -38.679 -16.322  1.00  0.00    -0.000 C 
BRANCH  13  14
ATOM     14  C   UNL     1      -9.236 -37.788 -16.393  1.00  0.00    -0.000 C 
BRANCH  14  15
ATOM     15  C   UNL     1      -9.198 -36.805 -17.573  1.00  0.00    -0.003 C 
ATOM     16  C   UNL     1      -7.830 -36.813 -18.248  1.00  0.00     0.004 C 
ENDBRANCH  14  15
ENDBRANCH  13  14
ENDBRANCH  12  13
ENDBRANCH  11  12
ENDBRANCH  10  11
ENDBRANCH   1  10
TORSDOF 12
ENDMDL
MODEL 6
REMARK VINA RESULT:    -3.763      2.909      4.869
REMARK INTER + INTRA:          -7.867
REMARK INTER:                  -7.354
REMARK INTRA:                  -0.513
REMARK UNBOUND:                -1.463
REMARK SMILES CCCCCCCCCCCCCC(=O)[O-]
REMARK SMILES IDX 8 1 9 2 10 3 11 4 12 5 13 6 14 7 15 8 16 9 7 10 6 11 5 12
REMARK SMILES IDX 4 13 3 14 2 15 1 16
REMARK H PARENT
REMARK Flexibility Score: inf
ROOT
ATOM      1  C   UNL     1      -7.385 -40.511 -13.069  1.00  0.00     0.000 C 
ENDROOT
BRANCH   1   2
ATOM      2  C   UNL     1      -7.069 -40.095 -14.519  1.00  0.00     0.000 C 
BRANCH   2   3
ATOM      3  C   UNL     1      -6.343 -41.162 -15.357  1.00  0.00     0.000 C 
BRANCH   3   4
ATOM      4  C   UNL     1      -6.276 -40.805 -16.849  1.00  0.00     0.000 C 
BRANCH   4   5
ATOM      5  C   UNL     1      -7.522 -40.016 -17.281  1.00  0.00     0.006 C 
BRANCH   5   6
ATOM      6  C   UNL     1      -7.173 -38.830 -18.189  1.00  0.00     0.053 C 
BRANCH   6   7
ATOM      7  C   UNL     1      -7.873 -37.577 -17.757  1.00  0.00     0.041 C 
ATOM      8  O   UNL     1      -7.868 -36.559 -18.499  1.00  0.00    -0.550 OA
ATOM      9  O   UNL     1      -8.557 -37.545 -16.549  1.00  0.00    -0.550 OA
ENDBRANCH   6   7
ENDBRANCH   5   6
ENDBRANCH   4   5
ENDBRANCH   3   4
ENDBRANCH   2   3
ENDBRANCH   1   2
BRANCH   1  10
ATOM     10  C   UNL     1      -6.353 -40.051 -12.019  1.00  0.00     0.000 C 
BRANCH  10  11
ATOM     11  C   UNL     1      -6.836 -38.929 -11.078  1.00  0.00    -0.000 C 
BRANCH  11  12
ATOM     12  C   UNL     1      -5.990 -38.733  -9.806  1.00  0.00    -0.000 C 
BRANCH  12  13
ATOM     13  C   UNL     1      -6.312 -37.421  -9.071  1.00  0.00    -0.000 C 
BRANCH  13  14
ATOM     14  C   UNL     1      -5.553 -36.217  -9.653  1.00  0.00    -0.000 C 
BRANCH  14  15
ATOM     15  C   UNL     1      -4.894 -35.352  -8.568  1.00  0.00    -0.003 C 
ATOM     16  C   UNL     1      -3.407 -35.669  -8.442  1.00  0.00     0.004 C 
ENDBRANCH  14  15
ENDBRANCH  13  14
ENDBRANCH  12  13
ENDBRANCH  11  12
ENDBRANCH  10  11
ENDBRANCH   1  10
TORSDOF 12
ENDMDL
MODEL 7
REMARK VINA RESULT:    -3.737      2.160      3.457
REMARK INTER + INTRA:          -7.822
REMARK INTER:                  -6.290
REMARK INTRA:                  -1.532
REMARK UNBOUND:                -1.463
REMARK SMILES CCCCCCCCCCCCCC(=O)[O-]
REMARK SMILES IDX 8 1 9 2 10 3 11 4 12 5 13 6 14 7 15 8 16 9 7 10 6 11 5 12
REMARK SMILES IDX 4 13 3 14 2 15 1 16
REMARK H PARENT
REMARK Flexibility Score: inf
ROOT
ATOM      1  C   UNL     1      -6.547 -38.138  -8.998  1.00  0.00     0.000 C 
ENDROOT
BRANCH   1   2
ATOM      2  C   UNL     1      -7.568 -38.934  -9.833  1.00  0.00     0.000 C 
BRANCH   2   3
ATOM      3  C   UNL     1      -7.698 -38.487 -11.300  1.00  0.00     0.000 C 
BRANCH   3   4
ATOM      4  C   UNL     1      -7.409 -39.619 -12.297  1.00  0.00     0.000 C 
BRANCH   4   5
ATOM      5  C   UNL     1      -6.591 -40.738 -11.635  1.00  0.00     0.006 C 
BRANCH   5   6
ATOM      6  C   UNL     1      -7.302 -42.096 -11.704  1.00  0.00     0.053 C 
BRANCH   6   7
ATOM      7  C   UNL     1      -7.620 -42.625 -10.339  1.00  0.00     0.041 C 
ATOM      8  O   UNL     1      -8.790 -42.999 -10.060  1.00  0.00    -0.550 OA
ATOM      9  O   UNL     1      -6.618 -42.734  -9.384  1.00  0.00    -0.550 OA
ENDBRANCH   6   7
ENDBRANCH   5   6
ENDBRANCH   4   5
ENDBRANCH   3   4
ENDBRANCH   2   3
ENDBRANCH   1   2
BRANCH   1  10
ATOM     10  C   UNL     1      -5.222 -37.819  -9.719  1.00  0.00     0.000 C 
BRANCH  10  11
ATOM     11  C   UNL     1      -4.785 -36.341  -9.658  1.00  0.00    -0.000 C 
BRANCH  11  12
ATOM     12  C   UNL     1      -5.266 -35.567  -8.417  1.00  0.00    -0.000 C 
BRANCH  12  13
ATOM     13  C   UNL     1      -6.190 -34.389  -8.770  1.00  0.00    -0.000 C 
BRANCH  13  14
ATOM     14  C   UNL     1      -6.673 -34.434 -10.229  1.00  0.00    -0.000 C 
BRANCH  14  15
ATOM     15  C   UNL     1      -8.100 -34.985 -10.364  1.00  0.00    -0.003 C 
ATOM     16  C   UNL     1      -8.711 -35.268  -8.994  1.00  0.00     0.004 C 
ENDBRANCH  14  15
ENDBRANCH  13  14
ENDBRANCH  12  13
ENDBRANCH  11  12
ENDBRANCH  10  11
ENDBRANCH   1  10
TORSDOF 12
ENDMDL
MODEL 8
REMARK VINA RESULT:    -3.689      3.748      6.259
REMARK INTER + INTRA:          -7.741
REMARK INTER:                  -6.871
REMARK INTRA:                  -0.870
REMARK UNBOUND:                -1.463
REMARK SMILES CCCCCCCCCCCCCC(=O)[O-]
REMARK SMILES IDX 8 1 9 2 10 3 11 4 12 5 13 6 14 7 15 8 16 9 7 10 6 11 5 12
REMARK SMILES IDX 4 13 3 14 2 15 1 16
REMARK H PARENT
REMARK Flexibility Score: inf
ROOT
ATOM      1  C   UNL     1      -7.640 -39.699 -15.504  1.00  0.00     0.000 C 
ENDROOT
BRANCH   1   2
ATOM      2  C   UNL     1      -6.470 -40.518 -16.083  1.00  0.00     0.000 C 
BRANCH   2   3
ATOM      3  C   UNL     1      -6.460 -40.642 -17.617  1.00  0.00     0.000 C 
BRANCH   3   4
ATOM      4  C   UNL     1      -7.525 -39.766 -18.294  1.00  0.00     0.000 C 
BRANCH   4   5
ATOM      5  C   UNL     1      -6.882 -38.544 -18.969  1.00  0.00     0.006 C 
BRANCH   5   6
ATOM      6  C   UNL     1      -7.173 -37.242 -18.212  1.00  0.00     0.053 C 
BRANCH   6   7
ATOM      7  C   UNL     1      -8.619 -36.860 -18.300  1.00  0.00     0.041 C 
ATOM      8  O   UNL     1      -9.119 -36.520 -19.405  1.00  0.00    -0.550 OA
ATOM      9  O   UNL     1      -9.421 -36.912 -17.168  1.00  0.00    -0.550 OA
ENDBRANCH   6   7
ENDBRANCH   5   6
ENDBRANCH   4   5
ENDBRANCH   3   4
ENDBRANCH   2   3
ENDBRANCH   1   2
BRANCH   1  10
ATOM     10  C   UNL     1      -7.569 -39.443 -13.985  1.00  0.00     0.000 C 
BRANCH  10  11
ATOM     11  C   UNL     1      -6.763 -40.487 -13.185  1.00  0.00    -0.000 C 
BRANCH  11  12
ATOM     12  C   UNL     1      -6.422 -40.081 -11.740  1.00  0.00    -0.000 C 
BRANCH  12  13
ATOM     13  C   UNL     1      -7.458 -39.123 -11.128  1.00  0.00    -0.000 C 
BRANCH  13  14
ATOM     14  C   UNL     1      -6.893 -38.320  -9.945  1.00  0.00    -0.000 C 
BRANCH  14  15
ATOM     15  C   UNL     1      -5.360 -38.231  -9.968  1.00  0.00    -0.003 C 
ATOM     16  C   UNL     1      -4.877 -36.923  -9.349  1.00  0.00     0.004 C 
ENDBRANCH  14  15
ENDBRANCH  13  14
ENDBRANCH  12  13
ENDBRANCH  11  12
ENDBRANCH  10  11
ENDBRANCH   1  10
TORSDOF 12
ENDMDL
MODEL 9
REMARK VINA RESULT:    -3.668      1.890      3.329
REMARK INTER + INTRA:          -7.705
REMARK INTER:                  -6.085
REMARK INTRA:                  -1.620
REMARK UNBOUND:                -1.463
REMARK SMILES CCCCCCCCCCCCCC(=O)[O-]
REMARK SMILES IDX 8 1 9 2 10 3 11 4 12 5 13 6 14 7 15 8 16 9 7 10 6 11 5 12
REMARK SMILES IDX 4 13 3 14 2 15 1 16
REMARK H PARENT
REMARK Flexibility Score: inf
ROOT
ATOM      1  C   UNL     1      -6.628 -38.249 -10.390  1.00  0.00     0.000 C 
ENDROOT
BRANCH   1   2
ATOM      2  C   UNL     1      -7.882 -38.696  -9.614  1.00  0.00     0.000 C 
BRANCH   2   3
ATOM      3  C   UNL     1      -7.605 -39.326  -8.237  1.00  0.00     0.000 C 
BRANCH   3   4
ATOM      4  C   UNL     1      -7.929 -40.827  -8.191  1.00  0.00     0.000 C 
BRANCH   4   5
ATOM      5  C   UNL     1      -6.699 -41.666  -8.569  1.00  0.00     0.006 C 
BRANCH   5   6
ATOM      6  C   UNL     1      -7.032 -42.758  -9.594  1.00  0.00     0.053 C 
BRANCH   6   7
ATOM      7  C   UNL     1      -7.576 -42.178 -10.864  1.00  0.00     0.041 C 
ATOM      8  O   UNL     1      -6.828 -41.517 -11.632  1.00  0.00    -0.550 OA
ATOM      9  O   UNL     1      -8.902 -42.395 -11.215  1.00  0.00    -0.550 OA
ENDBRANCH   6   7
ENDBRANCH   5   6
ENDBRANCH   4   5
ENDBRANCH   3   4
ENDBRANCH   2   3
ENDBRANCH   1   2
BRANCH   1  10
ATOM     10  C   UNL     1      -5.429 -37.839  -9.511  1.00  0.00     0.000 C 
BRANCH  10  11
ATOM     11  C   UNL     1      -4.876 -36.425  -9.782  1.00  0.00    -0.000 C 
BRANCH  11  12
ATOM     12  C   UNL     1      -4.650 -35.560  -8.528  1.00  0.00    -0.000 C 
BRANCH  12  13
ATOM     13  C   UNL     1      -5.910 -34.787  -8.101  1.00  0.00    -0.000 C 
BRANCH  13  14
ATOM     14  C   UNL     1      -6.792 -34.392  -9.296  1.00  0.00    -0.000 C 
BRANCH  14  15
ATOM     15  C   UNL     1      -8.195 -35.015  -9.228  1.00  0.00    -0.003 C 
ATOM     16  C   UNL     1      -8.783 -35.196 -10.625  1.00  0.00     0.004 C 
ENDBRANCH  14  15
ENDBRANCH  13  14
ENDBRANCH  12  13
ENDBRANCH  11  12
ENDBRANCH  10  11
ENDBRANCH   1  10
TORSDOF 12
ENDMDL
