MODEL 1
REMARK VINA RESULT:    -4.273      0.000      0.000
REMARK INTER + INTRA:          -6.306
REMARK INTER:                  -5.522
REMARK INTRA:                  -0.784
REMARK UNBOUND:                -0.784
REMARK SMILES CO[C@]1(CO)O[C@@H](CO)[C@@H](O)[C@H]1O
REMARK SMILES IDX 3 1 12 2 10 3 7 4 6 5 2 6 1 7 4 8 5 9 13 11 11 13 8 15 9 16
REMARK H PARENT 5 10 13 12 11 14 9 17
REMARK Flexibility Score: inf
ROOT
ATOM      1  C   UNL     1      41.891 -12.986  11.037  1.00  0.00     0.221 C 
ATOM      2  C   UNL     1      41.225 -13.923  10.002  1.00  0.00     0.207 C 
ATOM      3  C   UNL     1      39.957 -14.351  10.697  1.00  0.00     0.180 C 
ATOM      4  C   UNL     1      40.374 -14.287  12.167  1.00  0.00     0.179 C 
ATOM      5  O   UNL     1      41.366 -13.295  12.322  1.00  0.00    -0.337 OA
ENDROOT
BRANCH   1   6
ATOM      6  O   UNL     1      43.308 -13.126  10.983  1.00  0.00    -0.349 OA
ATOM      7  C   UNL     1      43.966 -12.520  12.078  1.00  0.00     0.198 C 
ENDBRANCH   1   6
BRANCH   1   8
ATOM      8  C   UNL     1      41.568 -11.504  10.760  1.00  0.00     0.224 C 
BRANCH   8   9
ATOM      9  O   UNL     1      40.638 -11.038  11.699  1.00  0.00    -0.391 OA
ATOM     10  H   UNL     1      41.166 -10.649  12.443  1.00  0.00     0.210 HD
ENDBRANCH   8   9
ENDBRANCH   1   8
BRANCH   2  11
ATOM     11  O   UNL     1      40.960 -13.305   8.768  1.00  0.00    -0.385 OA
ATOM     12  H   UNL     1      41.843 -13.099   8.364  1.00  0.00     0.211 HD
ENDBRANCH   2  11
BRANCH   3  13
ATOM     13  O   UNL     1      38.908 -13.452  10.428  1.00  0.00    -0.387 OA
ATOM     14  H   UNL     1      39.196 -12.565  10.770  1.00  0.00     0.211 HD
ENDBRANCH   3  13
BRANCH   4  15
ATOM     15  C   UNL     1      39.207 -14.020  13.124  1.00  0.00     0.191 C 
BRANCH  15  16
ATOM     16  O   UNL     1      39.026 -12.638  13.269  1.00  0.00    -0.394 OA
ATOM     17  H   UNL     1      39.598 -12.213  12.579  1.00  0.00     0.210 HD
ENDBRANCH  15  16
ENDBRANCH   4  15
TORSDOF 7
ENDMDL
MODEL 2
REMARK VINA RESULT:    -4.144      1.555      3.611
REMARK INTER + INTRA:          -6.139
REMARK INTER:                  -5.355
REMARK INTRA:                  -0.783
REMARK UNBOUND:                -0.784
REMARK SMILES CO[C@]1(CO)O[C@@H](CO)[C@@H](O)[C@H]1O
REMARK SMILES IDX 3 1 12 2 10 3 7 4 6 5 2 6 1 7 4 8 5 9 13 11 11 13 8 15 9 16
REMARK H PARENT 5 10 13 12 11 14 9 17
REMARK Flexibility Score: inf
ROOT
ATOM      1  C   UNL     1      39.552 -13.577  12.096  1.00  0.00     0.221 C 
ATOM      2  C   UNL     1      39.774 -14.105  10.659  1.00  0.00     0.207 C 
ATOM      3  C   UNL     1      40.776 -13.131  10.090  1.00  0.00     0.180 C 
ATOM      4  C   UNL     1      40.438 -11.856  10.863  1.00  0.00     0.179 C 
ATOM      5  O   UNL     1      39.926 -12.206  12.132  1.00  0.00    -0.337 OA
ENDROOT
BRANCH   1   6
ATOM      6  O   UNL     1      38.195 -13.779  12.486  1.00  0.00    -0.349 OA
ATOM      7  C   UNL     1      37.873 -13.147  13.710  1.00  0.00     0.198 C 
ENDBRANCH   1   6
BRANCH   1   8
ATOM      8  C   UNL     1      40.435 -14.316  13.121  1.00  0.00     0.224 C 
BRANCH   8   9
ATOM      9  O   UNL     1      41.564 -13.541  13.420  1.00  0.00    -0.391 OA
ATOM     10  H   UNL     1      42.265 -13.812  12.772  1.00  0.00     0.210 HD
ENDBRANCH   8   9
ENDBRANCH   1   8
BRANCH   2  11
ATOM     11  O   UNL     1      40.247 -15.427  10.610  1.00  0.00    -0.385 OA
ATOM     12  H   UNL     1      41.151 -15.416  11.020  1.00  0.00     0.211 HD
ENDBRANCH   2  11
BRANCH   3  13
ATOM     13  O   UNL     1      42.092 -13.551  10.356  1.00  0.00    -0.387 OA
ATOM     14  H   UNL     1      42.648 -13.255   9.588  1.00  0.00     0.211 HD
ENDBRANCH   3  13
BRANCH   4  15
ATOM     15  C   UNL     1      41.628 -10.901  11.020  1.00  0.00     0.191 C 
BRANCH  15  16
ATOM     16  O   UNL     1      42.337 -11.223  12.185  1.00  0.00    -0.394 OA
ATOM     17  H   UNL     1      42.068 -10.552  12.864  1.00  0.00     0.210 HD
ENDBRANCH  15  16
ENDBRANCH   4  15
TORSDOF 7
ENDMDL
MODEL 3
REMARK VINA RESULT:    -4.060      1.540      2.661
REMARK INTER + INTRA:          -6.031
REMARK INTER:                  -5.292
REMARK INTRA:                  -0.739
REMARK UNBOUND:                -0.784
REMARK SMILES CO[C@]1(CO)O[C@@H](CO)[C@@H](O)[C@H]1O
REMARK SMILES IDX 3 1 12 2 10 3 7 4 6 5 2 6 1 7 4 8 5 9 13 11 11 13 8 15 9 16
REMARK H PARENT 5 10 13 12 11 14 9 17
REMARK Flexibility Score: inf
ROOT
ATOM      1  C   UNL     1      41.186 -12.932  10.976  1.00  0.00     0.221 C 
ATOM      2  C   UNL     1      39.981 -11.988  11.199  1.00  0.00     0.207 C 
ATOM      3  C   UNL     1      38.959 -12.890  11.844  1.00  0.00     0.180 C 
ATOM      4  C   UNL     1      39.327 -14.249  11.248  1.00  0.00     0.179 C 
ATOM      5  O   UNL     1      40.711 -14.271  10.969  1.00  0.00    -0.337 OA
ENDROOT
BRANCH   1   6
ATOM      6  O   UNL     1      41.858 -12.589   9.766  1.00  0.00    -0.349 OA
ATOM      7  C   UNL     1      41.000 -12.007   8.804  1.00  0.00     0.198 C 
ENDBRANCH   1   6
BRANCH   1   8
ATOM      8  C   UNL     1      42.219 -12.823  12.116  1.00  0.00     0.224 C 
BRANCH   8   9
ATOM      9  O   UNL     1      41.741 -13.490  13.253  1.00  0.00    -0.391 OA
ATOM     10  H   UNL     1      41.427 -12.784  13.876  1.00  0.00     0.210 HD
ENDBRANCH   8   9
ENDBRANCH   1   8
BRANCH   2  11
ATOM     11  O   UNL     1      40.277 -10.875  12.004  1.00  0.00    -0.385 OA
ATOM     12  H   UNL     1      40.620 -10.172  11.394  1.00  0.00     0.211 HD
ENDBRANCH   2  11
BRANCH   3  13
ATOM     13  O   UNL     1      39.103 -12.894  13.244  1.00  0.00    -0.387 OA
ATOM     14  H   UNL     1      38.256 -13.250  13.619  1.00  0.00     0.211 HD
ENDBRANCH   3  13
BRANCH   4  15
ATOM     15  C   UNL     1      38.950 -15.434  12.145  1.00  0.00     0.191 C 
BRANCH  15  16
ATOM     16  O   UNL     1      39.943 -15.619  13.117  1.00  0.00    -0.394 OA
ATOM     17  H   UNL     1      39.815 -16.539  13.467  1.00  0.00     0.210 HD
ENDBRANCH  15  16
ENDBRANCH   4  15
TORSDOF 7
ENDMDL
MODEL 4
REMARK VINA RESULT:    -4.043      1.658      4.035
REMARK INTER + INTRA:          -6.008
REMARK INTER:                  -5.233
REMARK INTRA:                  -0.775
REMARK UNBOUND:                -0.784
REMARK SMILES CO[C@]1(CO)O[C@@H](CO)[C@@H](O)[C@H]1O
REMARK SMILES IDX 3 1 12 2 10 3 7 4 6 5 2 6 1 7 4 8 5 9 13 11 11 13 8 15 9 16
REMARK H PARENT 5 10 13 12 11 14 9 17
REMARK Flexibility Score: inf
ROOT
ATOM      1  C   UNL     1      39.846 -14.890  11.492  1.00  0.00     0.221 C 
ATOM      2  C   UNL     1      40.511 -14.059  12.615  1.00  0.00     0.207 C 
ATOM      3  C   UNL     1      41.179 -12.938  11.858  1.00  0.00     0.180 C 
ATOM      4  C   UNL     1      41.484 -13.611  10.519  1.00  0.00     0.179 C 
ATOM      5  O   UNL     1      40.514 -14.605  10.270  1.00  0.00    -0.337 OA
ENDROOT
BRANCH   1   6
ATOM      6  O   UNL     1      39.885 -16.276  11.822  1.00  0.00    -0.349 OA
ATOM      7  C   UNL     1      38.631 -16.913  11.678  1.00  0.00     0.198 C 
ENDBRANCH   1   6
BRANCH   1   8
ATOM      8  C   UNL     1      38.364 -14.509  11.298  1.00  0.00     0.224 C 
BRANCH   8   9
ATOM      9  O   UNL     1      38.223 -13.722  10.148  1.00  0.00    -0.391 OA
ATOM     10  H   UNL     1      38.604 -14.252   9.401  1.00  0.00     0.210 HD
ENDBRANCH   8   9
ENDBRANCH   1   8
BRANCH   2  11
ATOM     11  O   UNL     1      39.603 -13.573  13.572  1.00  0.00    -0.385 OA
ATOM     12  H   UNL     1      39.277 -12.700  13.230  1.00  0.00     0.211 HD
ENDBRANCH   2  11
BRANCH   3  13
ATOM     13  O   UNL     1      40.302 -11.850  11.692  1.00  0.00    -0.387 OA
ATOM     14  H   UNL     1      40.839 -11.026  11.826  1.00  0.00     0.211 HD
ENDBRANCH   3  13
BRANCH   4  15
ATOM     15  C   UNL     1      41.548 -12.630   9.342  1.00  0.00     0.191 C 
BRANCH  15  16
ATOM     16  O   UNL     1      40.293 -12.557   8.724  1.00  0.00    -0.394 OA
ATOM     17  H   UNL     1      39.972 -13.492   8.644  1.00  0.00     0.210 HD
ENDBRANCH  15  16
ENDBRANCH   4  15
TORSDOF 7
ENDMDL
MODEL 5
REMARK VINA RESULT:    -4.013     13.148     14.160
REMARK INTER + INTRA:          -5.971
REMARK INTER:                  -5.369
REMARK INTRA:                  -0.602
REMARK UNBOUND:                -0.784
REMARK SMILES CO[C@]1(CO)O[C@@H](CO)[C@@H](O)[C@H]1O
REMARK SMILES IDX 3 1 12 2 10 3 7 4 6 5 2 6 1 7 4 8 5 9 13 11 11 13 8 15 9 16
REMARK H PARENT 5 10 13 12 11 14 9 17
REMARK Flexibility Score: inf
ROOT
ATOM      1  C   UNL     1      39.842 -25.814  14.647  1.00  0.00     0.221 C 
ATOM      2  C   UNL     1      40.146 -26.886  15.721  1.00  0.00     0.207 C 
ATOM      3  C   UNL     1      38.877 -27.701  15.756  1.00  0.00     0.180 C 
ATOM      4  C   UNL     1      37.831 -26.658  15.360  1.00  0.00     0.179 C 
ATOM      5  O   UNL     1      38.431 -25.697  14.518  1.00  0.00    -0.337 OA
ENDROOT
BRANCH   1   6
ATOM      6  O   UNL     1      40.458 -24.579  15.001  1.00  0.00    -0.349 OA
ATOM      7  C   UNL     1      40.058 -24.107  16.274  1.00  0.00     0.198 C 
ENDBRANCH   1   6
BRANCH   1   8
ATOM      8  C   UNL     1      40.391 -26.217  13.264  1.00  0.00     0.224 C 
BRANCH   8   9
ATOM      9  O   UNL     1      41.756 -25.906  13.186  1.00  0.00    -0.391 OA
ATOM     10  H   UNL     1      42.232 -26.771  13.096  1.00  0.00     0.210 HD
ENDBRANCH   8   9
ENDBRANCH   1   8
BRANCH   2  11
ATOM     11  O   UNL     1      41.267 -27.679  15.426  1.00  0.00    -0.385 OA
ATOM     12  H   UNL     1      41.257 -27.823  14.444  1.00  0.00     0.211 HD
ENDBRANCH   2  11
BRANCH   3  13
ATOM     13  O   UNL     1      38.928 -28.750  14.820  1.00  0.00    -0.387 OA
ATOM     14  H   UNL     1      37.990 -29.037  14.660  1.00  0.00     0.211 HD
ENDBRANCH   3  13
BRANCH   4  15
ATOM     15  C   UNL     1      36.596 -27.259  14.678  1.00  0.00     0.191 C 
BRANCH  15  16
ATOM     16  O   UNL     1      36.815 -27.337  13.297  1.00  0.00    -0.394 OA
ATOM     17  H   UNL     1      37.750 -27.040  13.150  1.00  0.00     0.210 HD
ENDBRANCH  15  16
ENDBRANCH   4  15
TORSDOF 7
ENDMDL
MODEL 6
REMARK VINA RESULT:    -3.997      3.323      4.927
REMARK INTER + INTRA:          -5.949
REMARK INTER:                  -5.166
REMARK INTRA:                  -0.784
REMARK UNBOUND:                -0.784
REMARK SMILES CO[C@]1(CO)O[C@@H](CO)[C@@H](O)[C@H]1O
REMARK SMILES IDX 3 1 12 2 10 3 7 4 6 5 2 6 1 7 4 8 5 9 13 11 11 13 8 15 9 16
REMARK H PARENT 5 10 13 12 11 14 9 17
REMARK Flexibility Score: inf
ROOT
ATOM      1  C   UNL     1      39.805 -15.907  14.256  1.00  0.00     0.221 C 
ATOM      2  C   UNL     1      40.050 -14.698  13.322  1.00  0.00     0.207 C 
ATOM      3  C   UNL     1      38.771 -13.908  13.447  1.00  0.00     0.180 C 
ATOM      4  C   UNL     1      37.755 -15.012  13.743  1.00  0.00     0.179 C 
ATOM      5  O   UNL     1      38.402 -16.065  14.426  1.00  0.00    -0.337 OA
ENDROOT
BRANCH   1   6
ATOM      6  O   UNL     1      40.420 -17.074  13.716  1.00  0.00    -0.349 OA
ATOM      7  C   UNL     1      39.712 -18.261  14.016  1.00  0.00     0.198 C 
ENDBRANCH   1   6
BRANCH   1   8
ATOM      8  C   UNL     1      40.408 -15.681  15.657  1.00  0.00     0.224 C 
BRANCH   8   9
ATOM      9  O   UNL     1      39.386 -15.398  16.574  1.00  0.00    -0.391 OA
ATOM     10  H   UNL     1      38.629 -15.994  16.336  1.00  0.00     0.210 HD
ENDBRANCH   8   9
ENDBRANCH   1   8
BRANCH   2  11
ATOM     11  O   UNL     1      41.174 -13.931  13.674  1.00  0.00    -0.385 OA
ATOM     12  H   UNL     1      41.921 -14.253  13.106  1.00  0.00     0.211 HD
ENDBRANCH   2  11
BRANCH   3  13
ATOM     13  O   UNL     1      38.849 -12.991  14.512  1.00  0.00    -0.387 OA
ATOM     14  H   UNL     1      39.349 -13.441  15.243  1.00  0.00     0.211 HD
ENDBRANCH   3  13
BRANCH   4  15
ATOM     15  C   UNL     1      36.543 -14.528  14.549  1.00  0.00     0.191 C 
BRANCH  15  16
ATOM     16  O   UNL     1      36.857 -14.529  15.914  1.00  0.00    -0.394 OA
ATOM     17  H   UNL     1      37.835 -14.689  15.971  1.00  0.00     0.210 HD
ENDBRANCH  15  16
ENDBRANCH   4  15
TORSDOF 7
ENDMDL
MODEL 7
REMARK VINA RESULT:    -3.949      1.785      3.754
REMARK INTER + INTRA:          -5.887
REMARK INTER:                  -5.116
REMARK INTRA:                  -0.771
REMARK UNBOUND:                -0.784
REMARK SMILES CO[C@]1(CO)O[C@@H](CO)[C@@H](O)[C@H]1O
REMARK SMILES IDX 3 1 12 2 10 3 7 4 6 5 2 6 1 7 4 8 5 9 13 11 11 13 8 15 9 16
REMARK H PARENT 5 10 13 12 11 14 9 17
REMARK Flexibility Score: inf
ROOT
ATOM      1  C   UNL     1      40.112 -14.156  12.291  1.00  0.00     0.221 C 
ATOM      2  C   UNL     1      38.857 -13.251  12.280  1.00  0.00     0.207 C 
ATOM      3  C   UNL     1      39.070 -12.389  11.061  1.00  0.00     0.180 C 
ATOM      4  C   UNL     1      40.596 -12.329  10.989  1.00  0.00     0.179 C 
ATOM      5  O   UNL     1      41.132 -13.516  11.535  1.00  0.00    -0.337 OA
ENDROOT
BRANCH   1   6
ATOM      6  O   UNL     1      40.515 -14.417  13.633  1.00  0.00    -0.349 OA
ATOM      7  C   UNL     1      40.146 -15.708  14.079  1.00  0.00     0.198 C 
ENDBRANCH   1   6
BRANCH   1   8
ATOM      8  C   UNL     1      39.842 -15.519  11.622  1.00  0.00     0.224 C 
BRANCH   8   9
ATOM      9  O   UNL     1      40.200 -15.463  10.269  1.00  0.00    -0.391 OA
ATOM     10  H   UNL     1      41.152 -15.186  10.246  1.00  0.00     0.210 HD
ENDBRANCH   8   9
ENDBRANCH   1   8
BRANCH   2  11
ATOM     11  O   UNL     1      37.648 -13.963  12.211  1.00  0.00    -0.385 OA
ATOM     12  H   UNL     1      37.122 -13.551  11.477  1.00  0.00     0.211 HD
ENDBRANCH   2  11
BRANCH   3  13
ATOM     13  O   UNL     1      38.532 -13.001   9.913  1.00  0.00    -0.387 OA
ATOM     14  H   UNL     1      38.778 -13.962   9.957  1.00  0.00     0.211 HD
ENDBRANCH   3  13
BRANCH   4  15
ATOM     15  C   UNL     1      41.135 -12.112   9.570  1.00  0.00     0.191 C 
BRANCH  15  16
ATOM     16  O   UNL     1      41.219 -13.343   8.907  1.00  0.00    -0.394 OA
ATOM     17  H   UNL     1      42.057 -13.769   9.226  1.00  0.00     0.210 HD
ENDBRANCH  15  16
ENDBRANCH   4  15
TORSDOF 7
ENDMDL
MODEL 8
REMARK VINA RESULT:    -3.932      1.778      2.325
REMARK INTER + INTRA:          -5.865
REMARK INTER:                  -5.105
REMARK INTRA:                  -0.760
REMARK UNBOUND:                -0.784
REMARK SMILES CO[C@]1(CO)O[C@@H](CO)[C@@H](O)[C@H]1O
REMARK SMILES IDX 3 1 12 2 10 3 7 4 6 5 2 6 1 7 4 8 5 9 13 11 11 13 8 15 9 16
REMARK H PARENT 5 10 13 12 11 14 9 17
REMARK Flexibility Score: inf
ROOT
ATOM      1  C   UNL     1      40.328 -13.885  11.262  1.00  0.00     0.221 C 
ATOM      2  C   UNL     1      39.371 -15.074  11.012  1.00  0.00     0.207 C 
ATOM      3  C   UNL     1      38.956 -15.474  12.406  1.00  0.00     0.180 C 
ATOM      4  C   UNL     1      40.186 -15.072  13.221  1.00  0.00     0.179 C 
ATOM      5  O   UNL     1      40.817 -13.975  12.594  1.00  0.00    -0.337 OA
ENDROOT
BRANCH   1   6
ATOM      6  O   UNL     1      41.378 -13.892  10.297  1.00  0.00    -0.349 OA
ATOM      7  C   UNL     1      41.316 -12.796   9.405  1.00  0.00     0.198 C 
ENDBRANCH   1   6
BRANCH   1   8
ATOM      8  C   UNL     1      39.603 -12.529  11.136  1.00  0.00     0.224 C 
BRANCH   8   9
ATOM      9  O   UNL     1      39.394 -11.984  12.410  1.00  0.00    -0.391 OA
ATOM     10  H   UNL     1      38.906 -11.132  12.269  1.00  0.00     0.210 HD
ENDBRANCH   8   9
ENDBRANCH   1   8
BRANCH   2  11
ATOM     11  O   UNL     1      38.262 -14.749  10.212  1.00  0.00    -0.385 OA
ATOM     12  H   UNL     1      37.750 -14.060  10.711  1.00  0.00     0.211 HD
ENDBRANCH   2  11
BRANCH   3  13
ATOM     13  O   UNL     1      37.817 -14.757  12.818  1.00  0.00    -0.387 OA
ATOM     14  H   UNL     1      37.062 -15.068  12.253  1.00  0.00     0.211 HD
ENDBRANCH   3  13
BRANCH   4  15
ATOM     15  C   UNL     1      39.868 -14.732  14.682  1.00  0.00     0.191 C 
BRANCH  15  16
ATOM     16  O   UNL     1      39.225 -13.489  14.745  1.00  0.00    -0.394 OA
ATOM     17  H   UNL     1      38.310 -13.635  14.390  1.00  0.00     0.210 HD
ENDBRANCH  15  16
ENDBRANCH   4  15
TORSDOF 7
ENDMDL
