MODEL 1
REMARK VINA RESULT:    -5.976      0.000      0.000
REMARK INTER + INTRA:          -7.319
REMARK INTER:                  -7.025
REMARK INTRA:                  -0.294
REMARK UNBOUND:                -0.294
REMARK SMILES O=c1cc(-c2ccc(O)c(O)c2)oc2cc(O)cc(O)c12
REMARK SMILES IDX 4 1 3 2 2 3 1 4 21 5 19 6 18 7 16 8 15 9 14 10 13 11 5 12
REMARK SMILES IDX 6 13 7 14 8 15 12 16 10 17 9 18 11 20 20 22 17 24
REMARK H PARENT 9 19 11 21 20 23 17 25
REMARK Flexibility Score: inf
ROOT
ATOM      1  C   UNL     1      12.006  48.526  14.687  1.00  0.00     0.138 A 
ATOM      2  C   UNL     1      12.978  49.269  14.004  1.00  0.00     0.100 A 
ATOM      3  C   UNL     1      13.971  48.606  13.280  1.00  0.00     0.197 A 
ATOM      4  O   UNL     1      14.796  49.301  12.633  1.00  0.00    -0.289 OA
ATOM      5  C   UNL     1      14.010  47.191  13.273  1.00  0.00     0.107 A 
ATOM      6  C   UNL     1      14.995  46.407  12.599  1.00  0.00     0.134 A 
ATOM      7  C   UNL     1      14.873  45.012  12.581  1.00  0.00     0.093 A 
ATOM      8  C   UNL     1      13.834  44.370  13.262  1.00  0.00     0.123 A 
ATOM      9  C   UNL     1      12.897  45.123  13.963  1.00  0.00     0.094 A 
ATOM     10  C   UNL     1      12.971  46.518  13.971  1.00  0.00     0.146 A 
ATOM     11  O   UNL     1      12.045  47.199  14.638  1.00  0.00    -0.456 OA
ENDROOT
BRANCH   1  12
ATOM     12  C   UNL     1      10.930  49.180  15.474  1.00  0.00     0.021 A 
ATOM     13  C   UNL     1       9.800  48.433  15.852  1.00  0.00     0.016 A 
ATOM     14  C   UNL     1       8.770  49.025  16.587  1.00  0.00     0.051 A 
ATOM     15  C   UNL     1       8.842  50.373  16.946  1.00  0.00     0.157 A 
ATOM     16  C   UNL     1      10.991  50.542  15.827  1.00  0.00     0.062 A 
ATOM     17  C   UNL     1       9.955  51.138  16.563  1.00  0.00     0.158 A 
BRANCH  15  18
ATOM     18  O   UNL     1       7.798  50.936  17.680  1.00  0.00    -0.504 OA
ATOM     19  H   UNL     1       6.832  50.871  17.380  1.00  0.00     0.293 HD
ENDBRANCH  15  18
BRANCH  17  20
ATOM     20  O   UNL     1      10.028  52.487  16.909  1.00  0.00    -0.504 OA
ATOM     21  H   UNL     1       9.789  52.810  17.839  1.00  0.00     0.293 HD
ENDBRANCH  17  20
ENDBRANCH   1  12
BRANCH   6  22
ATOM     22  O   UNL     1      16.116  46.941  11.957  1.00  0.00    -0.507 OA
ATOM     23  H   UNL     1      16.220  47.044  10.960  1.00  0.00     0.293 HD
ENDBRANCH   6  22
BRANCH   8  24
ATOM     24  O   UNL     1      13.730  42.981  13.251  1.00  0.00    -0.508 OA
ATOM     25  H   UNL     1      12.888  42.515  12.929  1.00  0.00     0.293 HD
ENDBRANCH   8  24
TORSDOF 5
ENDMDL
MODEL 2
REMARK VINA RESULT:    -5.299     11.265     14.190
REMARK INTER + INTRA:          -6.523
REMARK INTER:                  -6.255
REMARK INTRA:                  -0.268
REMARK UNBOUND:                -0.294
REMARK SMILES O=c1cc(-c2ccc(O)c(O)c2)oc2cc(O)cc(O)c12
REMARK SMILES IDX 4 1 3 2 2 3 1 4 21 5 19 6 18 7 16 8 15 9 14 10 13 11 5 12
REMARK SMILES IDX 6 13 7 14 8 15 12 16 10 17 9 18 11 20 20 22 17 24
REMARK H PARENT 9 19 11 21 20 23 17 25
REMARK Flexibility Score: inf
ROOT
ATOM      1  C   UNL     1       6.513  36.818  14.116  1.00  0.00     0.138 A 
ATOM      2  C   UNL     1       5.736  35.735  14.551  1.00  0.00     0.100 A 
ATOM      3  C   UNL     1       4.876  35.895  15.638  1.00  0.00     0.197 A 
ATOM      4  O   UNL     1       4.153  34.921  15.969  1.00  0.00    -0.289 OA
ATOM      5  C   UNL     1       4.822  37.137  16.316  1.00  0.00     0.107 A 
ATOM      6  C   UNL     1       4.009  37.405  17.458  1.00  0.00     0.134 A 
ATOM      7  C   UNL     1       3.965  38.703  17.984  1.00  0.00     0.093 A 
ATOM      8  C   UNL     1       4.749  39.726  17.445  1.00  0.00     0.123 A 
ATOM      9  C   UNL     1       5.583  39.462  16.362  1.00  0.00     0.094 A 
ATOM     10  C   UNL     1       5.624  38.187  15.793  1.00  0.00     0.146 A 
ATOM     11  O   UNL     1       6.420  37.983  14.749  1.00  0.00    -0.456 OA
ENDROOT
BRANCH   1  12
ATOM     12  C   UNL     1       7.446  36.703  12.967  1.00  0.00     0.021 A 
ATOM     13  C   UNL     1       8.644  35.984  13.120  1.00  0.00     0.016 A 
ATOM     14  C   UNL     1       9.543  35.865  12.058  1.00  0.00     0.051 A 
ATOM     15  C   UNL     1       9.269  36.472  10.829  1.00  0.00     0.157 A 
ATOM     16  C   UNL     1       7.181  37.324  11.731  1.00  0.00     0.062 A 
ATOM     17  C   UNL     1       8.085  37.207  10.664  1.00  0.00     0.158 A 
BRANCH  15  18
ATOM     18  O   UNL     1      10.185  36.335   9.786  1.00  0.00    -0.504 OA
ATOM     19  H   UNL     1      11.068  36.833   9.777  1.00  0.00     0.293 HD
ENDBRANCH  15  18
BRANCH  17  20
ATOM     20  O   UNL     1       7.811  37.824   9.443  1.00  0.00    -0.504 OA
ATOM     21  H   UNL     1       7.744  38.832   9.361  1.00  0.00     0.293 HD
ENDBRANCH  17  20
ENDBRANCH   1  12
BRANCH   6  22
ATOM     22  O   UNL     1       3.249  36.439  18.125  1.00  0.00    -0.507 OA
ATOM     23  H   UNL     1       2.427  35.990  17.753  1.00  0.00     0.293 HD
ENDBRANCH   6  22
BRANCH   8  24
ATOM     24  O   UNL     1       4.710  41.010  17.984  1.00  0.00    -0.508 OA
ATOM     25  H   UNL     1       5.301  41.754  17.628  1.00  0.00     0.293 HD
ENDBRANCH   8  24
TORSDOF 5
ENDMDL
MODEL 3
REMARK VINA RESULT:    -5.250      1.963      2.997
REMARK INTER + INTRA:          -6.465
REMARK INTER:                  -6.176
REMARK INTRA:                  -0.289
REMARK UNBOUND:                -0.294
REMARK SMILES O=c1cc(-c2ccc(O)c(O)c2)oc2cc(O)cc(O)c12
REMARK SMILES IDX 4 1 3 2 2 3 1 4 21 5 19 6 18 7 16 8 15 9 14 10 13 11 5 12
REMARK SMILES IDX 6 13 7 14 8 15 12 16 10 17 9 18 11 20 20 22 17 24
REMARK H PARENT 9 19 11 21 20 23 17 25
REMARK Flexibility Score: inf
ROOT
ATOM      1  C   UNL     1      11.464  46.908  16.280  1.00  0.00     0.138 A 
ATOM      2  C   UNL     1      12.001  45.961  17.163  1.00  0.00     0.100 A 
ATOM      3  C   UNL     1      12.812  44.938  16.670  1.00  0.00     0.197 A 
ATOM      4  O   UNL     1      13.323  44.138  17.494  1.00  0.00    -0.289 OA
ATOM      5  C   UNL     1      13.056  44.843  15.278  1.00  0.00     0.107 A 
ATOM      6  C   UNL     1      13.838  43.823  14.657  1.00  0.00     0.134 A 
ATOM      7  C   UNL     1      14.091  43.889  13.281  1.00  0.00     0.093 A 
ATOM      8  C   UNL     1      13.541  44.905  12.495  1.00  0.00     0.123 A 
ATOM      9  C   UNL     1      12.737  45.877  13.083  1.00  0.00     0.094 A 
ATOM     10  C   UNL     1      12.494  45.858  14.459  1.00  0.00     0.146 A 
ATOM     11  O   UNL     1      11.734  46.815  14.982  1.00  0.00    -0.456 OA
ENDROOT
BRANCH   1  12
ATOM     12  C   UNL     1      10.593  48.014  16.750  1.00  0.00     0.021 A 
ATOM     13  C   UNL     1       9.516  47.728  17.607  1.00  0.00     0.016 A 
ATOM     14  C   UNL     1       8.677  48.749  18.059  1.00  0.00     0.051 A 
ATOM     15  C   UNL     1       8.889  50.069  17.656  1.00  0.00     0.157 A 
ATOM     16  C   UNL     1      10.795  49.345  16.337  1.00  0.00     0.062 A 
ATOM     17  C   UNL     1       9.951  50.371  16.789  1.00  0.00     0.158 A 
BRANCH  15  18
ATOM     18  O   UNL     1       8.035  51.067  18.125  1.00  0.00    -0.504 OA
ATOM     19  H   UNL     1       8.334  52.031  18.220  1.00  0.00     0.293 HD
ENDBRANCH  15  18
BRANCH  17  20
ATOM     20  O   UNL     1      10.161  51.686  16.374  1.00  0.00    -0.504 OA
ATOM     21  H   UNL     1      10.872  51.919  15.690  1.00  0.00     0.293 HD
ENDBRANCH  17  20
ENDBRANCH   1  12
BRANCH   6  22
ATOM     22  O   UNL     1      14.367  42.719  15.334  1.00  0.00    -0.507 OA
ATOM     23  H   UNL     1      13.825  41.970  15.735  1.00  0.00     0.293 HD
ENDBRANCH   6  22
BRANCH   8  24
ATOM     24  O   UNL     1      13.786  44.954  11.124  1.00  0.00    -0.508 OA
ATOM     25  H   UNL     1      13.282  44.361  10.474  1.00  0.00     0.293 HD
ENDBRANCH   8  24
TORSDOF 5
ENDMDL
MODEL 4
REMARK VINA RESULT:    -5.210     10.627     12.330
REMARK INTER + INTRA:          -6.418
REMARK INTER:                  -6.101
REMARK INTRA:                  -0.318
REMARK UNBOUND:                -0.294
REMARK SMILES O=c1cc(-c2ccc(O)c(O)c2)oc2cc(O)cc(O)c12
REMARK SMILES IDX 4 1 3 2 2 3 1 4 21 5 19 6 18 7 16 8 15 9 14 10 13 11 5 12
REMARK SMILES IDX 6 13 7 14 8 15 12 16 10 17 9 18 11 20 20 22 17 24
REMARK H PARENT 9 19 11 21 20 23 17 25
REMARK Flexibility Score: inf
ROOT
ATOM      1  C   UNL     1       5.962  37.389  13.812  1.00  0.00     0.138 A 
ATOM      2  C   UNL     1       5.390  36.374  13.032  1.00  0.00     0.100 A 
ATOM      3  C   UNL     1       6.115  35.825  11.973  1.00  0.00     0.197 A 
ATOM      4  O   UNL     1       5.595  34.879  11.327  1.00  0.00    -0.289 OA
ATOM      5  C   UNL     1       7.406  36.322  11.672  1.00  0.00     0.107 A 
ATOM      6  C   UNL     1       8.224  35.863  10.596  1.00  0.00     0.134 A 
ATOM      7  C   UNL     1       9.526  36.361  10.457  1.00  0.00     0.093 A 
ATOM      8  C   UNL     1      10.017  37.344  11.321  1.00  0.00     0.123 A 
ATOM      9  C   UNL     1       9.209  37.834  12.343  1.00  0.00     0.094 A 
ATOM     10  C   UNL     1       7.919  37.332  12.529  1.00  0.00     0.146 A 
ATOM     11  O   UNL     1       7.188  37.815  13.529  1.00  0.00    -0.456 OA
ENDROOT
BRANCH   1  12
ATOM     12  C   UNL     1       5.235  38.010  14.947  1.00  0.00     0.021 A 
ATOM     13  C   UNL     1       3.913  37.615  15.219  1.00  0.00     0.016 A 
ATOM     14  C   UNL     1       3.203  38.188  16.276  1.00  0.00     0.051 A 
ATOM     15  C   UNL     1       3.793  39.172  17.073  1.00  0.00     0.157 A 
ATOM     16  C   UNL     1       5.820  39.012  15.744  1.00  0.00     0.062 A 
ATOM     17  C   UNL     1       5.107  39.590  16.805  1.00  0.00     0.158 A 
BRANCH  15  18
ATOM     18  O   UNL     1       3.060  39.726  18.122  1.00  0.00    -0.504 OA
ATOM     19  H   UNL     1       2.181  39.328  18.433  1.00  0.00     0.293 HD
ENDBRANCH  15  18
BRANCH  17  20
ATOM     20  O   UNL     1       5.697  40.580  17.590  1.00  0.00    -0.504 OA
ATOM     21  H   UNL     1       5.231  40.960  18.406  1.00  0.00     0.293 HD
ENDBRANCH  17  20
ENDBRANCH   1  12
BRANCH   6  22
ATOM     22  O   UNL     1       7.804  34.944   9.629  1.00  0.00    -0.507 OA
ATOM     23  H   UNL     1       8.219  34.831   8.717  1.00  0.00     0.293 HD
ENDBRANCH   6  22
BRANCH   8  24
ATOM     24  O   UNL     1      11.308  37.845  11.165  1.00  0.00    -0.508 OA
ATOM     25  H   UNL     1      11.982  37.394  10.557  1.00  0.00     0.293 HD
ENDBRANCH   8  24
TORSDOF 5
ENDMDL
MODEL 5
REMARK VINA RESULT:    -5.166     10.277     13.554
REMARK INTER + INTRA:          -6.366
REMARK INTER:                  -6.056
REMARK INTRA:                  -0.310
REMARK UNBOUND:                -0.294
REMARK SMILES O=c1cc(-c2ccc(O)c(O)c2)oc2cc(O)cc(O)c12
REMARK SMILES IDX 4 1 3 2 2 3 1 4 21 5 19 6 18 7 16 8 15 9 14 10 13 11 5 12
REMARK SMILES IDX 6 13 7 14 8 15 12 16 10 17 9 18 11 20 20 22 17 24
REMARK H PARENT 9 19 11 21 20 23 17 25
REMARK Flexibility Score: inf
ROOT
ATOM      1  C   UNL     1       6.775  37.461  13.213  1.00  0.00     0.138 A 
ATOM      2  C   UNL     1       5.412  37.137  13.198  1.00  0.00     0.100 A 
ATOM      3  C   UNL     1       4.577  37.616  14.209  1.00  0.00     0.197 A 
ATOM      4  O   UNL     1       3.349  37.353  14.137  1.00  0.00    -0.289 OA
ATOM      5  C   UNL     1       5.120  38.393  15.260  1.00  0.00     0.107 A 
ATOM      6  C   UNL     1       4.372  38.907  16.362  1.00  0.00     0.134 A 
ATOM      7  C   UNL     1       4.999  39.747  17.291  1.00  0.00     0.093 A 
ATOM      8  C   UNL     1       6.361  40.045  17.188  1.00  0.00     0.123 A 
ATOM      9  C   UNL     1       7.110  39.509  16.145  1.00  0.00     0.094 A 
ATOM     10  C   UNL     1       6.506  38.695  15.184  1.00  0.00     0.146 A 
ATOM     11  O   UNL     1       7.254  38.219  14.194  1.00  0.00    -0.456 OA
ENDROOT
BRANCH   1  12
ATOM     12  C   UNL     1       7.708  36.976  12.166  1.00  0.00     0.021 A 
ATOM     13  C   UNL     1       7.399  35.803  11.454  1.00  0.00     0.016 A 
ATOM     14  C   UNL     1       8.262  35.321  10.468  1.00  0.00     0.051 A 
ATOM     15  C   UNL     1       9.454  35.992  10.182  1.00  0.00     0.157 A 
ATOM     16  C   UNL     1       8.917  37.640  11.883  1.00  0.00     0.062 A 
ATOM     17  C   UNL     1       9.786  37.155  10.894  1.00  0.00     0.158 A 
BRANCH  15  18
ATOM     18  O   UNL     1      10.295  35.486   9.192  1.00  0.00    -0.504 OA
ATOM     19  H   UNL     1      11.273  35.286   9.366  1.00  0.00     0.293 HD
ENDBRANCH  15  18
BRANCH  17  20
ATOM     20  O   UNL     1      10.980  37.823  10.621  1.00  0.00    -0.504 OA
ATOM     21  H   UNL     1      11.000  38.669  10.064  1.00  0.00     0.293 HD
ENDBRANCH  17  20
ENDBRANCH   1  12
BRANCH   6  22
ATOM     22  O   UNL     1       3.027  38.607  16.605  1.00  0.00    -0.507 OA
ATOM     23  H   UNL     1       2.391  38.209  15.933  1.00  0.00     0.293 HD
ENDBRANCH   6  22
BRANCH   8  24
ATOM     24  O   UNL     1       6.980  40.870  18.125  1.00  0.00    -0.508 OA
ATOM     25  H   UNL     1       6.579  41.763  18.392  1.00  0.00     0.293 HD
ENDBRANCH   8  24
TORSDOF 5
ENDMDL
MODEL 6
REMARK VINA RESULT:    -5.129      9.962     13.002
REMARK INTER + INTRA:          -6.323
REMARK INTER:                  -6.058
REMARK INTRA:                  -0.265
REMARK UNBOUND:                -0.294
REMARK SMILES O=c1cc(-c2ccc(O)c(O)c2)oc2cc(O)cc(O)c12
REMARK SMILES IDX 4 1 3 2 2 3 1 4 21 5 19 6 18 7 16 8 15 9 14 10 13 11 5 12
REMARK SMILES IDX 6 13 7 14 8 15 12 16 10 17 9 18 11 20 20 22 17 24
REMARK H PARENT 9 19 11 21 20 23 17 25
REMARK Flexibility Score: inf
ROOT
ATOM      1  C   UNL     1       7.648  37.957  13.861  1.00  0.00     0.138 A 
ATOM      2  C   UNL     1       8.651  38.626  14.576  1.00  0.00     0.100 A 
ATOM      3  C   UNL     1       8.325  39.315  15.745  1.00  0.00     0.197 A 
ATOM      4  O   UNL     1       9.256  39.858  16.392  1.00  0.00    -0.289 OA
ATOM      5  C   UNL     1       6.978  39.364  16.180  1.00  0.00     0.107 A 
ATOM      6  C   UNL     1       6.522  40.064  17.337  1.00  0.00     0.134 A 
ATOM      7  C   UNL     1       5.179  39.958  17.723  1.00  0.00     0.093 A 
ATOM      8  C   UNL     1       4.266  39.225  16.960  1.00  0.00     0.123 A 
ATOM      9  C   UNL     1       4.691  38.579  15.803  1.00  0.00     0.094 A 
ATOM     10  C   UNL     1       6.030  38.638  15.410  1.00  0.00     0.146 A 
ATOM     11  O   UNL     1       6.397  37.991  14.308  1.00  0.00    -0.456 OA
ENDROOT
BRANCH   1  12
ATOM     12  C   UNL     1       7.939  37.213  12.611  1.00  0.00     0.021 A 
ATOM     13  C   UNL     1       8.381  35.880  12.688  1.00  0.00     0.016 A 
ATOM     14  C   UNL     1       8.668  35.158  11.527  1.00  0.00     0.051 A 
ATOM     15  C   UNL     1       8.533  35.755  10.272  1.00  0.00     0.157 A 
ATOM     16  C   UNL     1       7.817  37.814  11.343  1.00  0.00     0.062 A 
ATOM     17  C   UNL     1       8.109  37.090  10.177  1.00  0.00     0.158 A 
BRANCH  15  18
ATOM     18  O   UNL     1       8.827  35.009   9.131  1.00  0.00    -0.504 OA
ATOM     19  H   UNL     1       9.680  34.467   9.047  1.00  0.00     0.293 HD
ENDBRANCH  15  18
BRANCH  17  20
ATOM     20  O   UNL     1       7.983  37.695   8.927  1.00  0.00    -0.504 OA
ATOM     21  H   UNL     1       8.716  37.633   8.230  1.00  0.00     0.293 HD
ENDBRANCH  17  20
ENDBRANCH   1  12
BRANCH   6  22
ATOM     22  O   UNL     1       7.331  40.889  18.124  1.00  0.00    -0.507 OA
ATOM     23  H   UNL     1       7.987  41.567  17.770  1.00  0.00     0.293 HD
ENDBRANCH   6  22
BRANCH   8  24
ATOM     24  O   UNL     1       2.929  39.138  17.344  1.00  0.00    -0.508 OA
ATOM     25  H   UNL     1       2.309  39.939  17.291  1.00  0.00     0.293 HD
ENDBRANCH   8  24
TORSDOF 5
ENDMDL
MODEL 7
REMARK VINA RESULT:    -5.037      3.005      7.836
REMARK INTER + INTRA:          -6.215
REMARK INTER:                  -5.901
REMARK INTRA:                  -0.314
REMARK UNBOUND:                -0.294
REMARK SMILES O=c1cc(-c2ccc(O)c(O)c2)oc2cc(O)cc(O)c12
REMARK SMILES IDX 4 1 3 2 2 3 1 4 21 5 19 6 18 7 16 8 15 9 14 10 13 11 5 12
REMARK SMILES IDX 6 13 7 14 8 15 12 16 10 17 9 18 11 20 20 22 17 24
REMARK H PARENT 9 19 11 21 20 23 17 25
REMARK Flexibility Score: inf
ROOT
ATOM      1  C   UNL     1      13.485  44.677  12.994  1.00  0.00     0.138 A 
ATOM      2  C   UNL     1      13.881  44.277  14.278  1.00  0.00     0.100 A 
ATOM      3  C   UNL     1      13.222  44.791  15.396  1.00  0.00     0.197 A 
ATOM      4  O   UNL     1      13.565  44.371  16.530  1.00  0.00    -0.289 OA
ATOM      5  C   UNL     1      12.184  45.739  15.226  1.00  0.00     0.107 A 
ATOM      6  C   UNL     1      11.465  46.357  16.293  1.00  0.00     0.134 A 
ATOM      7  C   UNL     1      10.391  47.207  16.000  1.00  0.00     0.093 A 
ATOM      8  C   UNL     1      10.048  47.506  14.678  1.00  0.00     0.123 A 
ATOM      9  C   UNL     1      10.775  46.947  13.631  1.00  0.00     0.094 A 
ATOM     10  C   UNL     1      11.830  46.069  13.890  1.00  0.00     0.146 A 
ATOM     11  O   UNL     1      12.486  45.544  12.861  1.00  0.00    -0.456 OA
ENDROOT
BRANCH   1  12
ATOM     12  C   UNL     1      14.153  44.165  11.772  1.00  0.00     0.021 A 
ATOM     13  C   UNL     1      14.964  43.019  11.857  1.00  0.00     0.016 A 
ATOM     14  C   UNL     1      15.610  42.520  10.724  1.00  0.00     0.051 A 
ATOM     15  C   UNL     1      15.468  43.159   9.490  1.00  0.00     0.157 A 
ATOM     16  C   UNL     1      14.024  44.813  10.528  1.00  0.00     0.062 A 
ATOM     17  C   UNL     1      14.675  44.313   9.390  1.00  0.00     0.158 A 
BRANCH  15  18
ATOM     18  O   UNL     1      16.125  42.636   8.376  1.00  0.00    -0.504 OA
ATOM     19  H   UNL     1      16.044  41.661   8.112  1.00  0.00     0.293 HD
ENDBRANCH  15  18
BRANCH  17  20
ATOM     20  O   UNL     1      14.539  44.962   8.163  1.00  0.00    -0.504 OA
ATOM     21  H   UNL     1      14.480  44.446   7.293  1.00  0.00     0.293 HD
ENDBRANCH  17  20
ENDBRANCH   1  12
BRANCH   6  22
ATOM     22  O   UNL     1      11.774  46.192  17.647  1.00  0.00    -0.507 OA
ATOM     23  H   UNL     1      12.706  46.158  18.029  1.00  0.00     0.293 HD
ENDBRANCH   6  22
BRANCH   8  24
ATOM     24  O   UNL     1       8.988  48.365  14.396  1.00  0.00    -0.508 OA
ATOM     25  H   UNL     1       9.125  49.366  14.307  1.00  0.00     0.293 HD
ENDBRANCH   8  24
TORSDOF 5
ENDMDL
MODEL 8
REMARK VINA RESULT:    -4.869     11.582     13.795
REMARK INTER + INTRA:          -6.018
REMARK INTER:                  -5.706
REMARK INTRA:                  -0.312
REMARK UNBOUND:                -0.294
REMARK SMILES O=c1cc(-c2ccc(O)c(O)c2)oc2cc(O)cc(O)c12
REMARK SMILES IDX 4 1 3 2 2 3 1 4 21 5 19 6 18 7 16 8 15 9 14 10 13 11 5 12
REMARK SMILES IDX 6 13 7 14 8 15 12 16 10 17 9 18 11 20 20 22 17 24
REMARK H PARENT 9 19 11 21 20 23 17 25
REMARK Flexibility Score: inf
ROOT
ATOM      1  C   UNL     1       7.414  37.387  13.457  1.00  0.00     0.138 A 
ATOM      2  C   UNL     1       7.942  37.731  14.709  1.00  0.00     0.100 A 
ATOM      3  C   UNL     1       7.084  38.136  15.733  1.00  0.00     0.197 A 
ATOM      4  O   UNL     1       7.583  38.384  16.860  1.00  0.00    -0.289 OA
ATOM      5  C   UNL     1       5.693  38.231  15.488  1.00  0.00     0.107 A 
ATOM      6  C   UNL     1       4.727  38.664  16.445  1.00  0.00     0.134 A 
ATOM      7  C   UNL     1       3.365  38.623  16.118  1.00  0.00     0.093 A 
ATOM      8  C   UNL     1       2.940  38.219  14.849  1.00  0.00     0.123 A 
ATOM      9  C   UNL     1       3.878  37.841  13.893  1.00  0.00     0.094 A 
ATOM     10  C   UNL     1       5.241  37.839  14.199  1.00  0.00     0.146 A 
ATOM     11  O   UNL     1       6.102  37.454  13.262  1.00  0.00    -0.456 OA
ENDROOT
BRANCH   1  12
ATOM     12  C   UNL     1       8.281  36.953  12.333  1.00  0.00     0.021 A 
ATOM     13  C   UNL     1       9.577  36.480  12.603  1.00  0.00     0.016 A 
ATOM     14  C   UNL     1      10.416  36.072  11.564  1.00  0.00     0.051 A 
ATOM     15  C   UNL     1       9.983  36.140  10.237  1.00  0.00     0.157 A 
ATOM     16  C   UNL     1       7.855  37.032  10.993  1.00  0.00     0.062 A 
ATOM     17  C   UNL     1       8.698  36.625   9.948  1.00  0.00     0.158 A 
BRANCH  15  18
ATOM     18  O   UNL     1      10.843  35.725   9.221  1.00  0.00    -0.504 OA
ATOM     19  H   UNL     1      11.835  35.932   9.237  1.00  0.00     0.293 HD
ENDBRANCH  15  18
BRANCH  17  20
ATOM     20  O   UNL     1       8.264  36.706   8.625  1.00  0.00    -0.504 OA
ATOM     21  H   UNL     1       7.357  37.090   8.386  1.00  0.00     0.293 HD
ENDBRANCH  17  20
ENDBRANCH   1  12
BRANCH   6  22
ATOM     22  O   UNL     1       5.046  39.163  17.712  1.00  0.00    -0.507 OA
ATOM     23  H   UNL     1       4.462  39.087  18.530  1.00  0.00     0.293 HD
ENDBRANCH   6  22
BRANCH   8  24
ATOM     24  O   UNL     1       1.585  38.196  14.529  1.00  0.00    -0.508 OA
ATOM     25  H   UNL     1       1.249  37.758  13.677  1.00  0.00     0.293 HD
ENDBRANCH   8  24
TORSDOF 5
ENDMDL
MODEL 9
REMARK VINA RESULT:    -4.470     10.383     11.228
REMARK INTER + INTRA:          -5.548
REMARK INTER:                  -5.274
REMARK INTRA:                  -0.274
REMARK UNBOUND:                -0.294
REMARK SMILES O=c1cc(-c2ccc(O)c(O)c2)oc2cc(O)cc(O)c12
REMARK SMILES IDX 4 1 3 2 2 3 1 4 21 5 19 6 18 7 16 8 15 9 14 10 13 11 5 12
REMARK SMILES IDX 6 13 7 14 8 15 12 16 10 17 9 18 11 20 20 22 17 24
REMARK H PARENT 9 19 11 21 20 23 17 25
REMARK Flexibility Score: inf
ROOT
ATOM      1  C   UNL     1       7.180  38.270  14.873  1.00  0.00     0.138 A 
ATOM      2  C   UNL     1       8.484  38.220  15.385  1.00  0.00     0.100 A 
ATOM      3  C   UNL     1       9.544  37.887  14.541  1.00  0.00     0.197 A 
ATOM      4  O   UNL     1      10.708  37.904  15.017  1.00  0.00    -0.289 OA
ATOM      5  C   UNL     1       9.291  37.567  13.185  1.00  0.00     0.107 A 
ATOM      6  C   UNL     1      10.288  37.179  12.240  1.00  0.00     0.134 A 
ATOM      7  C   UNL     1       9.930  36.982  10.900  1.00  0.00     0.093 A 
ATOM      8  C   UNL     1       8.601  37.102  10.484  1.00  0.00     0.123 A 
ATOM      9  C   UNL     1       7.613  37.431  11.408  1.00  0.00     0.094 A 
ATOM     10  C   UNL     1       7.943  37.668  12.745  1.00  0.00     0.146 A 
ATOM     11  O   UNL     1       6.972  37.997  13.590  1.00  0.00    -0.456 OA
ENDROOT
BRANCH   1  12
ATOM     12  C   UNL     1       6.015  38.616  15.727  1.00  0.00     0.021 A 
ATOM     13  C   UNL     1       4.876  37.792  15.708  1.00  0.00     0.016 A 
ATOM     14  C   UNL     1       3.765  38.098  16.496  1.00  0.00     0.051 A 
ATOM     15  C   UNL     1       3.764  39.236  17.307  1.00  0.00     0.157 A 
ATOM     16  C   UNL     1       6.004  39.769  16.536  1.00  0.00     0.062 A 
ATOM     17  C   UNL     1       4.887  40.078  17.326  1.00  0.00     0.158 A 
BRANCH  15  18
ATOM     18  O   UNL     1       2.639  39.514  18.083  1.00  0.00    -0.504 OA
ATOM     19  H   UNL     1       1.715  39.606  17.678  1.00  0.00     0.293 HD
ENDBRANCH  15  18
BRANCH  17  20
ATOM     20  O   UNL     1       4.888  41.221  18.125  1.00  0.00    -0.504 OA
ATOM     21  H   UNL     1       4.535  41.206  19.075  1.00  0.00     0.293 HD
ENDBRANCH  17  20
ENDBRANCH   1  12
BRANCH   6  22
ATOM     22  O   UNL     1      11.629  36.952  12.564  1.00  0.00    -0.507 OA
ATOM     23  H   UNL     1      12.017  36.064  12.839  1.00  0.00     0.293 HD
ENDBRANCH   6  22
BRANCH   8  24
ATOM     24  O   UNL     1       8.252  36.890   9.153  1.00  0.00    -0.508 OA
ATOM     25  H   UNL     1       8.906  37.068   8.398  1.00  0.00     0.293 HD
ENDBRANCH   8  24
TORSDOF 5
ENDMDL
