MODEL 1
REMARK VINA RESULT:    -4.583      0.000      0.000
REMARK INTER + INTRA:          -5.449
REMARK INTER:                  -5.655
REMARK INTRA:                   0.206
REMARK UNBOUND:                 0.206
REMARK SMILES COC(=O)c1ccccc1C(=O)OC
REMARK SMILES IDX 5 1 6 2 7 3 8 4 9 5 10 6 3 7 4 8 2 9 1 10 11 11 12 12 13 13
REMARK SMILES IDX 14 14
REMARK H PARENT
REMARK Flexibility Score: inf
ROOT
ATOM      1  C   UNL     1     134.582 134.560 138.441  1.00  0.00     0.074 A 
ATOM      2  C   UNL     1     134.107 135.762 138.997  1.00  0.00     0.016 A 
ATOM      3  C   UNL     1     132.766 136.125 138.875  1.00  0.00     0.001 A 
ATOM      4  C   UNL     1     131.877 135.295 138.195  1.00  0.00     0.001 A 
ATOM      5  C   UNL     1     132.330 134.110 137.616  1.00  0.00     0.016 A 
ATOM      6  C   UNL     1     133.683 133.735 137.708  1.00  0.00     0.074 A 
ENDROOT
BRANCH   1   7
ATOM      7  C   UNL     1     135.989 134.183 138.706  1.00  0.00     0.338 C 
ATOM      8  O   UNL     1     136.828 134.149 137.766  1.00  0.00    -0.246 OA
BRANCH   7   9
ATOM      9  O   UNL     1     136.369 133.804 139.999  1.00  0.00    -0.465 OA
ATOM     10  C   UNL     1     137.727 133.613 140.374  1.00  0.00     0.282 C 
ENDBRANCH   7   9
ENDBRANCH   1   7
BRANCH   6  11
ATOM     11  C   UNL     1     134.116 132.524 136.973  1.00  0.00     0.338 C 
ATOM     12  O   UNL     1     134.853 132.627 135.953  1.00  0.00    -0.246 OA
BRANCH  11  13
ATOM     13  O   UNL     1     133.656 131.268 137.382  1.00  0.00    -0.465 OA
ATOM     14  C   UNL     1     132.309 130.848 137.199  1.00  0.00     0.282 C 
ENDBRANCH  11  13
ENDBRANCH   6  11
TORSDOF 4
ENDMDL
MODEL 2
REMARK VINA RESULT:    -4.372      1.801      2.886
REMARK INTER + INTRA:          -5.188
REMARK INTER:                  -5.145
REMARK INTRA:                  -0.043
REMARK UNBOUND:                 0.206
REMARK SMILES COC(=O)c1ccccc1C(=O)OC
REMARK SMILES IDX 5 1 6 2 7 3 8 4 9 5 10 6 3 7 4 8 2 9 1 10 11 11 12 12 13 13
REMARK SMILES IDX 14 14
REMARK H PARENT
REMARK Flexibility Score: inf
ROOT
ATOM      1  C   UNL     1     135.224 133.795 137.693  1.00  0.00     0.074 A 
ATOM      2  C   UNL     1     136.452 133.653 137.022  1.00  0.00     0.016 A 
ATOM      3  C   UNL     1     136.501 133.149 135.721  1.00  0.00     0.001 A 
ATOM      4  C   UNL     1     135.327 132.778 135.071  1.00  0.00     0.001 A 
ATOM      5  C   UNL     1     134.100 132.888 135.726  1.00  0.00     0.016 A 
ATOM      6  C   UNL     1     134.029 133.373 137.044  1.00  0.00     0.074 A 
ENDROOT
BRANCH   1   7
ATOM      7  C   UNL     1     135.234 134.441 139.025  1.00  0.00     0.338 C 
ATOM      8  O   UNL     1     134.797 135.616 139.167  1.00  0.00    -0.246 OA
BRANCH   7   9
ATOM      9  O   UNL     1     135.787 133.762 140.116  1.00  0.00    -0.465 OA
ATOM     10  C   UNL     1     137.183 133.753 140.386  1.00  0.00     0.282 C 
ENDBRANCH   7   9
ENDBRANCH   1   7
BRANCH   6  11
ATOM     11  C   UNL     1     132.709 133.356 137.717  1.00  0.00     0.338 C 
ATOM     12  O   UNL     1     132.018 134.409 137.792  1.00  0.00    -0.246 OA
BRANCH  11  13
ATOM     13  O   UNL     1     132.259 132.176 138.320  1.00  0.00    -0.465 OA
ATOM     14  C   UNL     1     131.818 131.051 137.570  1.00  0.00     0.282 C 
ENDBRANCH  11  13
ENDBRANCH   6  11
TORSDOF 4
ENDMDL
MODEL 3
REMARK VINA RESULT:    -4.360      1.808      4.655
REMARK INTER + INTRA:          -5.173
REMARK INTER:                  -5.109
REMARK INTRA:                  -0.065
REMARK UNBOUND:                 0.206
REMARK SMILES COC(=O)c1ccccc1C(=O)OC
REMARK SMILES IDX 5 1 6 2 7 3 8 4 9 5 10 6 3 7 4 8 2 9 1 10 11 11 12 12 13 13
REMARK SMILES IDX 14 14
REMARK H PARENT
REMARK Flexibility Score: inf
ROOT
ATOM      1  C   UNL     1     134.009 133.363 137.015  1.00  0.00     0.074 A 
ATOM      2  C   UNL     1     134.083 132.879 135.697  1.00  0.00     0.016 A 
ATOM      3  C   UNL     1     135.311 132.766 135.045  1.00  0.00     0.001 A 
ATOM      4  C   UNL     1     136.485 133.134 135.699  1.00  0.00     0.001 A 
ATOM      5  C   UNL     1     136.433 133.638 136.998  1.00  0.00     0.016 A 
ATOM      6  C   UNL     1     135.203 133.782 137.666  1.00  0.00     0.074 A 
ENDROOT
BRANCH   1   7
ATOM      7  C   UNL     1     132.688 133.350 137.685  1.00  0.00     0.338 C 
ATOM      8  O   UNL     1     131.994 134.401 137.748  1.00  0.00    -0.246 OA
BRANCH   7   9
ATOM      9  O   UNL     1     132.239 132.176 138.301  1.00  0.00    -0.465 OA
ATOM     10  C   UNL     1     131.810 131.039 137.563  1.00  0.00     0.282 C 
ENDBRANCH   7   9
ENDBRANCH   1   7
BRANCH   6  11
ATOM     11  C   UNL     1     135.212 134.429 138.999  1.00  0.00     0.338 C 
ATOM     12  O   UNL     1     134.777 135.606 139.138  1.00  0.00    -0.246 OA
BRANCH  11  13
ATOM     13  O   UNL     1     135.758 133.749 140.092  1.00  0.00    -0.465 OA
ATOM     14  C   UNL     1     137.150 133.759 140.384  1.00  0.00     0.282 C 
ENDBRANCH  11  13
ENDBRANCH   6  11
TORSDOF 4
ENDMDL
MODEL 4
REMARK VINA RESULT:    -3.968      1.797      3.282
REMARK INTER + INTRA:          -4.691
REMARK INTER:                  -4.602
REMARK INTRA:                  -0.089
REMARK UNBOUND:                 0.206
REMARK SMILES COC(=O)c1ccccc1C(=O)OC
REMARK SMILES IDX 5 1 6 2 7 3 8 4 9 5 10 6 3 7 4 8 2 9 1 10 11 11 12 12 13 13
REMARK SMILES IDX 14 14
REMARK H PARENT
REMARK Flexibility Score: inf
ROOT
ATOM      1  C   UNL     1     135.156 133.575 137.532  1.00  0.00     0.074 A 
ATOM      2  C   UNL     1     136.378 133.603 136.838  1.00  0.00     0.016 A 
ATOM      3  C   UNL     1     136.467 133.129 135.528  1.00  0.00     0.001 A 
ATOM      4  C   UNL     1     135.337 132.619 134.892  1.00  0.00     0.001 A 
ATOM      5  C   UNL     1     134.120 132.560 135.570  1.00  0.00     0.016 A 
ATOM      6  C   UNL     1     134.012 133.012 136.898  1.00  0.00     0.074 A 
ENDROOT
BRANCH   1   7
ATOM      7  C   UNL     1     135.108 134.197 138.875  1.00  0.00     0.338 C 
ATOM      8  O   UNL     1     135.235 133.489 139.911  1.00  0.00    -0.246 OA
BRANCH   7   9
ATOM      9  O   UNL     1     134.861 135.570 138.990  1.00  0.00    -0.465 OA
ATOM     10  C   UNL     1     133.556 136.125 138.889  1.00  0.00     0.282 C 
ENDBRANCH   7   9
ENDBRANCH   1   7
BRANCH   6  11
ATOM     11  C   UNL     1     132.719 132.815 137.593  1.00  0.00     0.338 C 
ATOM     12  O   UNL     1     131.924 133.783 137.746  1.00  0.00    -0.246 OA
BRANCH  11  13
ATOM     13  O   UNL     1     132.410 131.560 138.130  1.00  0.00    -0.465 OA
ATOM     14  C   UNL     1     131.513 130.655 137.498  1.00  0.00     0.282 C 
ENDBRANCH  11  13
ENDBRANCH   6  11
TORSDOF 4
ENDMDL
MODEL 5
REMARK VINA RESULT:    -3.782      0.051      3.757
REMARK INTER + INTRA:          -4.460
REMARK INTER:                  -4.722
REMARK INTRA:                   0.262
REMARK UNBOUND:                 0.206
REMARK SMILES COC(=O)c1ccccc1C(=O)OC
REMARK SMILES IDX 5 1 6 2 7 3 8 4 9 5 10 6 3 7 4 8 2 9 1 10 11 11 12 12 13 13
REMARK SMILES IDX 14 14
REMARK H PARENT
REMARK Flexibility Score: inf
ROOT
ATOM      1  C   UNL     1     133.694 133.740 137.716  1.00  0.00     0.074 A 
ATOM      2  C   UNL     1     132.337 134.098 137.635  1.00  0.00     0.016 A 
ATOM      3  C   UNL     1     131.874 135.282 138.213  1.00  0.00     0.001 A 
ATOM      4  C   UNL     1     132.759 136.125 138.880  1.00  0.00     0.001 A 
ATOM      5  C   UNL     1     134.106 135.778 138.992  1.00  0.00     0.016 A 
ATOM      6  C   UNL     1     134.589 134.580 138.437  1.00  0.00     0.074 A 
ENDROOT
BRANCH   1   7
ATOM      7  C   UNL     1     134.136 132.530 136.985  1.00  0.00     0.338 C 
ATOM      8  O   UNL     1     134.896 132.633 135.984  1.00  0.00    -0.246 OA
BRANCH   7   9
ATOM      9  O   UNL     1     133.655 131.275 137.375  1.00  0.00    -0.465 OA
ATOM     10  C   UNL     1     132.301 130.883 137.193  1.00  0.00     0.282 C 
ENDBRANCH   7   9
ENDBRANCH   1   7
BRANCH   6  11
ATOM     11  C   UNL     1     136.003 134.220 138.693  1.00  0.00     0.338 C 
ATOM     12  O   UNL     1     136.840 134.212 137.747  1.00  0.00    -0.246 OA
BRANCH  11  13
ATOM     13  O   UNL     1     136.394 133.834 139.979  1.00  0.00    -0.465 OA
ATOM     14  C   UNL     1     137.758 133.754 140.375  1.00  0.00     0.282 C 
ENDBRANCH  11  13
ENDBRANCH   6  11
TORSDOF 4
ENDMDL
MODEL 6
REMARK VINA RESULT:    -3.661      1.650      4.083
REMARK INTER + INTRA:          -4.311
REMARK INTER:                  -5.290
REMARK INTRA:                   0.979
REMARK UNBOUND:                 0.206
REMARK SMILES COC(=O)c1ccccc1C(=O)OC
REMARK SMILES IDX 5 1 6 2 7 3 8 4 9 5 10 6 3 7 4 8 2 9 1 10 11 11 12 12 13 13
REMARK SMILES IDX 14 14
REMARK H PARENT
REMARK Flexibility Score: inf
ROOT
ATOM      1  C   UNL     1     134.288 132.924 136.938  1.00  0.00     0.074 A 
ATOM      2  C   UNL     1     133.458 131.820 136.674  1.00  0.00     0.016 A 
ATOM      3  C   UNL     1     132.293 131.610 137.413  1.00  0.00     0.001 A 
ATOM      4  C   UNL     1     131.939 132.497 138.426  1.00  0.00     0.001 A 
ATOM      5  C   UNL     1     132.759 133.586 138.721  1.00  0.00     0.016 A 
ATOM      6  C   UNL     1     133.950 133.805 138.004  1.00  0.00     0.074 A 
ENDROOT
BRANCH   1   7
ATOM      7  C   UNL     1     135.446 133.149 136.043  1.00  0.00     0.338 C 
ATOM      8  O   UNL     1     136.595 133.347 136.524  1.00  0.00    -0.246 OA
BRANCH   7   9
ATOM      9  O   UNL     1     135.247 133.202 134.659  1.00  0.00    -0.465 OA
ATOM     10  C   UNL     1     134.479 132.233 133.957  1.00  0.00     0.282 C 
ENDBRANCH   7   9
ENDBRANCH   1   7
BRANCH   6  11
ATOM     11  C   UNL     1     134.829 134.913 138.446  1.00  0.00     0.338 C 
ATOM     12  O   UNL     1     134.444 136.111 138.344  1.00  0.00    -0.246 OA
BRANCH  11  13
ATOM     13  O   UNL     1     136.112 134.625 138.923  1.00  0.00    -0.465 OA
ATOM     14  C   UNL     1     136.339 133.889 140.118  1.00  0.00     0.282 C 
ENDBRANCH  11  13
ENDBRANCH   6  11
TORSDOF 4
ENDMDL
MODEL 7
REMARK VINA RESULT:    -3.636      1.652      2.694
REMARK INTER + INTRA:          -4.280
REMARK INTER:                  -5.226
REMARK INTRA:                   0.946
REMARK UNBOUND:                 0.206
REMARK SMILES COC(=O)c1ccccc1C(=O)OC
REMARK SMILES IDX 5 1 6 2 7 3 8 4 9 5 10 6 3 7 4 8 2 9 1 10 11 11 12 12 13 13
REMARK SMILES IDX 14 14
REMARK H PARENT
REMARK Flexibility Score: inf
ROOT
ATOM      1  C   UNL     1     133.896 133.772 137.995  1.00  0.00     0.074 A 
ATOM      2  C   UNL     1     132.696 133.531 138.688  1.00  0.00     0.016 A 
ATOM      3  C   UNL     1     131.900 132.428 138.377  1.00  0.00     0.001 A 
ATOM      4  C   UNL     1     132.289 131.549 137.369  1.00  0.00     0.001 A 
ATOM      5  C   UNL     1     133.463 131.780 136.653  1.00  0.00     0.016 A 
ATOM      6  C   UNL     1     134.269 132.898 136.935  1.00  0.00     0.074 A 
ENDROOT
BRANCH   1   7
ATOM      7  C   UNL     1     134.747 134.894 138.452  1.00  0.00     0.338 C 
ATOM      8  O   UNL     1     134.346 136.084 138.343  1.00  0.00    -0.246 OA
BRANCH   7   9
ATOM      9  O   UNL     1     136.026 134.629 138.953  1.00  0.00    -0.465 OA
ATOM     10  C   UNL     1     136.244 133.883 140.144  1.00  0.00     0.282 C 
ENDBRANCH   7   9
ENDBRANCH   1   7
BRANCH   6  11
ATOM     11  C   UNL     1     135.440 133.144 136.061  1.00  0.00     0.338 C 
ATOM     12  O   UNL     1     136.582 133.332 136.564  1.00  0.00    -0.246 OA
BRANCH  11  13
ATOM     13  O   UNL     1     135.260 133.225 134.676  1.00  0.00    -0.465 OA
ATOM     14  C   UNL     1     134.468 132.294 133.949  1.00  0.00     0.282 C 
ENDBRANCH  11  13
ENDBRANCH   6  11
TORSDOF 4
ENDMDL
MODEL 8
REMARK VINA RESULT:    -3.538      2.175      3.640
REMARK INTER + INTRA:          -4.160
REMARK INTER:                  -4.392
REMARK INTRA:                   0.232
REMARK UNBOUND:                 0.206
REMARK SMILES COC(=O)c1ccccc1C(=O)OC
REMARK SMILES IDX 5 1 6 2 7 3 8 4 9 5 10 6 3 7 4 8 2 9 1 10 11 11 12 12 13 13
REMARK SMILES IDX 14 14
REMARK H PARENT
REMARK Flexibility Score: inf
ROOT
ATOM      1  C   UNL     1     135.084 133.472 137.160  1.00  0.00     0.074 A 
ATOM      2  C   UNL     1     136.380 133.902 137.495  1.00  0.00     0.016 A 
ATOM      3  C   UNL     1     136.665 134.382 138.774  1.00  0.00     0.001 A 
ATOM      4  C   UNL     1     135.662 134.440 139.738  1.00  0.00     0.001 A 
ATOM      5  C   UNL     1     134.364 134.041 139.421  1.00  0.00     0.016 A 
ATOM      6  C   UNL     1     134.048 133.574 138.132  1.00  0.00     0.074 A 
ENDROOT
BRANCH   1   7
ATOM      7  C   UNL     1     134.878 132.868 135.824  1.00  0.00     0.338 C 
ATOM      8  O   UNL     1     135.377 133.406 134.798  1.00  0.00    -0.246 OA
BRANCH   7   9
ATOM      9  O   UNL     1     134.074 131.730 135.698  1.00  0.00    -0.465 OA
ATOM     10  C   UNL     1     133.907 131.041 134.465  1.00  0.00     0.282 C 
ENDBRANCH   7   9
ENDBRANCH   1   7
BRANCH   6  11
ATOM     11  C   UNL     1     132.629 133.275 137.833  1.00  0.00     0.338 C 
ATOM     12  O   UNL     1     131.872 134.173 137.368  1.00  0.00    -0.246 OA
BRANCH  11  13
ATOM     13  O   UNL     1     132.116 132.006 138.123  1.00  0.00    -0.465 OA
ATOM     14  C   UNL     1     131.404 131.229 137.168  1.00  0.00     0.282 C 
ENDBRANCH  11  13
ENDBRANCH   6  11
TORSDOF 4
ENDMDL
MODEL 9
REMARK VINA RESULT:    -3.522      2.182      3.737
REMARK INTER + INTRA:          -4.139
REMARK INTER:                  -4.378
REMARK INTRA:                   0.238
REMARK UNBOUND:                 0.206
REMARK SMILES COC(=O)c1ccccc1C(=O)OC
REMARK SMILES IDX 5 1 6 2 7 3 8 4 9 5 10 6 3 7 4 8 2 9 1 10 11 11 12 12 13 13
REMARK SMILES IDX 14 14
REMARK H PARENT
REMARK Flexibility Score: inf
ROOT
ATOM      1  C   UNL     1     134.038 133.572 138.140  1.00  0.00     0.074 A 
ATOM      2  C   UNL     1     134.376 134.031 139.425  1.00  0.00     0.016 A 
ATOM      3  C   UNL     1     135.684 134.416 139.726  1.00  0.00     0.001 A 
ATOM      4  C   UNL     1     136.674 134.348 138.749  1.00  0.00     0.001 A 
ATOM      5  C   UNL     1     136.366 133.873 137.473  1.00  0.00     0.016 A 
ATOM      6  C   UNL     1     135.060 133.460 137.155  1.00  0.00     0.074 A 
ENDROOT
BRANCH   1   7
ATOM      7  C   UNL     1     132.612 133.290 137.858  1.00  0.00     0.338 C 
ATOM      8  O   UNL     1     131.857 134.200 137.420  1.00  0.00    -0.246 OA
BRANCH   7   9
ATOM      9  O   UNL     1     132.093 132.021 138.138  1.00  0.00    -0.465 OA
ATOM     10  C   UNL     1     131.392 131.249 137.172  1.00  0.00     0.282 C 
ENDBRANCH   7   9
ENDBRANCH   1   7
BRANCH   6  11
ATOM     11  C   UNL     1     134.831 132.861 135.819  1.00  0.00     0.338 C 
ATOM     12  O   UNL     1     135.300 133.412 134.785  1.00  0.00    -0.246 OA
BRANCH  11  13
ATOM     13  O   UNL     1     134.041 131.712 135.706  1.00  0.00    -0.465 OA
ATOM     14  C   UNL     1     133.882 131.009 134.480  1.00  0.00     0.282 C 
ENDBRANCH  11  13
ENDBRANCH   6  11
TORSDOF 4
ENDMDL
