MODEL 1
REMARK VINA RESULT:    -3.743      0.000      0.000
REMARK INTER + INTRA:          -4.432
REMARK INTER:                  -4.399
REMARK INTRA:                  -0.033
REMARK UNBOUND:                -0.033
REMARK SMILES CCCCC(=O)[O-]
REMARK SMILES IDX 4 1 5 2 6 3 7 4 3 5 2 6 1 7
REMARK H PARENT
REMARK Flexibility Score: inf
ROOT
ATOM      1  C   UNL     1     113.781 178.208 115.364  1.00  0.00     0.053 C 
ENDROOT
BRANCH   1   2
ATOM      2  C   UNL     1     115.223 178.038 115.734  1.00  0.00     0.041 C 
ATOM      3  O   UNL     1     115.806 176.944 115.524  1.00  0.00    -0.550 OA
ATOM      4  O   UNL     1     115.931 179.102 116.281  1.00  0.00    -0.550 OA
ENDBRANCH   1   2
BRANCH   1   5
ATOM      5  C   UNL     1     113.609 179.130 114.150  1.00  0.00     0.006 C 
BRANCH   5   6
ATOM      6  C   UNL     1     112.602 180.259 114.416  1.00  0.00    -0.003 C 
ATOM      7  C   UNL     1     111.565 180.344 113.300  1.00  0.00     0.004 C 
ENDBRANCH   5   6
ENDBRANCH   1   5
TORSDOF 3
ENDMDL
MODEL 2
REMARK VINA RESULT:    -3.469     13.942     14.786
REMARK INTER + INTRA:          -4.111
REMARK INTER:                  -4.031
REMARK INTRA:                  -0.079
REMARK UNBOUND:                -0.033
REMARK SMILES CCCCC(=O)[O-]
REMARK SMILES IDX 4 1 5 2 6 3 7 4 3 5 2 6 1 7
REMARK H PARENT
REMARK Flexibility Score: inf
ROOT
ATOM      1  C   UNL     1     117.152 165.584 121.300  1.00  0.00     0.053 C 
ENDROOT
BRANCH   1   2
ATOM      2  C   UNL     1     115.844 165.752 122.011  1.00  0.00     0.041 C 
ATOM      3  O   UNL     1     115.657 165.208 123.130  1.00  0.00    -0.550 OA
ATOM      4  O   UNL     1     114.843 166.538 121.451  1.00  0.00    -0.550 OA
ENDBRANCH   1   2
BRANCH   1   5
ATOM      5  C   UNL     1     116.982 164.860 119.958  1.00  0.00     0.006 C 
BRANCH   5   6
ATOM      6  C   UNL     1     116.966 165.833 118.770  1.00  0.00    -0.003 C 
ATOM      7  C   UNL     1     115.794 165.542 117.837  1.00  0.00     0.004 C 
ENDBRANCH   5   6
ENDBRANCH   1   5
TORSDOF 3
ENDMDL
MODEL 3
REMARK VINA RESULT:    -3.377     13.459     14.632
REMARK INTER + INTRA:          -4.003
REMARK INTER:                  -3.968
REMARK INTRA:                  -0.035
REMARK UNBOUND:                -0.033
REMARK SMILES CCCCC(=O)[O-]
REMARK SMILES IDX 4 1 5 2 6 3 7 4 3 5 2 6 1 7
REMARK H PARENT
REMARK Flexibility Score: inf
ROOT
ATOM      1  C   UNL     1     116.815 165.183 120.856  1.00  0.00     0.053 C 
ENDROOT
BRANCH   1   2
ATOM      2  C   UNL     1     118.062 165.620 121.563  1.00  0.00     0.041 C 
ATOM      3  O   UNL     1     118.057 165.789 122.809  1.00  0.00    -0.550 OA
ATOM      4  O   UNL     1     119.238 165.809 120.847  1.00  0.00    -0.550 OA
ENDBRANCH   1   2
BRANCH   1   5
ATOM      5  C   UNL     1     117.028 165.077 119.340  1.00  0.00     0.006 C 
BRANCH   5   6
ATOM      6  C   UNL     1     115.947 165.829 118.548  1.00  0.00    -0.003 C 
ATOM      7  C   UNL     1     116.563 166.641 117.413  1.00  0.00     0.004 C 
ENDBRANCH   5   6
ENDBRANCH   1   5
TORSDOF 3
ENDMDL
MODEL 4
REMARK VINA RESULT:    -3.346     14.508     15.310
REMARK INTER + INTRA:          -3.967
REMARK INTER:                  -3.944
REMARK INTRA:                  -0.022
REMARK UNBOUND:                -0.033
REMARK SMILES CCCCC(=O)[O-]
REMARK SMILES IDX 4 1 5 2 6 3 7 4 3 5 2 6 1 7
REMARK H PARENT
REMARK Flexibility Score: inf
ROOT
ATOM      1  C   UNL     1     115.935 165.388 122.430  1.00  0.00     0.053 C 
ENDROOT
BRANCH   1   2
ATOM      2  C   UNL     1     115.132 166.471 123.084  1.00  0.00     0.041 C 
ATOM      3  O   UNL     1     114.811 166.378 124.297  1.00  0.00    -0.550 OA
ATOM      4  O   UNL     1     114.767 167.600 122.360  1.00  0.00    -0.550 OA
ENDBRANCH   1   2
BRANCH   1   5
ATOM      5  C   UNL     1     116.353 165.771 121.004  1.00  0.00     0.006 C 
BRANCH   5   6
ATOM      6  C   UNL     1     117.708 165.161 120.613  1.00  0.00    -0.003 C 
ATOM      7  C   UNL     1     117.521 163.886 119.797  1.00  0.00     0.004 C 
ENDBRANCH   5   6
ENDBRANCH   1   5
TORSDOF 3
ENDMDL
MODEL 5
REMARK VINA RESULT:    -3.329      9.843     10.800
REMARK INTER + INTRA:          -3.946
REMARK INTER:                  -3.894
REMARK INTRA:                  -0.053
REMARK UNBOUND:                -0.033
REMARK SMILES CCCCC(=O)[O-]
REMARK SMILES IDX 4 1 5 2 6 3 7 4 3 5 2 6 1 7
REMARK H PARENT
REMARK Flexibility Score: inf
ROOT
ATOM      1  C   UNL     1     115.936 178.185 125.682  1.00  0.00     0.053 C 
ENDROOT
BRANCH   1   2
ATOM      2  C   UNL     1     116.769 178.534 124.486  1.00  0.00     0.041 C 
ATOM      3  O   UNL     1     118.023 178.569 124.576  1.00  0.00    -0.550 OA
ATOM      4  O   UNL     1     116.159 178.789 123.264  1.00  0.00    -0.550 OA
ENDBRANCH   1   2
BRANCH   1   5
ATOM      5  C   UNL     1     114.654 179.024 125.747  1.00  0.00     0.006 C 
BRANCH   5   6
ATOM      6  C   UNL     1     114.858 180.338 126.517  1.00  0.00    -0.003 C 
ATOM      7  C   UNL     1     113.610 180.709 127.311  1.00  0.00     0.004 C 
ENDBRANCH   5   6
ENDBRANCH   1   5
TORSDOF 3
ENDMDL
MODEL 6
REMARK VINA RESULT:    -3.307     14.203     15.573
REMARK INTER + INTRA:          -3.920
REMARK INTER:                  -3.877
REMARK INTRA:                  -0.043
REMARK UNBOUND:                -0.033
REMARK SMILES CCCCC(=O)[O-]
REMARK SMILES IDX 4 1 5 2 6 3 7 4 3 5 2 6 1 7
REMARK H PARENT
REMARK Flexibility Score: inf
ROOT
ATOM      1  C   UNL     1     115.040 166.772 123.873  1.00  0.00     0.053 C 
ENDROOT
BRANCH   1   2
ATOM      2  C   UNL     1     114.368 166.193 125.080  1.00  0.00     0.041 C 
ATOM      3  O   UNL     1     113.557 166.885 125.748  1.00  0.00    -0.550 OA
ATOM      4  O   UNL     1     114.613 164.875 125.448  1.00  0.00    -0.550 OA
ENDBRANCH   1   2
BRANCH   1   5
ATOM      5  C   UNL     1     115.614 165.679 122.962  1.00  0.00     0.006 C 
BRANCH   5   6
ATOM      6  C   UNL     1     115.735 166.144 121.503  1.00  0.00    -0.003 C 
ATOM      7  C   UNL     1     114.730 167.250 121.194  1.00  0.00     0.004 C 
ENDBRANCH   5   6
ENDBRANCH   1   5
TORSDOF 3
ENDMDL
MODEL 7
REMARK VINA RESULT:    -3.217     11.316     12.028
REMARK INTER + INTRA:          -3.814
REMARK INTER:                  -3.769
REMARK INTRA:                  -0.046
REMARK UNBOUND:                -0.033
REMARK SMILES CCCCC(=O)[O-]
REMARK SMILES IDX 4 1 5 2 6 3 7 4 3 5 2 6 1 7
REMARK H PARENT
REMARK Flexibility Score: inf
ROOT
ATOM      1  C   UNL     1     124.312 177.048 119.440  1.00  0.00     0.053 C 
ENDROOT
BRANCH   1   2
ATOM      2  C   UNL     1     125.110 177.972 118.571  1.00  0.00     0.041 C 
ATOM      3  O   UNL     1     126.155 178.514 119.014  1.00  0.00    -0.550 OA
ATOM      4  O   UNL     1     124.716 178.207 117.259  1.00  0.00    -0.550 OA
ENDBRANCH   1   2
BRANCH   1   5
ATOM      5  C   UNL     1     123.630 177.799 120.592  1.00  0.00     0.006 C 
BRANCH   5   6
ATOM      6  C   UNL     1     124.153 177.354 121.966  1.00  0.00    -0.003 C 
ATOM      7  C   UNL     1     123.040 177.372 123.009  1.00  0.00     0.004 C 
ENDBRANCH   5   6
ENDBRANCH   1   5
TORSDOF 3
ENDMDL
MODEL 8
REMARK VINA RESULT:    -3.213     13.718     15.054
REMARK INTER + INTRA:          -3.810
REMARK INTER:                  -3.714
REMARK INTRA:                  -0.097
REMARK UNBOUND:                -0.033
REMARK SMILES CCCCC(=O)[O-]
REMARK SMILES IDX 4 1 5 2 6 3 7 4 3 5 2 6 1 7
REMARK H PARENT
REMARK Flexibility Score: inf
ROOT
ATOM      1  C   UNL     1     117.574 165.404 121.215  1.00  0.00     0.053 C 
ENDROOT
BRANCH   1   2
ATOM      2  C   UNL     1     117.405 164.681 119.913  1.00  0.00     0.041 C 
ATOM      3  O   UNL     1     116.866 165.257 118.934  1.00  0.00    -0.550 OA
ATOM      4  O   UNL     1     117.874 163.380 119.774  1.00  0.00    -0.550 OA
ENDBRANCH   1   2
BRANCH   1   5
ATOM      5  C   UNL     1     116.292 165.369 122.056  1.00  0.00     0.006 C 
BRANCH   5   6
ATOM      6  C   UNL     1     115.766 166.778 122.372  1.00  0.00    -0.003 C 
ATOM      7  C   UNL     1     114.750 167.231 121.329  1.00  0.00     0.004 C 
ENDBRANCH   5   6
ENDBRANCH   1   5
TORSDOF 3
ENDMDL
MODEL 9
REMARK VINA RESULT:    -3.159     13.896     15.036
REMARK INTER + INTRA:          -3.746
REMARK INTER:                  -3.669
REMARK INTRA:                  -0.077
REMARK UNBOUND:                -0.033
REMARK SMILES CCCCC(=O)[O-]
REMARK SMILES IDX 4 1 5 2 6 3 7 4 3 5 2 6 1 7
REMARK H PARENT
REMARK Flexibility Score: inf
ROOT
ATOM      1  C   UNL     1     117.615 165.928 122.703  1.00  0.00     0.053 C 
ENDROOT
BRANCH   1   2
ATOM      2  C   UNL     1     118.533 165.629 121.557  1.00  0.00     0.041 C 
ATOM      3  O   UNL     1     118.062 165.291 120.440  1.00  0.00    -0.550 OA
ATOM      4  O   UNL     1     119.907 165.755 121.714  1.00  0.00    -0.550 OA
ENDBRANCH   1   2
BRANCH   1   5
ATOM      5  C   UNL     1     116.190 165.426 122.438  1.00  0.00     0.006 C 
BRANCH   5   6
ATOM      6  C   UNL     1     115.132 166.502 122.727  1.00  0.00    -0.003 C 
ATOM      7  C   UNL     1     114.756 167.257 121.456  1.00  0.00     0.004 C 
ENDBRANCH   5   6
ENDBRANCH   1   5
TORSDOF 3
ENDMDL
