MODEL 1
REMARK VINA RESULT:    -5.193      0.000      0.000
REMARK INTER + INTRA:          -6.232
REMARK INTER:                  -6.104
REMARK INTRA:                  -0.129
REMARK UNBOUND:                -0.129
REMARK SMILES O=C([O-])C=Cc1ccc(O)c(O)c1
REMARK SMILES IDX 6 1 13 2 7 3 11 4 8 5 9 6 5 7 4 8 2 9 1 10 3 11 12 12 10 14
REMARK H PARENT 12 13 10 15
REMARK Flexibility Score: inf
ROOT
ATOM      1  C   UNL     1      19.895  -0.180 -18.550  1.00  0.00    -0.022 A 
ATOM      2  C   UNL     1      21.012   0.573 -18.156  1.00  0.00     0.058 A 
ATOM      3  C   UNL     1      19.573  -0.252 -19.917  1.00  0.00     0.012 A 
ATOM      4  C   UNL     1      21.785   1.268 -19.096  1.00  0.00     0.157 A 
ATOM      5  C   UNL     1      20.338   0.439 -20.860  1.00  0.00     0.051 A 
ATOM      6  C   UNL     1      21.441   1.203 -20.466  1.00  0.00     0.157 A 
ENDROOT
BRANCH   1   7
ATOM      7  C   UNL     1      19.122  -0.903 -17.509  1.00  0.00     0.010 C 
ATOM      8  C   UNL     1      18.380  -0.293 -16.574  1.00  0.00     0.025 C 
BRANCH   8   9
ATOM      9  C   UNL     1      17.640  -1.050 -15.553  1.00  0.00     0.064 C 
ATOM     10  O   UNL     1      17.982  -2.231 -15.285  1.00  0.00    -0.545 OA
ATOM     11  O   UNL     1      16.566  -0.482 -14.875  1.00  0.00    -0.545 OA
ENDBRANCH   8   9
ENDBRANCH   1   7
BRANCH   4  12
ATOM     12  O   UNL     1      22.875   2.003 -18.626  1.00  0.00    -0.504 OA
ATOM     13  H   UNL     1      23.464   2.578 -19.213  1.00  0.00     0.293 HD
ENDBRANCH   4  12
BRANCH   6  14
ATOM     14  O   UNL     1      22.161   1.869 -21.458  1.00  0.00    -0.504 OA
ATOM     15  H   UNL     1      22.985   1.495 -21.906  1.00  0.00     0.293 HD
ENDBRANCH   6  14
TORSDOF 4
ENDMDL
MODEL 2
REMARK VINA RESULT:    -5.141      3.200      3.954
REMARK INTER + INTRA:          -6.171
REMARK INTER:                  -6.043
REMARK INTRA:                  -0.128
REMARK UNBOUND:                -0.129
REMARK SMILES O=C([O-])C=Cc1ccc(O)c(O)c1
REMARK SMILES IDX 6 1 13 2 7 3 11 4 8 5 9 6 5 7 4 8 2 9 1 10 3 11 12 12 10 14
REMARK H PARENT 12 13 10 15
REMARK Flexibility Score: inf
ROOT
ATOM      1  C   UNL     1      21.272   0.605 -18.500  1.00  0.00    -0.022 A 
ATOM      2  C   UNL     1      21.727   1.324 -19.617  1.00  0.00     0.058 A 
ATOM      3  C   UNL     1      20.618  -0.623 -18.704  1.00  0.00     0.012 A 
ATOM      4  C   UNL     1      21.516   0.850 -20.918  1.00  0.00     0.157 A 
ATOM      5  C   UNL     1      20.403  -1.102 -19.999  1.00  0.00     0.051 A 
ATOM      6  C   UNL     1      20.841  -0.378 -21.112  1.00  0.00     0.157 A 
ENDROOT
BRANCH   1   7
ATOM      7  C   UNL     1      21.536   1.154 -17.147  1.00  0.00     0.010 C 
ATOM      8  C   UNL     1      22.764   1.380 -16.660  1.00  0.00     0.025 C 
BRANCH   8   9
ATOM      9  C   UNL     1      22.978   1.915 -15.306  1.00  0.00     0.064 C 
ATOM     10  O   UNL     1      23.981   1.544 -14.644  1.00  0.00    -0.545 OA
ATOM     11  O   UNL     1      22.090   2.827 -14.746  1.00  0.00    -0.545 OA
ENDBRANCH   8   9
ENDBRANCH   1   7
BRANCH   4  12
ATOM     12  O   UNL     1      21.989   1.625 -21.979  1.00  0.00    -0.504 OA
ATOM     13  H   UNL     1      21.440   2.325 -22.457  1.00  0.00     0.293 HD
ENDBRANCH   4  12
BRANCH   6  14
ATOM     14  O   UNL     1      20.592  -0.912 -22.377  1.00  0.00    -0.504 OA
ATOM     15  H   UNL     1      19.760  -1.431 -22.617  1.00  0.00     0.293 HD
ENDBRANCH   6  14
TORSDOF 4
ENDMDL
MODEL 3
REMARK VINA RESULT:    -5.126      1.350      2.154
REMARK INTER + INTRA:          -6.153
REMARK INTER:                  -6.013
REMARK INTRA:                  -0.141
REMARK UNBOUND:                -0.129
REMARK SMILES O=C([O-])C=Cc1ccc(O)c(O)c1
REMARK SMILES IDX 6 1 13 2 7 3 11 4 8 5 9 6 5 7 4 8 2 9 1 10 3 11 12 12 10 14
REMARK H PARENT 12 13 10 15
REMARK Flexibility Score: inf
ROOT
ATOM      1  C   UNL     1      20.329  -0.224 -19.158  1.00  0.00    -0.022 A 
ATOM      2  C   UNL     1      20.275  -0.825 -20.426  1.00  0.00     0.058 A 
ATOM      3  C   UNL     1      21.064   0.965 -19.001  1.00  0.00     0.012 A 
ATOM      4  C   UNL     1      20.958  -0.275 -21.517  1.00  0.00     0.157 A 
ATOM      5  C   UNL     1      21.748   1.520 -20.085  1.00  0.00     0.051 A 
ATOM      6  C   UNL     1      21.708   0.912 -21.344  1.00  0.00     0.157 A 
ENDROOT
BRANCH   1   7
ATOM      7  C   UNL     1      19.575  -0.850 -18.043  1.00  0.00     0.010 C 
ATOM      8  C   UNL     1      18.927  -0.153 -17.099  1.00  0.00     0.025 C 
BRANCH   8   9
ATOM      9  C   UNL     1      18.202  -0.816 -16.003  1.00  0.00     0.064 C 
ATOM     10  O   UNL     1      18.182  -2.073 -15.943  1.00  0.00    -0.545 OA
ATOM     11  O   UNL     1      17.539  -0.077 -15.030  1.00  0.00    -0.545 OA
ENDBRANCH   8   9
ENDBRANCH   1   7
BRANCH   4  12
ATOM     12  O   UNL     1      20.865  -0.934 -22.745  1.00  0.00    -0.504 OA
ATOM     13  H   UNL     1      20.266  -0.637 -23.502  1.00  0.00     0.293 HD
ENDBRANCH   4  12
BRANCH   6  14
ATOM     14  O   UNL     1      22.416   1.517 -22.384  1.00  0.00    -0.504 OA
ATOM     15  H   UNL     1      22.170   2.408 -22.790  1.00  0.00     0.293 HD
ENDBRANCH   6  14
TORSDOF 4
ENDMDL
MODEL 4
REMARK VINA RESULT:    -5.049      1.922      2.455
REMARK INTER + INTRA:          -6.063
REMARK INTER:                  -5.931
REMARK INTRA:                  -0.132
REMARK UNBOUND:                -0.129
REMARK SMILES O=C([O-])C=Cc1ccc(O)c(O)c1
REMARK SMILES IDX 6 1 13 2 7 3 11 4 8 5 9 6 5 7 4 8 2 9 1 10 3 11 12 12 10 14
REMARK H PARENT 12 13 10 15
REMARK Flexibility Score: inf
ROOT
ATOM      1  C   UNL     1      20.661   0.254 -18.555  1.00  0.00    -0.022 A 
ATOM      2  C   UNL     1      21.320   1.109 -19.454  1.00  0.00     0.058 A 
ATOM      3  C   UNL     1      20.145  -0.964 -19.033  1.00  0.00     0.012 A 
ATOM      4  C   UNL     1      21.443   0.778 -20.809  1.00  0.00     0.157 A 
ATOM      5  C   UNL     1      20.264  -1.300 -20.383  1.00  0.00     0.051 A 
ATOM      6  C   UNL     1      20.904  -0.441 -21.281  1.00  0.00     0.157 A 
ENDROOT
BRANCH   1   7
ATOM      7  C   UNL     1      20.572   0.654 -17.129  1.00  0.00     0.010 C 
ATOM      8  C   UNL     1      19.434   0.645 -16.422  1.00  0.00     0.025 C 
BRANCH   8   9
ATOM      9  C   UNL     1      19.391   1.062 -15.012  1.00  0.00     0.064 C 
ATOM     10  O   UNL     1      19.937   2.141 -14.666  1.00  0.00    -0.545 OA
ATOM     11  O   UNL     1      18.752   0.284 -14.052  1.00  0.00    -0.545 OA
ENDBRANCH   8   9
ENDBRANCH   1   7
BRANCH   4  12
ATOM     12  O   UNL     1      22.103   1.684 -21.643  1.00  0.00    -0.504 OA
ATOM     13  H   UNL     1      21.654   2.469 -22.093  1.00  0.00     0.293 HD
ENDBRANCH   4  12
BRANCH   6  14
ATOM     14  O   UNL     1      20.986  -0.836 -22.617  1.00  0.00    -0.504 OA
ATOM     15  H   UNL     1      21.372  -0.263 -23.353  1.00  0.00     0.293 HD
ENDBRANCH   6  14
TORSDOF 4
ENDMDL
MODEL 5
REMARK VINA RESULT:    -5.002     14.878     18.046
REMARK INTER + INTRA:          -6.008
REMARK INTER:                  -5.873
REMARK INTRA:                  -0.134
REMARK UNBOUND:                -0.129
REMARK SMILES O=C([O-])C=Cc1ccc(O)c(O)c1
REMARK SMILES IDX 6 1 13 2 7 3 11 4 8 5 9 6 5 7 4 8 2 9 1 10 3 11 12 12 10 14
REMARK H PARENT 12 13 10 15
REMARK Flexibility Score: inf
ROOT
ATOM      1  C   UNL     1       8.062  -6.777  -7.661  1.00  0.00    -0.022 A 
ATOM      2  C   UNL     1       8.112  -5.713  -6.746  1.00  0.00     0.058 A 
ATOM      3  C   UNL     1       7.785  -8.071  -7.183  1.00  0.00     0.012 A 
ATOM      4  C   UNL     1       7.918  -5.927  -5.376  1.00  0.00     0.157 A 
ATOM      5  C   UNL     1       7.591  -8.291  -5.817  1.00  0.00     0.051 A 
ATOM      6  C   UNL     1       7.657  -7.235  -4.904  1.00  0.00     0.157 A 
ENDROOT
BRANCH   1   7
ATOM      7  C   UNL     1       8.266  -6.485  -9.102  1.00  0.00     0.010 C 
ATOM      8  C   UNL     1       7.925  -5.327  -9.683  1.00  0.00     0.025 C 
BRANCH   8   9
ATOM      9  C   UNL     1       8.134  -5.086 -11.119  1.00  0.00     0.064 C 
ATOM     10  O   UNL     1       8.796  -5.914 -11.798  1.00  0.00    -0.545 OA
ATOM     11  O   UNL     1       7.611  -3.958 -11.742  1.00  0.00    -0.545 OA
ENDBRANCH   8   9
ENDBRANCH   1   7
BRANCH   4  12
ATOM     12  O   UNL     1       7.992  -4.821  -4.526  1.00  0.00    -0.504 OA
ATOM     13  H   UNL     1       8.214  -4.877  -3.542  1.00  0.00     0.293 HD
ENDBRANCH   4  12
BRANCH   6  14
ATOM     14  O   UNL     1       7.456  -7.525  -3.554  1.00  0.00    -0.504 OA
ATOM     15  H   UNL     1       6.579  -7.389  -3.072  1.00  0.00     0.293 HD
ENDBRANCH   6  14
TORSDOF 4
ENDMDL
MODEL 6
REMARK VINA RESULT:    -4.822      2.761      4.613
REMARK INTER + INTRA:          -5.796
REMARK INTER:                  -5.664
REMARK INTRA:                  -0.132
REMARK UNBOUND:                -0.129
REMARK SMILES O=C([O-])C=Cc1ccc(O)c(O)c1
REMARK SMILES IDX 6 1 13 2 7 3 11 4 8 5 9 6 5 7 4 8 2 9 1 10 3 11 12 12 10 14
REMARK H PARENT 12 13 10 15
REMARK Flexibility Score: inf
ROOT
ATOM      1  C   UNL     1      21.722   1.024 -18.178  1.00  0.00    -0.022 A 
ATOM      2  C   UNL     1      20.685   0.197 -17.716  1.00  0.00     0.058 A 
ATOM      3  C   UNL     1      21.760   1.366 -19.542  1.00  0.00     0.012 A 
ATOM      4  C   UNL     1      19.716  -0.307 -18.593  1.00  0.00     0.157 A 
ATOM      5  C   UNL     1      20.797   0.867 -20.422  1.00  0.00     0.051 A 
ATOM      6  C   UNL     1      19.774   0.030 -19.965  1.00  0.00     0.157 A 
ENDROOT
BRANCH   1   7
ATOM      7  C   UNL     1      22.713   1.534 -17.199  1.00  0.00     0.010 C 
ATOM      8  C   UNL     1      22.889   1.014 -15.977  1.00  0.00     0.025 C 
BRANCH   8   9
ATOM      9  C   UNL     1      23.877   1.561 -15.033  1.00  0.00     0.064 C 
ATOM     10  O   UNL     1      24.730   0.795 -14.514  1.00  0.00    -0.545 OA
ATOM     11  O   UNL     1      23.887   2.913 -14.707  1.00  0.00    -0.545 OA
ENDBRANCH   8   9
ENDBRANCH   1   7
BRANCH   4  12
ATOM     12  O   UNL     1      18.721  -1.130 -18.061  1.00  0.00    -0.504 OA
ATOM     13  H   UNL     1      18.211  -1.819 -18.596  1.00  0.00     0.293 HD
ENDBRANCH   4  12
BRANCH   6  14
ATOM     14  O   UNL     1      18.846  -0.435 -20.898  1.00  0.00    -0.504 OA
ATOM     15  H   UNL     1      18.668   0.009 -21.787  1.00  0.00     0.293 HD
ENDBRANCH   6  14
TORSDOF 4
ENDMDL
MODEL 7
REMARK VINA RESULT:    -4.728     12.626     15.884
REMARK INTER + INTRA:          -5.686
REMARK INTER:                  -5.552
REMARK INTRA:                  -0.134
REMARK UNBOUND:                -0.129
REMARK SMILES O=C([O-])C=Cc1ccc(O)c(O)c1
REMARK SMILES IDX 6 1 13 2 7 3 11 4 8 5 9 6 5 7 4 8 2 9 1 10 3 11 12 12 10 14
REMARK H PARENT 12 13 10 15
REMARK Flexibility Score: inf
ROOT
ATOM      1  C   UNL     1       9.806  -7.083  -9.203  1.00  0.00    -0.022 A 
ATOM      2  C   UNL     1      10.482  -6.357  -8.210  1.00  0.00     0.058 A 
ATOM      3  C   UNL     1       8.404  -7.186  -9.132  1.00  0.00     0.012 A 
ATOM      4  C   UNL     1       9.788  -5.763  -7.148  1.00  0.00     0.157 A 
ATOM      5  C   UNL     1       7.706  -6.597  -8.076  1.00  0.00     0.051 A 
ATOM      6  C   UNL     1       8.381  -5.888  -7.078  1.00  0.00     0.157 A 
ENDROOT
BRANCH   1   7
ATOM      7  C   UNL     1      10.596  -7.680 -10.309  1.00  0.00     0.010 C 
ATOM      8  C   UNL     1      11.763  -7.185 -10.742  1.00  0.00     0.025 C 
BRANCH   8   9
ATOM      9  C   UNL     1      12.506  -7.804 -11.851  1.00  0.00     0.064 C 
ATOM     10  O   UNL     1      11.964  -8.713 -12.531  1.00  0.00    -0.545 OA
ATOM     11  O   UNL     1      13.800  -7.399 -12.163  1.00  0.00    -0.545 OA
ENDBRANCH   8   9
ENDBRANCH   1   7
BRANCH   4  12
ATOM     12  O   UNL     1      10.531  -5.065  -6.194  1.00  0.00    -0.504 OA
ATOM     13  H   UNL     1      11.527  -5.170  -6.064  1.00  0.00     0.293 HD
ENDBRANCH   4  12
BRANCH   6  14
ATOM     14  O   UNL     1       7.622  -5.327  -6.050  1.00  0.00    -0.504 OA
ATOM     15  H   UNL     1       8.002  -5.047  -5.157  1.00  0.00     0.293 HD
ENDBRANCH   6  14
TORSDOF 4
ENDMDL
MODEL 8
REMARK VINA RESULT:    -4.706     14.825     16.137
REMARK INTER + INTRA:          -5.660
REMARK INTER:                  -5.532
REMARK INTRA:                  -0.127
REMARK UNBOUND:                -0.129
REMARK SMILES O=C([O-])C=Cc1ccc(O)c(O)c1
REMARK SMILES IDX 6 1 13 2 7 3 11 4 8 5 9 6 5 7 4 8 2 9 1 10 3 11 12 12 10 14
REMARK H PARENT 12 13 10 15
REMARK Flexibility Score: inf
ROOT
ATOM      1  C   UNL     1       8.259  -5.977  -9.915  1.00  0.00    -0.022 A 
ATOM      2  C   UNL     1       8.240  -7.084 -10.778  1.00  0.00     0.058 A 
ATOM      3  C   UNL     1       7.969  -4.704 -10.440  1.00  0.00     0.012 A 
ATOM      4  C   UNL     1       7.966  -6.934 -12.143  1.00  0.00     0.157 A 
ATOM      5  C   UNL     1       7.695  -4.546 -11.800  1.00  0.00     0.051 A 
ATOM      6  C   UNL     1       7.693  -5.647 -12.663  1.00  0.00     0.157 A 
ENDROOT
BRANCH   1   7
ATOM      7  C   UNL     1       8.546  -6.201  -8.477  1.00  0.00     0.010 C 
ATOM      8  C   UNL     1       7.630  -6.076  -7.506  1.00  0.00     0.025 C 
BRANCH   8   9
ATOM      9  C   UNL     1       7.963  -6.298  -6.090  1.00  0.00     0.064 C 
ATOM     10  O   UNL     1       7.678  -7.398  -5.550  1.00  0.00    -0.545 OA
ATOM     11  O   UNL     1       8.590  -5.311  -5.337  1.00  0.00    -0.545 OA
ENDBRANCH   8   9
ENDBRANCH   1   7
BRANCH   4  12
ATOM     12  O   UNL     1       7.974  -8.081 -12.940  1.00  0.00    -0.504 OA
ATOM     13  H   UNL     1       8.390  -8.128 -13.860  1.00  0.00     0.293 HD
ENDBRANCH   4  12
BRANCH   6  14
ATOM     14  O   UNL     1       7.414  -5.419 -14.011  1.00  0.00    -0.504 OA
ATOM     15  H   UNL     1       7.631  -6.072 -14.750  1.00  0.00     0.293 HD
ENDBRANCH   6  14
TORSDOF 4
ENDMDL
MODEL 9
REMARK VINA RESULT:    -4.664     13.785     16.296
REMARK INTER + INTRA:          -5.611
REMARK INTER:                  -5.481
REMARK INTRA:                  -0.129
REMARK UNBOUND:                -0.129
REMARK SMILES O=C([O-])C=Cc1ccc(O)c(O)c1
REMARK SMILES IDX 6 1 13 2 7 3 11 4 8 5 9 6 5 7 4 8 2 9 1 10 3 11 12 12 10 14
REMARK H PARENT 12 13 10 15
REMARK Flexibility Score: inf
ROOT
ATOM      1  C   UNL     1       8.205  -5.858 -10.375  1.00  0.00    -0.022 A 
ATOM      2  C   UNL     1       8.240  -5.115  -9.184  1.00  0.00     0.058 A 
ATOM      3  C   UNL     1       8.112  -7.260 -10.297  1.00  0.00     0.012 A 
ATOM      4  C   UNL     1       8.210  -5.747  -7.935  1.00  0.00     0.157 A 
ATOM      5  C   UNL     1       8.082  -7.897  -9.055  1.00  0.00     0.051 A 
ATOM      6  C   UNL     1       8.134  -7.158  -7.869  1.00  0.00     0.157 A 
ENDROOT
BRANCH   1   7
ATOM      7  C   UNL     1       8.229  -5.130 -11.668  1.00  0.00     0.010 C 
ATOM      8  C   UNL     1       7.564  -3.989 -11.893  1.00  0.00     0.025 C 
BRANCH   8   9
ATOM      9  C   UNL     1       7.607  -3.307 -13.196  1.00  0.00     0.064 C 
ATOM     10  O   UNL     1       7.022  -3.819 -14.185  1.00  0.00    -0.545 OA
ATOM     11  O   UNL     1       8.283  -2.102 -13.354  1.00  0.00    -0.545 OA
ENDBRANCH   8   9
ENDBRANCH   1   7
BRANCH   4  12
ATOM     12  O   UNL     1       8.258  -4.941  -6.795  1.00  0.00    -0.504 OA
ATOM     13  H   UNL     1       7.857  -5.198  -5.904  1.00  0.00     0.293 HD
ENDBRANCH   4  12
BRANCH   6  14
ATOM     14  O   UNL     1       8.103  -7.858  -6.662  1.00  0.00    -0.504 OA
ATOM     15  H   UNL     1       7.959  -8.855  -6.591  1.00  0.00     0.293 HD
ENDBRANCH   6  14
TORSDOF 4
ENDMDL
