MODEL 1
REMARK VINA RESULT:    -4.658      0.000      0.000
REMARK INTER + INTRA:          -6.948
REMARK INTER:                  -6.564
REMARK INTRA:                  -0.384
REMARK UNBOUND:                -0.384
REMARK SMILES CCCCCCCCC(=O)[O-]
REMARK SMILES IDX 6 1 7 2 8 3 9 4 10 5 11 6 5 7 4 8 3 9 2 10 1 11
REMARK H PARENT
REMARK Flexibility Score: inf
ROOT
ATOM      1  C   UNL     1    -104.279 -86.684  38.594  1.00  0.00     0.000 C 
ENDROOT
BRANCH   1   2
ATOM      2  C   UNL     1    -105.018 -86.263  37.311  1.00  0.00     0.006 C 
BRANCH   2   3
ATOM      3  C   UNL     1    -105.102 -87.406  36.291  1.00  0.00     0.053 C 
BRANCH   3   4
ATOM      4  C   UNL     1    -105.872 -87.008  35.069  1.00  0.00     0.041 C 
ATOM      5  O   UNL     1    -105.828 -85.821  34.651  1.00  0.00    -0.550 OA
ATOM      6  O   UNL     1    -106.615 -87.954  34.376  1.00  0.00    -0.550 OA
ENDBRANCH   3   4
ENDBRANCH   2   3
ENDBRANCH   1   2
BRANCH   1   7
ATOM      7  C   UNL     1    -104.339 -85.609  39.691  1.00  0.00     0.000 C 
BRANCH   7   8
ATOM      8  C   UNL     1    -105.461 -84.583  39.453  1.00  0.00    -0.000 C 
BRANCH   8   9
ATOM      9  C   UNL     1    -104.954 -83.133  39.502  1.00  0.00    -0.000 C 
BRANCH   9  10
ATOM     10  C   UNL     1    -103.423 -83.042  39.593  1.00  0.00    -0.003 C 
ATOM     11  C   UNL     1    -102.987 -81.701  40.177  1.00  0.00     0.004 C 
ENDBRANCH   9  10
ENDBRANCH   8   9
ENDBRANCH   7   8
ENDBRANCH   1   7
TORSDOF 7
ENDMDL
MODEL 2
REMARK VINA RESULT:    -4.603      1.019      1.514
REMARK INTER + INTRA:          -6.871
REMARK INTER:                  -6.370
REMARK INTRA:                  -0.501
REMARK UNBOUND:                -0.384
REMARK SMILES CCCCCCCCC(=O)[O-]
REMARK SMILES IDX 6 1 7 2 8 3 9 4 10 5 11 6 5 7 4 8 3 9 2 10 1 11
REMARK H PARENT
REMARK Flexibility Score: inf
ROOT
ATOM      1  C   UNL     1    -104.651 -85.729  39.739  1.00  0.00     0.000 C 
ENDROOT
BRANCH   1   2
ATOM      2  C   UNL     1    -103.996 -86.211  38.432  1.00  0.00     0.006 C 
BRANCH   2   3
ATOM      3  C   UNL     1    -104.882 -87.208  37.675  1.00  0.00     0.053 C 
BRANCH   3   4
ATOM      4  C   UNL     1    -104.997 -86.861  36.222  1.00  0.00     0.041 C 
ATOM      5  O   UNL     1    -104.206 -86.029  35.704  1.00  0.00    -0.550 OA
ATOM      6  O   UNL     1    -105.960 -87.477  35.433  1.00  0.00    -0.550 OA
ENDBRANCH   3   4
ENDBRANCH   2   3
ENDBRANCH   1   2
BRANCH   1   7
ATOM      7  C   UNL     1    -105.526 -84.481  39.537  1.00  0.00     0.000 C 
BRANCH   7   8
ATOM      8  C   UNL     1    -104.760 -83.323  38.874  1.00  0.00    -0.000 C 
BRANCH   8   9
ATOM      9  C   UNL     1    -104.450 -82.183  39.857  1.00  0.00    -0.000 C 
BRANCH   9  10
ATOM     10  C   UNL     1    -102.954 -81.838  39.915  1.00  0.00    -0.003 C 
ATOM     11  C   UNL     1    -102.109 -83.094  40.113  1.00  0.00     0.004 C 
ENDBRANCH   9  10
ENDBRANCH   8   9
ENDBRANCH   7   8
ENDBRANCH   1   7
TORSDOF 7
ENDMDL
MODEL 3
REMARK VINA RESULT:    -4.555      2.602      5.182
REMARK INTER + INTRA:          -6.804
REMARK INTER:                  -6.285
REMARK INTRA:                  -0.519
REMARK UNBOUND:                -0.384
REMARK SMILES CCCCCCCCC(=O)[O-]
REMARK SMILES IDX 6 1 7 2 8 3 9 4 10 5 11 6 5 7 4 8 3 9 2 10 1 11
REMARK H PARENT
REMARK Flexibility Score: inf
ROOT
ATOM      1  C   UNL     1    -103.713 -86.031  38.801  1.00  0.00     0.000 C 
ENDROOT
BRANCH   1   2
ATOM      2  C   UNL     1    -104.701 -85.542  39.875  1.00  0.00     0.006 C 
BRANCH   2   3
ATOM      3  C   UNL     1    -105.439 -84.268  39.445  1.00  0.00     0.053 C 
BRANCH   3   4
ATOM      4  C   UNL     1    -104.489 -83.181  39.043  1.00  0.00     0.041 C 
ATOM      5  O   UNL     1    -103.731 -82.654  39.900  1.00  0.00    -0.550 OA
ATOM      6  O   UNL     1    -104.420 -82.771  37.718  1.00  0.00    -0.550 OA
ENDBRANCH   3   4
ENDBRANCH   2   3
ENDBRANCH   1   2
BRANCH   1   7
ATOM      7  C   UNL     1    -104.119 -87.384  38.195  1.00  0.00     0.000 C 
BRANCH   7   8
ATOM      8  C   UNL     1    -105.195 -87.245  37.105  1.00  0.00    -0.000 C 
BRANCH   8   9
ATOM      9  C   UNL     1    -104.954 -86.035  36.189  1.00  0.00    -0.000 C 
BRANCH   9  10
ATOM     10  C   UNL     1    -105.551 -86.223  34.786  1.00  0.00    -0.003 C 
ATOM     11  C   UNL     1    -106.370 -87.508  34.706  1.00  0.00     0.004 C 
ENDBRANCH   9  10
ENDBRANCH   8   9
ENDBRANCH   7   8
ENDBRANCH   1   7
TORSDOF 7
ENDMDL
MODEL 4
REMARK VINA RESULT:    -4.537      3.396      5.493
REMARK INTER + INTRA:          -6.779
REMARK INTER:                  -6.193
REMARK INTRA:                  -0.586
REMARK UNBOUND:                -0.384
REMARK SMILES CCCCCCCCC(=O)[O-]
REMARK SMILES IDX 6 1 7 2 8 3 9 4 10 5 11 6 5 7 4 8 3 9 2 10 1 11
REMARK H PARENT
REMARK Flexibility Score: inf
ROOT
ATOM      1  C   UNL     1    -104.590 -85.650  39.767  1.00  0.00     0.000 C 
ENDROOT
BRANCH   1   2
ATOM      2  C   UNL     1    -105.336 -84.332  39.496  1.00  0.00     0.006 C 
BRANCH   2   3
ATOM      3  C   UNL     1    -104.462 -83.318  38.746  1.00  0.00     0.053 C 
BRANCH   3   4
ATOM      4  C   UNL     1    -103.575 -82.549  39.678  1.00  0.00     0.041 C 
ATOM      5  O   UNL     1    -102.373 -82.891  39.835  1.00  0.00    -0.550 OA
ATOM      6  O   UNL     1    -104.068 -81.439  40.351  1.00  0.00    -0.550 OA
ENDBRANCH   3   4
ENDBRANCH   2   3
ENDBRANCH   1   2
BRANCH   1   7
ATOM      7  C   UNL     1    -103.843 -86.174  38.530  1.00  0.00     0.000 C 
BRANCH   7   8
ATOM      8  C   UNL     1    -104.390 -87.526  38.038  1.00  0.00    -0.000 C 
BRANCH   8   9
ATOM      9  C   UNL     1    -105.211 -87.394  36.745  1.00  0.00    -0.000 C 
BRANCH   9  10
ATOM     10  C   UNL     1    -105.076 -86.009  36.094  1.00  0.00    -0.003 C 
ATOM     11  C   UNL     1    -105.637 -86.012  34.675  1.00  0.00     0.004 C 
ENDBRANCH   9  10
ENDBRANCH   8   9
ENDBRANCH   7   8
ENDBRANCH   1   7
TORSDOF 7
ENDMDL
MODEL 5
REMARK VINA RESULT:    -4.533      1.115      1.559
REMARK INTER + INTRA:          -6.772
REMARK INTER:                  -6.318
REMARK INTRA:                  -0.454
REMARK UNBOUND:                -0.384
REMARK SMILES CCCCCCCCC(=O)[O-]
REMARK SMILES IDX 6 1 7 2 8 3 9 4 10 5 11 6 5 7 4 8 3 9 2 10 1 11
REMARK H PARENT
REMARK Flexibility Score: inf
ROOT
ATOM      1  C   UNL     1    -103.946 -87.416  38.280  1.00  0.00     0.000 C 
ENDROOT
BRANCH   1   2
ATOM      2  C   UNL     1    -105.135 -87.468  37.305  1.00  0.00     0.006 C 
BRANCH   2   3
ATOM      3  C   UNL     1    -105.160 -86.261  36.359  1.00  0.00     0.053 C 
BRANCH   3   4
ATOM      4  C   UNL     1    -105.423 -86.667  34.941  1.00  0.00     0.041 C 
ATOM      5  O   UNL     1    -106.359 -87.467  34.675  1.00  0.00    -0.550 OA
ATOM      6  O   UNL     1    -104.654 -86.141  33.912  1.00  0.00    -0.550 OA
ENDBRANCH   3   4
ENDBRANCH   2   3
ENDBRANCH   1   2
BRANCH   1   7
ATOM      7  C   UNL     1    -103.693 -86.003  38.830  1.00  0.00     0.000 C 
BRANCH   7   8
ATOM      8  C   UNL     1    -104.714 -85.596  39.906  1.00  0.00    -0.000 C 
BRANCH   8   9
ATOM      9  C   UNL     1    -105.455 -84.295  39.555  1.00  0.00    -0.000 C 
BRANCH   9  10
ATOM     10  C   UNL     1    -104.516 -83.205  39.016  1.00  0.00    -0.003 C 
ATOM     11  C   UNL     1    -105.201 -81.841  39.019  1.00  0.00     0.004 C 
ENDBRANCH   9  10
ENDBRANCH   8   9
ENDBRANCH   7   8
ENDBRANCH   1   7
TORSDOF 7
ENDMDL
MODEL 6
REMARK VINA RESULT:    -4.475      3.490      5.775
REMARK INTER + INTRA:          -6.691
REMARK INTER:                  -6.139
REMARK INTRA:                  -0.551
REMARK UNBOUND:                -0.384
REMARK SMILES CCCCCCCCC(=O)[O-]
REMARK SMILES IDX 6 1 7 2 8 3 9 4 10 5 11 6 5 7 4 8 3 9 2 10 1 11
REMARK H PARENT
REMARK Flexibility Score: inf
ROOT
ATOM      1  C   UNL     1    -105.482 -84.415  39.520  1.00  0.00     0.000 C 
ENDROOT
BRANCH   1   2
ATOM      2  C   UNL     1    -104.755 -83.307  38.738  1.00  0.00     0.006 C 
BRANCH   2   3
ATOM      3  C   UNL     1    -104.671 -81.998  39.534  1.00  0.00     0.053 C 
BRANCH   3   4
ATOM      4  C   UNL     1    -103.332 -81.824  40.182  1.00  0.00     0.041 C 
ATOM      5  O   UNL     1    -103.114 -80.834  40.930  1.00  0.00    -0.550 OA
ATOM      6  O   UNL     1    -102.334 -82.769  39.984  1.00  0.00    -0.550 OA
ENDBRANCH   3   4
ENDBRANCH   2   3
ENDBRANCH   1   2
BRANCH   1   7
ATOM      7  C   UNL     1    -104.618 -85.674  39.706  1.00  0.00     0.000 C 
BRANCH   7   8
ATOM      8  C   UNL     1    -103.972 -86.145  38.392  1.00  0.00    -0.000 C 
BRANCH   8   9
ATOM      9  C   UNL     1    -104.497 -87.516  37.935  1.00  0.00    -0.000 C 
BRANCH   9  10
ATOM     10  C   UNL     1    -105.121 -87.475  36.532  1.00  0.00    -0.003 C 
ATOM     11  C   UNL     1    -105.136 -86.052  35.979  1.00  0.00     0.004 C 
ENDBRANCH   9  10
ENDBRANCH   8   9
ENDBRANCH   7   8
ENDBRANCH   1   7
TORSDOF 7
ENDMDL
MODEL 7
REMARK VINA RESULT:    -4.460      1.751      2.745
REMARK INTER + INTRA:          -6.670
REMARK INTER:                  -5.993
REMARK INTRA:                  -0.677
REMARK UNBOUND:                -0.384
REMARK SMILES CCCCCCCCC(=O)[O-]
REMARK SMILES IDX 6 1 7 2 8 3 9 4 10 5 11 6 5 7 4 8 3 9 2 10 1 11
REMARK H PARENT
REMARK Flexibility Score: inf
ROOT
ATOM      1  C   UNL     1    -102.552 -85.572  39.119  1.00  0.00     0.000 C 
ENDROOT
BRANCH   1   2
ATOM      2  C   UNL     1    -103.934 -85.760  39.768  1.00  0.00     0.006 C 
BRANCH   2   3
ATOM      3  C   UNL     1    -105.077 -85.401  38.809  1.00  0.00     0.053 C 
BRANCH   3   4
ATOM      4  C   UNL     1    -105.037 -86.228  37.559  1.00  0.00     0.041 C 
ATOM      5  O   UNL     1    -105.014 -85.669  36.431  1.00  0.00    -0.550 OA
ATOM      6  O   UNL     1    -104.997 -87.613  37.642  1.00  0.00    -0.550 OA
ENDBRANCH   3   4
ENDBRANCH   2   3
ENDBRANCH   1   2
BRANCH   1   7
ATOM      7  C   UNL     1    -102.227 -84.096  38.836  1.00  0.00     0.000 C 
BRANCH   7   8
ATOM      8  C   UNL     1    -102.314 -83.219  40.097  1.00  0.00    -0.000 C 
BRANCH   8   9
ATOM      9  C   UNL     1    -102.770 -81.784  39.787  1.00  0.00    -0.000 C 
BRANCH   9  10
ATOM     10  C   UNL     1    -104.237 -81.532  40.166  1.00  0.00    -0.003 C 
ATOM     11  C   UNL     1    -105.156 -81.730  38.964  1.00  0.00     0.004 C 
ENDBRANCH   9  10
ENDBRANCH   8   9
ENDBRANCH   7   8
ENDBRANCH   1   7
TORSDOF 7
ENDMDL
MODEL 8
REMARK VINA RESULT:    -4.432      2.295      2.590
REMARK INTER + INTRA:          -6.630
REMARK INTER:                  -5.810
REMARK INTRA:                  -0.820
REMARK UNBOUND:                -0.384
REMARK SMILES CCCCCCCCC(=O)[O-]
REMARK SMILES IDX 6 1 7 2 8 3 9 4 10 5 11 6 5 7 4 8 3 9 2 10 1 11
REMARK H PARENT
REMARK Flexibility Score: inf
ROOT
ATOM      1  C   UNL     1    -104.355 -86.535  38.402  1.00  0.00     0.000 C 
ENDROOT
BRANCH   1   2
ATOM      2  C   UNL     1    -105.074 -85.942  37.177  1.00  0.00     0.006 C 
BRANCH   2   3
ATOM      3  C   UNL     1    -104.096 -85.580  36.052  1.00  0.00     0.053 C 
BRANCH   3   4
ATOM      4  C   UNL     1    -103.271 -84.377  36.395  1.00  0.00     0.041 C 
ATOM      5  O   UNL     1    -103.779 -83.226  36.343  1.00  0.00    -0.550 OA
ATOM      6  O   UNL     1    -101.951 -84.530  36.798  1.00  0.00    -0.550 OA
ENDBRANCH   3   4
ENDBRANCH   2   3
ENDBRANCH   1   2
BRANCH   1   7
ATOM      7  C   UNL     1    -104.423 -85.615  39.632  1.00  0.00     0.000 C 
BRANCH   7   8
ATOM      8  C   UNL     1    -105.491 -84.516  39.489  1.00  0.00    -0.000 C 
BRANCH   8   9
ATOM      9  C   UNL     1    -104.929 -83.110  39.749  1.00  0.00    -0.000 C 
BRANCH   9  10
ATOM     10  C   UNL     1    -103.403 -83.104  39.926  1.00  0.00    -0.003 C 
ATOM     11  C   UNL     1    -102.814 -81.743  39.564  1.00  0.00     0.004 C 
ENDBRANCH   9  10
ENDBRANCH   8   9
ENDBRANCH   7   8
ENDBRANCH   1   7
TORSDOF 7
ENDMDL
MODEL 9
REMARK VINA RESULT:    -4.423      2.340      3.375
REMARK INTER + INTRA:          -6.617
REMARK INTER:                  -5.815
REMARK INTRA:                  -0.802
REMARK UNBOUND:                -0.384
REMARK SMILES CCCCCCCCC(=O)[O-]
REMARK SMILES IDX 6 1 7 2 8 3 9 4 10 5 11 6 5 7 4 8 3 9 2 10 1 11
REMARK H PARENT
REMARK Flexibility Score: inf
ROOT
ATOM      1  C   UNL     1    -104.917 -87.288  36.148  1.00  0.00     0.000 C 
ENDROOT
BRANCH   1   2
ATOM      2  C   UNL     1    -105.105 -85.925  35.459  1.00  0.00     0.006 C 
BRANCH   2   3
ATOM      3  C   UNL     1    -103.770 -85.312  35.017  1.00  0.00     0.053 C 
BRANCH   3   4
ATOM      4  C   UNL     1    -103.282 -84.279  35.986  1.00  0.00     0.041 C 
ATOM      5  O   UNL     1    -103.976 -83.255  36.224  1.00  0.00    -0.550 OA
ATOM      6  O   UNL     1    -102.075 -84.461  36.648  1.00  0.00    -0.550 OA
ENDBRANCH   3   4
ENDBRANCH   2   3
ENDBRANCH   1   2
BRANCH   1   7
ATOM      7  C   UNL     1    -105.125 -87.216  37.670  1.00  0.00     0.000 C 
BRANCH   7   8
ATOM      8  C   UNL     1    -103.800 -87.091  38.442  1.00  0.00    -0.000 C 
BRANCH   8   9
ATOM      9  C   UNL     1    -103.787 -85.891  39.402  1.00  0.00    -0.000 C 
BRANCH   9  10
ATOM     10  C   UNL     1    -105.134 -85.154  39.449  1.00  0.00    -0.003 C 
ATOM     11  C   UNL     1    -104.932 -83.642  39.490  1.00  0.00     0.004 C 
ENDBRANCH   9  10
ENDBRANCH   8   9
ENDBRANCH   7   8
ENDBRANCH   1   7
TORSDOF 7
ENDMDL
