MODEL 1
REMARK VINA RESULT:    15.220      0.000      0.000
REMARK INTER + INTRA:          19.163
REMARK INTER:                  18.779
REMARK INTRA:                   0.384
REMARK UNBOUND:                 0.384
REMARK SMILES Oc1cc(O)c2cc(O)c(-c3cc(O)c(O)c(O)c3)[o+]c2c1
REMARK SMILES IDX 10 1 20 2 21 3 22 4 2 5 3 6 4 7 6 8 7 9 8 10 11 11 12 12
REMARK SMILES IDX 13 13 19 14 15 15 17 16 14 17 16 19 18 21 9 23 1 25 5 27
REMARK H PARENT 14 18 16 20 18 22 9 24 1 26 5 28
REMARK Flexibility Score: inf
ROOT
ATOM      1  C   UNL     1     -18.281 -14.014  13.504  1.00  0.00     0.402 A 
ATOM      2  O   UNL     1     -18.023 -13.215  12.470  1.00  0.00    -0.202 OA
ATOM      3  C   UNL     1     -17.799 -13.667  11.240  1.00  0.00     0.368 A 
ATOM      4  C   UNL     1     -17.529 -12.763  10.208  1.00  0.00     0.162 A 
ATOM      5  C   UNL     1     -17.289 -13.228   8.909  1.00  0.00     0.128 A 
ATOM      6  C   UNL     1     -17.318 -14.600   8.642  1.00  0.00     0.093 A 
ATOM      7  C   UNL     1     -17.589 -15.520   9.667  1.00  0.00     0.136 A 
ATOM      8  C   UNL     1     -17.830 -15.053  10.973  1.00  0.00     0.125 A 
ATOM      9  C   UNL     1     -18.113 -15.923  12.032  1.00  0.00     0.078 A 
ATOM     10  C   UNL     1     -18.352 -15.409  13.309  1.00  0.00     0.223 A 
ENDROOT
BRANCH   1  11
ATOM     11  C   UNL     1     -18.505 -13.392  14.830  1.00  0.00     0.091 A 
ATOM     12  C   UNL     1     -18.443 -11.998  14.957  1.00  0.00     0.068 A 
ATOM     13  C   UNL     1     -18.629 -11.378  16.199  1.00  0.00     0.162 A 
ATOM     14  C   UNL     1     -18.720 -14.174  15.976  1.00  0.00     0.068 A 
ATOM     15  C   UNL     1     -18.870 -12.170  17.347  1.00  0.00     0.200 A 
ATOM     16  C   UNL     1     -18.907 -13.571  17.223  1.00  0.00     0.162 A 
BRANCH  13  17
ATOM     17  O   UNL     1     -18.565  -9.984  16.242  1.00  0.00    -0.504 OA
ATOM     18  H   UNL     1     -19.263  -9.397  16.677  1.00  0.00     0.293 HD
ENDBRANCH  13  17
BRANCH  15  19
ATOM     19  O   UNL     1     -19.070 -11.608  18.611  1.00  0.00    -0.502 OA
ATOM     20  H   UNL     1     -18.820 -12.061  19.479  1.00  0.00     0.293 HD
ENDBRANCH  15  19
BRANCH  16  21
ATOM     21  O   UNL     1     -19.125 -14.386  18.335  1.00  0.00    -0.504 OA
ATOM     22  H   UNL     1     -18.752 -14.165  19.251  1.00  0.00     0.293 HD
ENDBRANCH  16  21
ENDBRANCH   1  11
BRANCH  10  23
ATOM     23  O   UNL     1     -18.684 -16.266  14.358  1.00  0.00    -0.500 OA
ATOM     24  H   UNL     1     -18.012 -16.919  14.744  1.00  0.00     0.294 HD
ENDBRANCH  10  23
BRANCH   5  25
ATOM     25  O   UNL     1     -17.019 -12.333   7.876  1.00  0.00    -0.507 OA
ATOM     26  H   UNL     1     -17.492 -11.439   7.812  1.00  0.00     0.293 HD
ENDBRANCH   5  25
BRANCH   7  27
ATOM     27  O   UNL     1     -17.617 -16.886   9.387  1.00  0.00    -0.507 OA
ATOM     28  H   UNL     1     -18.134 -17.537   9.967  1.00  0.00     0.293 HD
ENDBRANCH   7  27
TORSDOF 7
ENDMDL
MODEL 2
REMARK VINA RESULT:    18.211      1.363      2.451
REMARK INTER + INTRA:          22.853
REMARK INTER:                  22.402
REMARK INTRA:                   0.451
REMARK UNBOUND:                 0.384
REMARK SMILES Oc1cc(O)c2cc(O)c(-c3cc(O)c(O)c(O)c3)[o+]c2c1
REMARK SMILES IDX 10 1 20 2 21 3 22 4 2 5 3 6 4 7 6 8 7 9 8 10 11 11 12 12
REMARK SMILES IDX 13 13 19 14 15 15 17 16 14 17 16 19 18 21 9 23 1 25 5 27
REMARK H PARENT 14 18 16 20 18 22 9 24 1 26 5 28
REMARK Flexibility Score: inf
ROOT
ATOM      1  C   UNL     1     -18.558 -13.053  13.854  1.00  0.00     0.402 A 
ATOM      2  O   UNL     1     -18.383 -12.681  12.587  1.00  0.00    -0.202 OA
ATOM      3  C   UNL     1     -18.467 -13.525  11.563  1.00  0.00     0.368 A 
ATOM      4  C   UNL     1     -18.265 -13.058  10.261  1.00  0.00     0.162 A 
ATOM      5  C   UNL     1     -18.348 -13.938   9.175  1.00  0.00     0.128 A 
ATOM      6  C   UNL     1     -18.633 -15.290   9.392  1.00  0.00     0.093 A 
ATOM      7  C   UNL     1     -18.839 -15.774  10.693  1.00  0.00     0.136 A 
ATOM      8  C   UNL     1     -18.756 -14.889  11.785  1.00  0.00     0.125 A 
ATOM      9  C   UNL     1     -18.960 -15.315  13.103  1.00  0.00     0.078 A 
ATOM     10  C   UNL     1     -18.873 -14.395  14.151  1.00  0.00     0.223 A 
ENDROOT
BRANCH   1  11
ATOM     11  C   UNL     1     -18.430 -12.022  14.910  1.00  0.00     0.091 A 
ATOM     12  C   UNL     1     -18.798 -12.334  16.226  1.00  0.00     0.068 A 
ATOM     13  C   UNL     1     -18.710 -11.379  17.245  1.00  0.00     0.162 A 
ATOM     14  C   UNL     1     -18.002 -10.720  14.611  1.00  0.00     0.068 A 
ATOM     15  C   UNL     1     -18.255 -10.073  16.943  1.00  0.00     0.200 A 
ATOM     16  C   UNL     1     -17.909  -9.753  15.617  1.00  0.00     0.162 A 
BRANCH  13  17
ATOM     17  O   UNL     1     -19.083 -11.770  18.533  1.00  0.00    -0.504 OA
ATOM     18  H   UNL     1     -20.025 -11.713  18.892  1.00  0.00     0.293 HD
ENDBRANCH  13  17
BRANCH  15  19
ATOM     19  O   UNL     1     -18.139  -9.079  17.919  1.00  0.00    -0.502 OA
ATOM     20  H   UNL     1     -17.995  -8.100  17.717  1.00  0.00     0.293 HD
ENDBRANCH  15  19
BRANCH  16  21
ATOM     21  O   UNL     1     -17.473  -8.472  15.276  1.00  0.00    -0.504 OA
ATOM     22  H   UNL     1     -16.583  -8.101  15.588  1.00  0.00     0.293 HD
ENDBRANCH  16  21
ENDBRANCH   1  11
BRANCH  10  23
ATOM     23  O   UNL     1     -19.125 -14.801  15.462  1.00  0.00    -0.500 OA
ATOM     24  H   UNL     1     -19.555 -15.696  15.667  1.00  0.00     0.294 HD
ENDBRANCH  10  23
BRANCH   5  25
ATOM     25  O   UNL     1     -18.148 -13.479   7.875  1.00  0.00    -0.507 OA
ATOM     26  H   UNL     1     -18.076 -12.490   7.667  1.00  0.00     0.293 HD
ENDBRANCH   5  25
BRANCH   7  27
ATOM     27  O   UNL     1     -19.125 -17.125  10.896  1.00  0.00    -0.507 OA
ATOM     28  H   UNL     1     -18.505 -17.854  10.564  1.00  0.00     0.293 HD
ENDBRANCH   7  27
TORSDOF 7
ENDMDL
