MODEL 1
REMARK VINA RESULT:    -3.496      0.000      0.000
REMARK INTER + INTRA:          -3.834
REMARK INTER:                  -3.803
REMARK INTRA:                  -0.031
REMARK UNBOUND:                -0.031
REMARK SMILES COc1ccccc1O
REMARK SMILES IDX 3 1 4 2 5 3 6 4 7 5 8 6 2 7 1 8 9 9
REMARK H PARENT 9 10
REMARK Flexibility Score: inf
ROOT
ATOM      1  C   UNL     1      -5.934 -16.851 -22.425  1.00  0.00     0.160 A 
ATOM      2  C   UNL     1      -4.589 -16.761 -22.010  1.00  0.00     0.050 A 
ATOM      3  C   UNL     1      -3.810 -17.914 -21.885  1.00  0.00     0.004 A 
ATOM      4  C   UNL     1      -4.358 -19.165 -22.171  1.00  0.00     0.004 A 
ATOM      5  C   UNL     1      -5.689 -19.267 -22.584  1.00  0.00     0.050 A 
ATOM      6  C   UNL     1      -6.479 -18.119 -22.712  1.00  0.00     0.157 A 
ENDROOT
BRANCH   1   7
ATOM      7  O   UNL     1      -6.747 -15.716 -22.561  1.00  0.00    -0.493 OA
ATOM      8  C   UNL     1      -6.803 -14.646 -21.624  1.00  0.00     0.278 C 
ENDBRANCH   1   7
BRANCH   6   9
ATOM      9  O   UNL     1      -7.804 -18.255 -23.125  1.00  0.00    -0.504 OA
ATOM     10  H   UNL     1      -8.485 -18.779 -22.590  1.00  0.00     0.293 HD
ENDBRANCH   6   9
TORSDOF 2
ENDMDL
MODEL 2
REMARK VINA RESULT:    -3.336     21.432     22.686
REMARK INTER + INTRA:          -3.659
REMARK INTER:                  -3.619
REMARK INTRA:                  -0.041
REMARK UNBOUND:                -0.031
REMARK SMILES COc1ccccc1O
REMARK SMILES IDX 3 1 4 2 5 3 6 4 7 5 8 6 2 7 1 8 9 9
REMARK H PARENT 9 10
REMARK Flexibility Score: inf
ROOT
ATOM      1  C   UNL     1      -5.321  -3.328  -4.901  1.00  0.00     0.160 A 
ATOM      2  C   UNL     1      -5.672  -3.614  -6.237  1.00  0.00     0.050 A 
ATOM      3  C   UNL     1      -5.005  -2.987  -7.292  1.00  0.00     0.004 A 
ATOM      4  C   UNL     1      -3.986  -2.070  -7.031  1.00  0.00     0.004 A 
ATOM      5  C   UNL     1      -3.629  -1.779  -5.713  1.00  0.00     0.050 A 
ATOM      6  C   UNL     1      -4.290  -2.402  -4.647  1.00  0.00     0.157 A 
ENDROOT
BRANCH   1   7
ATOM      7  O   UNL     1      -5.968  -3.938  -3.816  1.00  0.00    -0.493 OA
ATOM      8  C   UNL     1      -5.585  -5.186  -3.246  1.00  0.00     0.278 C 
ENDBRANCH   1   7
BRANCH   6   9
ATOM      9  O   UNL     1      -3.910  -2.088  -3.343  1.00  0.00    -0.504 OA
ATOM     10  H   UNL     1      -4.468  -1.490  -2.747  1.00  0.00     0.293 HD
ENDBRANCH   6   9
TORSDOF 2
ENDMDL
MODEL 3
REMARK VINA RESULT:    -3.306     21.374     22.653
REMARK INTER + INTRA:          -3.626
REMARK INTER:                  -3.584
REMARK INTRA:                  -0.043
REMARK UNBOUND:                -0.031
REMARK SMILES COc1ccccc1O
REMARK SMILES IDX 3 1 4 2 5 3 6 4 7 5 8 6 2 7 1 8 9 9
REMARK H PARENT 9 10
REMARK Flexibility Score: inf
ROOT
ATOM      1  C   UNL     1      -4.275  -2.642  -4.697  1.00  0.00     0.160 A 
ATOM      2  C   UNL     1      -3.716  -1.813  -5.691  1.00  0.00     0.050 A 
ATOM      3  C   UNL     1      -4.160  -1.897  -7.013  1.00  0.00     0.004 A 
ATOM      4  C   UNL     1      -5.161  -2.806  -7.360  1.00  0.00     0.004 A 
ATOM      5  C   UNL     1      -5.723  -3.632  -6.384  1.00  0.00     0.050 A 
ATOM      6  C   UNL     1      -5.286  -3.556  -5.056  1.00  0.00     0.157 A 
ENDROOT
BRANCH   1   7
ATOM      7  O   UNL     1      -3.855  -2.586  -3.359  1.00  0.00    -0.493 OA
ATOM      8  C   UNL     1      -2.570  -2.993  -2.899  1.00  0.00     0.278 C 
ENDBRANCH   1   7
BRANCH   6   9
ATOM      9  O   UNL     1      -5.866  -4.396  -4.106  1.00  0.00    -0.504 OA
ATOM     10  H   UNL     1      -6.841  -4.322  -3.844  1.00  0.00     0.293 HD
ENDBRANCH   6   9
TORSDOF 2
ENDMDL
MODEL 4
REMARK VINA RESULT:    -3.302      2.095      3.201
REMARK INTER + INTRA:          -3.622
REMARK INTER:                  -3.720
REMARK INTRA:                   0.098
REMARK UNBOUND:                -0.031
REMARK SMILES COc1ccccc1O
REMARK SMILES IDX 3 1 4 2 5 3 6 4 7 5 8 6 2 7 1 8 9 9
REMARK H PARENT 9 10
REMARK Flexibility Score: inf
ROOT
ATOM      1  C   UNL     1      -4.512 -17.636 -22.402  1.00  0.00     0.160 A 
ATOM      2  C   UNL     1      -5.229 -16.429 -22.273  1.00  0.00     0.050 A 
ATOM      3  C   UNL     1      -6.594 -16.384 -22.568  1.00  0.00     0.004 A 
ATOM      4  C   UNL     1      -7.258 -17.535 -22.994  1.00  0.00     0.004 A 
ATOM      5  C   UNL     1      -6.559 -18.737 -23.125  1.00  0.00     0.050 A 
ATOM      6  C   UNL     1      -5.191 -18.794 -22.832  1.00  0.00     0.157 A 
ENDROOT
BRANCH   1   7
ATOM      7  O   UNL     1      -3.141 -17.721 -22.114  1.00  0.00    -0.493 OA
ATOM      8  C   UNL     1      -2.594 -18.390 -20.982  1.00  0.00     0.278 C 
ENDBRANCH   1   7
BRANCH   6   9
ATOM      9  O   UNL     1      -4.522 -20.010 -22.974  1.00  0.00    -0.504 OA
ATOM     10  H   UNL     1      -4.958 -20.820 -23.396  1.00  0.00     0.293 HD
ENDBRANCH   6   9
TORSDOF 2
ENDMDL
MODEL 5
REMARK VINA RESULT:    -3.248     13.107     13.461
REMARK INTER + INTRA:          -3.563
REMARK INTER:                  -3.518
REMARK INTRA:                  -0.046
REMARK UNBOUND:                -0.031
REMARK SMILES COc1ccccc1O
REMARK SMILES IDX 3 1 4 2 5 3 6 4 7 5 8 6 2 7 1 8 9 9
REMARK H PARENT 9 10
REMARK Flexibility Score: inf
ROOT
ATOM      1  C   UNL     1      -6.252 -18.791  -9.468  1.00  0.00     0.160 A 
ATOM      2  C   UNL     1      -4.979 -19.362  -9.669  1.00  0.00     0.050 A 
ATOM      3  C   UNL     1      -3.871 -18.884  -8.963  1.00  0.00     0.004 A 
ATOM      4  C   UNL     1      -4.019 -17.835  -8.054  1.00  0.00     0.004 A 
ATOM      5  C   UNL     1      -5.275 -17.262  -7.847  1.00  0.00     0.050 A 
ATOM      6  C   UNL     1      -6.392 -17.733  -8.548  1.00  0.00     0.157 A 
ENDROOT
BRANCH   1   7
ATOM      7  O   UNL     1      -7.387 -19.244 -10.158  1.00  0.00    -0.493 OA
ATOM      8  C   UNL     1      -7.690 -18.923 -11.512  1.00  0.00     0.278 C 
ENDBRANCH   1   7
BRANCH   6   9
ATOM      9  O   UNL     1      -7.632 -17.138  -8.319  1.00  0.00    -0.504 OA
ATOM     10  H   UNL     1      -7.721 -16.210  -7.925  1.00  0.00     0.293 HD
ENDBRANCH   6   9
TORSDOF 2
ENDMDL
MODEL 6
REMARK VINA RESULT:    -3.172      1.269      2.421
REMARK INTER + INTRA:          -3.481
REMARK INTER:                  -3.445
REMARK INTRA:                  -0.037
REMARK UNBOUND:                -0.031
REMARK SMILES COc1ccccc1O
REMARK SMILES IDX 3 1 4 2 5 3 6 4 7 5 8 6 2 7 1 8 9 9
REMARK H PARENT 9 10
REMARK Flexibility Score: inf
ROOT
ATOM      1  C   UNL     1      -6.888 -16.774 -22.705  1.00  0.00     0.160 A 
ATOM      2  C   UNL     1      -6.955 -18.147 -23.015  1.00  0.00     0.050 A 
ATOM      3  C   UNL     1      -5.919 -19.008 -22.642  1.00  0.00     0.004 A 
ATOM      4  C   UNL     1      -4.807 -18.511 -21.960  1.00  0.00     0.004 A 
ATOM      5  C   UNL     1      -4.729 -17.152 -21.647  1.00  0.00     0.050 A 
ATOM      6  C   UNL     1      -5.761 -16.281 -22.015  1.00  0.00     0.157 A 
ENDROOT
BRANCH   1   7
ATOM      7  O   UNL     1      -7.908 -15.880 -23.063  1.00  0.00    -0.493 OA
ATOM      8  C   UNL     1      -9.043 -15.586 -22.254  1.00  0.00     0.278 C 
ENDBRANCH   1   7
BRANCH   6   9
ATOM      9  O   UNL     1      -5.652 -14.930 -21.688  1.00  0.00    -0.504 OA
ATOM     10  H   UNL     1      -5.056 -14.297 -22.205  1.00  0.00     0.293 HD
ENDBRANCH   6   9
TORSDOF 2
ENDMDL
MODEL 7
REMARK VINA RESULT:    -3.166     13.546     14.018
REMARK INTER + INTRA:          -3.474
REMARK INTER:                  -3.435
REMARK INTRA:                  -0.039
REMARK UNBOUND:                -0.031
REMARK SMILES COc1ccccc1O
REMARK SMILES IDX 3 1 4 2 5 3 6 4 7 5 8 6 2 7 1 8 9 9
REMARK H PARENT 9 10
REMARK Flexibility Score: inf
ROOT
ATOM      1  C   UNL     1      -5.471 -18.925  -9.067  1.00  0.00     0.160 A 
ATOM      2  C   UNL     1      -6.558 -18.251  -8.476  1.00  0.00     0.050 A 
ATOM      3  C   UNL     1      -6.336 -17.235  -7.542  1.00  0.00     0.004 A 
ATOM      4  C   UNL     1      -5.033 -16.881  -7.188  1.00  0.00     0.004 A 
ATOM      5  C   UNL     1      -3.948 -17.542  -7.768  1.00  0.00     0.050 A 
ATOM      6  C   UNL     1      -4.159 -18.561  -8.704  1.00  0.00     0.157 A 
ENDROOT
BRANCH   1   7
ATOM      7  O   UNL     1      -5.655 -19.950 -10.008  1.00  0.00    -0.493 OA
ATOM      8  C   UNL     1      -6.315 -19.787 -11.260  1.00  0.00     0.278 C 
ENDBRANCH   1   7
BRANCH   6   9
ATOM      9  O   UNL     1      -3.054 -19.202  -9.264  1.00  0.00    -0.504 OA
ATOM     10  H   UNL     1      -2.406 -18.724  -9.876  1.00  0.00     0.293 HD
ENDBRANCH   6   9
TORSDOF 2
ENDMDL
MODEL 8
REMARK VINA RESULT:    -3.086     12.773     12.958
REMARK INTER + INTRA:          -3.387
REMARK INTER:                  -3.361
REMARK INTRA:                  -0.026
REMARK UNBOUND:                -0.031
REMARK SMILES COc1ccccc1O
REMARK SMILES IDX 3 1 4 2 5 3 6 4 7 5 8 6 2 7 1 8 9 9
REMARK H PARENT 9 10
REMARK Flexibility Score: inf
ROOT
ATOM      1  C   UNL     1      -6.843 -18.274  -9.133  1.00  0.00     0.160 A 
ATOM      2  C   UNL     1      -5.712 -19.026  -9.511  1.00  0.00     0.050 A 
ATOM      3  C   UNL     1      -5.724 -19.774 -10.691  1.00  0.00     0.004 A 
ATOM      4  C   UNL     1      -6.858 -19.783 -11.504  1.00  0.00     0.004 A 
ATOM      5  C   UNL     1      -7.984 -19.041 -11.141  1.00  0.00     0.050 A 
ATOM      6  C   UNL     1      -7.984 -18.288  -9.961  1.00  0.00     0.157 A 
ENDROOT
BRANCH   1   7
ATOM      7  O   UNL     1      -6.869 -17.511  -7.956  1.00  0.00    -0.493 OA
ATOM      8  C   UNL     1      -5.711 -17.095  -7.238  1.00  0.00     0.278 C 
ENDBRANCH   1   7
BRANCH   6   9
ATOM      9  O   UNL     1      -9.125 -17.559  -9.626  1.00  0.00    -0.504 OA
ATOM     10  H   UNL     1      -9.797 -17.892  -8.946  1.00  0.00     0.293 HD
ENDBRANCH   6   9
TORSDOF 2
ENDMDL
MODEL 9
REMARK VINA RESULT:    -2.403      2.897      4.037
REMARK INTER + INTRA:          -2.645
REMARK INTER:                  -2.625
REMARK INTRA:                  -0.020
REMARK UNBOUND:                -0.031
REMARK SMILES COc1ccccc1O
REMARK SMILES IDX 3 1 4 2 5 3 6 4 7 5 8 6 2 7 1 8 9 9
REMARK H PARENT 9 10
REMARK Flexibility Score: inf
ROOT
ATOM      1  C   UNL     1      -3.385 -19.094 -22.482  1.00  0.00     0.160 A 
ATOM      2  C   UNL     1      -2.312 -19.754 -23.115  1.00  0.00     0.050 A 
ATOM      3  C   UNL     1      -1.102 -19.942 -22.442  1.00  0.00     0.004 A 
ATOM      4  C   UNL     1      -0.946 -19.473 -21.136  1.00  0.00     0.004 A 
ATOM      5  C   UNL     1      -2.001 -18.818 -20.499  1.00  0.00     0.050 A 
ATOM      6  C   UNL     1      -3.219 -18.625 -21.163  1.00  0.00     0.157 A 
ENDROOT
BRANCH   1   7
ATOM      7  O   UNL     1      -4.614 -18.887 -23.125  1.00  0.00    -0.493 OA
ATOM      8  C   UNL     1      -5.734 -19.762 -23.025  1.00  0.00     0.278 C 
ENDBRANCH   1   7
BRANCH   6   9
ATOM      9  O   UNL     1      -4.252 -17.965 -20.498  1.00  0.00    -0.504 OA
ATOM     10  H   UNL     1      -4.077 -17.248 -19.806  1.00  0.00     0.293 HD
ENDBRANCH   6   9
TORSDOF 2
ENDMDL
