MODEL 1
REMARK VINA RESULT:    -4.651      0.000      0.000
REMARK INTER + INTRA:          -6.796
REMARK INTER:                  -6.554
REMARK INTRA:                  -0.241
REMARK UNBOUND:                -0.241
REMARK SMILES CCCCCCCCC(=O)[O-]
REMARK SMILES IDX 6 1 7 2 8 3 9 4 10 5 11 6 5 7 4 8 3 9 2 10 1 11
REMARK H PARENT
REMARK Flexibility Score: inf
ROOT
ATOM      1  C   UNL     1     -11.799  10.993   7.227  1.00  0.00     0.000 C 
ENDROOT
BRANCH   1   2
ATOM      2  C   UNL     1     -12.585   9.845   7.877  1.00  0.00     0.006 C 
BRANCH   2   3
ATOM      3  C   UNL     1     -13.067   8.815   6.849  1.00  0.00     0.053 C 
BRANCH   3   4
ATOM      4  C   UNL     1     -13.960   7.786   7.471  1.00  0.00     0.041 C 
ATOM      5  O   UNL     1     -14.133   6.672   6.909  1.00  0.00    -0.550 OA
ATOM      6  O   UNL     1     -14.627   8.070   8.656  1.00  0.00    -0.550 OA
ENDBRANCH   3   4
ENDBRANCH   2   3
ENDBRANCH   1   2
BRANCH   1   7
ATOM      7  C   UNL     1     -11.799  10.863   5.699  1.00  0.00     0.000 C 
BRANCH   7   8
ATOM      8  C   UNL     1     -10.773  11.811   5.066  1.00  0.00    -0.000 C 
BRANCH   8   9
ATOM      9  C   UNL     1     -10.353  11.318   3.676  1.00  0.00    -0.000 C 
BRANCH   9  10
ATOM     10  C   UNL     1      -9.635  12.424   2.895  1.00  0.00    -0.003 C 
ATOM     11  C   UNL     1      -8.671  13.196   3.791  1.00  0.00     0.004 C 
ENDBRANCH   9  10
ENDBRANCH   8   9
ENDBRANCH   7   8
ENDBRANCH   1   7
TORSDOF 7
ENDMDL
MODEL 2
REMARK VINA RESULT:    -4.626      1.288      2.412
REMARK INTER + INTRA:          -6.760
REMARK INTER:                  -6.491
REMARK INTRA:                  -0.269
REMARK UNBOUND:                -0.241
REMARK SMILES CCCCCCCCC(=O)[O-]
REMARK SMILES IDX 6 1 7 2 8 3 9 4 10 5 11 6 5 7 4 8 3 9 2 10 1 11
REMARK H PARENT
REMARK Flexibility Score: inf
ROOT
ATOM      1  C   UNL     1     -13.389   9.154   8.244  1.00  0.00     0.000 C 
ENDROOT
BRANCH   1   2
ATOM      2  C   UNL     1     -13.765   8.173   7.124  1.00  0.00     0.006 C 
BRANCH   2   3
ATOM      3  C   UNL     1     -13.551   6.711   7.536  1.00  0.00     0.053 C 
BRANCH   3   4
ATOM      4  C   UNL     1     -14.850   6.011   7.790  1.00  0.00     0.041 C 
ATOM      5  O   UNL     1     -15.631   6.425   8.687  1.00  0.00    -0.550 OA
ATOM      6  O   UNL     1     -15.185   4.881   7.055  1.00  0.00    -0.550 OA
ENDBRANCH   3   4
ENDBRANCH   2   3
ENDBRANCH   1   2
BRANCH   1   7
ATOM      7  C   UNL     1     -12.457  10.255   7.720  1.00  0.00     0.000 C 
BRANCH   7   8
ATOM      8  C   UNL     1     -12.258  10.134   6.205  1.00  0.00    -0.000 C 
BRANCH   8   9
ATOM      9  C   UNL     1     -11.592  11.391   5.635  1.00  0.00    -0.000 C 
BRANCH   9  10
ATOM     10  C   UNL     1     -10.939  11.101   4.279  1.00  0.00    -0.003 C 
ATOM     11  C   UNL     1      -9.973  12.214   3.882  1.00  0.00     0.004 C 
ENDBRANCH   9  10
ENDBRANCH   8   9
ENDBRANCH   7   8
ENDBRANCH   1   7
TORSDOF 7
ENDMDL
MODEL 3
REMARK VINA RESULT:    -4.612      4.798      6.860
REMARK INTER + INTRA:          -6.741
REMARK INTER:                  -6.496
REMARK INTRA:                  -0.244
REMARK UNBOUND:                -0.241
REMARK SMILES CCCCCCCCC(=O)[O-]
REMARK SMILES IDX 6 1 7 2 8 3 9 4 10 5 11 6 5 7 4 8 3 9 2 10 1 11
REMARK H PARENT
REMARK Flexibility Score: inf
ROOT
ATOM      1  C   UNL     1     -10.668  11.133   4.011  1.00  0.00     0.000 C 
ENDROOT
BRANCH   1   2
ATOM      2  C   UNL     1     -10.515  12.360   3.100  1.00  0.00     0.006 C 
BRANCH   2   3
ATOM      3  C   UNL     1      -9.306  13.222   3.483  1.00  0.00     0.053 C 
BRANCH   3   4
ATOM      4  C   UNL     1      -8.767  13.977   2.307  1.00  0.00     0.041 C 
ATOM      5  O   UNL     1      -8.007  13.407   1.480  1.00  0.00    -0.550 OA
ATOM      6  O   UNL     1      -9.081  15.320   2.141  1.00  0.00    -0.550 OA
ENDBRANCH   3   4
ENDBRANCH   2   3
ENDBRANCH   1   2
BRANCH   1   7
ATOM      7  C   UNL     1     -11.258  11.528   5.370  1.00  0.00     0.000 C 
BRANCH   7   8
ATOM      8  C   UNL     1     -12.189  10.433   5.906  1.00  0.00    -0.000 C 
BRANCH   8   9
ATOM      9  C   UNL     1     -12.073  10.308   7.429  1.00  0.00    -0.000 C 
BRANCH   9  10
ATOM     10  C   UNL     1     -11.765  11.665   8.070  1.00  0.00    -0.003 C 
ATOM     11  C   UNL     1     -13.045  12.367   8.517  1.00  0.00     0.004 C 
ENDBRANCH   9  10
ENDBRANCH   8   9
ENDBRANCH   7   8
ENDBRANCH   1   7
TORSDOF 7
ENDMDL
MODEL 4
REMARK VINA RESULT:    -4.610      1.184      2.060
REMARK INTER + INTRA:          -6.738
REMARK INTER:                  -6.347
REMARK INTRA:                  -0.390
REMARK UNBOUND:                -0.241
REMARK SMILES CCCCCCCCC(=O)[O-]
REMARK SMILES IDX 6 1 7 2 8 3 9 4 10 5 11 6 5 7 4 8 3 9 2 10 1 11
REMARK H PARENT
REMARK Flexibility Score: inf
ROOT
ATOM      1  C   UNL     1     -10.872  11.867   5.631  1.00  0.00     0.000 C 
ENDROOT
BRANCH   1   2
ATOM      2  C   UNL     1     -11.622  11.056   6.698  1.00  0.00     0.006 C 
BRANCH   2   3
ATOM      3  C   UNL     1     -12.520   9.976   6.082  1.00  0.00     0.053 C 
BRANCH   3   4
ATOM      4  C   UNL     1     -13.066   9.049   7.124  1.00  0.00     0.041 C 
ATOM      5  O   UNL     1     -12.757   9.202   8.336  1.00  0.00    -0.550 OA
ATOM      6  O   UNL     1     -13.892   7.995   6.753  1.00  0.00    -0.550 OA
ENDBRANCH   3   4
ENDBRANCH   2   3
ENDBRANCH   1   2
BRANCH   1   7
ATOM      7  C   UNL     1     -10.908  11.155   4.273  1.00  0.00     0.000 C 
BRANCH   7   8
ATOM      8  C   UNL     1      -9.797  11.671   3.350  1.00  0.00    -0.000 C 
BRANCH   8   9
ATOM      9  C   UNL     1      -9.381  13.096   3.732  1.00  0.00    -0.000 C 
BRANCH   9  10
ATOM     10  C   UNL     1      -7.857  13.252   3.698  1.00  0.00    -0.003 C 
ATOM     11  C   UNL     1      -7.187  12.001   3.137  1.00  0.00     0.004 C 
ENDBRANCH   9  10
ENDBRANCH   8   9
ENDBRANCH   7   8
ENDBRANCH   1   7
TORSDOF 7
ENDMDL
MODEL 5
REMARK VINA RESULT:    -4.593      2.613      3.326
REMARK INTER + INTRA:          -6.714
REMARK INTER:                  -6.415
REMARK INTRA:                  -0.299
REMARK UNBOUND:                -0.241
REMARK SMILES CCCCCCCCC(=O)[O-]
REMARK SMILES IDX 6 1 7 2 8 3 9 4 10 5 11 6 5 7 4 8 3 9 2 10 1 11
REMARK H PARENT
REMARK Flexibility Score: inf
ROOT
ATOM      1  C   UNL     1     -11.028  11.528   5.520  1.00  0.00     0.000 C 
ENDROOT
BRANCH   1   2
ATOM      2  C   UNL     1     -12.130  10.617   6.083  1.00  0.00     0.006 C 
BRANCH   2   3
ATOM      3  C   UNL     1     -12.032  10.460   7.605  1.00  0.00     0.053 C 
BRANCH   3   4
ATOM      4  C   UNL     1     -12.140  11.779   8.307  1.00  0.00     0.041 C 
ATOM      5  O   UNL     1     -13.236  12.399   8.330  1.00  0.00    -0.550 OA
ATOM      6  O   UNL     1     -11.020  12.340   8.909  1.00  0.00    -0.550 OA
ENDBRANCH   3   4
ENDBRANCH   2   3
ENDBRANCH   1   2
BRANCH   1   7
ATOM      7  C   UNL     1     -10.926  11.389   3.996  1.00  0.00     0.000 C 
BRANCH   7   8
ATOM      8  C   UNL     1      -9.511  11.720   3.506  1.00  0.00    -0.000 C 
BRANCH   8   9
ATOM      9  C   UNL     1      -9.065  13.100   4.003  1.00  0.00    -0.000 C 
BRANCH   9  10
ATOM     10  C   UNL     1      -7.718  13.497   3.388  1.00  0.00    -0.003 C 
ATOM     11  C   UNL     1      -6.778  12.298   3.297  1.00  0.00     0.004 C 
ENDBRANCH   9  10
ENDBRANCH   8   9
ENDBRANCH   7   8
ENDBRANCH   1   7
TORSDOF 7
ENDMDL
MODEL 6
REMARK VINA RESULT:    -4.521      3.242      4.245
REMARK INTER + INTRA:          -6.612
REMARK INTER:                  -6.281
REMARK INTRA:                  -0.332
REMARK UNBOUND:                -0.241
REMARK SMILES CCCCCCCCC(=O)[O-]
REMARK SMILES IDX 6 1 7 2 8 3 9 4 10 5 11 6 5 7 4 8 3 9 2 10 1 11
REMARK H PARENT
REMARK Flexibility Score: inf
ROOT
ATOM      1  C   UNL     1     -10.914  11.907   7.573  1.00  0.00     0.000 C 
ENDROOT
BRANCH   1   2
ATOM      2  C   UNL     1     -12.063  11.140   6.903  1.00  0.00     0.006 C 
BRANCH   2   3
ATOM      3  C   UNL     1     -13.066  10.588   7.923  1.00  0.00     0.053 C 
BRANCH   3   4
ATOM      4  C   UNL     1     -13.138   9.093   7.877  1.00  0.00     0.041 C 
ATOM      5  O   UNL     1     -12.814   8.409   8.884  1.00  0.00    -0.550 OA
ATOM      6  O   UNL     1     -13.534   8.452   6.710  1.00  0.00    -0.550 OA
ENDBRANCH   3   4
ENDBRANCH   2   3
ENDBRANCH   1   2
BRANCH   1   7
ATOM      7  C   UNL     1     -11.383  12.578   8.870  1.00  0.00     0.000 C 
BRANCH   7   8
ATOM      8  C   UNL     1     -10.200  13.174   9.642  1.00  0.00    -0.000 C 
BRANCH   8   9
ATOM      9  C   UNL     1      -9.430  14.181   8.779  1.00  0.00    -0.000 C 
BRANCH   9  10
ATOM     10  C   UNL     1      -8.184  14.692   9.510  1.00  0.00    -0.003 C 
ATOM     11  C   UNL     1      -7.971  13.949  10.825  1.00  0.00     0.004 C 
ENDBRANCH   9  10
ENDBRANCH   8   9
ENDBRANCH   7   8
ENDBRANCH   1   7
TORSDOF 7
ENDMDL
MODEL 7
REMARK VINA RESULT:    -4.511      5.023      7.070
REMARK INTER + INTRA:          -6.599
REMARK INTER:                  -6.269
REMARK INTRA:                  -0.330
REMARK UNBOUND:                -0.241
REMARK SMILES CCCCCCCCC(=O)[O-]
REMARK SMILES IDX 6 1 7 2 8 3 9 4 10 5 11 6 5 7 4 8 3 9 2 10 1 11
REMARK H PARENT
REMARK Flexibility Score: inf
ROOT
ATOM      1  C   UNL     1     -10.221  12.551   3.107  1.00  0.00     0.000 C 
ENDROOT
BRANCH   1   2
ATOM      2  C   UNL     1      -9.302  13.285   4.096  1.00  0.00     0.006 C 
BRANCH   2   3
ATOM      3  C   UNL     1      -7.842  13.300   3.630  1.00  0.00     0.053 C 
BRANCH   3   4
ATOM      4  C   UNL     1      -7.711  13.820   2.232  1.00  0.00     0.041 C 
ATOM      5  O   UNL     1      -7.199  13.102   1.332  1.00  0.00    -0.550 OA
ATOM      6  O   UNL     1      -8.126  15.110   1.928  1.00  0.00    -0.550 OA
ENDBRANCH   3   4
ENDBRANCH   2   3
ENDBRANCH   1   2
BRANCH   1   7
ATOM      7  C   UNL     1     -10.873  11.329   3.765  1.00  0.00     0.000 C 
BRANCH   7   8
ATOM      8  C   UNL     1     -10.991  11.518   5.282  1.00  0.00    -0.000 C 
BRANCH   8   9
ATOM      9  C   UNL     1     -12.033  10.563   5.876  1.00  0.00    -0.000 C 
BRANCH   9  10
ATOM     10  C   UNL     1     -12.670  11.159   7.137  1.00  0.00    -0.003 C 
ATOM     11  C   UNL     1     -11.611  11.506   8.179  1.00  0.00     0.004 C 
ENDBRANCH   9  10
ENDBRANCH   8   9
ENDBRANCH   7   8
ENDBRANCH   1   7
TORSDOF 7
ENDMDL
MODEL 8
REMARK VINA RESULT:    -4.455      4.556      5.594
REMARK INTER + INTRA:          -6.519
REMARK INTER:                  -6.162
REMARK INTRA:                  -0.358
REMARK UNBOUND:                -0.241
REMARK SMILES CCCCCCCCC(=O)[O-]
REMARK SMILES IDX 6 1 7 2 8 3 9 4 10 5 11 6 5 7 4 8 3 9 2 10 1 11
REMARK H PARENT
REMARK Flexibility Score: inf
ROOT
ATOM      1  C   UNL     1     -10.364  13.091   9.595  1.00  0.00     0.000 C 
ENDROOT
BRANCH   1   2
ATOM      2  C   UNL     1     -11.602  12.555   8.860  1.00  0.00     0.006 C 
BRANCH   2   3
ATOM      3  C   UNL     1     -11.231  11.725   7.625  1.00  0.00     0.053 C 
BRANCH   3   4
ATOM      4  C   UNL     1     -12.219  10.626   7.379  1.00  0.00     0.041 C 
ATOM      5  O   UNL     1     -12.091   9.869   6.380  1.00  0.00    -0.550 OA
ATOM      6  O   UNL     1     -13.300  10.459   8.235  1.00  0.00    -0.550 OA
ENDBRANCH   3   4
ENDBRANCH   2   3
ENDBRANCH   1   2
BRANCH   1   7
ATOM      7  C   UNL     1      -9.639  14.148   8.753  1.00  0.00     0.000 C 
BRANCH   7   8
ATOM      8  C   UNL     1      -8.249  14.451   9.325  1.00  0.00    -0.000 C 
BRANCH   8   9
ATOM      9  C   UNL     1      -8.348  15.347  10.564  1.00  0.00    -0.000 C 
BRANCH   9  10
ATOM     10  C   UNL     1      -7.401  14.865  11.669  1.00  0.00    -0.003 C 
ATOM     11  C   UNL     1      -7.387  13.342  11.757  1.00  0.00     0.004 C 
ENDBRANCH   9  10
ENDBRANCH   8   9
ENDBRANCH   7   8
ENDBRANCH   1   7
TORSDOF 7
ENDMDL
MODEL 9
REMARK VINA RESULT:    -4.413      2.256      3.677
REMARK INTER + INTRA:          -6.461
REMARK INTER:                  -6.113
REMARK INTRA:                  -0.347
REMARK UNBOUND:                -0.241
REMARK SMILES CCCCCCCCC(=O)[O-]
REMARK SMILES IDX 6 1 7 2 8 3 9 4 10 5 11 6 5 7 4 8 3 9 2 10 1 11
REMARK H PARENT
REMARK Flexibility Score: inf
ROOT
ATOM      1  C   UNL     1     -10.370  12.340   3.601  1.00  0.00     0.000 C 
ENDROOT
BRANCH   1   2
ATOM      2  C   UNL     1     -10.894  11.105   4.348  1.00  0.00     0.006 C 
BRANCH   2   3
ATOM      3  C   UNL     1     -11.336  11.436   5.779  1.00  0.00     0.053 C 
BRANCH   3   4
ATOM      4  C   UNL     1     -12.151  10.330   6.377  1.00  0.00     0.041 C 
ATOM      5  O   UNL     1     -12.064  10.070   7.606  1.00  0.00    -0.550 OA
ATOM      6  O   UNL     1     -12.984   9.566   5.570  1.00  0.00    -0.550 OA
ENDBRANCH   3   4
ENDBRANCH   2   3
ENDBRANCH   1   2
BRANCH   1   7
ATOM      7  C   UNL     1      -9.345  13.102   4.449  1.00  0.00     0.000 C 
BRANCH   7   8
ATOM      8  C   UNL     1      -8.065  13.379   3.650  1.00  0.00    -0.000 C 
BRANCH   8   9
ATOM      9  C   UNL     1      -7.634  12.142   2.854  1.00  0.00    -0.000 C 
BRANCH   9  10
ATOM     10  C   UNL     1      -6.243  11.667   3.287  1.00  0.00    -0.003 C 
ATOM     11  C   UNL     1      -6.025  10.199   2.931  1.00  0.00     0.004 C 
ENDBRANCH   9  10
ENDBRANCH   8   9
ENDBRANCH   7   8
ENDBRANCH   1   7
TORSDOF 7
ENDMDL
