MODEL 1
REMARK VINA RESULT:    -3.621      0.000      0.000
REMARK INTER + INTRA:          -4.407
REMARK INTER:                  -4.256
REMARK INTRA:                  -0.151
REMARK UNBOUND:                -0.151
REMARK SMILES O=C([O-])C=Cc1ccc(O)c(O)c1
REMARK SMILES IDX 6 1 13 2 7 3 11 4 8 5 9 6 5 7 4 8 2 9 1 10 3 11 12 12 10 14
REMARK H PARENT 12 13 10 15
REMARK Flexibility Score: inf
ROOT
ATOM      1  C   UNL     1      72.043  41.398  21.492  1.00  0.00    -0.022 A 
ATOM      2  C   UNL     1      71.227  41.947  20.483  1.00  0.00     0.058 A 
ATOM      3  C   UNL     1      71.491  40.453  22.371  1.00  0.00     0.012 A 
ATOM      4  C   UNL     1      69.879  41.574  20.374  1.00  0.00     0.157 A 
ATOM      5  C   UNL     1      70.148  40.082  22.264  1.00  0.00     0.051 A 
ATOM      6  C   UNL     1      69.338  40.641  21.272  1.00  0.00     0.157 A 
ENDROOT
BRANCH   1   7
ATOM      7  C   UNL     1      73.477  41.753  21.641  1.00  0.00     0.010 C 
ATOM      8  C   UNL     1      74.381  40.963  22.236  1.00  0.00     0.025 C 
BRANCH   8   9
ATOM      9  C   UNL     1      75.796  41.350  22.351  1.00  0.00     0.064 C 
ATOM     10  O   UNL     1      76.327  42.042  21.444  1.00  0.00    -0.545 OA
ATOM     11  O   UNL     1      76.559  40.961  23.447  1.00  0.00    -0.545 OA
ENDBRANCH   8   9
ENDBRANCH   1   7
BRANCH   4  12
ATOM     12  O   UNL     1      69.078  42.125  19.374  1.00  0.00    -0.504 OA
ATOM     13  H   UNL     1      68.091  42.301  19.521  1.00  0.00     0.293 HD
ENDBRANCH   4  12
BRANCH   6  14
ATOM     14  O   UNL     1      68.000  40.252  21.190  1.00  0.00    -0.504 OA
ATOM     15  H   UNL     1      67.612  39.533  21.790  1.00  0.00     0.293 HD
ENDBRANCH   6  14
TORSDOF 4
ENDMDL
MODEL 2
REMARK VINA RESULT:    -3.528      1.336      2.181
REMARK INTER + INTRA:          -4.297
REMARK INTER:                  -4.170
REMARK INTRA:                  -0.127
REMARK UNBOUND:                -0.151
REMARK SMILES O=C([O-])C=Cc1ccc(O)c(O)c1
REMARK SMILES IDX 6 1 13 2 7 3 11 4 8 5 9 6 5 7 4 8 2 9 1 10 3 11 12 12 10 14
REMARK H PARENT 12 13 10 15
REMARK Flexibility Score: inf
ROOT
ATOM      1  C   UNL     1      73.162  41.298  21.008  1.00  0.00    -0.022 A 
ATOM      2  C   UNL     1      72.443  40.733  22.081  1.00  0.00     0.058 A 
ATOM      3  C   UNL     1      72.449  41.869  19.942  1.00  0.00     0.012 A 
ATOM      4  C   UNL     1      71.041  40.718  22.071  1.00  0.00     0.157 A 
ATOM      5  C   UNL     1      71.052  41.853  19.930  1.00  0.00     0.051 A 
ATOM      6  C   UNL     1      70.344  41.278  20.989  1.00  0.00     0.157 A 
ENDROOT
BRANCH   1   7
ATOM      7  C   UNL     1      74.645  41.348  20.978  1.00  0.00     0.010 C 
ATOM      8  C   UNL     1      75.399  41.714  22.022  1.00  0.00     0.025 C 
BRANCH   8   9
ATOM      9  C   UNL     1      76.869  41.738  21.951  1.00  0.00     0.064 C 
ATOM     10  O   UNL     1      77.436  41.822  20.831  1.00  0.00    -0.545 OA
ATOM     11  O   UNL     1      77.644  41.666  23.103  1.00  0.00    -0.545 OA
ENDBRANCH   8   9
ENDBRANCH   1   7
BRANCH   4  12
ATOM     12  O   UNL     1      70.339  40.154  23.135  1.00  0.00    -0.504 OA
ATOM     13  H   UNL     1      70.625  39.278  23.556  1.00  0.00     0.293 HD
ENDBRANCH   4  12
BRANCH   6  14
ATOM     14  O   UNL     1      68.949  41.276  20.949  1.00  0.00    -0.504 OA
ATOM     15  H   UNL     1      68.435  41.337  20.078  1.00  0.00     0.293 HD
ENDBRANCH   6  14
TORSDOF 4
ENDMDL
MODEL 3
REMARK VINA RESULT:    -3.509      1.101      5.999
REMARK INTER + INTRA:          -4.276
REMARK INTER:                  -4.150
REMARK INTRA:                  -0.126
REMARK UNBOUND:                -0.151
REMARK SMILES O=C([O-])C=Cc1ccc(O)c(O)c1
REMARK SMILES IDX 6 1 13 2 7 3 11 4 8 5 9 6 5 7 4 8 2 9 1 10 3 11 12 12 10 14
REMARK H PARENT 12 13 10 15
REMARK Flexibility Score: inf
ROOT
ATOM      1  C   UNL     1      72.741  41.065  21.188  1.00  0.00    -0.022 A 
ATOM      2  C   UNL     1      73.144  40.238  22.256  1.00  0.00     0.058 A 
ATOM      3  C   UNL     1      73.654  41.998  20.673  1.00  0.00     0.012 A 
ATOM      4  C   UNL     1      74.426  40.364  22.811  1.00  0.00     0.157 A 
ATOM      5  C   UNL     1      74.931  42.125  21.226  1.00  0.00     0.051 A 
ATOM      6  C   UNL     1      75.321  41.314  22.295  1.00  0.00     0.157 A 
ENDROOT
BRANCH   1   7
ATOM      7  C   UNL     1      71.400  40.963  20.561  1.00  0.00     0.010 C 
ATOM      8  C   UNL     1      70.304  41.563  21.044  1.00  0.00     0.025 C 
BRANCH   8   9
ATOM      9  C   UNL     1      68.995  41.445  20.382  1.00  0.00     0.064 C 
ATOM     10  O   UNL     1      68.774  42.087  19.322  1.00  0.00    -0.545 OA
ATOM     11  O   UNL     1      67.996  40.635  20.910  1.00  0.00    -0.545 OA
ENDBRANCH   8   9
ENDBRANCH   1   7
BRANCH   4  12
ATOM     12  O   UNL     1      74.815  39.544  23.869  1.00  0.00    -0.504 OA
ATOM     13  H   UNL     1      75.788  39.446  24.137  1.00  0.00     0.293 HD
ENDBRANCH   4  12
BRANCH   6  14
ATOM     14  O   UNL     1      76.602  41.464  22.827  1.00  0.00    -0.504 OA
ATOM     15  H   UNL     1      76.802  42.121  23.572  1.00  0.00     0.293 HD
ENDBRANCH   6  14
TORSDOF 4
ENDMDL
MODEL 4
REMARK VINA RESULT:    -3.446      1.472      6.172
REMARK INTER + INTRA:          -4.202
REMARK INTER:                  -4.053
REMARK INTRA:                  -0.149
REMARK UNBOUND:                -0.151
REMARK SMILES O=C([O-])C=Cc1ccc(O)c(O)c1
REMARK SMILES IDX 6 1 13 2 7 3 11 4 8 5 9 6 5 7 4 8 2 9 1 10 3 11 12 12 10 14
REMARK H PARENT 12 13 10 15
REMARK Flexibility Score: inf
ROOT
ATOM      1  C   UNL     1      73.709  41.269  21.489  1.00  0.00    -0.022 A 
ATOM      2  C   UNL     1      74.717  41.592  22.419  1.00  0.00     0.058 A 
ATOM      3  C   UNL     1      74.064  41.071  20.146  1.00  0.00     0.012 A 
ATOM      4  C   UNL     1      76.049  41.738  22.004  1.00  0.00     0.157 A 
ATOM      5  C   UNL     1      75.390  41.217  19.731  1.00  0.00     0.051 A 
ATOM      6  C   UNL     1      76.385  41.553  20.654  1.00  0.00     0.157 A 
ENDROOT
BRANCH   1   7
ATOM      7  C   UNL     1      72.288  41.093  21.881  1.00  0.00     0.010 C 
ATOM      8  C   UNL     1      71.264  41.159  21.019  1.00  0.00     0.025 C 
BRANCH   8   9
ATOM      9  C   UNL     1      69.870  40.966  21.450  1.00  0.00     0.064 C 
ATOM     10  O   UNL     1      69.529  39.879  21.984  1.00  0.00    -0.545 OA
ATOM     11  O   UNL     1      68.921  41.967  21.274  1.00  0.00    -0.545 OA
ENDBRANCH   8   9
ENDBRANCH   1   7
BRANCH   4  12
ATOM     12  O   UNL     1      77.040  42.061  22.931  1.00  0.00    -0.504 OA
ATOM     13  H   UNL     1      78.018  42.106  22.669  1.00  0.00     0.293 HD
ENDBRANCH   4  12
BRANCH   6  14
ATOM     14  O   UNL     1      77.701  41.694  20.210  1.00  0.00    -0.504 OA
ATOM     15  H   UNL     1      77.975  42.425  19.565  1.00  0.00     0.293 HD
ENDBRANCH   6  14
TORSDOF 4
ENDMDL
MODEL 5
REMARK VINA RESULT:    -3.438      0.884      1.890
REMARK INTER + INTRA:          -4.192
REMARK INTER:                  -4.069
REMARK INTRA:                  -0.124
REMARK UNBOUND:                -0.151
REMARK SMILES O=C([O-])C=Cc1ccc(O)c(O)c1
REMARK SMILES IDX 6 1 13 2 7 3 11 4 8 5 9 6 5 7 4 8 2 9 1 10 3 11 12 12 10 14
REMARK H PARENT 12 13 10 15
REMARK Flexibility Score: inf
ROOT
ATOM      1  C   UNL     1      71.656  41.275  21.553  1.00  0.00    -0.022 A 
ATOM      2  C   UNL     1      70.948  40.213  22.149  1.00  0.00     0.058 A 
ATOM      3  C   UNL     1      70.980  42.125  20.664  1.00  0.00     0.012 A 
ATOM      4  C   UNL     1      69.597  39.994  21.841  1.00  0.00     0.157 A 
ATOM      5  C   UNL     1      69.635  41.907  20.355  1.00  0.00     0.051 A 
ATOM      6  C   UNL     1      68.940  40.843  20.937  1.00  0.00     0.157 A 
ENDROOT
BRANCH   1   7
ATOM      7  C   UNL     1      73.083  41.554  21.855  1.00  0.00     0.010 C 
ATOM      8  C   UNL     1      73.947  40.627  22.289  1.00  0.00     0.025 C 
BRANCH   8   9
ATOM      9  C   UNL     1      75.357  40.945  22.565  1.00  0.00     0.064 C 
ATOM     10  O   UNL     1      75.992  41.691  21.775  1.00  0.00    -0.545 OA
ATOM     11  O   UNL     1      76.001  40.434  23.686  1.00  0.00    -0.545 OA
ENDBRANCH   8   9
ENDBRANCH   1   7
BRANCH   4  12
ATOM     12  O   UNL     1      68.905  38.938  22.434  1.00  0.00    -0.504 OA
ATOM     13  H   UNL     1      67.954  39.046  22.765  1.00  0.00     0.293 HD
ENDBRANCH   4  12
BRANCH   6  14
ATOM     14  O   UNL     1      67.598  40.649  20.608  1.00  0.00    -0.504 OA
ATOM     15  H   UNL     1      67.314  40.086  19.816  1.00  0.00     0.293 HD
ENDBRANCH   6  14
TORSDOF 4
ENDMDL
MODEL 6
REMARK VINA RESULT:    -3.393      1.598      6.460
REMARK INTER + INTRA:          -4.139
REMARK INTER:                  -4.016
REMARK INTRA:                  -0.123
REMARK UNBOUND:                -0.151
REMARK SMILES O=C([O-])C=Cc1ccc(O)c(O)c1
REMARK SMILES IDX 6 1 13 2 7 3 11 4 8 5 9 6 5 7 4 8 2 9 1 10 3 11 12 12 10 14
REMARK H PARENT 12 13 10 15
REMARK Flexibility Score: inf
ROOT
ATOM      1  C   UNL     1      74.435  41.342  22.087  1.00  0.00    -0.022 A 
ATOM      2  C   UNL     1      74.849  40.569  23.190  1.00  0.00     0.058 A 
ATOM      3  C   UNL     1      75.397  42.075  21.374  1.00  0.00     0.012 A 
ATOM      4  C   UNL     1      76.195  40.552  23.584  1.00  0.00     0.157 A 
ATOM      5  C   UNL     1      76.738  42.060  21.767  1.00  0.00     0.051 A 
ATOM      6  C   UNL     1      77.142  41.304  22.871  1.00  0.00     0.157 A 
ENDROOT
BRANCH   1   7
ATOM      7  C   UNL     1      73.025  41.385  21.625  1.00  0.00     0.010 C 
ATOM      8  C   UNL     1      72.001  40.859  22.309  1.00  0.00     0.025 C 
BRANCH   8   9
ATOM      9  C   UNL     1      70.616  40.935  21.818  1.00  0.00     0.064 C 
ATOM     10  O   UNL     1      69.890  39.907  21.844  1.00  0.00    -0.545 OA
ATOM     11  O   UNL     1      70.094  42.125  21.323  1.00  0.00    -0.545 OA
ENDBRANCH   8   9
ENDBRANCH   1   7
BRANCH   4  12
ATOM     12  O   UNL     1      76.594  39.786  24.679  1.00  0.00    -0.504 OA
ATOM     13  H   UNL     1      77.432  40.007  25.205  1.00  0.00     0.293 HD
ENDBRANCH   4  12
BRANCH   6  14
ATOM     14  O   UNL     1      78.487  41.309  23.241  1.00  0.00    -0.504 OA
ATOM     15  H   UNL     1      79.073  40.487  23.149  1.00  0.00     0.293 HD
ENDBRANCH   6  14
TORSDOF 4
ENDMDL
MODEL 7
REMARK VINA RESULT:    -3.237      2.111      6.030
REMARK INTER + INTRA:          -3.956
REMARK INTER:                  -3.831
REMARK INTRA:                  -0.126
REMARK UNBOUND:                -0.151
REMARK SMILES O=C([O-])C=Cc1ccc(O)c(O)c1
REMARK SMILES IDX 6 1 13 2 7 3 11 4 8 5 9 6 5 7 4 8 2 9 1 10 3 11 12 12 10 14
REMARK H PARENT 12 13 10 15
REMARK Flexibility Score: inf
ROOT
ATOM      1  C   UNL     1      74.379  41.259  21.304  1.00  0.00    -0.022 A 
ATOM      2  C   UNL     1      74.638  40.953  19.954  1.00  0.00     0.058 A 
ATOM      3  C   UNL     1      75.419  41.774  22.094  1.00  0.00     0.012 A 
ATOM      4  C   UNL     1      75.919  41.136  19.413  1.00  0.00     0.157 A 
ATOM      5  C   UNL     1      76.697  41.956  21.557  1.00  0.00     0.051 A 
ATOM      6  C   UNL     1      76.953  41.636  20.221  1.00  0.00     0.157 A 
ENDROOT
BRANCH   1   7
ATOM      7  C   UNL     1      73.038  41.093  21.919  1.00  0.00     0.010 C 
ATOM      8  C   UNL     1      71.888  41.328  21.272  1.00  0.00     0.025 C 
BRANCH   8   9
ATOM      9  C   UNL     1      70.580  41.139  21.918  1.00  0.00     0.064 C 
ATOM     10  O   UNL     1      70.410  40.174  22.707  1.00  0.00    -0.545 OA
ATOM     11  O   UNL     1      69.524  42.009  21.668  1.00  0.00    -0.545 OA
ENDBRANCH   8   9
ENDBRANCH   1   7
BRANCH   4  12
ATOM     12  O   UNL     1      76.166  40.828  18.076  1.00  0.00    -0.504 OA
ATOM     13  H   UNL     1      75.777  40.000  17.641  1.00  0.00     0.293 HD
ENDBRANCH   4  12
BRANCH   6  14
ATOM     14  O   UNL     1      78.238  41.827  19.713  1.00  0.00    -0.504 OA
ATOM     15  H   UNL     1      79.068  41.651  20.268  1.00  0.00     0.293 HD
ENDBRANCH   6  14
TORSDOF 4
ENDMDL
MODEL 8
REMARK VINA RESULT:    -3.065      2.513      3.379
REMARK INTER + INTRA:          -3.754
REMARK INTER:                  -3.629
REMARK INTRA:                  -0.125
REMARK UNBOUND:                -0.151
REMARK SMILES O=C([O-])C=Cc1ccc(O)c(O)c1
REMARK SMILES IDX 6 1 13 2 7 3 11 4 8 5 9 6 5 7 4 8 2 9 1 10 3 11 12 12 10 14
REMARK H PARENT 12 13 10 15
REMARK Flexibility Score: inf
ROOT
ATOM      1  C   UNL     1      74.417  41.038  21.263  1.00  0.00    -0.022 A 
ATOM      2  C   UNL     1      73.776  39.809  21.012  1.00  0.00     0.058 A 
ATOM      3  C   UNL     1      73.746  42.009  22.023  1.00  0.00     0.012 A 
ATOM      4  C   UNL     1      72.479  39.570  21.490  1.00  0.00     0.157 A 
ATOM      5  C   UNL     1      72.454  41.772  22.499  1.00  0.00     0.051 A 
ATOM      6  C   UNL     1      71.815  40.558  22.234  1.00  0.00     0.157 A 
ENDROOT
BRANCH   1   7
ATOM      7  C   UNL     1      75.791  41.335  20.788  1.00  0.00     0.010 C 
ATOM      8  C   UNL     1      76.121  41.464  19.496  1.00  0.00     0.025 C 
BRANCH   8   9
ATOM      9  C   UNL     1      77.495  41.771  19.069  1.00  0.00     0.064 C 
ATOM     10  O   UNL     1      77.713  42.124  17.881  1.00  0.00    -0.545 OA
ATOM     11  O   UNL     1      78.560  41.674  19.958  1.00  0.00    -0.545 OA
ENDBRANCH   8   9
ENDBRANCH   1   7
BRANCH   4  12
ATOM     12  O   UNL     1      71.852  38.351  21.233  1.00  0.00    -0.504 OA
ATOM     13  H   UNL     1      72.383  37.502  21.079  1.00  0.00     0.293 HD
ENDBRANCH   4  12
BRANCH   6  14
ATOM     14  O   UNL     1      70.524  40.350  22.722  1.00  0.00    -0.504 OA
ATOM     15  H   UNL     1      70.156  40.872  23.508  1.00  0.00     0.293 HD
ENDBRANCH   6  14
TORSDOF 4
ENDMDL
MODEL 9
REMARK VINA RESULT:    -2.312      2.744      3.372
REMARK INTER + INTRA:          -2.868
REMARK INTER:                  -2.745
REMARK INTRA:                  -0.123
REMARK UNBOUND:                -0.151
REMARK SMILES O=C([O-])C=Cc1ccc(O)c(O)c1
REMARK SMILES IDX 6 1 13 2 7 3 11 4 8 5 9 6 5 7 4 8 2 9 1 10 3 11 12 12 10 14
REMARK H PARENT 12 13 10 15
REMARK Flexibility Score: inf
ROOT
ATOM      1  C   UNL     1      71.904  40.932  19.644  1.00  0.00    -0.022 A 
ATOM      2  C   UNL     1      71.532  40.451  20.915  1.00  0.00     0.058 A 
ATOM      3  C   UNL     1      70.988  41.712  18.920  1.00  0.00     0.012 A 
ATOM      4  C   UNL     1      70.260  40.724  21.437  1.00  0.00     0.157 A 
ATOM      5  C   UNL     1      69.719  41.983  19.439  1.00  0.00     0.051 A 
ATOM      6  C   UNL     1      69.349  41.491  20.693  1.00  0.00     0.157 A 
ENDROOT
BRANCH   1   7
ATOM      7  C   UNL     1      73.242  40.679  19.054  1.00  0.00     0.010 C 
ATOM      8  C   UNL     1      73.812  39.468  18.991  1.00  0.00     0.025 C 
BRANCH   8   9
ATOM      9  C   UNL     1      75.137  39.261  18.385  1.00  0.00     0.064 C 
ATOM     10  O   UNL     1      75.949  40.220  18.325  1.00  0.00    -0.545 OA
ATOM     11  O   UNL     1      75.506  38.022  17.875  1.00  0.00    -0.545 OA
ENDBRANCH   8   9
ENDBRANCH   1   7
BRANCH   4  12
ATOM     12  O   UNL     1      69.900  40.241  22.695  1.00  0.00    -0.504 OA
ATOM     13  H   UNL     1      70.469  39.561  23.186  1.00  0.00     0.293 HD
ENDBRANCH   4  12
BRANCH   6  14
ATOM     14  O   UNL     1      68.075  41.777  21.185  1.00  0.00    -0.504 OA
ATOM     15  H   UNL     1      67.934  42.304  22.039  1.00  0.00     0.293 HD
ENDBRANCH   6  14
TORSDOF 4
ENDMDL
