MODEL 1
REMARK VINA RESULT:    -2.611      0.000      0.000
REMARK INTER + INTRA:          -3.571
REMARK INTER:                  -3.374
REMARK INTRA:                  -0.197
REMARK UNBOUND:                -0.197
REMARK SMILES CCCCCCC=O
REMARK SMILES IDX 4 1 3 2 2 3 1 4 5 5 6 6 7 7 8 8
REMARK H PARENT
REMARK Flexibility Score: inf
ROOT
ATOM      1  C   UNL     1      -8.133  21.556  12.870  1.00  0.00     0.000 C 
ENDROOT
BRANCH   1   2
ATOM      2  C   UNL     1      -8.858  20.258  13.277  1.00  0.00    -0.000 C 
BRANCH   2   3
ATOM      3  C   UNL     1     -10.146  19.958  12.491  1.00  0.00    -0.003 C 
ATOM      4  C   UNL     1     -10.194  20.663  11.136  1.00  0.00     0.004 C 
ENDBRANCH   2   3
ENDBRANCH   1   2
BRANCH   1   5
ATOM      5  C   UNL     1      -6.706  21.362  12.326  1.00  0.00     0.008 C 
BRANCH   5   6
ATOM      6  C   UNL     1      -6.473  22.085  10.993  1.00  0.00     0.072 C 
BRANCH   6   7
ATOM      7  C   UNL     1      -5.576  23.272  11.179  1.00  0.00     0.224 C 
ATOM      8  O   UNL     1      -4.369  23.168  11.023  1.00  0.00    -0.303 OA
ENDBRANCH   6   7
ENDBRANCH   5   6
ENDBRANCH   1   5
TORSDOF 5
ENDMDL
MODEL 2
REMARK VINA RESULT:    -2.561      3.377      4.646
REMARK INTER + INTRA:          -3.507
REMARK INTER:                  -3.385
REMARK INTRA:                  -0.122
REMARK UNBOUND:                -0.197
REMARK SMILES CCCCCCC=O
REMARK SMILES IDX 4 1 3 2 2 3 1 4 5 5 6 6 7 7 8 8
REMARK H PARENT
REMARK Flexibility Score: inf
ROOT
ATOM      1  C   UNL     1      -8.324  22.825  14.627  1.00  0.00     0.000 C 
ENDROOT
BRANCH   1   2
ATOM      2  C   UNL     1      -8.650  23.603  15.917  1.00  0.00    -0.000 C 
BRANCH   2   3
ATOM      3  C   UNL     1      -7.537  23.597  16.979  1.00  0.00    -0.003 C 
ATOM      4  C   UNL     1      -8.030  24.026  18.361  1.00  0.00     0.004 C 
ENDBRANCH   2   3
ENDBRANCH   1   2
BRANCH   1   5
ATOM      5  C   UNL     1      -8.861  21.383  14.582  1.00  0.00     0.008 C 
BRANCH   5   6
ATOM      6  C   UNL     1      -8.487  20.648  13.288  1.00  0.00     0.072 C 
BRANCH   6   7
ATOM      7  C   UNL     1      -7.359  21.343  12.586  1.00  0.00     0.224 C 
ATOM      8  O   UNL     1      -6.275  20.795  12.460  1.00  0.00    -0.303 OA
ENDBRANCH   6   7
ENDBRANCH   5   6
ENDBRANCH   1   5
TORSDOF 5
ENDMDL
MODEL 3
REMARK VINA RESULT:    -2.543      0.720      1.534
REMARK INTER + INTRA:          -3.484
REMARK INTER:                  -3.358
REMARK INTRA:                  -0.126
REMARK UNBOUND:                -0.197
REMARK SMILES CCCCCCC=O
REMARK SMILES IDX 4 1 3 2 2 3 1 4 5 5 6 6 7 7 8 8
REMARK H PARENT
REMARK Flexibility Score: inf
ROOT
ATOM      1  C   UNL     1      -6.733  21.280  12.213  1.00  0.00     0.000 C 
ENDROOT
BRANCH   1   2
ATOM      2  C   UNL     1      -7.893  21.620  13.170  1.00  0.00    -0.000 C 
BRANCH   2   3
ATOM      3  C   UNL     1      -8.761  20.421  13.592  1.00  0.00    -0.003 C 
ATOM      4  C   UNL     1      -9.817  20.054  12.550  1.00  0.00     0.004 C 
ENDBRANCH   2   3
ENDBRANCH   1   2
BRANCH   1   5
ATOM      5  C   UNL     1      -6.562  22.248  11.028  1.00  0.00     0.008 C 
BRANCH   5   6
ATOM      6  C   UNL     1      -5.806  23.528  11.410  1.00  0.00     0.072 C 
BRANCH   6   7
ATOM      7  C   UNL     1      -4.462  23.572  10.746  1.00  0.00     0.224 C 
ATOM      8  O   UNL     1      -3.449  23.320  11.379  1.00  0.00    -0.303 OA
ENDBRANCH   6   7
ENDBRANCH   5   6
ENDBRANCH   1   5
TORSDOF 5
ENDMDL
MODEL 4
REMARK VINA RESULT:    -2.512      2.432      5.272
REMARK INTER + INTRA:          -3.443
REMARK INTER:                  -3.299
REMARK INTRA:                  -0.144
REMARK UNBOUND:                -0.197
REMARK SMILES CCCCCCC=O
REMARK SMILES IDX 4 1 3 2 2 3 1 4 5 5 6 6 7 7 8 8
REMARK H PARENT
REMARK Flexibility Score: inf
ROOT
ATOM      1  C   UNL     1      -5.799  23.324  10.273  1.00  0.00     0.000 C 
ENDROOT
BRANCH   1   2
ATOM      2  C   UNL     1      -4.426  23.546  10.939  1.00  0.00    -0.000 C 
BRANCH   2   3
ATOM      3  C   UNL     1      -3.310  24.015   9.989  1.00  0.00    -0.003 C 
ATOM      4  C   UNL     1      -3.663  23.821   8.515  1.00  0.00     0.004 C 
ENDBRANCH   2   3
ENDBRANCH   1   2
BRANCH   1   5
ATOM      5  C   UNL     1      -6.537  22.046  10.711  1.00  0.00     0.008 C 
BRANCH   5   6
ATOM      6  C   UNL     1      -6.519  21.840  12.232  1.00  0.00     0.072 C 
BRANCH   6   7
ATOM      7  C   UNL     1      -7.859  21.382  12.724  1.00  0.00     0.224 C 
ATOM      8  O   UNL     1      -7.983  20.291  13.258  1.00  0.00    -0.303 OA
ENDBRANCH   6   7
ENDBRANCH   5   6
ENDBRANCH   1   5
TORSDOF 5
ENDMDL
MODEL 5
REMARK VINA RESULT:    -2.502      1.184      1.959
REMARK INTER + INTRA:          -3.430
REMARK INTER:                  -3.309
REMARK INTRA:                  -0.121
REMARK UNBOUND:                -0.197
REMARK SMILES CCCCCCC=O
REMARK SMILES IDX 4 1 3 2 2 3 1 4 5 5 6 6 7 7 8 8
REMARK H PARENT
REMARK Flexibility Score: inf
ROOT
ATOM      1  C   UNL     1      -8.239  21.556  12.561  1.00  0.00     0.000 C 
ENDROOT
BRANCH   1   2
ATOM      2  C   UNL     1      -8.724  20.539  13.614  1.00  0.00    -0.000 C 
BRANCH   2   3
ATOM      3  C   UNL     1      -9.423  21.155  14.839  1.00  0.00    -0.003 C 
ATOM      4  C   UNL     1      -8.752  22.439  15.325  1.00  0.00     0.004 C 
ENDBRANCH   2   3
ENDBRANCH   1   2
BRANCH   1   5
ATOM      5  C   UNL     1      -6.726  21.529  12.278  1.00  0.00     0.008 C 
BRANCH   5   6
ATOM      6  C   UNL     1      -6.355  22.221  10.960  1.00  0.00     0.072 C 
BRANCH   6   7
ATOM      7  C   UNL     1      -5.425  23.371  11.204  1.00  0.00     0.224 C 
ATOM      8  O   UNL     1      -4.215  23.214  11.146  1.00  0.00    -0.303 OA
ENDBRANCH   6   7
ENDBRANCH   5   6
ENDBRANCH   1   5
TORSDOF 5
ENDMDL
MODEL 6
REMARK VINA RESULT:    -2.487      1.578      2.834
REMARK INTER + INTRA:          -3.411
REMARK INTER:                  -3.310
REMARK INTRA:                  -0.101
REMARK UNBOUND:                -0.197
REMARK SMILES CCCCCCC=O
REMARK SMILES IDX 4 1 3 2 2 3 1 4 5 5 6 6 7 7 8 8
REMARK H PARENT
REMARK Flexibility Score: inf
ROOT
ATOM      1  C   UNL     1      -6.463  22.172  10.694  1.00  0.00     0.000 C 
ENDROOT
BRANCH   1   2
ATOM      2  C   UNL     1      -6.447  21.779  12.184  1.00  0.00    -0.000 C 
BRANCH   2   3
ATOM      3  C   UNL     1      -7.800  21.910  12.906  1.00  0.00    -0.003 C 
ATOM      4  C   UNL     1      -8.428  20.558  13.243  1.00  0.00     0.004 C 
ENDBRANCH   2   3
ENDBRANCH   1   2
BRANCH   1   5
ATOM      5  C   UNL     1      -5.778  23.511  10.365  1.00  0.00     0.008 C 
BRANCH   5   6
ATOM      6  C   UNL     1      -4.361  23.613  10.946  1.00  0.00     0.072 C 
BRANCH   6   7
ATOM      7  C   UNL     1      -3.360  23.888   9.864  1.00  0.00     0.224 C 
ATOM      8  O   UNL     1      -2.381  24.584  10.088  1.00  0.00    -0.303 OA
ENDBRANCH   6   7
ENDBRANCH   5   6
ENDBRANCH   1   5
TORSDOF 5
ENDMDL
MODEL 7
REMARK VINA RESULT:    -2.454      2.859      4.656
REMARK INTER + INTRA:          -3.368
REMARK INTER:                  -3.242
REMARK INTRA:                  -0.126
REMARK UNBOUND:                -0.197
REMARK SMILES CCCCCCC=O
REMARK SMILES IDX 4 1 3 2 2 3 1 4 5 5 6 6 7 7 8 8
REMARK H PARENT
REMARK Flexibility Score: inf
ROOT
ATOM      1  C   UNL     1      -5.874  22.995  10.225  1.00  0.00     0.000 C 
ENDROOT
BRANCH   1   2
ATOM      2  C   UNL     1      -5.882  23.143   8.690  1.00  0.00    -0.000 C 
BRANCH   2   3
ATOM      3  C   UNL     1      -6.724  22.096   7.940  1.00  0.00    -0.003 C 
ATOM      4  C   UNL     1      -6.130  21.714   6.584  1.00  0.00     0.004 C 
ENDBRANCH   2   3
ENDBRANCH   1   2
BRANCH   1   5
ATOM      5  C   UNL     1      -6.860  21.954  10.784  1.00  0.00     0.008 C 
BRANCH   5   6
ATOM      6  C   UNL     1      -6.659  21.688  12.282  1.00  0.00     0.072 C 
BRANCH   6   7
ATOM      7  C   UNL     1      -7.958  21.325  12.938  1.00  0.00     0.224 C 
ATOM      8  O   UNL     1      -8.131  20.204  13.390  1.00  0.00    -0.303 OA
ENDBRANCH   6   7
ENDBRANCH   5   6
ENDBRANCH   1   5
TORSDOF 5
ENDMDL
MODEL 8
REMARK VINA RESULT:    -2.370      1.989      2.442
REMARK INTER + INTRA:          -3.260
REMARK INTER:                  -2.985
REMARK INTRA:                  -0.275
REMARK UNBOUND:                -0.197
REMARK SMILES CCCCCCC=O
REMARK SMILES IDX 4 1 3 2 2 3 1 4 5 5 6 6 7 7 8 8
REMARK H PARENT
REMARK Flexibility Score: inf
ROOT
ATOM      1  C   UNL     1      -6.630  21.439  12.311  1.00  0.00     0.000 C 
ENDROOT
BRANCH   1   2
ATOM      2  C   UNL     1      -7.959  21.633  13.069  1.00  0.00    -0.000 C 
BRANCH   2   3
ATOM      3  C   UNL     1      -8.747  20.340  13.341  1.00  0.00    -0.003 C 
ATOM      4  C   UNL     1      -9.918  20.143  12.378  1.00  0.00     0.004 C 
ENDBRANCH   2   3
ENDBRANCH   1   2
BRANCH   1   5
ATOM      5  C   UNL     1      -6.315  22.519  11.261  1.00  0.00     0.008 C 
BRANCH   5   6
ATOM      6  C   UNL     1      -6.723  22.105   9.840  1.00  0.00     0.072 C 
BRANCH   6   7
ATOM      7  C   UNL     1      -7.990  22.792   9.427  1.00  0.00     0.224 C 
ATOM      8  O   UNL     1      -9.076  22.325   9.733  1.00  0.00    -0.303 OA
ENDBRANCH   6   7
ENDBRANCH   5   6
ENDBRANCH   1   5
TORSDOF 5
ENDMDL
MODEL 9
REMARK VINA RESULT:    -2.350      3.304      4.317
REMARK INTER + INTRA:          -3.235
REMARK INTER:                  -3.093
REMARK INTRA:                  -0.141
REMARK UNBOUND:                -0.197
REMARK SMILES CCCCCCC=O
REMARK SMILES IDX 4 1 3 2 2 3 1 4 5 5 6 6 7 7 8 8
REMARK H PARENT
REMARK Flexibility Score: inf
ROOT
ATOM      1  C   UNL     1      -8.568  21.513  14.273  1.00  0.00     0.000 C 
ENDROOT
BRANCH   1   2
ATOM      2  C   UNL     1      -8.151  21.010  12.876  1.00  0.00    -0.000 C 
BRANCH   2   3
ATOM      3  C   UNL     1      -6.735  21.420  12.434  1.00  0.00    -0.003 C 
ATOM      4  C   UNL     1      -6.700  22.012  11.025  1.00  0.00     0.004 C 
ENDBRANCH   2   3
ENDBRANCH   1   2
BRANCH   1   5
ATOM      5  C   UNL     1      -8.111  22.943  14.614  1.00  0.00     0.008 C 
BRANCH   5   6
ATOM      6  C   UNL     1      -8.177  23.247  16.116  1.00  0.00     0.072 C 
BRANCH   6   7
ATOM      7  C   UNL     1      -7.620  24.607  16.411  1.00  0.00     0.224 C 
ATOM      8  O   UNL     1      -6.614  24.731  17.092  1.00  0.00    -0.303 OA
ENDBRANCH   6   7
ENDBRANCH   5   6
ENDBRANCH   1   5
TORSDOF 5
ENDMDL
