MODEL 1
REMARK VINA RESULT:    -7.371      0.000      0.000
REMARK INTER + INTRA:          -9.142
REMARK INTER:                  -8.449
REMARK INTRA:                  -0.694
REMARK UNBOUND:                -0.694
REMARK SMILES C=C(C)[C@H]1CC[C@]2(C(=O)[O-])CC[C@@]3(C)[C@H](CC[C@@H]4[C@@]5(C)CC[C@@H](O)C(C)(C)[C@H]5CC[C@]43C)[C@H]12
REMARK SMILES IDX 7 1 6 2 33 3 11 4 5 5 15 6 4 7 12 8 16 9 13 10 17 11 31 12
REMARK SMILES IDX 14 13 18 14 30 15 32 16 19 17 29 18 21 19 20 20 28 21 22 22
REMARK SMILES IDX 25 23 23 24 26 25 27 26 8 27 9 28 10 29 2 30 3 31 1 32 24 33
REMARK H PARENT 24 34
REMARK Flexibility Score: inf
ROOT
ATOM      1  C   UNL     1     106.055  98.693  96.260  1.00  0.00     0.014 C 
ATOM      2  C   UNL     1     106.633  98.865  94.835  1.00  0.00     0.014 C 
ATOM      3  C   UNL     1     105.514 100.102  96.670  1.00  0.00     0.012 C 
ATOM      4  C   UNL     1     104.934  97.619  96.223  1.00  0.00     0.014 C 
ATOM      5  C   UNL     1     106.161 100.223  94.341  1.00  0.00     0.009 C 
ATOM      6  C   UNL     1     103.967 100.162  96.970  1.00  0.00     0.000 C 
ATOM      7  C   UNL     1     106.002 101.091  95.585  1.00  0.00     0.018 C 
ATOM      8  C   UNL     1     104.000  97.608  97.442  1.00  0.00     0.008 C 
ATOM      9  C   UNL     1     103.044 100.251  95.706  1.00  0.00     0.005 C 
ATOM     10  C   UNL     1     103.542  99.022  97.990  1.00  0.00    -0.024 C 
ATOM     11  C   UNL     1     101.560 100.311  96.072  1.00  0.00     0.005 C 
ATOM     12  C   UNL     1     101.946  99.058  98.268  1.00  0.00    -0.024 C 
ATOM     13  C   UNL     1     104.307  99.263  99.344  1.00  0.00     0.012 C 
ATOM     14  C   UNL     1     101.165  99.056  96.889  1.00  0.00     0.002 C 
ATOM     15  C   UNL     1     101.522  97.795  99.123  1.00  0.00     0.008 C 
ATOM     16  C   UNL     1     101.600 100.359  99.098  1.00  0.00     0.012 C 
ATOM     17  C   UNL     1      99.602  98.697  96.920  1.00  0.00    -0.026 C 
ATOM     18  C   UNL     1     100.555  96.831  98.443  1.00  0.00     0.005 C 
ATOM     19  C   UNL     1      99.183  98.209  95.478  1.00  0.00     0.010 C 
ATOM     20  C   UNL     1      98.733  99.955  97.239  1.00  0.00     0.012 C 
ATOM     21  C   UNL     1      99.269  97.566  98.006  1.00  0.00     0.003 C 
ATOM     22  C   UNL     1      99.347  96.702  95.277  1.00  0.00     0.033 C 
ATOM     23  C   UNL     1      98.112  96.556  97.601  1.00  0.00    -0.006 C 
ATOM     24  C   UNL     1      98.421  95.861  96.218  1.00  0.00     0.120 C 
ATOM     25  C   UNL     1      97.882  95.489  98.719  1.00  0.00     0.014 C 
ATOM     26  C   UNL     1      96.754  97.321  97.518  1.00  0.00     0.014 C 
ENDROOT
BRANCH   1  27
ATOM     27  C   UNL     1     107.175  98.260  97.202  1.00  0.00     0.048 C 
ATOM     28  O   UNL     1     107.698  97.118  97.136  1.00  0.00    -0.550 OA
ATOM     29  O   UNL     1     107.622  99.137  98.192  1.00  0.00    -0.550 OA
ENDBRANCH   1  27
BRANCH   7  30
ATOM     30  C   UNL     1     107.281 101.827  96.054  1.00  0.00    -0.077 C 
ATOM     31  C   UNL     1     107.249 102.533  97.395  1.00  0.00     0.039 C 
ATOM     32  C   UNL     1     108.375 101.973  95.305  1.00  0.00     0.008 C 
ENDBRANCH   7  30
BRANCH  24  33
ATOM     33  O   UNL     1      98.929  94.550  96.401  1.00  0.00    -0.393 OA
ATOM     34  H   UNL     1      98.422  93.896  95.854  1.00  0.00     0.210 HD
ENDBRANCH  24  33
TORSDOF 3
ENDMDL
MODEL 2
REMARK VINA RESULT:    -6.819      1.620      7.971
REMARK INTER + INTRA:          -8.510
REMARK INTER:                  -7.868
REMARK INTRA:                  -0.642
REMARK UNBOUND:                -0.694
REMARK SMILES C=C(C)[C@H]1CC[C@]2(C(=O)[O-])CC[C@@]3(C)[C@H](CC[C@@H]4[C@@]5(C)CC[C@@H](O)C(C)(C)[C@H]5CC[C@]43C)[C@H]12
REMARK SMILES IDX 7 1 6 2 33 3 11 4 5 5 15 6 4 7 12 8 16 9 13 10 17 11 31 12
REMARK SMILES IDX 14 13 18 14 30 15 32 16 19 17 29 18 21 19 20 20 28 21 22 22
REMARK SMILES IDX 25 23 23 24 26 25 27 26 8 27 9 28 10 29 2 30 3 31 1 32 24 33
REMARK H PARENT 24 34
REMARK Flexibility Score: inf
ROOT
ATOM      1  C   UNL     1      98.787  96.715  96.391  1.00  0.00     0.014 C 
ATOM      2  C   UNL     1      98.533  95.189  96.420  1.00  0.00     0.014 C 
ATOM      3  C   UNL     1      98.893  97.154  97.889  1.00  0.00     0.012 C 
ATOM      4  C   UNL     1     100.095  96.993  95.601  1.00  0.00     0.014 C 
ATOM      5  C   UNL     1      98.795  94.736  97.847  1.00  0.00     0.009 C 
ATOM      6  C   UNL     1     100.275  97.790  98.303  1.00  0.00     0.000 C 
ATOM      7  C   UNL     1      98.464  95.931  98.735  1.00  0.00     0.018 C 
ATOM      8  C   UNL     1     100.699  98.390  95.811  1.00  0.00     0.008 C 
ATOM      9  C   UNL     1     101.423  96.764  98.593  1.00  0.00     0.005 C 
ATOM     10  C   UNL     1     100.693  98.944  97.295  1.00  0.00    -0.024 C 
ATOM     11  C   UNL     1     102.731  97.450  98.993  1.00  0.00     0.005 C 
ATOM     12  C   UNL     1     102.132  99.572  97.695  1.00  0.00    -0.024 C 
ATOM     13  C   UNL     1      99.601 100.074  97.361  1.00  0.00     0.012 C 
ATOM     14  C   UNL     1     103.193  98.406  97.865  1.00  0.00     0.002 C 
ATOM     15  C   UNL     1     102.614 100.572  96.567  1.00  0.00     0.008 C 
ATOM     16  C   UNL     1     101.980 100.381  99.045  1.00  0.00     0.012 C 
ATOM     17  C   UNL     1     104.745  98.809  97.872  1.00  0.00    -0.026 C 
ATOM     18  C   UNL     1     103.901 100.184  95.847  1.00  0.00     0.005 C 
ATOM     19  C   UNL     1     105.585  97.529  97.486  1.00  0.00     0.010 C 
ATOM     20  C   UNL     1     105.216  99.242  99.298  1.00  0.00     0.012 C 
ATOM     21  C   UNL     1     105.059 100.005  96.853  1.00  0.00     0.003 C 
ATOM     22  C   UNL     1     105.809  97.384  95.980  1.00  0.00     0.033 C 
ATOM     23  C   UNL     1     106.472  99.931  96.132  1.00  0.00    -0.006 C 
ATOM     24  C   UNL     1     106.654  98.556  95.378  1.00  0.00     0.120 C 
ATOM     25  C   UNL     1     106.665 101.131  95.151  1.00  0.00     0.014 C 
ATOM     26  C   UNL     1     107.608 100.111  97.186  1.00  0.00     0.014 C 
ENDROOT
BRANCH   1  27
ATOM     27  C   UNL     1      97.603  97.404  95.719  1.00  0.00     0.048 C 
ATOM     28  O   UNL     1      97.172  97.042  94.595  1.00  0.00    -0.550 OA
ATOM     29  O   UNL     1      96.990  98.491  96.345  1.00  0.00    -0.550 OA
ENDBRANCH   1  27
BRANCH   7  30
ATOM     30  C   UNL     1      96.982  96.057  99.161  1.00  0.00    -0.077 C 
ATOM     31  C   UNL     1      96.476  97.417  99.600  1.00  0.00     0.039 C 
ATOM     32  C   UNL     1      96.147  95.023  99.273  1.00  0.00     0.008 C 
ENDBRANCH   7  30
BRANCH  24  33
ATOM     33  O   UNL     1     106.420  98.695  93.986  1.00  0.00    -0.393 OA
ATOM     34  H   UNL     1     105.590  98.221  93.720  1.00  0.00     0.210 HD
ENDBRANCH  24  33
TORSDOF 3
ENDMDL
MODEL 3
REMARK VINA RESULT:    -6.708      1.812      2.754
REMARK INTER + INTRA:          -8.383
REMARK INTER:                  -7.966
REMARK INTRA:                  -0.417
REMARK UNBOUND:                -0.694
REMARK SMILES C=C(C)[C@H]1CC[C@]2(C(=O)[O-])CC[C@@]3(C)[C@H](CC[C@@H]4[C@@]5(C)CC[C@@H](O)C(C)(C)[C@H]5CC[C@]43C)[C@H]12
REMARK SMILES IDX 7 1 6 2 33 3 11 4 5 5 15 6 4 7 12 8 16 9 13 10 17 11 31 12
REMARK SMILES IDX 14 13 18 14 30 15 32 16 19 17 29 18 21 19 20 20 28 21 22 22
REMARK SMILES IDX 25 23 23 24 26 25 27 26 8 27 9 28 10 29 2 30 3 31 1 32 24 33
REMARK H PARENT 24 34
REMARK Flexibility Score: inf
ROOT
ATOM      1  C   UNL     1     105.192  99.351  95.837  1.00  0.00     0.014 C 
ATOM      2  C   UNL     1     105.663 100.758  95.400  1.00  0.00     0.014 C 
ATOM      3  C   UNL     1     105.500  99.260  97.369  1.00  0.00     0.012 C 
ATOM      4  C   UNL     1     103.676  99.209  95.532  1.00  0.00     0.014 C 
ATOM      5  C   UNL     1     105.934 101.538  96.675  1.00  0.00     0.009 C 
ATOM      6  C   UNL     1     104.242  99.038  98.292  1.00  0.00     0.000 C 
ATOM      7  C   UNL     1     106.349 100.505  97.720  1.00  0.00     0.018 C 
ATOM      8  C   UNL     1     102.970  98.051  96.252  1.00  0.00     0.008 C 
ATOM      9  C   UNL     1     103.407 100.326  98.606  1.00  0.00     0.005 C 
ATOM     10  C   UNL     1     103.363  97.822  97.770  1.00  0.00    -0.024 C 
ATOM     11  C   UNL     1     102.207 100.037  99.509  1.00  0.00     0.005 C 
ATOM     12  C   UNL     1     102.048  97.618  98.694  1.00  0.00    -0.024 C 
ATOM     13  C   UNL     1     104.242  96.518  97.829  1.00  0.00     0.012 C 
ATOM     14  C   UNL     1     101.277  98.995  98.837  1.00  0.00     0.002 C 
ATOM     15  C   UNL     1     101.093  96.538  98.039  1.00  0.00     0.008 C 
ATOM     16  C   UNL     1     102.497  97.086 100.114  1.00  0.00     0.012 C 
ATOM     17  C   UNL     1      99.766  98.951  99.370  1.00  0.00    -0.026 C 
ATOM     18  C   UNL     1      99.716  97.042  97.620  1.00  0.00     0.005 C 
ATOM     19  C   UNL     1      99.044 100.277  98.907  1.00  0.00     0.010 C 
ATOM     20  C   UNL     1      99.710  98.930 100.931  1.00  0.00     0.012 C 
ATOM     21  C   UNL     1      98.975  97.669  98.820  1.00  0.00     0.003 C 
ATOM     22  C   UNL     1      98.380 100.158  97.535  1.00  0.00     0.033 C 
ATOM     23  C   UNL     1      97.433  97.902  98.516  1.00  0.00    -0.006 C 
ATOM     24  C   UNL     1      97.226  99.100  97.509  1.00  0.00     0.120 C 
ATOM     25  C   UNL     1      96.767  96.598  97.970  1.00  0.00     0.014 C 
ATOM     26  C   UNL     1      96.674  98.191  99.848  1.00  0.00     0.014 C 
ENDROOT
BRANCH   1  27
ATOM     27  C   UNL     1     105.988  98.298  95.072  1.00  0.00     0.048 C 
ATOM     28  O   UNL     1     107.172  98.500  94.699  1.00  0.00    -0.550 OA
ATOM     29  O   UNL     1     105.388  97.081  94.743  1.00  0.00    -0.550 OA
ENDBRANCH   1  27
BRANCH   7  30
ATOM     30  C   UNL     1     107.855 100.149  97.745  1.00  0.00    -0.077 C 
ATOM     31  C   UNL     1     108.849 101.209  97.318  1.00  0.00     0.039 C 
ATOM     32  C   UNL     1     108.328  98.931  98.014  1.00  0.00     0.008 C 
ENDBRANCH   7  30
BRANCH  24  33
ATOM     33  O   UNL     1      96.987  98.633  96.192  1.00  0.00    -0.393 OA
ATOM     34  H   UNL     1      97.280  99.304  95.522  1.00  0.00     0.210 HD
ENDBRANCH  24  33
TORSDOF 3
ENDMDL
MODEL 4
REMARK VINA RESULT:    -6.680      3.898      8.872
REMARK INTER + INTRA:          -8.350
REMARK INTER:                  -7.877
REMARK INTRA:                  -0.473
REMARK UNBOUND:                -0.694
REMARK SMILES C=C(C)[C@H]1CC[C@]2(C(=O)[O-])CC[C@@]3(C)[C@H](CC[C@@H]4[C@@]5(C)CC[C@@H](O)C(C)(C)[C@H]5CC[C@]43C)[C@H]12
REMARK SMILES IDX 7 1 6 2 33 3 11 4 5 5 15 6 4 7 12 8 16 9 13 10 17 11 31 12
REMARK SMILES IDX 14 13 18 14 30 15 32 16 19 17 29 18 21 19 20 20 28 21 22 22
REMARK SMILES IDX 25 23 23 24 26 25 27 26 8 27 9 28 10 29 2 30 3 31 1 32 24 33
REMARK H PARENT 24 34
REMARK Flexibility Score: inf
ROOT
ATOM      1  C   UNL     1     105.802  97.945  96.458  1.00  0.00     0.014 C 
ATOM      2  C   UNL     1     104.612  97.030  96.833  1.00  0.00     0.014 C 
ATOM      3  C   UNL     1     105.366  99.392  96.865  1.00  0.00     0.012 C 
ATOM      4  C   UNL     1     107.065  97.472  97.229  1.00  0.00     0.014 C 
ATOM      5  C   UNL     1     103.680  97.866  97.693  1.00  0.00     0.009 C 
ATOM      6  C   UNL     1     106.277 100.084  97.950  1.00  0.00     0.000 C 
ATOM      7  C   UNL     1     103.866  99.310  97.235  1.00  0.00     0.018 C 
ATOM      8  C   UNL     1     108.215  98.487  97.285  1.00  0.00     0.008 C 
ATOM      9  C   UNL     1     105.994  99.657  99.431  1.00  0.00     0.005 C 
ATOM     10  C   UNL     1     107.810  99.997  97.544  1.00  0.00    -0.024 C 
ATOM     11  C   UNL     1     106.908 100.370 100.428  1.00  0.00     0.005 C 
ATOM     12  C   UNL     1     108.749 100.672  98.678  1.00  0.00    -0.024 C 
ATOM     13  C   UNL     1     108.004 100.768  96.187  1.00  0.00     0.012 C 
ATOM     14  C   UNL     1     108.391 100.066 100.098  1.00  0.00     0.002 C 
ATOM     15  C   UNL     1     110.273 100.395  98.349  1.00  0.00     0.008 C 
ATOM     16  C   UNL     1     108.517 102.236  98.671  1.00  0.00     0.012 C 
ATOM     17  C   UNL     1     109.440 100.291 101.290  1.00  0.00    -0.026 C 
ATOM     18  C   UNL     1     111.031  99.564  99.379  1.00  0.00     0.005 C 
ATOM     19  C   UNL     1     109.186  99.180 102.383  1.00  0.00     0.010 C 
ATOM     20  C   UNL     1     109.221 101.670 101.991  1.00  0.00     0.012 C 
ATOM     21  C   UNL     1     110.956 100.223 100.774  1.00  0.00     0.003 C 
ATOM     22  C   UNL     1     109.993  97.903 102.148  1.00  0.00     0.033 C 
ATOM     23  C   UNL     1     111.993  99.584 101.793  1.00  0.00    -0.006 C 
ATOM     24  C   UNL     1     111.538  98.138 102.235  1.00  0.00     0.120 C 
ATOM     25  C   UNL     1     113.431  99.551 101.185  1.00  0.00     0.014 C 
ATOM     26  C   UNL     1     112.129 100.502 103.047  1.00  0.00     0.014 C 
ENDROOT
BRANCH   1  27
ATOM     27  C   UNL     1     106.038  97.865  94.953  1.00  0.00     0.048 C 
ATOM     28  O   UNL     1     106.525  98.824  94.303  1.00  0.00    -0.550 OA
ATOM     29  O   UNL     1     105.679  96.708  94.258  1.00  0.00    -0.550 OA
ENDBRANCH   1  27
BRANCH   7  30
ATOM     30  C   UNL     1     102.986  99.751  96.040  1.00  0.00    -0.077 C 
ATOM     31  C   UNL     1     101.542  99.291  96.006  1.00  0.00     0.039 C 
ATOM     32  C   UNL     1     103.446 100.418  94.981  1.00  0.00     0.008 C 
ENDBRANCH   7  30
BRANCH  24  33
ATOM     33  O   UNL     1     112.250  97.135 101.531  1.00  0.00    -0.393 OA
ATOM     34  H   UNL     1     113.185  97.419 101.362  1.00  0.00     0.210 HD
ENDBRANCH  24  33
TORSDOF 3
ENDMDL
MODEL 5
REMARK VINA RESULT:    -6.459      3.512      8.617
REMARK INTER + INTRA:          -8.097
REMARK INTER:                  -7.496
REMARK INTRA:                  -0.600
REMARK UNBOUND:                -0.694
REMARK SMILES C=C(C)[C@H]1CC[C@]2(C(=O)[O-])CC[C@@]3(C)[C@H](CC[C@@H]4[C@@]5(C)CC[C@@H](O)C(C)(C)[C@H]5CC[C@]43C)[C@H]12
REMARK SMILES IDX 7 1 6 2 33 3 11 4 5 5 15 6 4 7 12 8 16 9 13 10 17 11 31 12
REMARK SMILES IDX 14 13 18 14 30 15 32 16 19 17 29 18 21 19 20 20 28 21 22 22
REMARK SMILES IDX 25 23 23 24 26 25 27 26 8 27 9 28 10 29 2 30 3 31 1 32 24 33
REMARK H PARENT 24 34
REMARK Flexibility Score: inf
ROOT
ATOM      1  C   UNL     1     104.479  98.282  96.816  1.00  0.00     0.014 C 
ATOM      2  C   UNL     1     103.364  97.381  97.399  1.00  0.00     0.014 C 
ATOM      3  C   UNL     1     104.169  99.726  97.335  1.00  0.00     0.012 C 
ATOM      4  C   UNL     1     105.857  97.762  97.309  1.00  0.00     0.014 C 
ATOM      5  C   UNL     1     102.643  98.212  98.447  1.00  0.00     0.009 C 
ATOM      6  C   UNL     1     105.294 100.369  98.233  1.00  0.00     0.000 C 
ATOM      7  C   UNL     1     102.771  99.664  97.994  1.00  0.00     0.018 C 
ATOM      8  C   UNL     1     107.021  98.753  97.157  1.00  0.00     0.008 C 
ATOM      9  C   UNL     1     105.301  99.906  99.730  1.00  0.00     0.005 C 
ATOM     10  C   UNL     1     106.713 100.262  97.528  1.00  0.00    -0.024 C 
ATOM     11  C   UNL     1     106.413 100.573 100.541  1.00  0.00     0.005 C 
ATOM     12  C   UNL     1     107.877 100.886  98.467  1.00  0.00    -0.024 C 
ATOM     13  C   UNL     1     106.654 101.067  96.177  1.00  0.00     0.012 C 
ATOM     14  C   UNL     1     107.793 100.248  99.915  1.00  0.00     0.002 C 
ATOM     15  C   UNL     1     109.297 100.587  97.834  1.00  0.00     0.008 C 
ATOM     16  C   UNL     1     107.687 102.454  98.543  1.00  0.00     0.012 C 
ATOM     17  C   UNL     1     109.063 100.419 100.879  1.00  0.00    -0.026 C 
ATOM     18  C   UNL     1     110.223  99.713  98.673  1.00  0.00     0.005 C 
ATOM     19  C   UNL     1     109.003  99.283 101.975  1.00  0.00     0.010 C 
ATOM     20  C   UNL     1     109.022 101.782 101.641  1.00  0.00     0.012 C 
ATOM     21  C   UNL     1     110.444 100.335 100.070  1.00  0.00     0.003 C 
ATOM     22  C   UNL     1     109.714  97.997 101.553  1.00  0.00     0.033 C 
ATOM     23  C   UNL     1     111.646  99.646 100.847  1.00  0.00    -0.006 C 
ATOM     24  C   UNL     1     111.252  98.198 101.336  1.00  0.00     0.120 C 
ATOM     25  C   UNL     1     112.933  99.601  99.963  1.00  0.00     0.014 C 
ATOM     26  C   UNL     1     112.052 100.526 102.069  1.00  0.00     0.014 C 
ENDROOT
BRANCH   1  27
ATOM     27  C   UNL     1     104.409  98.239  95.293  1.00  0.00     0.048 C 
ATOM     28  O   UNL     1     103.629  98.980  94.640  1.00  0.00    -0.550 OA
ATOM     29  O   UNL     1     105.207  97.335  94.589  1.00  0.00    -0.550 OA
ENDBRANCH   1  27
BRANCH   7  30
ATOM     30  C   UNL     1     101.683 100.156  97.010  1.00  0.00    -0.077 C 
ATOM     31  C   UNL     1     101.891 101.488  96.319  1.00  0.00     0.039 C 
ATOM     32  C   UNL     1     100.519  99.534  96.814  1.00  0.00     0.008 C 
ENDBRANCH   7  30
BRANCH  24  33
ATOM     33  O   UNL     1     111.784  97.201 100.481  1.00  0.00    -0.393 OA
ATOM     34  H   UNL     1     112.044  96.395 100.998  1.00  0.00     0.210 HD
ENDBRANCH  24  33
TORSDOF 3
ENDMDL
MODEL 6
REMARK VINA RESULT:    -6.448      3.184      9.332
REMARK INTER + INTRA:          -8.084
REMARK INTER:                  -7.406
REMARK INTRA:                  -0.678
REMARK UNBOUND:                -0.694
REMARK SMILES C=C(C)[C@H]1CC[C@]2(C(=O)[O-])CC[C@@]3(C)[C@H](CC[C@@H]4[C@@]5(C)CC[C@@H](O)C(C)(C)[C@H]5CC[C@]43C)[C@H]12
REMARK SMILES IDX 7 1 6 2 33 3 11 4 5 5 15 6 4 7 12 8 16 9 13 10 17 11 31 12
REMARK SMILES IDX 14 13 18 14 30 15 32 16 19 17 29 18 21 19 20 20 28 21 22 22
REMARK SMILES IDX 25 23 23 24 26 25 27 26 8 27 9 28 10 29 2 30 3 31 1 32 24 33
REMARK H PARENT 24 34
REMARK Flexibility Score: inf
ROOT
ATOM      1  C   UNL     1     104.812  99.401  95.861  1.00  0.00     0.014 C 
ATOM      2  C   UNL     1     104.835  97.897  95.498  1.00  0.00     0.014 C 
ATOM      3  C   UNL     1     104.807  99.458  97.425  1.00  0.00     0.012 C 
ATOM      4  C   UNL     1     106.065 100.086  95.250  1.00  0.00     0.014 C 
ATOM      5  C   UNL     1     105.143  97.148  96.784  1.00  0.00     0.009 C 
ATOM      6  C   UNL     1     106.044 100.192  98.070  1.00  0.00     0.000 C 
ATOM      7  C   UNL     1     104.586  98.007  97.915  1.00  0.00     0.018 C 
ATOM      8  C   UNL     1     106.405 101.465  95.834  1.00  0.00     0.008 C 
ATOM      9  C   UNL     1     107.351  99.334  98.174  1.00  0.00     0.005 C 
ATOM     10  C   UNL     1     106.269 101.617  97.406  1.00  0.00    -0.024 C 
ATOM     11  C   UNL     1     108.506 100.106  98.814  1.00  0.00     0.005 C 
ATOM     12  C   UNL     1     107.564 102.355  98.040  1.00  0.00    -0.024 C 
ATOM     13  C   UNL     1     104.991 102.493  97.676  1.00  0.00     0.012 C 
ATOM     14  C   UNL     1     108.813 101.380  97.987  1.00  0.00     0.002 C 
ATOM     15  C   UNL     1     107.883 103.675  97.226  1.00  0.00     0.008 C 
ATOM     16  C   UNL     1     107.242 102.759  99.534  1.00  0.00     0.012 C 
ATOM     17  C   UNL     1     110.267 102.023  98.194  1.00  0.00    -0.026 C 
ATOM     18  C   UNL     1     109.233 103.703  96.517  1.00  0.00     0.005 C 
ATOM     19  C   UNL     1     111.331 101.042  97.561  1.00  0.00     0.010 C 
ATOM     20  C   UNL     1     110.624 102.154  99.710  1.00  0.00     0.012 C 
ATOM     21  C   UNL     1     110.382 103.473  97.522  1.00  0.00     0.003 C 
ATOM     22  C   UNL     1     111.608 101.322  96.084  1.00  0.00     0.033 C 
ATOM     23  C   UNL     1     111.801 103.822  96.898  1.00  0.00    -0.006 C 
ATOM     24  C   UNL     1     112.242 102.733  95.843  1.00  0.00     0.120 C 
ATOM     25  C   UNL     1     111.797 105.246  96.256  1.00  0.00     0.014 C 
ATOM     26  C   UNL     1     112.864 103.918  98.036  1.00  0.00     0.014 C 
ENDROOT
BRANCH   1  27
ATOM     27  C   UNL     1     103.538 100.029  95.303  1.00  0.00     0.048 C 
ATOM     28  O   UNL     1     103.311 100.090  94.068  1.00  0.00    -0.550 OA
ATOM     29  O   UNL     1     102.601 100.583  96.177  1.00  0.00    -0.550 OA
ENDBRANCH   1  27
BRANCH   7  30
ATOM     30  C   UNL     1     103.096  97.771  98.262  1.00  0.00    -0.077 C 
ATOM     31  C   UNL     1     102.359  98.852  99.027  1.00  0.00     0.039 C 
ATOM     32  C   UNL     1     102.448  96.629  98.028  1.00  0.00     0.008 C 
ENDBRANCH   7  30
BRANCH  24  33
ATOM     33  O   UNL     1     112.015 103.178  94.516  1.00  0.00    -0.393 OA
ATOM     34  H   UNL     1     112.714 102.831  93.904  1.00  0.00     0.210 HD
ENDBRANCH  24  33
TORSDOF 3
ENDMDL
MODEL 7
REMARK VINA RESULT:    -6.362      3.183      5.496
REMARK INTER + INTRA:          -7.986
REMARK INTER:                  -7.254
REMARK INTRA:                  -0.732
REMARK UNBOUND:                -0.694
REMARK SMILES C=C(C)[C@H]1CC[C@]2(C(=O)[O-])CC[C@@]3(C)[C@H](CC[C@@H]4[C@@]5(C)CC[C@@H](O)C(C)(C)[C@H]5CC[C@]43C)[C@H]12
REMARK SMILES IDX 7 1 6 2 33 3 11 4 5 5 15 6 4 7 12 8 16 9 13 10 17 11 31 12
REMARK SMILES IDX 14 13 18 14 30 15 32 16 19 17 29 18 21 19 20 20 28 21 22 22
REMARK SMILES IDX 25 23 23 24 26 25 27 26 8 27 9 28 10 29 2 30 3 31 1 32 24 33
REMARK H PARENT 24 34
REMARK Flexibility Score: inf
ROOT
ATOM      1  C   UNL     1     109.299 100.734 100.223  1.00  0.00     0.014 C 
ATOM      2  C   UNL     1     110.166  99.738 101.029  1.00  0.00     0.014 C 
ATOM      3  C   UNL     1     109.709 100.536  98.726  1.00  0.00     0.012 C 
ATOM      4  C   UNL     1     107.800 100.413 100.471  1.00  0.00     0.014 C 
ATOM      5  C   UNL     1     110.805  98.805 100.014  1.00  0.00     0.009 C 
ATOM      6  C   UNL     1     108.546 100.066  97.771  1.00  0.00     0.000 C 
ATOM      7  C   UNL     1     110.954  99.617  98.731  1.00  0.00     0.018 C 
ATOM      8  C   UNL     1     106.823 101.032  99.460  1.00  0.00     0.008 C 
ATOM      9  C   UNL     1     108.223  98.534  97.814  1.00  0.00     0.005 C 
ATOM     10  C   UNL     1     107.266 100.992  97.939  1.00  0.00    -0.024 C 
ATOM     11  C   UNL     1     107.090  98.150  96.861  1.00  0.00     0.005 C 
ATOM     12  C   UNL     1     106.055 100.485  96.987  1.00  0.00    -0.024 C 
ATOM     13  C   UNL     1     107.662 102.459  97.533  1.00  0.00     0.012 C 
ATOM     14  C   UNL     1     105.805  98.938  97.220  1.00  0.00     0.002 C 
ATOM     15  C   UNL     1     104.736 101.295  97.320  1.00  0.00     0.008 C 
ATOM     16  C   UNL     1     106.440 100.762  95.479  1.00  0.00     0.012 C 
ATOM     17  C   UNL     1     104.425  98.319  96.688  1.00  0.00    -0.026 C 
ATOM     18  C   UNL     1     103.571 100.468  97.854  1.00  0.00     0.005 C 
ATOM     19  C   UNL     1     104.144  96.988  97.491  1.00  0.00     0.010 C 
ATOM     20  C   UNL     1     104.520  97.923  95.180  1.00  0.00     0.012 C 
ATOM     21  C   UNL     1     103.203  99.340  96.865  1.00  0.00     0.003 C 
ATOM     22  C   UNL     1     103.346  97.212  98.775  1.00  0.00     0.033 C 
ATOM     23  C   UNL     1     101.805  98.673  97.214  1.00  0.00    -0.006 C 
ATOM     24  C   UNL     1     101.910  97.773  98.507  1.00  0.00     0.120 C 
ATOM     25  C   UNL     1     100.692  99.756  97.382  1.00  0.00     0.014 C 
ATOM     26  C   UNL     1     101.321  97.811  96.007  1.00  0.00     0.014 C 
ENDROOT
BRANCH   1  27
ATOM     27  C   UNL     1     109.620 102.155 100.678  1.00  0.00     0.048 C 
ATOM     28  O   UNL     1     110.162 102.993  99.913  1.00  0.00    -0.550 OA
ATOM     29  O   UNL     1     109.336 102.541 101.989  1.00  0.00    -0.550 OA
ENDBRANCH   1  27
BRANCH   7  30
ATOM     30  C   UNL     1     112.250 100.455  98.617  1.00  0.00    -0.077 C 
ATOM     31  C   UNL     1     112.331 101.503  97.525  1.00  0.00     0.039 C 
ATOM     32  C   UNL     1     113.344 100.240  99.348  1.00  0.00     0.008 C 
ENDBRANCH   7  30
BRANCH  24  33
ATOM     33  O   UNL     1     101.400  98.445  99.647  1.00  0.00    -0.393 OA
ATOM     34  H   UNL     1     101.152  97.797 100.356  1.00  0.00     0.210 HD
ENDBRANCH  24  33
TORSDOF 3
ENDMDL
MODEL 8
REMARK VINA RESULT:    -6.229      5.062      7.951
REMARK INTER + INTRA:          -7.834
REMARK INTER:                  -7.135
REMARK INTRA:                  -0.699
REMARK UNBOUND:                -0.694
REMARK SMILES C=C(C)[C@H]1CC[C@]2(C(=O)[O-])CC[C@@]3(C)[C@H](CC[C@@H]4[C@@]5(C)CC[C@@H](O)C(C)(C)[C@H]5CC[C@]43C)[C@H]12
REMARK SMILES IDX 7 1 6 2 33 3 11 4 5 5 15 6 4 7 12 8 16 9 13 10 17 11 31 12
REMARK SMILES IDX 14 13 18 14 30 15 32 16 19 17 29 18 21 19 20 20 28 21 22 22
REMARK SMILES IDX 25 23 23 24 26 25 27 26 8 27 9 28 10 29 2 30 3 31 1 32 24 33
REMARK H PARENT 24 34
REMARK Flexibility Score: inf
ROOT
ATOM      1  C   UNL     1     110.991  98.780 102.410  1.00  0.00     0.014 C 
ATOM      2  C   UNL     1     112.137  97.746 102.305  1.00  0.00     0.014 C 
ATOM      3  C   UNL     1     111.523 100.073 101.706  1.00  0.00     0.012 C 
ATOM      4  C   UNL     1     109.729  98.206 101.710  1.00  0.00     0.014 C 
ATOM      5  C   UNL     1     113.144  98.318 101.320  1.00  0.00     0.009 C 
ATOM      6  C   UNL     1     110.690 100.543 100.453  1.00  0.00     0.000 C 
ATOM      7  C   UNL     1     113.027  99.835 101.431  1.00  0.00     0.018 C 
ATOM      8  C   UNL     1     108.641  99.238 101.376  1.00  0.00     0.008 C 
ATOM      9  C   UNL     1     110.995  99.775  99.121  1.00  0.00     0.005 C 
ATOM     10  C   UNL     1     109.142 100.626 100.800  1.00  0.00    -0.024 C 
ATOM     11  C   UNL     1     110.155 100.286  97.949  1.00  0.00     0.005 C 
ATOM     12  C   UNL     1     108.279 101.070  99.501  1.00  0.00    -0.024 C 
ATOM     13  C   UNL     1     108.949 101.695 101.937  1.00  0.00     0.012 C 
ATOM     14  C   UNL     1     108.647 100.138  98.273  1.00  0.00     0.002 C 
ATOM     15  C   UNL     1     106.733 100.950  99.817  1.00  0.00     0.008 C 
ATOM     16  C   UNL     1     108.602 102.581  99.165  1.00  0.00     0.012 C 
ATOM     17  C   UNL     1     107.652 100.137  97.016  1.00  0.00    -0.026 C 
ATOM     18  C   UNL     1     105.961  99.945  98.969  1.00  0.00     0.005 C 
ATOM     19  C   UNL     1     107.876  98.795  96.215  1.00  0.00     0.010 C 
ATOM     20  C   UNL     1     107.973 101.307  96.032  1.00  0.00     0.012 C 
ATOM     21  C   UNL     1     106.119 100.263  97.466  1.00  0.00     0.003 C 
ATOM     22  C   UNL     1     106.989  97.646  96.697  1.00  0.00     0.033 C 
ATOM     23  C   UNL     1     105.080  99.460  96.573  1.00  0.00    -0.006 C 
ATOM     24  C   UNL     1     105.464  97.931  96.490  1.00  0.00     0.120 C 
ATOM     25  C   UNL     1     103.624  99.637  97.109  1.00  0.00     0.014 C 
ATOM     26  C   UNL     1     105.037 100.073  95.139  1.00  0.00     0.014 C 
ENDROOT
BRANCH   1  27
ATOM     27  C   UNL     1     110.703  99.057 103.882  1.00  0.00     0.048 C 
ATOM     28  O   UNL     1     110.278  98.164 104.658  1.00  0.00    -0.550 OA
ATOM     29  O   UNL     1     110.885 100.345 104.391  1.00  0.00    -0.550 OA
ENDBRANCH   1  27
BRANCH   7  30
ATOM     30  C   UNL     1     113.892 100.493 102.533  1.00  0.00    -0.077 C 
ATOM     31  C   UNL     1     113.601 101.932 102.908  1.00  0.00     0.039 C 
ATOM     32  C   UNL     1     114.952  99.910 103.097  1.00  0.00     0.008 C 
ENDBRANCH   7  30
BRANCH  24  33
ATOM     33  O   UNL     1     104.673  97.151  97.371  1.00  0.00    -0.393 OA
ATOM     34  H   UNL     1     104.381  96.311  96.932  1.00  0.00     0.210 HD
ENDBRANCH  24  33
TORSDOF 3
ENDMDL
MODEL 9
REMARK VINA RESULT:    -6.175      2.105      3.966
REMARK INTER + INTRA:          -7.771
REMARK INTER:                  -7.297
REMARK INTRA:                  -0.474
REMARK UNBOUND:                -0.694
REMARK SMILES C=C(C)[C@H]1CC[C@]2(C(=O)[O-])CC[C@@]3(C)[C@H](CC[C@@H]4[C@@]5(C)CC[C@@H](O)C(C)(C)[C@H]5CC[C@]43C)[C@H]12
REMARK SMILES IDX 7 1 6 2 33 3 11 4 5 5 15 6 4 7 12 8 16 9 13 10 17 11 31 12
REMARK SMILES IDX 14 13 18 14 30 15 32 16 19 17 29 18 21 19 20 20 28 21 22 22
REMARK SMILES IDX 25 23 23 24 26 25 27 26 8 27 9 28 10 29 2 30 3 31 1 32 24 33
REMARK H PARENT 24 34
REMARK Flexibility Score: inf
ROOT
ATOM      1  C   UNL     1     106.909 101.929  96.908  1.00  0.00     0.014 C 
ATOM      2  C   UNL     1     107.087 103.178  97.804  1.00  0.00     0.014 C 
ATOM      3  C   UNL     1     107.402 100.719  97.768  1.00  0.00     0.012 C 
ATOM      4  C   UNL     1     105.413 101.801  96.513  1.00  0.00     0.014 C 
ATOM      5  C   UNL     1     107.369 102.665  99.206  1.00  0.00     0.009 C 
ATOM      6  C   UNL     1     106.311  99.617  98.058  1.00  0.00     0.000 C 
ATOM      7  C   UNL     1     108.066 101.319  99.030  1.00  0.00     0.018 C 
ATOM      8  C   UNL     1     104.996 100.427  95.968  1.00  0.00     0.008 C 
ATOM      9  C   UNL     1     105.316  99.951  99.221  1.00  0.00     0.005 C 
ATOM     10  C   UNL     1     105.593  99.163  96.716  1.00  0.00    -0.024 C 
ATOM     11  C   UNL     1     104.292  98.838  99.449  1.00  0.00     0.005 C 
ATOM     12  C   UNL     1     104.444  98.061  97.017  1.00  0.00    -0.024 C 
ATOM     13  C   UNL     1     106.677  98.533  95.766  1.00  0.00     0.012 C 
ATOM     14  C   UNL     1     103.477  98.595  98.154  1.00  0.00     0.002 C 
ATOM     15  C   UNL     1     103.613  97.777  95.699  1.00  0.00     0.008 C 
ATOM     16  C   UNL     1     105.135  96.712  97.468  1.00  0.00     0.012 C 
ATOM     17  C   UNL     1     102.065  97.858  98.336  1.00  0.00    -0.026 C 
ATOM     18  C   UNL     1     102.133  98.139  95.762  1.00  0.00     0.005 C 
ATOM     19  C   UNL     1     101.085  98.853  99.073  1.00  0.00     0.010 C 
ATOM     20  C   UNL     1     102.193  96.595  99.246  1.00  0.00     0.012 C 
ATOM     21  C   UNL     1     101.440  97.405  96.931  1.00  0.00     0.003 C 
ATOM     22  C   UNL     1     100.298  99.748  98.116  1.00  0.00     0.033 C 
ATOM     23  C   UNL     1      99.857  97.487  96.833  1.00  0.00    -0.006 C 
ATOM     24  C   UNL     1      99.340  98.939  97.178  1.00  0.00     0.120 C 
ATOM     25  C   UNL     1      99.358  97.043  95.422  1.00  0.00     0.014 C 
ATOM     26  C   UNL     1      99.218  96.452  97.809  1.00  0.00     0.014 C 
ENDROOT
BRANCH   1  27
ATOM     27  C   UNL     1     107.777 102.082  95.662  1.00  0.00     0.048 C 
ATOM     28  O   UNL     1     107.489 101.517  94.576  1.00  0.00    -0.550 OA
ATOM     29  O   UNL     1     108.944 102.846  95.722  1.00  0.00    -0.550 OA
ENDBRANCH   1  27
BRANCH   7  30
ATOM     30  C   UNL     1     109.603 101.380  98.859  1.00  0.00    -0.077 C 
ATOM     31  C   UNL     1     110.265 100.357  97.957  1.00  0.00     0.039 C 
ATOM     32  C   UNL     1     110.397 102.207  99.542  1.00  0.00     0.008 C 
ENDBRANCH   7  30
BRANCH  24  33
ATOM     33  O   UNL     1      99.033  99.671  96.004  1.00  0.00    -0.393 OA
ATOM     34  H   UNL     1      98.369 100.383  96.196  1.00  0.00     0.210 HD
ENDBRANCH  24  33
TORSDOF 3
ENDMDL
