MODEL 1
REMARK VINA RESULT:    -4.078      0.000      0.000
REMARK INTER + INTRA:          -6.700
REMARK INTER:                  -6.224
REMARK INTRA:                  -0.476
REMARK UNBOUND:                -0.476
REMARK SMILES CCCCCCCCCCC(=O)[O-]
REMARK SMILES IDX 7 1 8 2 9 3 10 4 11 5 12 6 13 7 6 8 5 9 4 10 3 11 2 12 1 13
REMARK H PARENT
REMARK Flexibility Score: inf
ROOT
ATOM      1  C   UNL     1      25.638  19.808  25.997  1.00  0.00     0.000 C 
ENDROOT
BRANCH   1   2
ATOM      2  C   UNL     1      25.994  19.606  24.519  1.00  0.00     0.000 C 
BRANCH   2   3
ATOM      3  C   UNL     1      27.170  20.506  24.109  1.00  0.00     0.006 C 
BRANCH   3   4
ATOM      4  C   UNL     1      28.262  19.728  23.363  1.00  0.00     0.053 C 
BRANCH   4   5
ATOM      5  C   UNL     1      29.589  20.420  23.438  1.00  0.00     0.041 C 
ATOM      6  O   UNL     1      30.297  20.545  22.404  1.00  0.00    -0.550 OA
ATOM      7  O   UNL     1      30.028  20.956  24.642  1.00  0.00    -0.550 OA
ENDBRANCH   4   5
ENDBRANCH   3   4
ENDBRANCH   2   3
ENDBRANCH   1   2
BRANCH   1   8
ATOM      8  C   UNL     1      24.330  19.090  26.351  1.00  0.00     0.000 C 
BRANCH   8   9
ATOM      9  C   UNL     1      23.113  19.914  25.915  1.00  0.00    -0.000 C 
BRANCH   9  10
ATOM     10  C   UNL     1      22.567  20.749  27.083  1.00  0.00    -0.000 C 
BRANCH  10  11
ATOM     11  C   UNL     1      22.597  22.262  26.803  1.00  0.00    -0.000 C 
BRANCH  11  12
ATOM     12  C   UNL     1      24.005  22.871  26.688  1.00  0.00    -0.003 C 
ATOM     13  C   UNL     1      24.055  24.344  27.094  1.00  0.00     0.004 C 
ENDBRANCH  11  12
ENDBRANCH  10  11
ENDBRANCH   9  10
ENDBRANCH   8   9
ENDBRANCH   1   8
TORSDOF 9
ENDMDL
MODEL 2
REMARK VINA RESULT:    -4.053      3.562      6.841
REMARK INTER + INTRA:          -6.660
REMARK INTER:                  -6.296
REMARK INTRA:                  -0.364
REMARK UNBOUND:                -0.476
REMARK SMILES CCCCCCCCCCC(=O)[O-]
REMARK SMILES IDX 7 1 8 2 9 3 10 4 11 5 12 6 13 7 6 8 5 9 4 10 3 11 2 12 1 13
REMARK H PARENT
REMARK Flexibility Score: inf
ROOT
ATOM      1  C   UNL     1      25.833  20.481  25.821  1.00  0.00     0.000 C 
ENDROOT
BRANCH   1   2
ATOM      2  C   UNL     1      25.337  19.030  25.849  1.00  0.00     0.000 C 
BRANCH   2   3
ATOM      3  C   UNL     1      23.975  18.929  26.553  1.00  0.00     0.006 C 
BRANCH   3   4
ATOM      4  C   UNL     1      22.931  19.869  25.935  1.00  0.00     0.053 C 
BRANCH   4   5
ATOM      5  C   UNL     1      22.439  20.881  26.924  1.00  0.00     0.041 C 
ATOM      6  O   UNL     1      21.692  20.527  27.873  1.00  0.00    -0.550 OA
ATOM      7  O   UNL     1      22.833  22.209  26.817  1.00  0.00    -0.550 OA
ENDBRANCH   4   5
ENDBRANCH   3   4
ENDBRANCH   2   3
ENDBRANCH   1   2
BRANCH   1   8
ATOM      8  C   UNL     1      27.038  20.632  24.884  1.00  0.00     0.000 C 
BRANCH   8   9
ATOM      9  C   UNL     1      28.290  21.059  25.660  1.00  0.00    -0.000 C 
BRANCH   9  10
ATOM     10  C   UNL     1      29.521  21.091  24.744  1.00  0.00    -0.000 C 
BRANCH  10  11
ATOM     11  C   UNL     1      29.545  19.932  23.731  1.00  0.00    -0.000 C 
BRANCH  11  12
ATOM     12  C   UNL     1      30.259  20.246  22.405  1.00  0.00    -0.003 C 
ATOM     13  C   UNL     1      31.333  19.221  22.046  1.00  0.00     0.004 C 
ENDBRANCH  11  12
ENDBRANCH  10  11
ENDBRANCH   9  10
ENDBRANCH   8   9
ENDBRANCH   1   8
TORSDOF 9
ENDMDL
MODEL 3
REMARK VINA RESULT:    -3.993     20.687     21.836
REMARK INTER + INTRA:          -6.570
REMARK INTER:                  -6.193
REMARK INTRA:                  -0.377
REMARK UNBOUND:                -0.476
REMARK SMILES CCCCCCCCCCC(=O)[O-]
REMARK SMILES IDX 7 1 8 2 9 3 10 4 11 5 12 6 13 7 6 8 5 9 4 10 3 11 2 12 1 13
REMARK H PARENT
REMARK Flexibility Score: inf
ROOT
ATOM      1  C   UNL     1      17.068  33.559  11.003  1.00  0.00     0.000 C 
ENDROOT
BRANCH   1   2
ATOM      2  C   UNL     1      18.408  34.066  10.459  1.00  0.00     0.000 C 
BRANCH   2   3
ATOM      3  C   UNL     1      18.360  35.581  10.204  1.00  0.00     0.006 C 
BRANCH   3   4
ATOM      4  C   UNL     1      19.735  36.241  10.374  1.00  0.00     0.053 C 
BRANCH   4   5
ATOM      5  C   UNL     1      19.620  37.639  10.900  1.00  0.00     0.041 C 
ATOM      6  O   UNL     1      20.648  38.356  11.022  1.00  0.00    -0.550 OA
ATOM      7  O   UNL     1      18.375  38.161  11.224  1.00  0.00    -0.550 OA
ENDBRANCH   4   5
ENDBRANCH   3   4
ENDBRANCH   2   3
ENDBRANCH   1   2
BRANCH   1   8
ATOM      8  C   UNL     1      15.927  33.855  10.022  1.00  0.00     0.000 C 
BRANCH   8   9
ATOM      9  C   UNL     1      14.580  33.386  10.585  1.00  0.00    -0.000 C 
BRANCH   9  10
ATOM     10  C   UNL     1      14.781  32.422  11.763  1.00  0.00    -0.000 C 
BRANCH  10  11
ATOM     11  C   UNL     1      13.972  31.121  11.617  1.00  0.00    -0.000 C 
BRANCH  11  12
ATOM     12  C   UNL     1      14.653  29.867  12.194  1.00  0.00    -0.003 C 
ATOM     13  C   UNL     1      13.744  29.069  13.128  1.00  0.00     0.004 C 
ENDBRANCH  11  12
ENDBRANCH  10  11
ENDBRANCH   9  10
ENDBRANCH   8   9
ENDBRANCH   1   8
TORSDOF 9
ENDMDL
MODEL 4
REMARK VINA RESULT:    -3.823      0.902      1.625
REMARK INTER + INTRA:          -6.310
REMARK INTER:                  -5.721
REMARK INTRA:                  -0.589
REMARK UNBOUND:                -0.476
REMARK SMILES CCCCCCCCCCC(=O)[O-]
REMARK SMILES IDX 7 1 8 2 9 3 10 4 11 5 12 6 13 7 6 8 5 9 4 10 3 11 2 12 1 13
REMARK H PARENT
REMARK Flexibility Score: inf
ROOT
ATOM      1  C   UNL     1      26.837  20.482  25.923  1.00  0.00     0.000 C 
ENDROOT
BRANCH   1   2
ATOM      2  C   UNL     1      28.004  20.600  24.936  1.00  0.00     0.000 C 
BRANCH   2   3
ATOM      3  C   UNL     1      27.593  20.119  23.537  1.00  0.00     0.006 C 
BRANCH   3   4
ATOM      4  C   UNL     1      28.650  19.204  22.903  1.00  0.00     0.053 C 
BRANCH   4   5
ATOM      5  C   UNL     1      30.035  19.747  23.082  1.00  0.00     0.041 C 
ATOM      6  O   UNL     1      30.824  19.210  23.903  1.00  0.00    -0.550 OA
ATOM      7  O   UNL     1      30.465  20.823  22.317  1.00  0.00    -0.550 OA
ENDBRANCH   4   5
ENDBRANCH   3   4
ENDBRANCH   2   3
ENDBRANCH   1   2
BRANCH   1   8
ATOM      8  C   UNL     1      25.561  20.014  25.213  1.00  0.00     0.000 C 
BRANCH   8   9
ATOM      9  C   UNL     1      24.586  19.364  26.202  1.00  0.00    -0.000 C 
BRANCH   9  10
ATOM     10  C   UNL     1      23.157  19.882  25.987  1.00  0.00    -0.000 C 
BRANCH  10  11
ATOM     11  C   UNL     1      22.671  20.792  27.129  1.00  0.00    -0.000 C 
BRANCH  11  12
ATOM     12  C   UNL     1      22.533  22.279  26.757  1.00  0.00    -0.003 C 
ATOM     13  C   UNL     1      23.870  23.018  26.741  1.00  0.00     0.004 C 
ENDBRANCH  11  12
ENDBRANCH  10  11
ENDBRANCH   9  10
ENDBRANCH   8   9
ENDBRANCH   1   8
TORSDOF 9
ENDMDL
MODEL 5
REMARK VINA RESULT:    -3.736      1.440      2.285
REMARK INTER + INTRA:          -6.178
REMARK INTER:                  -5.678
REMARK INTRA:                  -0.500
REMARK UNBOUND:                -0.476
REMARK SMILES CCCCCCCCCCC(=O)[O-]
REMARK SMILES IDX 7 1 8 2 9 3 10 4 11 5 12 6 13 7 6 8 5 9 4 10 3 11 2 12 1 13
REMARK H PARENT
REMARK Flexibility Score: inf
ROOT
ATOM      1  C   UNL     1      23.302  19.561  25.862  1.00  0.00     0.000 C 
ENDROOT
BRANCH   1   2
ATOM      2  C   UNL     1      24.742  19.106  26.127  1.00  0.00     0.000 C 
BRANCH   2   3
ATOM      3  C   UNL     1      25.720  19.781  25.153  1.00  0.00     0.006 C 
BRANCH   3   4
ATOM      4  C   UNL     1      26.809  20.577  25.883  1.00  0.00     0.053 C 
BRANCH   4   5
ATOM      5  C   UNL     1      28.152  20.400  25.244  1.00  0.00     0.041 C 
ATOM      6  O   UNL     1      28.973  21.355  25.219  1.00  0.00    -0.550 OA
ATOM      7  O   UNL     1      28.511  19.171  24.706  1.00  0.00    -0.550 OA
ENDBRANCH   4   5
ENDBRANCH   3   4
ENDBRANCH   2   3
ENDBRANCH   1   2
BRANCH   1   8
ATOM      8  C   UNL     1      22.655  20.110  27.139  1.00  0.00     0.000 C 
BRANCH   8   9
ATOM      9  C   UNL     1      22.340  21.604  26.999  1.00  0.00    -0.000 C 
BRANCH   9  10
ATOM     10  C   UNL     1      23.583  22.390  26.556  1.00  0.00    -0.000 C 
BRANCH  10  11
ATOM     11  C   UNL     1      23.408  23.913  26.691  1.00  0.00    -0.000 C 
BRANCH  11  12
ATOM     12  C   UNL     1      24.529  24.626  27.467  1.00  0.00    -0.003 C 
ATOM     13  C   UNL     1      25.283  25.653  26.622  1.00  0.00     0.004 C 
ENDBRANCH  11  12
ENDBRANCH  10  11
ENDBRANCH   9  10
ENDBRANCH   8   9
ENDBRANCH   1   8
TORSDOF 9
ENDMDL
MODEL 6
REMARK VINA RESULT:    -3.721     20.481     21.915
REMARK INTER + INTRA:          -6.154
REMARK INTER:                  -5.864
REMARK INTRA:                  -0.290
REMARK UNBOUND:                -0.476
REMARK SMILES CCCCCCCCCCC(=O)[O-]
REMARK SMILES IDX 7 1 8 2 9 3 10 4 11 5 12 6 13 7 6 8 5 9 4 10 3 11 2 12 1 13
REMARK H PARENT
REMARK Flexibility Score: inf
ROOT
ATOM      1  C   UNL     1      15.584  33.364  11.844  1.00  0.00     0.000 C 
ENDROOT
BRANCH   1   2
ATOM      2  C   UNL     1      14.054  33.274  11.811  1.00  0.00     0.000 C 
BRANCH   2   3
ATOM      3  C   UNL     1      13.594  31.913  11.267  1.00  0.00     0.006 C 
BRANCH   3   4
ATOM      4  C   UNL     1      12.920  31.054  12.345  1.00  0.00     0.053 C 
BRANCH   4   5
ATOM      5  C   UNL     1      13.644  29.761  12.562  1.00  0.00     0.041 C 
ATOM      6  O   UNL     1      14.469  29.347  11.706  1.00  0.00    -0.550 OA
ATOM      7  O   UNL     1      13.433  29.030  13.724  1.00  0.00    -0.550 OA
ENDBRANCH   4   5
ENDBRANCH   3   4
ENDBRANCH   2   3
ENDBRANCH   1   2
BRANCH   1   8
ATOM      8  C   UNL     1      16.156  33.539  10.432  1.00  0.00     0.000 C 
BRANCH   8   9
ATOM      9  C   UNL     1      17.599  34.055  10.482  1.00  0.00    -0.000 C 
BRANCH   9  10
ATOM     10  C   UNL     1      17.683  35.505   9.985  1.00  0.00    -0.000 C 
BRANCH  10  11
ATOM     11  C   UNL     1      19.035  36.170  10.301  1.00  0.00    -0.000 C 
BRANCH  11  12
ATOM     12  C   UNL     1      18.940  37.614  10.823  1.00  0.00    -0.003 C 
ATOM     13  C   UNL     1      20.080  37.984  11.770  1.00  0.00     0.004 C 
ENDBRANCH  11  12
ENDBRANCH  10  11
ENDBRANCH   9  10
ENDBRANCH   8   9
ENDBRANCH   1   8
TORSDOF 9
ENDMDL
MODEL 7
REMARK VINA RESULT:    -3.641      2.781      5.876
REMARK INTER + INTRA:          -6.032
REMARK INTER:                  -5.589
REMARK INTRA:                  -0.443
REMARK UNBOUND:                -0.476
REMARK SMILES CCCCCCCCCCC(=O)[O-]
REMARK SMILES IDX 7 1 8 2 9 3 10 4 11 5 12 6 13 7 6 8 5 9 4 10 3 11 2 12 1 13
REMARK H PARENT
REMARK Flexibility Score: inf
ROOT
ATOM      1  C   UNL     1      24.621  19.464  25.974  1.00  0.00     0.000 C 
ENDROOT
BRANCH   1   2
ATOM      2  C   UNL     1      23.148  19.891  25.952  1.00  0.00     0.000 C 
BRANCH   2   3
ATOM      3  C   UNL     1      22.829  20.825  27.129  1.00  0.00     0.006 C 
BRANCH   3   4
ATOM      4  C   UNL     1      22.552  22.263  26.671  1.00  0.00     0.053 C 
BRANCH   4   5
ATOM      5  C   UNL     1      23.759  23.137  26.821  1.00  0.00     0.041 C 
ATOM      6  O   UNL     1      24.901  22.696  26.529  1.00  0.00    -0.550 OA
ATOM      7  O   UNL     1      23.618  24.451  27.251  1.00  0.00    -0.550 OA
ENDBRANCH   4   5
ENDBRANCH   3   4
ENDBRANCH   2   3
ENDBRANCH   1   2
BRANCH   1   8
ATOM      8  C   UNL     1      25.102  19.073  24.572  1.00  0.00     0.000 C 
BRANCH   8   9
ATOM      9  C   UNL     1      26.266  19.962  24.120  1.00  0.00    -0.000 C 
BRANCH   9  10
ATOM     10  C   UNL     1      27.119  20.402  25.318  1.00  0.00    -0.000 C 
BRANCH  10  11
ATOM     11  C   UNL     1      28.561  20.770  24.925  1.00  0.00    -0.000 C 
BRANCH  11  12
ATOM     12  C   UNL     1      29.257  19.757  23.999  1.00  0.00    -0.003 C 
ATOM     13  C   UNL     1      30.027  20.420  22.857  1.00  0.00     0.004 C 
ENDBRANCH  11  12
ENDBRANCH  10  11
ENDBRANCH   9  10
ENDBRANCH   8   9
ENDBRANCH   1   8
TORSDOF 9
ENDMDL
MODEL 8
REMARK VINA RESULT:    -3.600      2.979      5.674
REMARK INTER + INTRA:          -5.969
REMARK INTER:                  -5.326
REMARK INTRA:                  -0.644
REMARK UNBOUND:                -0.476
REMARK SMILES CCCCCCCCCCC(=O)[O-]
REMARK SMILES IDX 7 1 8 2 9 3 10 4 11 5 12 6 13 7 6 8 5 9 4 10 3 11 2 12 1 13
REMARK H PARENT
REMARK Flexibility Score: inf
ROOT
ATOM      1  C   UNL     1      24.383  19.883  26.355  1.00  0.00     0.000 C 
ENDROOT
BRANCH   1   2
ATOM      2  C   UNL     1      22.945  20.408  26.438  1.00  0.00     0.000 C 
BRANCH   2   3
ATOM      3  C   UNL     1      22.926  21.918  26.721  1.00  0.00     0.006 C 
BRANCH   3   4
ATOM      4  C   UNL     1      24.312  22.556  26.560  1.00  0.00     0.053 C 
BRANCH   4   5
ATOM      5  C   UNL     1      24.259  24.046  26.703  1.00  0.00     0.041 C 
ATOM      6  O   UNL     1      24.006  24.566  27.822  1.00  0.00    -0.550 OA
ATOM      7  O   UNL     1      24.524  24.861  25.610  1.00  0.00    -0.550 OA
ENDBRANCH   4   5
ENDBRANCH   3   4
ENDBRANCH   2   3
ENDBRANCH   1   2
BRANCH   1   8
ATOM      8  C   UNL     1      24.600  19.070  25.074  1.00  0.00     0.000 C 
BRANCH   8   9
ATOM      9  C   UNL     1      26.086  19.010  24.703  1.00  0.00    -0.000 C 
BRANCH   9  10
ATOM     10  C   UNL     1      26.662  20.421  24.508  1.00  0.00    -0.000 C 
BRANCH  10  11
ATOM     11  C   UNL     1      27.810  20.740  25.483  1.00  0.00    -0.000 C 
BRANCH  11  12
ATOM     12  C   UNL     1      29.171  21.003  24.816  1.00  0.00    -0.003 C 
ATOM     13  C   UNL     1      29.333  20.280  23.480  1.00  0.00     0.004 C 
ENDBRANCH  11  12
ENDBRANCH  10  11
ENDBRANCH   9  10
ENDBRANCH   8   9
ENDBRANCH   1   8
TORSDOF 9
ENDMDL
MODEL 9
REMARK VINA RESULT:    -3.397      1.601      2.523
REMARK INTER + INTRA:          -5.661
REMARK INTER:                  -5.252
REMARK INTRA:                  -0.408
REMARK UNBOUND:                -0.476
REMARK SMILES CCCCCCCCCCC(=O)[O-]
REMARK SMILES IDX 7 1 8 2 9 3 10 4 11 5 12 6 13 7 6 8 5 9 4 10 3 11 2 12 1 13
REMARK H PARENT
REMARK Flexibility Score: inf
ROOT
ATOM      1  C   UNL     1      26.007  20.774  25.955  1.00  0.00     0.000 C 
ENDROOT
BRANCH   1   2
ATOM      2  C   UNL     1      27.403  20.691  25.327  1.00  0.00     0.000 C 
BRANCH   2   3
ATOM      3  C   UNL     1      27.319  20.272  23.851  1.00  0.00     0.006 C 
BRANCH   3   4
ATOM      4  C   UNL     1      28.248  19.094  23.529  1.00  0.00     0.053 C 
BRANCH   4   5
ATOM      5  C   UNL     1      29.512  19.547  22.865  1.00  0.00     0.041 C 
ATOM      6  O   UNL     1      30.009  18.875  21.924  1.00  0.00    -0.550 OA
ATOM      7  O   UNL     1      30.123  20.729  23.264  1.00  0.00    -0.550 OA
ENDBRANCH   4   5
ENDBRANCH   3   4
ENDBRANCH   2   3
ENDBRANCH   1   2
BRANCH   1   8
ATOM      8  C   UNL     1      25.108  19.639  25.449  1.00  0.00     0.000 C 
BRANCH   8   9
ATOM      9  C   UNL     1      23.972  19.353  26.438  1.00  0.00    -0.000 C 
BRANCH   9  10
ATOM     10  C   UNL     1      23.035  20.563  26.565  1.00  0.00    -0.000 C 
BRANCH  10  11
ATOM     11  C   UNL     1      21.966  20.381  27.658  1.00  0.00    -0.000 C 
BRANCH  11  12
ATOM     12  C   UNL     1      22.149  19.135  28.541  1.00  0.00    -0.003 C 
ATOM     13  C   UNL     1      21.264  19.148  29.786  1.00  0.00     0.004 C 
ENDBRANCH  11  12
ENDBRANCH  10  11
ENDBRANCH   9  10
ENDBRANCH   8   9
ENDBRANCH   1   8
TORSDOF 9
ENDMDL
