MODEL 1
REMARK VINA RESULT:    -4.849      0.000      0.000
REMARK INTER + INTRA:          -5.323
REMARK INTER:                  -5.133
REMARK INTRA:                  -0.191
REMARK UNBOUND:                -0.191
REMARK SMILES CC1=CC[C@@H](C(C)C)C=C1
REMARK SMILES IDX 1 1 2 2 3 3 4 4 5 5 9 6 10 7 6 8 7 9 8 10
REMARK H PARENT
REMARK Flexibility Score: inf
ROOT
ATOM      1  C   UNL     1     -51.294 -47.932  24.409  1.00  0.00     0.044 C 
ATOM      2  C   UNL     1     -52.452 -47.868  23.459  1.00  0.00    -0.055 C 
ATOM      3  C   UNL     1     -52.710 -48.897  22.634  1.00  0.00    -0.023 C 
ATOM      4  C   UNL     1     -53.954 -48.910  21.784  1.00  0.00     0.035 C 
ATOM      5  C   UNL     1     -54.336 -47.477  21.338  1.00  0.00     0.018 C 
ATOM      6  C   UNL     1     -54.272 -46.527  22.517  1.00  0.00    -0.023 C 
ATOM      7  C   UNL     1     -53.355 -46.695  23.476  1.00  0.00    -0.001 C 
ENDROOT
BRANCH   5   8
ATOM      8  C   UNL     1     -55.703 -47.383  20.600  1.00  0.00    -0.010 C 
ATOM      9  C   UNL     1     -56.685 -48.461  21.082  1.00  0.00     0.008 C 
ATOM     10  C   UNL     1     -56.354 -45.991  20.690  1.00  0.00     0.008 C 
ENDBRANCH   5   8
TORSDOF 1
ENDMDL
MODEL 2
REMARK VINA RESULT:    -4.739      1.173      4.457
REMARK INTER + INTRA:          -5.206
REMARK INTER:                  -5.028
REMARK INTRA:                  -0.178
REMARK UNBOUND:                -0.191
REMARK SMILES CC1=CC[C@@H](C(C)C)C=C1
REMARK SMILES IDX 1 1 2 2 3 3 4 4 5 5 9 6 10 7 6 8 7 9 8 10
REMARK H PARENT
REMARK Flexibility Score: inf
ROOT
ATOM      1  C   UNL     1     -57.125 -47.395  20.997  1.00  0.00     0.044 C 
ATOM      2  C   UNL     1     -55.720 -47.611  21.473  1.00  0.00    -0.055 C 
ATOM      3  C   UNL     1     -54.977 -46.572  21.889  1.00  0.00    -0.023 C 
ATOM      4  C   UNL     1     -53.622 -46.791  22.509  1.00  0.00     0.035 C 
ATOM      5  C   UNL     1     -52.913 -48.013  21.874  1.00  0.00     0.018 C 
ATOM      6  C   UNL     1     -53.869 -49.186  21.784  1.00  0.00    -0.023 C 
ATOM      7  C   UNL     1     -55.170 -48.984  21.549  1.00  0.00    -0.001 C 
ENDROOT
BRANCH   5   8
ATOM      8  C   UNL     1     -51.582 -48.413  22.575  1.00  0.00    -0.010 C 
ATOM      9  C   UNL     1     -51.803 -48.776  24.051  1.00  0.00     0.008 C 
ATOM     10  C   UNL     1     -50.825 -49.543  21.856  1.00  0.00     0.008 C 
ENDBRANCH   5   8
TORSDOF 1
ENDMDL
MODEL 3
REMARK VINA RESULT:    -4.723      1.082      4.230
REMARK INTER + INTRA:          -5.189
REMARK INTER:                  -5.052
REMARK INTRA:                  -0.137
REMARK UNBOUND:                -0.191
REMARK SMILES CC1=CC[C@@H](C(C)C)C=C1
REMARK SMILES IDX 1 1 2 2 3 3 4 4 5 5 9 6 10 7 6 8 7 9 8 10
REMARK H PARENT
REMARK Flexibility Score: inf
ROOT
ATOM      1  C   UNL     1     -57.125 -47.280  20.988  1.00  0.00     0.044 C 
ATOM      2  C   UNL     1     -55.722 -47.575  21.428  1.00  0.00    -0.055 C 
ATOM      3  C   UNL     1     -55.248 -48.831  21.384  1.00  0.00    -0.023 C 
ATOM      4  C   UNL     1     -53.799 -49.119  21.679  1.00  0.00     0.035 C 
ATOM      5  C   UNL     1     -53.248 -48.147  22.751  1.00  0.00     0.018 C 
ATOM      6  C   UNL     1     -53.654 -46.723  22.426  1.00  0.00    -0.023 C 
ATOM      7  C   UNL     1     -54.834 -46.469  21.851  1.00  0.00    -0.001 C 
ENDROOT
BRANCH   5   8
ATOM      8  C   UNL     1     -51.715 -48.265  22.989  1.00  0.00    -0.010 C 
ATOM      9  C   UNL     1     -51.397 -48.877  24.362  1.00  0.00     0.008 C 
ATOM     10  C   UNL     1     -50.979 -49.036  21.879  1.00  0.00     0.008 C 
ENDBRANCH   5   8
TORSDOF 1
ENDMDL
MODEL 4
REMARK VINA RESULT:    -4.663     12.684     13.574
REMARK INTER + INTRA:          -5.126
REMARK INTER:                  -4.936
REMARK INTRA:                  -0.190
REMARK UNBOUND:                -0.191
REMARK SMILES CC1=CC[C@@H](C(C)C)C=C1
REMARK SMILES IDX 1 1 2 2 3 3 4 4 5 5 9 6 10 7 6 8 7 9 8 10
REMARK H PARENT
REMARK Flexibility Score: inf
ROOT
ATOM      1  C   UNL     1     -42.427 -49.276  28.965  1.00  0.00     0.044 C 
ATOM      2  C   UNL     1     -43.449 -49.593  30.015  1.00  0.00    -0.055 C 
ATOM      3  C   UNL     1     -43.393 -50.756  30.686  1.00  0.00    -0.023 C 
ATOM      4  C   UNL     1     -44.320 -51.023  31.844  1.00  0.00     0.035 C 
ATOM      5  C   UNL     1     -45.698 -50.353  31.616  1.00  0.00     0.018 C 
ATOM      6  C   UNL     1     -45.515 -48.923  31.148  1.00  0.00    -0.023 C 
ATOM      7  C   UNL     1     -44.485 -48.594  30.361  1.00  0.00    -0.001 C 
ENDROOT
BRANCH   5   8
ATOM      8  C   UNL     1     -46.656 -50.436  32.841  1.00  0.00    -0.010 C 
ATOM      9  C   UNL     1     -46.099 -51.356  33.937  1.00  0.00     0.008 C 
ATOM     10  C   UNL     1     -47.017 -49.062  33.431  1.00  0.00     0.008 C 
ENDBRANCH   5   8
TORSDOF 1
ENDMDL
MODEL 5
REMARK VINA RESULT:    -4.618      6.135      7.278
REMARK INTER + INTRA:          -5.078
REMARK INTER:                  -4.890
REMARK INTRA:                  -0.188
REMARK UNBOUND:                -0.191
REMARK SMILES CC1=CC[C@@H](C(C)C)C=C1
REMARK SMILES IDX 1 1 2 2 3 3 4 4 5 5 9 6 10 7 6 8 7 9 8 10
REMARK H PARENT
REMARK Flexibility Score: inf
ROOT
ATOM      1  C   UNL     1     -51.446 -48.927  20.948  1.00  0.00     0.044 C 
ATOM      2  C   UNL     1     -50.463 -49.100  19.829  1.00  0.00    -0.055 C 
ATOM      3  C   UNL     1     -50.441 -50.238  19.115  1.00  0.00    -0.023 C 
ATOM      4  C   UNL     1     -49.566 -50.368  17.896  1.00  0.00     0.035 C 
ATOM      5  C   UNL     1     -48.251 -49.566  18.071  1.00  0.00     0.018 C 
ATOM      6  C   UNL     1     -48.550 -48.180  18.607  1.00  0.00    -0.023 C 
ATOM      7  C   UNL     1     -49.557 -47.987  19.465  1.00  0.00    -0.001 C 
ENDROOT
BRANCH   5   8
ATOM      8  C   UNL     1     -47.367 -49.507  16.791  1.00  0.00    -0.010 C 
ATOM      9  C   UNL     1     -47.760 -50.592  15.778  1.00  0.00     0.008 C 
ATOM     10  C   UNL     1     -47.359 -48.125  16.115  1.00  0.00     0.008 C 
ENDBRANCH   5   8
TORSDOF 1
ENDMDL
MODEL 6
REMARK VINA RESULT:    -4.615      1.159      1.946
REMARK INTER + INTRA:          -5.075
REMARK INTER:                  -4.945
REMARK INTRA:                  -0.130
REMARK UNBOUND:                -0.191
REMARK SMILES CC1=CC[C@@H](C(C)C)C=C1
REMARK SMILES IDX 1 1 2 2 3 3 4 4 5 5 9 6 10 7 6 8 7 9 8 10
REMARK H PARENT
REMARK Flexibility Score: inf
ROOT
ATOM      1  C   UNL     1     -50.271 -49.384  23.113  1.00  0.00     0.044 C 
ATOM      2  C   UNL     1     -51.559 -48.862  22.549  1.00  0.00    -0.055 C 
ATOM      3  C   UNL     1     -52.316 -48.012  23.263  1.00  0.00    -0.023 C 
ATOM      4  C   UNL     1     -53.531 -47.363  22.653  1.00  0.00     0.035 C 
ATOM      5  C   UNL     1     -54.220 -48.316  21.645  1.00  0.00     0.018 C 
ATOM      6  C   UNL     1     -53.190 -48.939  20.724  1.00  0.00    -0.023 C 
ATOM      7  C   UNL     1     -51.966 -49.232  21.175  1.00  0.00    -0.001 C 
ENDROOT
BRANCH   5   8
ATOM      8  C   UNL     1     -55.383 -47.662  20.843  1.00  0.00    -0.010 C 
ATOM      9  C   UNL     1     -56.686 -48.466  20.971  1.00  0.00     0.008 C 
ATOM     10  C   UNL     1     -55.629 -46.188  21.212  1.00  0.00     0.008 C 
ENDBRANCH   5   8
TORSDOF 1
ENDMDL
MODEL 7
REMARK VINA RESULT:    -4.579     11.602     15.242
REMARK INTER + INTRA:          -5.037
REMARK INTER:                  -4.899
REMARK INTRA:                  -0.138
REMARK UNBOUND:                -0.191
REMARK SMILES CC1=CC[C@@H](C(C)C)C=C1
REMARK SMILES IDX 1 1 2 2 3 3 4 4 5 5 9 6 10 7 6 8 7 9 8 10
REMARK H PARENT
REMARK Flexibility Score: inf
ROOT
ATOM      1  C   UNL     1     -43.861 -49.653  26.691  1.00  0.00     0.044 C 
ATOM      2  C   UNL     1     -42.611 -49.118  27.323  1.00  0.00    -0.055 C 
ATOM      3  C   UNL     1     -41.887 -48.173  26.700  1.00  0.00    -0.023 C 
ATOM      4  C   UNL     1     -40.716 -47.520  27.388  1.00  0.00     0.035 C 
ATOM      5  C   UNL     1     -39.995 -48.522  28.324  1.00  0.00     0.018 C 
ATOM      6  C   UNL     1     -41.006 -49.273  29.167  1.00  0.00    -0.023 C 
ATOM      7  C   UNL     1     -42.207 -49.586  28.668  1.00  0.00    -0.001 C 
ENDROOT
BRANCH   5   8
ATOM      8  C   UNL     1     -38.880 -47.883  29.202  1.00  0.00    -0.010 C 
ATOM      9  C   UNL     1     -37.477 -48.283  28.721  1.00  0.00     0.008 C 
ATOM     10  C   UNL     1     -38.988 -46.351  29.313  1.00  0.00     0.008 C 
ENDBRANCH   5   8
TORSDOF 1
ENDMDL
MODEL 8
REMARK VINA RESULT:    -4.571     13.555     15.876
REMARK INTER + INTRA:          -5.029
REMARK INTER:                  -4.851
REMARK INTRA:                  -0.178
REMARK UNBOUND:                -0.191
REMARK SMILES CC1=CC[C@@H](C(C)C)C=C1
REMARK SMILES IDX 1 1 2 2 3 3 4 4 5 5 9 6 10 7 6 8 7 9 8 10
REMARK H PARENT
REMARK Flexibility Score: inf
ROOT
ATOM      1  C   UNL     1     -43.487 -50.110  29.951  1.00  0.00     0.044 C 
ATOM      2  C   UNL     1     -42.270 -49.318  29.577  1.00  0.00    -0.055 C 
ATOM      3  C   UNL     1     -42.307 -48.467  28.538  1.00  0.00    -0.023 C 
ATOM      4  C   UNL     1     -41.143 -47.556  28.246  1.00  0.00     0.035 C 
ATOM      5  C   UNL     1     -39.801 -48.239  28.609  1.00  0.00     0.018 C 
ATOM      6  C   UNL     1     -39.893 -48.882  29.978  1.00  0.00    -0.023 C 
ATOM      7  C   UNL     1     -41.042 -49.424  30.397  1.00  0.00    -0.001 C 
ENDROOT
BRANCH   5   8
ATOM      8  C   UNL     1     -38.561 -47.304  28.498  1.00  0.00    -0.010 C 
ATOM      9  C   UNL     1     -38.689 -46.078  29.414  1.00  0.00     0.008 C 
ATOM     10  C   UNL     1     -37.225 -48.024  28.754  1.00  0.00     0.008 C 
ENDBRANCH   5   8
TORSDOF 1
ENDMDL
MODEL 9
REMARK VINA RESULT:    -4.498     12.093     14.955
REMARK INTER + INTRA:          -4.951
REMARK INTER:                  -4.790
REMARK INTRA:                  -0.161
REMARK UNBOUND:                -0.191
REMARK SMILES CC1=CC[C@@H](C(C)C)C=C1
REMARK SMILES IDX 1 1 2 2 3 3 4 4 5 5 9 6 10 7 6 8 7 9 8 10
REMARK H PARENT
REMARK Flexibility Score: inf
ROOT
ATOM      1  C   UNL     1     -36.875 -47.749  28.875  1.00  0.00     0.044 C 
ATOM      2  C   UNL     1     -38.326 -47.846  28.511  1.00  0.00    -0.055 C 
ATOM      3  C   UNL     1     -38.854 -49.025  28.140  1.00  0.00    -0.023 C 
ATOM      4  C   UNL     1     -40.337 -49.169  27.918  1.00  0.00     0.035 C 
ATOM      5  C   UNL     1     -40.941 -47.863  27.344  1.00  0.00     0.018 C 
ATOM      6  C   UNL     1     -40.437 -46.666  28.125  1.00  0.00    -0.023 C 
ATOM      7  C   UNL     1     -39.196 -46.654  28.623  1.00  0.00    -0.001 C 
ENDROOT
BRANCH   5   8
ATOM      8  C   UNL     1     -42.494 -47.869  27.245  1.00  0.00    -0.010 C 
ATOM      9  C   UNL     1     -42.993 -48.861  26.185  1.00  0.00     0.008 C 
ATOM     10  C   UNL     1     -43.193 -48.132  28.591  1.00  0.00     0.008 C 
ENDBRANCH   5   8
TORSDOF 1
ENDMDL
