MODEL 1
REMARK VINA RESULT:    -5.740      0.000      0.000
REMARK INTER + INTRA:          -7.598
REMARK INTER:                  -7.418
REMARK INTRA:                  -0.179
REMARK UNBOUND:                -0.179
REMARK SMILES CCCCCCC(=O)[O-]
REMARK SMILES IDX 5 1 6 2 7 3 8 4 9 5 4 6 3 7 2 8 1 9
REMARK H PARENT
REMARK Flexibility Score: inf
ROOT
ATOM      1  C   UNL     1      26.831  -4.345  18.762  1.00  0.00     0.006 C 
ENDROOT
BRANCH   1   2
ATOM      2  C   UNL     1      27.667  -3.463  19.704  1.00  0.00     0.053 C 
BRANCH   2   3
ATOM      3  C   UNL     1      29.127  -3.518  19.375  1.00  0.00     0.041 C 
ATOM      4  O   UNL     1      29.970  -2.980  20.140  1.00  0.00    -0.550 OA
ATOM      5  O   UNL     1      29.560  -4.192  18.240  1.00  0.00    -0.550 OA
ENDBRANCH   2   3
ENDBRANCH   1   2
BRANCH   1   6
ATOM      6  C   UNL     1      25.491  -4.826  19.355  1.00  0.00     0.000 C 
BRANCH   6   7
ATOM      7  C   UNL     1      25.537  -6.209  20.032  1.00  0.00    -0.000 C 
BRANCH   7   8
ATOM      8  C   UNL     1      26.645  -7.111  19.472  1.00  0.00    -0.003 C 
ATOM      9  C   UNL     1      26.666  -8.461  20.182  1.00  0.00     0.004 C 
ENDBRANCH   7   8
ENDBRANCH   6   7
ENDBRANCH   1   6
TORSDOF 5
ENDMDL
MODEL 2
REMARK VINA RESULT:    -5.666      0.300      1.121
REMARK INTER + INTRA:          -7.502
REMARK INTER:                  -7.345
REMARK INTRA:                  -0.156
REMARK UNBOUND:                -0.179
REMARK SMILES CCCCCCC(=O)[O-]
REMARK SMILES IDX 5 1 6 2 7 3 8 4 9 5 4 6 3 7 2 8 1 9
REMARK H PARENT
REMARK Flexibility Score: inf
ROOT
ATOM      1  C   UNL     1      26.916  -4.637  18.825  1.00  0.00     0.006 C 
ENDROOT
BRANCH   1   2
ATOM      2  C   UNL     1      27.658  -3.409  19.379  1.00  0.00     0.053 C 
BRANCH   2   3
ATOM      3  C   UNL     1      29.143  -3.532  19.219  1.00  0.00     0.041 C 
ATOM      4  O   UNL     1      29.624  -4.174  18.249  1.00  0.00    -0.550 OA
ATOM      5  O   UNL     1      29.995  -2.910  20.123  1.00  0.00    -0.550 OA
ENDBRANCH   2   3
ENDBRANCH   1   2
BRANCH   1   6
ATOM      6  C   UNL     1      25.649  -5.028  19.612  1.00  0.00     0.000 C 
BRANCH   6   7
ATOM      7  C   UNL     1      25.364  -6.540  19.678  1.00  0.00    -0.000 C 
BRANCH   7   8
ATOM      8  C   UNL     1      26.626  -7.395  19.501  1.00  0.00    -0.003 C 
ATOM      9  C   UNL     1      26.618  -8.591  20.449  1.00  0.00     0.004 C 
ENDBRANCH   7   8
ENDBRANCH   6   7
ENDBRANCH   1   6
TORSDOF 5
ENDMDL
MODEL 3
REMARK VINA RESULT:    -5.571      2.336      3.984
REMARK INTER + INTRA:          -7.378
REMARK INTER:                  -7.155
REMARK INTRA:                  -0.223
REMARK UNBOUND:                -0.179
REMARK SMILES CCCCCCC(=O)[O-]
REMARK SMILES IDX 5 1 6 2 7 3 8 4 9 5 4 6 3 7 2 8 1 9
REMARK H PARENT
REMARK Flexibility Score: inf
ROOT
ATOM      1  C   UNL     1      27.658  -4.147  19.721  1.00  0.00     0.006 C 
ENDROOT
BRANCH   1   2
ATOM      2  C   UNL     1      28.834  -3.984  18.743  1.00  0.00     0.053 C 
BRANCH   2   3
ATOM      3  C   UNL     1      29.934  -3.150  19.324  1.00  0.00     0.041 C 
ATOM      4  O   UNL     1      29.666  -2.215  20.122  1.00  0.00    -0.550 OA
ATOM      5  O   UNL     1      31.259  -3.427  19.008  1.00  0.00    -0.550 OA
ENDBRANCH   2   3
ENDBRANCH   1   2
BRANCH   1   6
ATOM      6  C   UNL     1      26.404  -3.326  19.357  1.00  0.00     0.000 C 
BRANCH   6   7
ATOM      7  C   UNL     1      26.047  -2.207  20.353  1.00  0.00    -0.000 C 
BRANCH   7   8
ATOM      8  C   UNL     1      26.175  -0.803  19.746  1.00  0.00    -0.003 C 
ATOM      9  C   UNL     1      24.821  -0.101  19.693  1.00  0.00     0.004 C 
ENDBRANCH   7   8
ENDBRANCH   6   7
ENDBRANCH   1   6
TORSDOF 5
ENDMDL
MODEL 4
REMARK VINA RESULT:    -5.526      3.417      4.783
REMARK INTER + INTRA:          -7.320
REMARK INTER:                  -7.074
REMARK INTRA:                  -0.246
REMARK UNBOUND:                -0.179
REMARK SMILES CCCCCCC(=O)[O-]
REMARK SMILES IDX 5 1 6 2 7 3 8 4 9 5 4 6 3 7 2 8 1 9
REMARK H PARENT
REMARK Flexibility Score: inf
ROOT
ATOM      1  C   UNL     1      28.879  -1.238  20.078  1.00  0.00     0.006 C 
ENDROOT
BRANCH   1   2
ATOM      2  C   UNL     1      28.560  -2.703  19.737  1.00  0.00     0.053 C 
BRANCH   2   3
ATOM      3  C   UNL     1      29.700  -3.376  19.036  1.00  0.00     0.041 C 
ATOM      4  O   UNL     1      30.877  -2.965  19.203  1.00  0.00    -0.550 OA
ATOM      5  O   UNL     1      29.464  -4.479  18.224  1.00  0.00    -0.550 OA
ENDBRANCH   2   3
ENDBRANCH   1   2
BRANCH   1   6
ATOM      6  C   UNL     1      28.032  -0.202  19.309  1.00  0.00     0.000 C 
BRANCH   6   7
ATOM      7  C   UNL     1      26.986   0.543  20.159  1.00  0.00    -0.000 C 
BRANCH   7   8
ATOM      8  C   UNL     1      25.544   0.271  19.707  1.00  0.00    -0.003 C 
ATOM      9  C   UNL     1      25.153  -1.181  19.963  1.00  0.00     0.004 C 
ENDBRANCH   7   8
ENDBRANCH   6   7
ENDBRANCH   1   6
TORSDOF 5
ENDMDL
MODEL 5
REMARK VINA RESULT:    -5.425      1.185      1.509
REMARK INTER + INTRA:          -7.190
REMARK INTER:                  -7.008
REMARK INTRA:                  -0.182
REMARK UNBOUND:                -0.179
REMARK SMILES CCCCCCC(=O)[O-]
REMARK SMILES IDX 5 1 6 2 7 3 8 4 9 5 4 6 3 7 2 8 1 9
REMARK H PARENT
REMARK Flexibility Score: inf
ROOT
ATOM      1  C   UNL     1      28.145  -4.426  18.586  1.00  0.00     0.006 C 
ENDROOT
BRANCH   1   2
ATOM      2  C   UNL     1      27.616  -3.263  19.443  1.00  0.00     0.053 C 
BRANCH   2   3
ATOM      3  C   UNL     1      28.728  -2.470  20.058  1.00  0.00     0.041 C 
ATOM      4  O   UNL     1      28.477  -1.403  20.677  1.00  0.00    -0.550 OA
ATOM      5  O   UNL     1      30.038  -2.927  19.977  1.00  0.00    -0.550 OA
ENDBRANCH   2   3
ENDBRANCH   1   2
BRANCH   1   6
ATOM      6  C   UNL     1      27.387  -5.757  18.775  1.00  0.00     0.000 C 
BRANCH   6   7
ATOM      7  C   UNL     1      26.262  -5.722  19.827  1.00  0.00    -0.000 C 
BRANCH   7   8
ATOM      8  C   UNL     1      25.648  -7.104  20.091  1.00  0.00    -0.003 C 
ATOM      9  C   UNL     1      26.721  -8.189  20.100  1.00  0.00     0.004 C 
ENDBRANCH   7   8
ENDBRANCH   6   7
ENDBRANCH   1   6
TORSDOF 5
ENDMDL
MODEL 6
REMARK VINA RESULT:    -5.150      3.315      5.127
REMARK INTER + INTRA:          -6.835
REMARK INTER:                  -6.677
REMARK INTRA:                  -0.158
REMARK UNBOUND:                -0.179
REMARK SMILES CCCCCCC(=O)[O-]
REMARK SMILES IDX 5 1 6 2 7 3 8 4 9 5 4 6 3 7 2 8 1 9
REMARK H PARENT
REMARK Flexibility Score: inf
ROOT
ATOM      1  C   UNL     1      26.704  -5.683  19.829  1.00  0.00     0.006 C 
ENDROOT
BRANCH   1   2
ATOM      2  C   UNL     1      25.168  -5.761  19.794  1.00  0.00     0.053 C 
BRANCH   2   3
ATOM      3  C   UNL     1      24.664  -7.096  20.249  1.00  0.00     0.041 C 
ATOM      4  O   UNL     1      23.428  -7.303  20.357  1.00  0.00    -0.550 OA
ATOM      5  O   UNL     1      25.560  -8.122  20.522  1.00  0.00    -0.550 OA
ENDBRANCH   2   3
ENDBRANCH   1   2
BRANCH   1   6
ATOM      6  C   UNL     1      27.336  -4.966  18.618  1.00  0.00     0.000 C 
BRANCH   6   7
ATOM      7  C   UNL     1      28.288  -3.808  18.971  1.00  0.00    -0.000 C 
BRANCH   7   8
ATOM      8  C   UNL     1      27.604  -2.698  19.781  1.00  0.00    -0.003 C 
ATOM      9  C   UNL     1      28.561  -1.538  20.042  1.00  0.00     0.004 C 
ENDBRANCH   7   8
ENDBRANCH   6   7
ENDBRANCH   1   6
TORSDOF 5
ENDMDL
MODEL 7
REMARK VINA RESULT:    -5.091      2.830      4.928
REMARK INTER + INTRA:          -6.759
REMARK INTER:                  -6.611
REMARK INTRA:                  -0.148
REMARK UNBOUND:                -0.179
REMARK SMILES CCCCCCC(=O)[O-]
REMARK SMILES IDX 5 1 6 2 7 3 8 4 9 5 4 6 3 7 2 8 1 9
REMARK H PARENT
REMARK Flexibility Score: inf
ROOT
ATOM      1  C   UNL     1      25.942  -4.151  19.377  1.00  0.00     0.006 C 
ENDROOT
BRANCH   1   2
ATOM      2  C   UNL     1      26.705  -5.418  19.796  1.00  0.00     0.053 C 
BRANCH   2   3
ATOM      3  C   UNL     1      26.028  -6.665  19.314  1.00  0.00     0.041 C 
ATOM      4  O   UNL     1      26.710  -7.677  19.006  1.00  0.00    -0.550 OA
ATOM      5  O   UNL     1      24.642  -6.719  19.237  1.00  0.00    -0.550 OA
ENDBRANCH   2   3
ENDBRANCH   1   2
BRANCH   1   6
ATOM      6  C   UNL     1      26.629  -2.829  19.776  1.00  0.00     0.000 C 
BRANCH   6   7
ATOM      7  C   UNL     1      28.168  -2.865  19.764  1.00  0.00    -0.000 C 
BRANCH   7   8
ATOM      8  C   UNL     1      28.801  -1.485  19.991  1.00  0.00    -0.003 C 
ATOM      9  C   UNL     1      27.871  -0.370  19.520  1.00  0.00     0.004 C 
ENDBRANCH   7   8
ENDBRANCH   6   7
ENDBRANCH   1   6
TORSDOF 5
ENDMDL
MODEL 8
REMARK VINA RESULT:    -5.069      3.228      3.963
REMARK INTER + INTRA:          -6.730
REMARK INTER:                  -6.475
REMARK INTRA:                  -0.255
REMARK UNBOUND:                -0.179
REMARK SMILES CCCCCCC(=O)[O-]
REMARK SMILES IDX 5 1 6 2 7 3 8 4 9 5 4 6 3 7 2 8 1 9
REMARK H PARENT
REMARK Flexibility Score: inf
ROOT
ATOM      1  C   UNL     1      27.136  -2.079  20.407  1.00  0.00     0.006 C 
ENDROOT
BRANCH   1   2
ATOM      2  C   UNL     1      25.674  -1.817  20.008  1.00  0.00     0.053 C 
BRANCH   2   3
ATOM      3  C   UNL     1      25.407  -0.361  19.780  1.00  0.00     0.041 C 
ATOM      4  O   UNL     1      24.229   0.048  19.612  1.00  0.00    -0.550 OA
ATOM      5  O   UNL     1      26.457   0.549  19.788  1.00  0.00    -0.550 OA
ENDBRANCH   2   3
ENDBRANCH   1   2
BRANCH   1   6
ATOM      6  C   UNL     1      27.780  -3.297  19.713  1.00  0.00     0.000 C 
BRANCH   6   7
ATOM      7  C   UNL     1      26.815  -4.158  18.878  1.00  0.00    -0.000 C 
BRANCH   7   8
ATOM      8  C   UNL     1      26.701  -5.599  19.394  1.00  0.00    -0.003 C 
ATOM      9  C   UNL     1      25.306  -5.877  19.945  1.00  0.00     0.004 C 
ENDBRANCH   7   8
ENDBRANCH   6   7
ENDBRANCH   1   6
TORSDOF 5
ENDMDL
MODEL 9
REMARK VINA RESULT:    -5.033      2.672      4.986
REMARK INTER + INTRA:          -6.683
REMARK INTER:                  -6.546
REMARK INTRA:                  -0.138
REMARK UNBOUND:                -0.179
REMARK SMILES CCCCCCC(=O)[O-]
REMARK SMILES IDX 5 1 6 2 7 3 8 4 9 5 4 6 3 7 2 8 1 9
REMARK H PARENT
REMARK Flexibility Score: inf
ROOT
ATOM      1  C   UNL     1      27.857  -3.236  19.771  1.00  0.00     0.006 C 
ENDROOT
BRANCH   1   2
ATOM      2  C   UNL     1      26.933  -4.456  19.627  1.00  0.00     0.053 C 
BRANCH   2   3
ATOM      3  C   UNL     1      27.484  -5.466  18.667  1.00  0.00     0.041 C 
ATOM      4  O   UNL     1      28.423  -5.154  17.890  1.00  0.00    -0.550 OA
ATOM      5  O   UNL     1      26.981  -6.762  18.654  1.00  0.00    -0.550 OA
ENDBRANCH   2   3
ENDBRANCH   1   2
BRANCH   1   6
ATOM      6  C   UNL     1      27.134  -1.927  20.152  1.00  0.00     0.000 C 
BRANCH   6   7
ATOM      7  C   UNL     1      27.991  -0.652  20.035  1.00  0.00    -0.000 C 
BRANCH   7   8
ATOM      8  C   UNL     1      27.151   0.613  19.810  1.00  0.00    -0.003 C 
ATOM      9  C   UNL     1      25.661   0.285  19.774  1.00  0.00     0.004 C 
ENDBRANCH   7   8
ENDBRANCH   6   7
ENDBRANCH   1   6
TORSDOF 5
ENDMDL
