MODEL 1
REMARK VINA RESULT:    -4.241      0.000      0.000
REMARK INTER + INTRA:          -6.300
REMARK INTER:                  -5.728
REMARK INTRA:                  -0.572
REMARK UNBOUND:                -0.572
REMARK SMILES O=C[C@H](O)[C@H](O)[C@@H](O)CO
REMARK SMILES IDX 7 1 9 2 10 3 5 5 3 6 2 7 1 8 4 9 6 11 8 13
REMARK H PARENT 10 4 4 10 6 12 8 14
REMARK Flexibility Score: inf
ROOT
ATOM      1  C   UNL     1      -5.910 -19.047 -13.023  1.00  0.00     0.171 C 
ENDROOT
BRANCH   1   2
ATOM      2  C   UNL     1      -5.479 -20.497 -12.741  1.00  0.00     0.190 C 
BRANCH   2   3
ATOM      3  O   UNL     1      -6.592 -21.348 -12.720  1.00  0.00    -0.394 OA
ATOM      4  H   UNL     1      -7.125 -21.123 -13.526  1.00  0.00     0.210 HD
ENDBRANCH   2   3
ENDBRANCH   1   2
BRANCH   1   5
ATOM      5  C   UNL     1      -6.202 -18.752 -14.520  1.00  0.00     0.181 C 
BRANCH   5   6
ATOM      6  C   UNL     1      -7.243 -17.621 -14.721  1.00  0.00     0.209 C 
BRANCH   6   7
ATOM      7  C   UNL     1      -7.703 -17.547 -16.157  1.00  0.00     0.258 C 
ATOM      8  O   UNL     1      -8.814 -17.942 -16.473  1.00  0.00    -0.300 OA
ENDBRANCH   6   7
BRANCH   6   9
ATOM      9  O   UNL     1      -6.673 -16.385 -14.376  1.00  0.00    -0.383 OA
ATOM     10  H   UNL     1      -7.216 -16.014 -13.631  1.00  0.00     0.211 HD
ENDBRANCH   6   9
ENDBRANCH   5   6
BRANCH   5  11
ATOM     11  O   UNL     1      -6.684 -19.934 -15.115  1.00  0.00    -0.387 OA
ATOM     12  H   UNL     1      -7.607 -19.748 -15.433  1.00  0.00     0.211 HD
ENDBRANCH   5  11
ENDBRANCH   1   5
BRANCH   1  13
ATOM     13  O   UNL     1      -7.063 -18.762 -12.272  1.00  0.00    -0.388 OA
ATOM     14  H   UNL     1      -6.774 -18.231 -11.484  1.00  0.00     0.211 HD
ENDBRANCH   1  13
TORSDOF 8
ENDMDL
MODEL 2
REMARK VINA RESULT:    -4.121      6.556      7.875
REMARK INTER + INTRA:          -6.139
REMARK INTER:                  -5.808
REMARK INTRA:                  -0.331
REMARK UNBOUND:                -0.572
REMARK SMILES O=C[C@H](O)[C@H](O)[C@@H](O)CO
REMARK SMILES IDX 7 1 9 2 10 3 5 5 3 6 2 7 1 8 4 9 6 11 8 13
REMARK H PARENT 10 4 4 10 6 12 8 14
REMARK Flexibility Score: inf
ROOT
ATOM      1  C   UNL     1      -2.591 -23.652 -11.500  1.00  0.00     0.171 C 
ENDROOT
BRANCH   1   2
ATOM      2  C   UNL     1      -2.778 -24.792 -12.517  1.00  0.00     0.190 C 
BRANCH   2   3
ATOM      3  O   UNL     1      -1.644 -25.616 -12.547  1.00  0.00    -0.394 OA
ATOM      4  H   UNL     1      -0.929 -25.117 -12.074  1.00  0.00     0.210 HD
ENDBRANCH   2   3
ENDBRANCH   1   2
BRANCH   1   5
ATOM      5  C   UNL     1      -1.745 -22.461 -12.030  1.00  0.00     0.181 C 
BRANCH   5   6
ATOM      6  C   UNL     1      -0.264 -22.523 -11.577  1.00  0.00     0.209 C 
BRANCH   6   7
ATOM      7  C   UNL     1       0.010 -21.546 -10.461  1.00  0.00     0.258 C 
ATOM      8  O   UNL     1      -0.538 -21.673  -9.377  1.00  0.00    -0.300 OA
ENDBRANCH   6   7
BRANCH   6   9
ATOM      9  O   UNL     1       0.576 -22.206 -12.658  1.00  0.00    -0.383 OA
ATOM     10  H   UNL     1       1.279 -22.907 -12.692  1.00  0.00     0.211 HD
ENDBRANCH   6   9
ENDBRANCH   5   6
BRANCH   5  11
ATOM     11  O   UNL     1      -2.322 -21.267 -11.558  1.00  0.00    -0.387 OA
ATOM     12  H   UNL     1      -2.882 -20.900 -12.293  1.00  0.00     0.211 HD
ENDBRANCH   5  11
ENDBRANCH   1   5
BRANCH   1  13
ATOM     13  O   UNL     1      -3.856 -23.173 -11.117  1.00  0.00    -0.388 OA
ATOM     14  H   UNL     1      -4.498 -23.923 -11.229  1.00  0.00     0.211 HD
ENDBRANCH   1  13
TORSDOF 8
ENDMDL
MODEL 3
REMARK VINA RESULT:    -3.877      4.355      6.404
REMARK INTER + INTRA:          -5.809
REMARK INTER:                  -5.121
REMARK INTRA:                  -0.689
REMARK UNBOUND:                -0.572
REMARK SMILES O=C[C@H](O)[C@H](O)[C@@H](O)CO
REMARK SMILES IDX 7 1 9 2 10 3 5 5 3 6 2 7 1 8 4 9 6 11 8 13
REMARK H PARENT 10 4 4 10 6 12 8 14
REMARK Flexibility Score: inf
ROOT
ATOM      1  C   UNL     1      -4.810 -21.283 -11.302  1.00  0.00     0.171 C 
ENDROOT
BRANCH   1   2
ATOM      2  C   UNL     1      -5.980 -21.777 -12.172  1.00  0.00     0.190 C 
BRANCH   2   3
ATOM      3  O   UNL     1      -6.939 -22.429 -11.385  1.00  0.00    -0.394 OA
ATOM      4  H   UNL     1      -6.458 -22.756 -10.581  1.00  0.00     0.210 HD
ENDBRANCH   2   3
ENDBRANCH   1   2
BRANCH   1   5
ATOM      5  C   UNL     1      -3.703 -22.347 -11.065  1.00  0.00     0.181 C 
BRANCH   5   6
ATOM      6  C   UNL     1      -2.326 -21.925 -11.637  1.00  0.00     0.209 C 
BRANCH   6   7
ATOM      7  C   UNL     1      -1.506 -23.126 -12.038  1.00  0.00     0.258 C 
ATOM      8  O   UNL     1      -1.237 -23.994 -11.222  1.00  0.00    -0.300 OA
ENDBRANCH   6   7
BRANCH   6   9
ATOM      9  O   UNL     1      -1.610 -21.205 -10.666  1.00  0.00    -0.383 OA
ATOM     10  H   UNL     1      -2.281 -20.769 -10.077  1.00  0.00     0.211 HD
ENDBRANCH   6   9
ENDBRANCH   5   6
BRANCH   5  11
ATOM     11  O   UNL     1      -4.109 -23.548 -11.677  1.00  0.00    -0.387 OA
ATOM     12  H   UNL     1      -3.340 -23.881 -12.211  1.00  0.00     0.211 HD
ENDBRANCH   5  11
ENDBRANCH   1   5
BRANCH   1  13
ATOM     13  O   UNL     1      -4.232 -20.158 -11.915  1.00  0.00    -0.388 OA
ATOM     14  H   UNL     1      -3.248 -20.239 -11.805  1.00  0.00     0.211 HD
ENDBRANCH   1  13
TORSDOF 8
ENDMDL
MODEL 4
REMARK VINA RESULT:    -3.836     11.474     13.603
REMARK INTER + INTRA:          -5.754
REMARK INTER:                  -5.355
REMARK INTRA:                  -0.398
REMARK UNBOUND:                -0.572
REMARK SMILES O=C[C@H](O)[C@H](O)[C@@H](O)CO
REMARK SMILES IDX 7 1 9 2 10 3 5 5 3 6 2 7 1 8 4 9 6 11 8 13
REMARK H PARENT 10 4 4 10 6 12 8 14
REMARK Flexibility Score: inf
ROOT
ATOM      1  C   UNL     1       2.165 -26.696 -10.689  1.00  0.00     0.171 C 
ENDROOT
BRANCH   1   2
ATOM      2  C   UNL     1       0.756 -27.312 -10.761  1.00  0.00     0.190 C 
BRANCH   2   3
ATOM      3  O   UNL     1      -0.115 -26.471 -11.465  1.00  0.00    -0.394 OA
ATOM      4  H   UNL     1      -0.986 -26.943 -11.500  1.00  0.00     0.210 HD
ENDBRANCH   2   3
ENDBRANCH   1   2
BRANCH   1   5
ATOM      5  C   UNL     1       3.161 -27.266 -11.736  1.00  0.00     0.181 C 
BRANCH   5   6
ATOM      6  C   UNL     1       2.629 -28.538 -12.447  1.00  0.00     0.209 C 
BRANCH   6   7
ATOM      7  C   UNL     1       3.276 -29.785 -11.897  1.00  0.00     0.258 C 
ATOM      8  O   UNL     1       2.952 -30.222 -10.804  1.00  0.00    -0.300 OA
ENDBRANCH   6   7
BRANCH   6   9
ATOM      9  O   UNL     1       2.908 -28.464 -13.821  1.00  0.00    -0.383 OA
ATOM     10  H   UNL     1       2.676 -27.543 -14.114  1.00  0.00     0.211 HD
ENDBRANCH   6   9
ENDBRANCH   5   6
BRANCH   5  11
ATOM     11  O   UNL     1       4.364 -27.577 -11.074  1.00  0.00    -0.387 OA
ATOM     12  H   UNL     1       4.767 -28.353 -11.545  1.00  0.00     0.211 HD
ENDBRANCH   5  11
ENDBRANCH   1   5
BRANCH   1  13
ATOM     13  O   UNL     1       2.062 -25.307 -10.871  1.00  0.00    -0.388 OA
ATOM     14  H   UNL     1       1.179 -25.132 -11.291  1.00  0.00     0.211 HD
ENDBRANCH   1  13
TORSDOF 8
ENDMDL
MODEL 5
REMARK VINA RESULT:    -3.789      6.348      8.434
REMARK INTER + INTRA:          -5.690
REMARK INTER:                  -5.175
REMARK INTRA:                  -0.515
REMARK UNBOUND:                -0.572
REMARK SMILES O=C[C@H](O)[C@H](O)[C@@H](O)CO
REMARK SMILES IDX 7 1 9 2 10 3 5 5 3 6 2 7 1 8 4 9 6 11 8 13
REMARK H PARENT 10 4 4 10 6 12 8 14
REMARK Flexibility Score: inf
ROOT
ATOM      1  C   UNL     1       0.019 -23.188 -10.393  1.00  0.00     0.171 C 
ENDROOT
BRANCH   1   2
ATOM      2  C   UNL     1       0.645 -22.214  -9.379  1.00  0.00     0.190 C 
BRANCH   2   3
ATOM      3  O   UNL     1       1.654 -21.453  -9.985  1.00  0.00    -0.394 OA
ATOM      4  H   UNL     1       1.309 -21.201 -10.880  1.00  0.00     0.210 HD
ENDBRANCH   2   3
ENDBRANCH   1   2
BRANCH   1   5
ATOM      5  C   UNL     1      -0.585 -22.498 -11.647  1.00  0.00     0.181 C 
BRANCH   5   6
ATOM      6  C   UNL     1      -1.801 -23.263 -12.231  1.00  0.00     0.209 C 
BRANCH   6   7
ATOM      7  C   UNL     1      -3.042 -23.036 -11.404  1.00  0.00     0.258 C 
ATOM      8  O   UNL     1      -3.489 -21.910 -11.253  1.00  0.00    -0.300 OA
ENDBRANCH   6   7
BRANCH   6   9
ATOM      9  O   UNL     1      -1.528 -24.641 -12.250  1.00  0.00    -0.383 OA
ATOM     10  H   UNL     1      -1.264 -24.896 -11.327  1.00  0.00     0.211 HD
ENDBRANCH   6   9
ENDBRANCH   5   6
BRANCH   5  11
ATOM     11  O   UNL     1       0.420 -22.410 -12.628  1.00  0.00    -0.387 OA
ATOM     12  H   UNL     1       1.256 -22.131 -12.169  1.00  0.00     0.211 HD
ENDBRANCH   5  11
ENDBRANCH   1   5
BRANCH   1  13
ATOM     13  O   UNL     1       1.002 -24.103 -10.810  1.00  0.00    -0.388 OA
ATOM     14  H   UNL     1       1.338 -24.561  -9.995  1.00  0.00     0.211 HD
ENDBRANCH   1  13
TORSDOF 8
ENDMDL
MODEL 6
REMARK VINA RESULT:    -3.760      2.822      5.742
REMARK INTER + INTRA:          -5.651
REMARK INTER:                  -5.077
REMARK INTRA:                  -0.574
REMARK UNBOUND:                -0.572
REMARK SMILES O=C[C@H](O)[C@H](O)[C@@H](O)CO
REMARK SMILES IDX 7 1 9 2 10 3 5 5 3 6 2 7 1 8 4 9 6 11 8 13
REMARK H PARENT 10 4 4 10 6 12 8 14
REMARK Flexibility Score: inf
ROOT
ATOM      1  C   UNL     1      -5.214 -20.111 -11.750  1.00  0.00     0.171 C 
ENDROOT
BRANCH   1   2
ATOM      2  C   UNL     1      -5.826 -19.528 -13.036  1.00  0.00     0.190 C 
BRANCH   2   3
ATOM      3  O   UNL     1      -6.456 -20.533 -13.782  1.00  0.00    -0.394 OA
ATOM      4  H   UNL     1      -7.388 -20.226 -13.927  1.00  0.00     0.210 HD
ENDBRANCH   2   3
ENDBRANCH   1   2
BRANCH   1   5
ATOM      5  C   UNL     1      -5.853 -21.451 -11.294  1.00  0.00     0.181 C 
BRANCH   5   6
ATOM      6  C   UNL     1      -6.054 -21.533  -9.758  1.00  0.00     0.209 C 
BRANCH   6   7
ATOM      7  C   UNL     1      -4.813 -22.044  -9.069  1.00  0.00     0.258 C 
ATOM      8  O   UNL     1      -3.749 -21.461  -9.196  1.00  0.00    -0.300 OA
ENDBRANCH   6   7
BRANCH   6   9
ATOM      9  O   UNL     1      -7.114 -22.408  -9.466  1.00  0.00    -0.383 OA
ATOM     10  H   UNL     1      -7.582 -22.591 -10.323  1.00  0.00     0.211 HD
ENDBRANCH   6   9
ENDBRANCH   5   6
BRANCH   5  11
ATOM     11  O   UNL     1      -5.012 -22.502 -11.705  1.00  0.00    -0.387 OA
ATOM     12  H   UNL     1      -5.113 -22.592 -12.689  1.00  0.00     0.211 HD
ENDBRANCH   5  11
ENDBRANCH   1   5
BRANCH   1  13
ATOM     13  O   UNL     1      -3.838 -20.312 -11.953  1.00  0.00    -0.388 OA
ATOM     14  H   UNL     1      -3.585 -19.803 -12.768  1.00  0.00     0.211 HD
ENDBRANCH   1  13
TORSDOF 8
ENDMDL
MODEL 7
REMARK VINA RESULT:    -3.751     13.044     14.466
REMARK INTER + INTRA:          -5.639
REMARK INTER:                  -4.973
REMARK INTRA:                  -0.666
REMARK UNBOUND:                -0.572
REMARK SMILES O=C[C@H](O)[C@H](O)[C@@H](O)CO
REMARK SMILES IDX 7 1 9 2 10 3 5 5 3 6 2 7 1 8 4 9 6 11 8 13
REMARK H PARENT 10 4 4 10 6 12 8 14
REMARK Flexibility Score: inf
ROOT
ATOM      1  C   UNL     1       2.207 -27.773 -11.490  1.00  0.00     0.171 C 
ENDROOT
BRANCH   1   2
ATOM      2  C   UNL     1       3.456 -27.858 -10.594  1.00  0.00     0.190 C 
BRANCH   2   3
ATOM      3  O   UNL     1       4.523 -27.155 -11.169  1.00  0.00    -0.394 OA
ATOM      4  H   UNL     1       4.750 -26.429 -10.531  1.00  0.00     0.210 HD
ENDBRANCH   2   3
ENDBRANCH   1   2
BRANCH   1   5
ATOM      5  C   UNL     1       2.253 -28.703 -12.733  1.00  0.00     0.181 C 
BRANCH   5   6
ATOM      6  C   UNL     1       2.865 -30.094 -12.425  1.00  0.00     0.209 C 
BRANCH   6   7
ATOM      7  C   UNL     1       3.443 -30.727 -13.667  1.00  0.00     0.258 C 
ATOM      8  O   UNL     1       2.905 -30.570 -14.751  1.00  0.00    -0.300 OA
ENDBRANCH   6   7
BRANCH   6   9
ATOM      9  O   UNL     1       1.870 -30.946 -11.917  1.00  0.00    -0.383 OA
ATOM     10  H   UNL     1       0.995 -30.564 -12.192  1.00  0.00     0.211 HD
ENDBRANCH   6   9
ENDBRANCH   5   6
BRANCH   5  11
ATOM     11  O   UNL     1       3.024 -28.070 -13.727  1.00  0.00    -0.387 OA
ATOM     12  H   UNL     1       3.110 -28.708 -14.484  1.00  0.00     0.211 HD
ENDBRANCH   5  11
ENDBRANCH   1   5
BRANCH   1  13
ATOM     13  O   UNL     1       1.075 -28.099 -10.723  1.00  0.00    -0.388 OA
ATOM     14  H   UNL     1       0.404 -28.488 -11.344  1.00  0.00     0.211 HD
ENDBRANCH   1  13
TORSDOF 8
ENDMDL
MODEL 8
REMARK VINA RESULT:    -3.730      2.402      3.761
REMARK INTER + INTRA:          -5.610
REMARK INTER:                  -4.899
REMARK INTRA:                  -0.711
REMARK UNBOUND:                -0.572
REMARK SMILES O=C[C@H](O)[C@H](O)[C@@H](O)CO
REMARK SMILES IDX 7 1 9 2 10 3 5 5 3 6 2 7 1 8 4 9 6 11 8 13
REMARK H PARENT 10 4 4 10 6 12 8 14
REMARK Flexibility Score: inf
ROOT
ATOM      1  C   UNL     1      -5.073 -21.824 -10.717  1.00  0.00     0.171 C 
ENDROOT
BRANCH   1   2
ATOM      2  C   UNL     1      -6.158 -21.546  -9.662  1.00  0.00     0.190 C 
BRANCH   2   3
ATOM      3  O   UNL     1      -7.073 -22.606  -9.604  1.00  0.00    -0.394 OA
ATOM      4  H   UNL     1      -6.574 -23.380  -9.235  1.00  0.00     0.210 HD
ENDBRANCH   2   3
ENDBRANCH   1   2
BRANCH   1   5
ATOM      5  C   UNL     1      -5.453 -21.366 -12.153  1.00  0.00     0.181 C 
BRANCH   5   6
ATOM      6  C   UNL     1      -5.346 -19.831 -12.346  1.00  0.00     0.209 C 
BRANCH   6   7
ATOM      7  C   UNL     1      -6.151 -19.371 -13.536  1.00  0.00     0.258 C 
ATOM      8  O   UNL     1      -6.053 -19.943 -14.610  1.00  0.00    -0.300 OA
ENDBRANCH   6   7
BRANCH   6   9
ATOM      9  O   UNL     1      -4.004 -19.472 -12.554  1.00  0.00    -0.383 OA
ATOM     10  H   UNL     1      -3.482 -20.317 -12.590  1.00  0.00     0.211 HD
ENDBRANCH   6   9
ENDBRANCH   5   6
BRANCH   5  11
ATOM     11  O   UNL     1      -6.776 -21.772 -12.408  1.00  0.00    -0.387 OA
ATOM     12  H   UNL     1      -7.308 -21.571 -11.593  1.00  0.00     0.211 HD
ENDBRANCH   5  11
ENDBRANCH   1   5
BRANCH   1  13
ATOM     13  O   UNL     1      -3.889 -21.172 -10.333  1.00  0.00    -0.388 OA
ATOM     14  H   UNL     1      -3.762 -20.407 -10.954  1.00  0.00     0.211 HD
ENDBRANCH   1  13
TORSDOF 8
ENDMDL
MODEL 9
REMARK VINA RESULT:    -3.710      3.649      5.392
REMARK INTER + INTRA:          -5.584
REMARK INTER:                  -4.654
REMARK INTRA:                  -0.930
REMARK UNBOUND:                -0.572
REMARK SMILES O=C[C@H](O)[C@H](O)[C@@H](O)CO
REMARK SMILES IDX 7 1 9 2 10 3 5 5 3 6 2 7 1 8 4 9 6 11 8 13
REMARK H PARENT 10 4 4 10 6 12 8 14
REMARK Flexibility Score: inf
ROOT
ATOM      1  C   UNL     1      -3.658 -22.571 -10.335  1.00  0.00     0.171 C 
ENDROOT
BRANCH   1   2
ATOM      2  C   UNL     1      -2.307 -21.840 -10.436  1.00  0.00     0.190 C 
BRANCH   2   3
ATOM      3  O   UNL     1      -2.220 -21.131 -11.642  1.00  0.00    -0.394 OA
ATOM      4  H   UNL     1      -3.138 -21.112 -12.017  1.00  0.00     0.210 HD
ENDBRANCH   2   3
ENDBRANCH   1   2
BRANCH   1   5
ATOM      5  C   UNL     1      -4.871 -21.632 -10.092  1.00  0.00     0.181 C 
BRANCH   5   6
ATOM      6  C   UNL     1      -5.798 -21.510 -11.329  1.00  0.00     0.209 C 
BRANCH   6   7
ATOM      7  C   UNL     1      -5.674 -20.152 -11.975  1.00  0.00     0.258 C 
ATOM      8  O   UNL     1      -4.658 -19.842 -12.577  1.00  0.00    -0.300 OA
ENDBRANCH   6   7
BRANCH   6   9
ATOM      9  O   UNL     1      -7.135 -21.694 -10.939  1.00  0.00    -0.383 OA
ATOM     10  H   UNL     1      -7.120 -22.025 -10.002  1.00  0.00     0.211 HD
ENDBRANCH   6   9
ENDBRANCH   5   6
BRANCH   5  11
ATOM     11  O   UNL     1      -4.379 -20.357  -9.756  1.00  0.00    -0.387 OA
ATOM     12  H   UNL     1      -3.388 -20.400  -9.809  1.00  0.00     0.211 HD
ENDBRANCH   5  11
ENDBRANCH   1   5
BRANCH   1  13
ATOM     13  O   UNL     1      -3.874 -23.292 -11.521  1.00  0.00    -0.388 OA
ATOM     14  H   UNL     1      -3.708 -22.668 -12.276  1.00  0.00     0.211 HD
ENDBRANCH   1  13
TORSDOF 8
ENDMDL
