MODEL 1
REMARK VINA RESULT:    -1.699      0.000      0.000
REMARK INTER + INTRA:          -2.891
REMARK INTER:                  -2.295
REMARK INTRA:                  -0.597
REMARK UNBOUND:                -0.597
REMARK SMILES CCCCCCCC(=O)[O-]
REMARK SMILES IDX 5 1 6 2 7 3 8 4 9 5 10 6 4 7 3 8 2 9 1 10
REMARK H PARENT
REMARK Flexibility Score: inf
ROOT
ATOM      1  C   UNL     1      23.368  28.123  16.347  1.00  0.00     0.000 C 
ENDROOT
BRANCH   1   2
ATOM      2  C   UNL     1      24.162  29.240  15.639  1.00  0.00     0.006 C 
BRANCH   2   3
ATOM      3  C   UNL     1      23.576  29.682  14.289  1.00  0.00     0.053 C 
BRANCH   3   4
ATOM      4  C   UNL     1      24.521  29.419  13.156  1.00  0.00     0.041 C 
ATOM      5  O   UNL     1      25.531  28.686  13.329  1.00  0.00    -0.550 OA
ATOM      6  O   UNL     1      24.305  30.011  11.918  1.00  0.00    -0.550 OA
ENDBRANCH   3   4
ENDBRANCH   2   3
ENDBRANCH   1   2
BRANCH   1   7
ATOM      7  C   UNL     1      23.798  26.689  15.988  1.00  0.00     0.000 C 
BRANCH   7   8
ATOM      8  C   UNL     1      22.863  26.020  14.970  1.00  0.00    -0.000 C 
BRANCH   8   9
ATOM      9  C   UNL     1      23.642  25.546  13.738  1.00  0.00    -0.003 C 
ATOM     10  C   UNL     1      23.030  26.098  12.452  1.00  0.00     0.004 C 
ENDBRANCH   8   9
ENDBRANCH   7   8
ENDBRANCH   1   7
TORSDOF 6
ENDMDL
MODEL 2
REMARK VINA RESULT:    -1.621     24.689     26.015
REMARK INTER + INTRA:          -2.786
REMARK INTER:                  -2.126
REMARK INTRA:                  -0.661
REMARK UNBOUND:                -0.597
REMARK SMILES CCCCCCCC(=O)[O-]
REMARK SMILES IDX 5 1 6 2 7 3 8 4 9 5 10 6 4 7 3 8 2 9 1 10
REMARK H PARENT
REMARK Flexibility Score: inf
ROOT
ATOM      1  C   UNL     1       6.929  11.481  27.575  1.00  0.00     0.000 C 
ENDROOT
BRANCH   1   2
ATOM      2  C   UNL     1       5.908  12.533  27.092  1.00  0.00     0.006 C 
BRANCH   2   3
ATOM      3  C   UNL     1       6.533  13.844  26.590  1.00  0.00     0.053 C 
BRANCH   3   4
ATOM      4  C   UNL     1       7.313  13.645  25.327  1.00  0.00     0.041 C 
ATOM      5  O   UNL     1       6.720  13.366  24.252  1.00  0.00    -0.550 OA
ATOM      6  O   UNL     1       8.700  13.734  25.344  1.00  0.00    -0.550 OA
ENDBRANCH   3   4
ENDBRANCH   2   3
ENDBRANCH   1   2
BRANCH   1   7
ATOM      7  C   UNL     1       6.939  10.167  26.774  1.00  0.00     0.000 C 
BRANCH   7   8
ATOM      8  C   UNL     1       8.109  10.078  25.784  1.00  0.00    -0.000 C 
BRANCH   8   9
ATOM      9  C   UNL     1       7.602   9.882  24.351  1.00  0.00    -0.003 C 
ATOM     10  C   UNL     1       6.076   9.875  24.302  1.00  0.00     0.004 C 
ENDBRANCH   8   9
ENDBRANCH   7   8
ENDBRANCH   1   7
TORSDOF 6
ENDMDL
MODEL 3
REMARK VINA RESULT:    -1.609     24.031     25.366
REMARK INTER + INTRA:          -2.770
REMARK INTER:                  -2.194
REMARK INTRA:                  -0.576
REMARK UNBOUND:                -0.597
REMARK SMILES CCCCCCCC(=O)[O-]
REMARK SMILES IDX 5 1 6 2 7 3 8 4 9 5 10 6 4 7 3 8 2 9 1 10
REMARK H PARENT
REMARK Flexibility Score: inf
ROOT
ATOM      1  C   UNL     1       5.930  14.116  26.393  1.00  0.00     0.000 C 
ENDROOT
BRANCH   1   2
ATOM      2  C   UNL     1       6.738  15.170  27.179  1.00  0.00     0.006 C 
BRANCH   2   3
ATOM      3  C   UNL     1       8.076  14.661  27.738  1.00  0.00     0.053 C 
BRANCH   3   4
ATOM      4  C   UNL     1       9.130  14.575  26.677  1.00  0.00     0.041 C 
ATOM      5  O   UNL     1       9.807  15.591  26.371  1.00  0.00    -0.550 OA
ATOM      6  O   UNL     1       9.340  13.379  26.002  1.00  0.00    -0.550 OA
ENDBRANCH   3   4
ENDBRANCH   2   3
ENDBRANCH   1   2
BRANCH   1   7
ATOM      7  C   UNL     1       5.875  12.721  27.041  1.00  0.00     0.000 C 
BRANCH   7   8
ATOM      8  C   UNL     1       6.187  11.588  26.052  1.00  0.00    -0.000 C 
BRANCH   8   9
ATOM      9  C   UNL     1       7.024  10.491  26.719  1.00  0.00    -0.003 C 
ATOM     10  C   UNL     1       7.684  11.002  27.998  1.00  0.00     0.004 C 
ENDBRANCH   8   9
ENDBRANCH   7   8
ENDBRANCH   1   7
TORSDOF 6
ENDMDL
MODEL 4
REMARK VINA RESULT:    -1.606      2.512      3.691
REMARK INTER + INTRA:          -2.766
REMARK INTER:                  -2.247
REMARK INTRA:                  -0.520
REMARK UNBOUND:                -0.597
REMARK SMILES CCCCCCCC(=O)[O-]
REMARK SMILES IDX 5 1 6 2 7 3 8 4 9 5 10 6 4 7 3 8 2 9 1 10
REMARK H PARENT
REMARK Flexibility Score: inf
ROOT
ATOM      1  C   UNL     1      24.167  29.383  14.354  1.00  0.00     0.000 C 
ENDROOT
BRANCH   1   2
ATOM      2  C   UNL     1      24.615  28.523  15.555  1.00  0.00     0.006 C 
BRANCH   2   3
ATOM      3  C   UNL     1      25.658  27.448  15.215  1.00  0.00     0.053 C 
BRANCH   3   4
ATOM      4  C   UNL     1      25.186  26.074  15.581  1.00  0.00     0.041 C 
ATOM      5  O   UNL     1      24.474  25.413  14.779  1.00  0.00    -0.550 OA
ATOM      6  O   UNL     1      25.502  25.537  16.823  1.00  0.00    -0.550 OA
ENDBRANCH   3   4
ENDBRANCH   2   3
ENDBRANCH   1   2
BRANCH   1   7
ATOM      7  C   UNL     1      24.916  29.106  13.038  1.00  0.00     0.000 C 
BRANCH   7   8
ATOM      8  C   UNL     1      23.975  28.757  11.876  1.00  0.00    -0.000 C 
BRANCH   8   9
ATOM      9  C   UNL     1      23.606  27.270  11.896  1.00  0.00    -0.003 C 
ATOM     10  C   UNL     1      22.145  27.070  12.294  1.00  0.00     0.004 C 
ENDBRANCH   8   9
ENDBRANCH   7   8
ENDBRANCH   1   7
TORSDOF 6
ENDMDL
MODEL 5
REMARK VINA RESULT:    -1.540      1.803      2.939
REMARK INTER + INTRA:          -2.677
REMARK INTER:                  -2.159
REMARK INTRA:                  -0.517
REMARK UNBOUND:                -0.597
REMARK SMILES CCCCCCCC(=O)[O-]
REMARK SMILES IDX 5 1 6 2 7 3 8 4 9 5 10 6 4 7 3 8 2 9 1 10
REMARK H PARENT
REMARK Flexibility Score: inf
ROOT
ATOM      1  C   UNL     1      23.360  28.524  11.875  1.00  0.00     0.000 C 
ENDROOT
BRANCH   1   2
ATOM      2  C   UNL     1      24.379  29.321  12.716  1.00  0.00     0.006 C 
BRANCH   2   3
ATOM      3  C   UNL     1      23.867  29.752  14.099  1.00  0.00     0.053 C 
BRANCH   3   4
ATOM      4  C   UNL     1      24.534  28.992  15.204  1.00  0.00     0.041 C 
ATOM      5  O   UNL     1      24.458  29.402  16.393  1.00  0.00    -0.550 OA
ATOM      6  O   UNL     1      25.271  27.849  14.918  1.00  0.00    -0.550 OA
ENDBRANCH   3   4
ENDBRANCH   2   3
ENDBRANCH   1   2
BRANCH   1   7
ATOM      7  C   UNL     1      22.015  28.248  12.571  1.00  0.00     0.000 C 
BRANCH   7   8
ATOM      8  C   UNL     1      21.869  26.793  13.038  1.00  0.00    -0.000 C 
BRANCH   8   9
ATOM      9  C   UNL     1      23.010  25.925  12.494  1.00  0.00    -0.003 C 
ATOM     10  C   UNL     1      23.518  24.953  13.556  1.00  0.00     0.004 C 
ENDBRANCH   8   9
ENDBRANCH   7   8
ENDBRANCH   1   7
TORSDOF 6
ENDMDL
MODEL 6
REMARK VINA RESULT:     0.505     16.177     17.278
REMARK INTER + INTRA:           0.086
REMARK INTER:                  -0.011
REMARK INTRA:                   0.097
REMARK UNBOUND:                -0.597
REMARK SMILES CCCCCCCC(=O)[O-]
REMARK SMILES IDX 5 1 6 2 7 3 8 4 9 5 10 6 4 7 3 8 2 9 1 10
REMARK H PARENT
REMARK Flexibility Score: inf
ROOT
ATOM      1  C   UNL     1       7.523  22.634  18.217  1.00  0.00     0.000 C 
ENDROOT
BRANCH   1   2
ATOM      2  C   UNL     1       8.313  21.705  19.163  1.00  0.00     0.006 C 
BRANCH   2   3
ATOM      3  C   UNL     1       8.365  22.178  20.624  1.00  0.00     0.053 C 
BRANCH   3   4
ATOM      4  C   UNL     1       8.818  21.090  21.549  1.00  0.00     0.041 C 
ATOM      5  O   UNL     1       7.985  20.491  22.279  1.00  0.00    -0.550 OA
ATOM      6  O   UNL     1      10.165  20.761  21.629  1.00  0.00    -0.550 OA
ENDBRANCH   3   4
ENDBRANCH   2   3
ENDBRANCH   1   2
BRANCH   1   7
ATOM      7  C   UNL     1       8.262  23.916  17.795  1.00  0.00     0.000 C 
BRANCH   7   8
ATOM      8  C   UNL     1       9.790  23.776  17.861  1.00  0.00    -0.000 C 
BRANCH   8   9
ATOM      9  C   UNL     1      10.295  22.779  16.812  1.00  0.00    -0.003 C 
ATOM     10  C   UNL     1       9.595  22.987  15.471  1.00  0.00     0.004 C 
ENDBRANCH   8   9
ENDBRANCH   7   8
ENDBRANCH   1   7
TORSDOF 6
ENDMDL
