MODEL 1
REMARK VINA RESULT:    -6.478      0.000      0.000
REMARK INTER + INTRA:          -7.566
REMARK INTER:                  -7.425
REMARK INTRA:                  -0.141
REMARK UNBOUND:                -0.141
REMARK SMILES CC1(C)CC[C@]23CO[C@@]4(C=C[C@H]5[C@]6(C)CC[C@H](O)[C@@](C)(CO)[C@@H]6CC[C@]5(C)[C@@]4(C)C[C@@H]2O)[C@H]3C1
REMARK SMILES IDX 1 1 2 2 4 3 5 4 6 5 7 6 8 7 9 8 33 9 34 10 10 11 11 12 12 13
REMARK SMILES IDX 13 14 15 15 16 16 17 17 19 18 23 19 24 20 25 21 26 22 28 23
REMARK SMILES IDX 30 24 31 25 29 26 27 27 20 28 14 29 3 30 32 31 21 33 22 34
REMARK SMILES IDX 18 36
REMARK H PARENT 32 32 22 35 18 37
REMARK Flexibility Score: inf
ROOT
ATOM      1  C   UNL     1      15.234  22.881  42.495  1.00  0.00     0.011 C 
ATOM      2  C   UNL     1      14.552  24.248  42.746  1.00  0.00    -0.035 C 
ATOM      3  C   UNL     1      13.547  24.592  41.625  1.00  0.00     0.007 C 
ATOM      4  C   UNL     1      14.228  24.825  40.271  1.00  0.00     0.013 C 
ATOM      5  C   UNL     1      15.432  25.816  40.309  1.00  0.00     0.026 C 
ATOM      6  C   UNL     1      15.000  27.283  40.462  1.00  0.00     0.171 C 
ATOM      7  O   UNL     1      15.958  27.947  41.262  1.00  0.00    -0.369 OA
ATOM      8  C   UNL     1      17.036  27.047  41.463  1.00  0.00     0.096 C 
ATOM      9  C   UNL     1      16.355  25.652  41.501  1.00  0.00     0.037 C 
ATOM     10  C   UNL     1      15.595  25.384  42.835  1.00  0.00     0.014 C 
ATOM     11  C   UNL     1      17.680  27.390  42.804  1.00  0.00     0.005 C 
ATOM     12  C   UNL     1      19.001  27.503  43.021  1.00  0.00    -0.024 C 
ATOM     13  C   UNL     1      20.038  27.522  41.911  1.00  0.00     0.024 C 
ATOM     14  C   UNL     1      21.538  27.285  42.399  1.00  0.00    -0.022 C 
ATOM     15  C   UNL     1      21.987  28.537  43.239  1.00  0.00     0.010 C 
ATOM     16  C   UNL     1      22.645  29.636  42.407  1.00  0.00     0.033 C 
ATOM     17  C   UNL     1      23.940  29.183  41.694  1.00  0.00     0.123 C 
ATOM     18  C   UNL     1      23.985  27.644  41.347  1.00  0.00     0.020 C 
ATOM     19  C   UNL     1      22.512  27.061  41.150  1.00  0.00     0.006 C 
ATOM     20  C   UNL     1      21.867  27.590  39.831  1.00  0.00     0.005 C 
ATOM     21  C   UNL     1      20.563  26.875  39.470  1.00  0.00     0.008 C 
ATOM     22  C   UNL     1      19.548  26.700  40.658  1.00  0.00    -0.017 C 
ATOM     23  C   UNL     1      18.072  27.224  40.255  1.00  0.00     0.009 C 
ATOM     24  C   UNL     1      17.547  26.524  38.929  1.00  0.00     0.043 C 
ATOM     25  C   UNL     1      16.285  25.618  39.022  1.00  0.00     0.124 C 
ATOM     26  C   UNL     1      18.123  28.770  39.943  1.00  0.00     0.015 C 
ATOM     27  C   UNL     1      19.526  25.181  40.996  1.00  0.00     0.013 C 
ATOM     28  C   UNL     1      24.859  27.404  40.073  1.00  0.00     0.017 C 
ATOM     29  C   UNL     1      21.605  26.057  43.364  1.00  0.00     0.012 C 
ATOM     30  C   UNL     1      13.788  24.161  44.085  1.00  0.00     0.011 C 
ENDROOT
BRANCH  25  31
ATOM     31  O   UNL     1      15.477  25.813  37.885  1.00  0.00    -0.392 OA
ATOM     32  H   UNL     1      14.578  25.450  38.106  1.00  0.00     0.210 HD
ENDBRANCH  25  31
BRANCH  18  33
ATOM     33  C   UNL     1      24.753  26.892  42.481  1.00  0.00     0.165 C 
BRANCH  33  34
ATOM     34  O   UNL     1      25.544  27.776  43.233  1.00  0.00    -0.396 OA
ATOM     35  H   UNL     1      25.644  27.367  44.130  1.00  0.00     0.210 HD
ENDBRANCH  33  34
ENDBRANCH  18  33
BRANCH  17  36
ATOM     36  O   UNL     1      24.095  29.968  40.536  1.00  0.00    -0.392 OA
ATOM     37  H   UNL     1      24.656  29.448  39.899  1.00  0.00     0.210 HD
ENDBRANCH  17  36
TORSDOF 4
ENDMDL
MODEL 2
REMARK VINA RESULT:    -6.469      2.357      4.431
REMARK INTER + INTRA:          -7.556
REMARK INTER:                  -7.415
REMARK INTRA:                  -0.141
REMARK UNBOUND:                -0.141
REMARK SMILES CC1(C)CC[C@]23CO[C@@]4(C=C[C@H]5[C@]6(C)CC[C@H](O)[C@@](C)(CO)[C@@H]6CC[C@]5(C)[C@@]4(C)C[C@@H]2O)[C@H]3C1
REMARK SMILES IDX 1 1 2 2 4 3 5 4 6 5 7 6 8 7 9 8 33 9 34 10 10 11 11 12 12 13
REMARK SMILES IDX 13 14 15 15 16 16 17 17 19 18 23 19 24 20 25 21 26 22 28 23
REMARK SMILES IDX 30 24 31 25 29 26 27 27 20 28 14 29 3 30 32 31 21 33 22 34
REMARK SMILES IDX 18 36
REMARK H PARENT 32 32 22 35 18 37
REMARK Flexibility Score: inf
ROOT
ATOM      1  C   UNL     1      16.374  29.624  39.058  1.00  0.00     0.011 C 
ATOM      2  C   UNL     1      16.133  28.169  39.525  1.00  0.00    -0.035 C 
ATOM      3  C   UNL     1      15.245  28.119  40.788  1.00  0.00     0.007 C 
ATOM      4  C   UNL     1      15.930  28.733  42.015  1.00  0.00     0.013 C 
ATOM      5  C   UNL     1      17.373  28.209  42.288  1.00  0.00     0.026 C 
ATOM      6  C   UNL     1      17.398  26.782  42.857  1.00  0.00     0.171 C 
ATOM      7  O   UNL     1      18.530  26.115  42.335  1.00  0.00    -0.369 OA
ATOM      8  C   UNL     1      19.299  27.077  41.631  1.00  0.00     0.096 C 
ATOM      9  C   UNL     1      18.237  28.051  41.051  1.00  0.00     0.037 C 
ATOM     10  C   UNL     1      17.467  27.454  39.835  1.00  0.00     0.014 C 
ATOM     11  C   UNL     1      20.050  26.346  40.522  1.00  0.00     0.005 C 
ATOM     12  C   UNL     1      21.350  26.511  40.228  1.00  0.00    -0.024 C 
ATOM     13  C   UNL     1      22.317  27.291  41.103  1.00  0.00     0.024 C 
ATOM     14  C   UNL     1      23.692  27.678  40.393  1.00  0.00    -0.022 C 
ATOM     15  C   UNL     1      24.513  26.356  40.156  1.00  0.00     0.010 C 
ATOM     16  C   UNL     1      25.445  25.993  41.310  1.00  0.00     0.033 C 
ATOM     17  C   UNL     1      26.529  27.059  41.592  1.00  0.00     0.123 C 
ATOM     18  C   UNL     1      26.108  28.529  41.206  1.00  0.00     0.020 C 
ATOM     19  C   UNL     1      24.525  28.709  41.289  1.00  0.00     0.006 C 
ATOM     20  C   UNL     1      24.030  28.694  42.769  1.00  0.00     0.005 C 
ATOM     21  C   UNL     1      22.565  29.108  42.919  1.00  0.00     0.008 C 
ATOM     22  C   UNL     1      21.574  28.428  41.902  1.00  0.00    -0.017 C 
ATOM     23  C   UNL     1      20.309  27.768  42.663  1.00  0.00     0.009 C 
ATOM     24  C   UNL     1      19.567  28.827  43.587  1.00  0.00     0.043 C 
ATOM     25  C   UNL     1      18.096  29.203  43.243  1.00  0.00     0.124 C 
ATOM     26  C   UNL     1      20.807  26.621  43.625  1.00  0.00     0.015 C 
ATOM     27  C   UNL     1      21.113  29.550  40.926  1.00  0.00     0.013 C 
ATOM     28  C   UNL     1      26.839  29.559  42.129  1.00  0.00     0.017 C 
ATOM     29  C   UNL     1      23.419  28.287  38.979  1.00  0.00     0.012 C 
ATOM     30  C   UNL     1      15.412  27.415  38.386  1.00  0.00     0.011 C 
ENDROOT
BRANCH  25  31
ATOM     31  O   UNL     1      17.352  29.342  44.431  1.00  0.00    -0.392 OA
ATOM     32  H   UNL     1      17.968  29.724  45.112  1.00  0.00     0.210 HD
ENDBRANCH  25  31
BRANCH  18  33
ATOM     33  C   UNL     1      26.649  28.852  39.776  1.00  0.00     0.165 C 
BRANCH  33  34
ATOM     34  O   UNL     1      27.700  27.989  39.423  1.00  0.00    -0.396 OA
ATOM     35  H   UNL     1      27.501  27.668  38.507  1.00  0.00     0.210 HD
ENDBRANCH  33  34
ENDBRANCH  18  33
BRANCH  17  36
ATOM     36  O   UNL     1      26.879  26.972  42.953  1.00  0.00    -0.392 OA
ATOM     37  H   UNL     1      27.618  26.309  43.026  1.00  0.00     0.210 HD
ENDBRANCH  17  36
TORSDOF 4
ENDMDL
MODEL 3
REMARK VINA RESULT:    -6.348      2.887      8.189
REMARK INTER + INTRA:          -7.416
REMARK INTER:                  -7.304
REMARK INTRA:                  -0.113
REMARK UNBOUND:                -0.141
REMARK SMILES CC1(C)CC[C@]23CO[C@@]4(C=C[C@H]5[C@]6(C)CC[C@H](O)[C@@](C)(CO)[C@@H]6CC[C@]5(C)[C@@]4(C)C[C@@H]2O)[C@H]3C1
REMARK SMILES IDX 1 1 2 2 4 3 5 4 6 5 7 6 8 7 9 8 33 9 34 10 10 11 11 12 12 13
REMARK SMILES IDX 13 14 15 15 16 16 17 17 19 18 23 19 24 20 25 21 26 22 28 23
REMARK SMILES IDX 30 24 31 25 29 26 27 27 20 28 14 29 3 30 32 31 21 33 22 34
REMARK SMILES IDX 18 36
REMARK H PARENT 32 32 22 35 18 37
REMARK Flexibility Score: inf
ROOT
ATOM      1  C   UNL     1      21.231  24.221  41.402  1.00  0.00     0.011 C 
ATOM      2  C   UNL     1      21.762  25.649  41.129  1.00  0.00    -0.035 C 
ATOM      3  C   UNL     1      21.797  26.495  42.419  1.00  0.00     0.007 C 
ATOM      4  C   UNL     1      20.397  26.782  42.977  1.00  0.00     0.013 C 
ATOM      5  C   UNL     1      19.382  27.340  41.933  1.00  0.00     0.026 C 
ATOM      6  C   UNL     1      19.648  28.807  41.558  1.00  0.00     0.171 C 
ATOM      7  O   UNL     1      19.336  28.980  40.190  1.00  0.00    -0.369 OA
ATOM      8  C   UNL     1      18.730  27.778  39.740  1.00  0.00     0.096 C 
ATOM      9  C   UNL     1      19.435  26.671  40.572  1.00  0.00     0.037 C 
ATOM     10  C   UNL     1      20.887  26.379  40.086  1.00  0.00     0.014 C 
ATOM     11  C   UNL     1      19.035  27.635  38.252  1.00  0.00     0.005 C 
ATOM     12  C   UNL     1      18.140  27.304  37.307  1.00  0.00    -0.024 C 
ATOM     13  C   UNL     1      16.643  27.236  37.554  1.00  0.00     0.024 C 
ATOM     14  C   UNL     1      15.817  26.469  36.425  1.00  0.00    -0.022 C 
ATOM     15  C   UNL     1      15.858  27.334  35.111  1.00  0.00     0.010 C 
ATOM     16  C   UNL     1      14.706  28.330  34.991  1.00  0.00     0.033 C 
ATOM     17  C   UNL     1      13.311  27.665  34.956  1.00  0.00     0.123 C 
ATOM     18  C   UNL     1      13.230  26.286  35.718  1.00  0.00     0.020 C 
ATOM     19  C   UNL     1      14.308  26.221  36.893  1.00  0.00     0.006 C 
ATOM     20  C   UNL     1      13.920  27.173  38.069  1.00  0.00     0.005 C 
ATOM     21  C   UNL     1      14.779  26.967  39.318  1.00  0.00     0.008 C 
ATOM     22  C   UNL     1      16.327  26.868  39.054  1.00  0.00    -0.017 C 
ATOM     23  C   UNL     1      17.155  27.878  40.007  1.00  0.00     0.009 C 
ATOM     24  C   UNL     1      16.806  27.648  41.541  1.00  0.00     0.043 C 
ATOM     25  C   UNL     1      17.940  27.160  42.490  1.00  0.00     0.124 C 
ATOM     26  C   UNL     1      16.748  29.367  39.685  1.00  0.00     0.015 C 
ATOM     27  C   UNL     1      16.725  25.388  39.332  1.00  0.00     0.013 C 
ATOM     28  C   UNL     1      11.784  26.058  36.269  1.00  0.00     0.017 C 
ATOM     29  C   UNL     1      16.506  25.109  36.079  1.00  0.00     0.012 C 
ATOM     30  C   UNL     1      23.200  25.526  40.580  1.00  0.00     0.011 C 
ENDROOT
BRANCH  25  31
ATOM     31  O   UNL     1      17.829  27.812  43.734  1.00  0.00    -0.392 OA
ATOM     32  H   UNL     1      18.312  27.249  44.396  1.00  0.00     0.210 HD
ENDBRANCH  25  31
BRANCH  18  33
ATOM     33  C   UNL     1      13.432  25.126  34.690  1.00  0.00     0.165 C 
BRANCH  33  34
ATOM     34  O   UNL     1      13.402  25.607  33.370  1.00  0.00    -0.396 OA
ATOM     35  H   UNL     1      13.427  24.809  32.783  1.00  0.00     0.210 HD
ENDBRANCH  33  34
ENDBRANCH  18  33
BRANCH  17  36
ATOM     36  O   UNL     1      12.378  28.585  35.472  1.00  0.00    -0.392 OA
ATOM     37  H   UNL     1      11.913  29.000  34.696  1.00  0.00     0.210 HD
ENDBRANCH  17  36
TORSDOF 4
ENDMDL
MODEL 4
REMARK VINA RESULT:    -6.233      2.060      7.809
REMARK INTER + INTRA:          -7.285
REMARK INTER:                  -7.172
REMARK INTRA:                  -0.113
REMARK UNBOUND:                -0.141
REMARK SMILES CC1(C)CC[C@]23CO[C@@]4(C=C[C@H]5[C@]6(C)CC[C@H](O)[C@@](C)(CO)[C@@H]6CC[C@]5(C)[C@@]4(C)C[C@@H]2O)[C@H]3C1
REMARK SMILES IDX 1 1 2 2 4 3 5 4 6 5 7 6 8 7 9 8 33 9 34 10 10 11 11 12 12 13
REMARK SMILES IDX 13 14 15 15 16 16 17 17 19 18 23 19 24 20 25 21 26 22 28 23
REMARK SMILES IDX 30 24 31 25 29 26 27 27 20 28 14 29 3 30 32 31 21 33 22 34
REMARK SMILES IDX 18 36
REMARK H PARENT 32 32 22 35 18 37
REMARK Flexibility Score: inf
ROOT
ATOM      1  C   UNL     1      23.049  23.173  39.091  1.00  0.00     0.011 C 
ATOM      2  C   UNL     1      23.387  24.525  38.418  1.00  0.00    -0.035 C 
ATOM      3  C   UNL     1      24.580  25.219  39.110  1.00  0.00     0.007 C 
ATOM      4  C   UNL     1      24.259  25.655  40.545  1.00  0.00     0.013 C 
ATOM      5  C   UNL     1      22.935  26.464  40.700  1.00  0.00     0.026 C 
ATOM      6  C   UNL     1      23.045  27.905  40.175  1.00  0.00     0.171 C 
ATOM      7  O   UNL     1      21.805  28.263  39.597  1.00  0.00    -0.369 OA
ATOM      8  C   UNL     1      20.888  27.219  39.885  1.00  0.00     0.096 C 
ATOM      9  C   UNL     1      21.769  25.939  39.885  1.00  0.00     0.037 C 
ATOM     10  C   UNL     1      22.175  25.483  38.451  1.00  0.00     0.014 C 
ATOM     11  C   UNL     1      19.857  27.186  38.761  1.00  0.00     0.005 C 
ATOM     12  C   UNL     1      18.528  27.093  38.932  1.00  0.00    -0.024 C 
ATOM     13  C   UNL     1      17.842  27.226  40.281  1.00  0.00     0.024 C 
ATOM     14  C   UNL     1      16.332  26.713  40.314  1.00  0.00    -0.022 C 
ATOM     15  C   UNL     1      15.460  27.693  39.444  1.00  0.00     0.010 C 
ATOM     16  C   UNL     1      14.868  28.858  40.234  1.00  0.00     0.033 C 
ATOM     17  C   UNL     1      13.915  28.418  41.369  1.00  0.00     0.123 C 
ATOM     18  C   UNL     1      14.236  26.996  41.971  1.00  0.00     0.020 C 
ATOM     19  C   UNL     1      15.786  26.649  41.815  1.00  0.00     0.006 C 
ATOM     20  C   UNL     1      16.660  27.521  42.770  1.00  0.00     0.005 C 
ATOM     21  C   UNL     1      18.117  27.060  42.842  1.00  0.00     0.008 C 
ATOM     22  C   UNL     1      18.789  26.757  41.452  1.00  0.00    -0.017 C 
ATOM     23  C   UNL     1      20.203  27.527  41.299  1.00  0.00     0.009 C 
ATOM     24  C   UNL     1      21.180  27.195  42.507  1.00  0.00     0.043 C 
ATOM     25  C   UNL     1      22.509  26.447  42.197  1.00  0.00     0.124 C 
ATOM     26  C   UNL     1      19.966  29.086  41.342  1.00  0.00     0.015 C 
ATOM     27  C   UNL     1      18.986  25.214  41.389  1.00  0.00     0.013 C 
ATOM     28  C   UNL     1      13.794  26.933  43.470  1.00  0.00     0.017 C 
ATOM     29  C   UNL     1      16.224  25.308  39.638  1.00  0.00     0.012 C 
ATOM     30  C   UNL     1      23.764  24.244  36.947  1.00  0.00     0.011 C 
ENDROOT
BRANCH  25  31
ATOM     31  O   UNL     1      23.547  26.976  42.989  1.00  0.00    -0.392 OA
ATOM     32  H   UNL     1      23.114  27.483  43.727  1.00  0.00     0.210 HD
ENDBRANCH  25  31
BRANCH  18  33
ATOM     33  C   UNL     1      13.335  25.931  41.265  1.00  0.00     0.165 C 
BRANCH  33  34
ATOM     34  O   UNL     1      13.493  24.665  41.850  1.00  0.00    -0.396 OA
ATOM     35  H   UNL     1      13.638  24.029  41.104  1.00  0.00     0.210 HD
ENDBRANCH  33  34
ENDBRANCH  18  33
BRANCH  17  36
ATOM     36  O   UNL     1      13.942  29.410  42.368  1.00  0.00    -0.392 OA
ATOM     37  H   UNL     1      14.625  30.082  42.097  1.00  0.00     0.210 HD
ENDBRANCH  17  36
TORSDOF 4
ENDMDL
MODEL 5
REMARK VINA RESULT:    -6.115      3.619      6.703
REMARK INTER + INTRA:          -7.149
REMARK INTER:                  -7.109
REMARK INTRA:                  -0.040
REMARK UNBOUND:                -0.141
REMARK SMILES CC1(C)CC[C@]23CO[C@@]4(C=C[C@H]5[C@]6(C)CC[C@H](O)[C@@](C)(CO)[C@@H]6CC[C@]5(C)[C@@]4(C)C[C@@H]2O)[C@H]3C1
REMARK SMILES IDX 1 1 2 2 4 3 5 4 6 5 7 6 8 7 9 8 33 9 34 10 10 11 11 12 12 13
REMARK SMILES IDX 13 14 15 15 16 16 17 17 19 18 23 19 24 20 25 21 26 22 28 23
REMARK SMILES IDX 30 24 31 25 29 26 27 27 20 28 14 29 3 30 32 31 21 33 22 34
REMARK SMILES IDX 18 36
REMARK H PARENT 32 32 22 35 18 37
REMARK Flexibility Score: inf
ROOT
ATOM      1  C   UNL     1      17.763  28.607  41.677  1.00  0.00     0.011 C 
ATOM      2  C   UNL     1      18.355  27.278  42.206  1.00  0.00    -0.035 C 
ATOM      3  C   UNL     1      18.960  27.451  43.616  1.00  0.00     0.007 C 
ATOM      4  C   UNL     1      20.189  28.367  43.624  1.00  0.00     0.013 C 
ATOM      5  C   UNL     1      21.271  28.017  42.557  1.00  0.00     0.026 C 
ATOM      6  C   UNL     1      22.078  26.757  42.910  1.00  0.00     0.171 C 
ATOM      7  O   UNL     1      22.375  26.069  41.710  1.00  0.00    -0.369 OA
ATOM      8  C   UNL     1      21.967  26.901  40.636  1.00  0.00     0.096 C 
ATOM      9  C   UNL     1      20.723  27.647  41.192  1.00  0.00     0.037 C 
ATOM     10  C   UNL     1      19.455  26.743  41.262  1.00  0.00     0.014 C 
ATOM     11  C   UNL     1      21.596  25.995  39.465  1.00  0.00     0.005 C 
ATOM     12  C   UNL     1      21.981  26.179  38.192  1.00  0.00    -0.024 C 
ATOM     13  C   UNL     1      23.025  27.198  37.767  1.00  0.00     0.024 C 
ATOM     14  C   UNL     1      23.052  27.511  36.203  1.00  0.00    -0.022 C 
ATOM     15  C   UNL     1      23.574  26.228  35.454  1.00  0.00     0.010 C 
ATOM     16  C   UNL     1      25.089  26.195  35.268  1.00  0.00     0.033 C 
ATOM     17  C   UNL     1      25.637  27.368  34.424  1.00  0.00     0.123 C 
ATOM     18  C   UNL     1      24.771  28.684  34.503  1.00  0.00     0.020 C 
ATOM     19  C   UNL     1      23.988  28.769  35.891  1.00  0.00     0.006 C 
ATOM     20  C   UNL     1      24.967  29.050  37.074  1.00  0.00     0.005 C 
ATOM     21  C   UNL     1      24.247  29.385  38.383  1.00  0.00     0.008 C 
ATOM     22  C   UNL     1      23.051  28.431  38.749  1.00  0.00    -0.017 C 
ATOM     23  C   UNL     1      23.184  27.872  40.261  1.00  0.00     0.009 C 
ATOM     24  C   UNL     1      23.331  29.057  41.309  1.00  0.00     0.043 C 
ATOM     25  C   UNL     1      22.209  29.245  42.371  1.00  0.00     0.124 C 
ATOM     26  C   UNL     1      24.495  27.004  40.393  1.00  0.00     0.015 C 
ATOM     27  C   UNL     1      21.753  29.273  38.579  1.00  0.00     0.013 C 
ATOM     28  C   UNL     1      25.678  29.940  34.291  1.00  0.00     0.017 C 
ATOM     29  C   UNL     1      21.603  27.770  35.677  1.00  0.00     0.012 C 
ATOM     30  C   UNL     1      17.212  26.243  42.282  1.00  0.00     0.011 C 
ENDROOT
BRANCH  25  31
ATOM     31  O   UNL     1      22.783  29.593  43.610  1.00  0.00    -0.392 OA
ATOM     32  H   UNL     1      23.679  29.975  43.413  1.00  0.00     0.210 HD
ENDBRANCH  25  31
BRANCH  18  33
ATOM     33  C   UNL     1      23.788  28.717  33.287  1.00  0.00     0.165 C 
BRANCH  33  34
ATOM     34  O   UNL     1      24.166  29.698  32.355  1.00  0.00    -0.396 OA
ATOM     35  H   UNL     1      25.009  29.380  31.942  1.00  0.00     0.210 HD
ENDBRANCH  33  34
ENDBRANCH  18  33
BRANCH  17  36
ATOM     36  O   UNL     1      26.965  27.610  34.827  1.00  0.00    -0.392 OA
ATOM     37  H   UNL     1      27.350  26.738  35.112  1.00  0.00     0.210 HD
ENDBRANCH  17  36
TORSDOF 4
ENDMDL
MODEL 6
REMARK VINA RESULT:    -6.088      4.395      7.842
REMARK INTER + INTRA:          -7.119
REMARK INTER:                  -7.021
REMARK INTRA:                  -0.098
REMARK UNBOUND:                -0.141
REMARK SMILES CC1(C)CC[C@]23CO[C@@]4(C=C[C@H]5[C@]6(C)CC[C@H](O)[C@@](C)(CO)[C@@H]6CC[C@]5(C)[C@@]4(C)C[C@@H]2O)[C@H]3C1
REMARK SMILES IDX 1 1 2 2 4 3 5 4 6 5 7 6 8 7 9 8 33 9 34 10 10 11 11 12 12 13
REMARK SMILES IDX 13 14 15 15 16 16 17 17 19 18 23 19 24 20 25 21 26 22 28 23
REMARK SMILES IDX 30 24 31 25 29 26 27 27 20 28 14 29 3 30 32 31 21 33 22 34
REMARK SMILES IDX 18 36
REMARK H PARENT 32 32 22 35 18 37
REMARK Flexibility Score: inf
ROOT
ATOM      1  C   UNL     1      19.310  28.331  42.025  1.00  0.00     0.011 C 
ATOM      2  C   UNL     1      17.854  28.502  42.522  1.00  0.00    -0.035 C 
ATOM      3  C   UNL     1      17.321  27.206  43.169  1.00  0.00     0.007 C 
ATOM      4  C   UNL     1      17.177  26.058  42.162  1.00  0.00     0.013 C 
ATOM      5  C   UNL     1      16.403  26.427  40.859  1.00  0.00     0.026 C 
ATOM      6  C   UNL     1      14.888  26.567  41.077  1.00  0.00     0.171 C 
ATOM      7  O   UNL     1      14.412  27.602  40.240  1.00  0.00    -0.369 OA
ATOM      8  C   UNL     1      15.484  27.988  39.395  1.00  0.00     0.096 C 
ATOM      9  C   UNL     1      16.746  27.786  40.279  1.00  0.00     0.037 C 
ATOM     10  C   UNL     1      16.911  28.894  41.362  1.00  0.00     0.014 C 
ATOM     11  C   UNL     1      15.284  29.458  39.036  1.00  0.00     0.005 C 
ATOM     12  C   UNL     1      15.399  29.976  37.803  1.00  0.00    -0.024 C 
ATOM     13  C   UNL     1      15.531  29.133  36.546  1.00  0.00     0.024 C 
ATOM     14  C   UNL     1      16.028  29.933  35.258  1.00  0.00    -0.022 C 
ATOM     15  C   UNL     1      14.886  30.927  34.826  1.00  0.00     0.010 C 
ATOM     16  C   UNL     1      13.897  30.334  33.825  1.00  0.00     0.033 C 
ATOM     17  C   UNL     1      14.545  29.907  32.488  1.00  0.00     0.123 C 
ATOM     18  C   UNL     1      16.061  29.488  32.608  1.00  0.00     0.020 C 
ATOM     19  C   UNL     1      16.384  28.927  34.067  1.00  0.00     0.006 C 
ATOM     20  C   UNL     1      15.726  27.530  34.294  1.00  0.00     0.005 C 
ATOM     21  C   UNL     1      16.204  26.840  35.573  1.00  0.00     0.008 C 
ATOM     22  C   UNL     1      16.231  27.755  36.853  1.00  0.00    -0.017 C 
ATOM     23  C   UNL     1      15.458  27.059  38.092  1.00  0.00     0.009 C 
ATOM     24  C   UNL     1      16.031  25.608  38.395  1.00  0.00     0.043 C 
ATOM     25  C   UNL     1      16.714  25.359  39.772  1.00  0.00     0.124 C 
ATOM     26  C   UNL     1      13.937  26.861  37.725  1.00  0.00     0.015 C 
ATOM     27  C   UNL     1      17.732  27.986  37.194  1.00  0.00     0.013 C 
ATOM     28  C   UNL     1      16.417  28.433  31.510  1.00  0.00     0.017 C 
ATOM     29  C   UNL     1      17.269  30.813  35.613  1.00  0.00     0.012 C 
ATOM     30  C   UNL     1      17.840  29.625  43.582  1.00  0.00     0.011 C 
ENDROOT
BRANCH  25  31
ATOM     31  O   UNL     1      16.361  24.081  40.250  1.00  0.00    -0.392 OA
ATOM     32  H   UNL     1      16.080  23.547  39.460  1.00  0.00     0.210 HD
ENDBRANCH  25  31
BRANCH  18  33
ATOM     33  C   UNL     1      16.957  30.720  32.255  1.00  0.00     0.165 C 
BRANCH  33  34
ATOM     34  O   UNL     1      18.283  30.329  32.008  1.00  0.00    -0.396 OA
ATOM     35  H   UNL     1      18.758  31.139  31.690  1.00  0.00     0.210 HD
ENDBRANCH  33  34
ENDBRANCH  18  33
BRANCH  17  36
ATOM     36  O   UNL     1      13.772  28.864  31.944  1.00  0.00    -0.392 OA
ATOM     37  H   UNL     1      12.816  29.087  32.112  1.00  0.00     0.210 HD
ENDBRANCH  17  36
TORSDOF 4
ENDMDL
MODEL 7
REMARK VINA RESULT:    -6.042      3.832      7.988
REMARK INTER + INTRA:          -7.065
REMARK INTER:                  -7.021
REMARK INTRA:                  -0.044
REMARK UNBOUND:                -0.141
REMARK SMILES CC1(C)CC[C@]23CO[C@@]4(C=C[C@H]5[C@]6(C)CC[C@H](O)[C@@](C)(CO)[C@@H]6CC[C@]5(C)[C@@]4(C)C[C@@H]2O)[C@H]3C1
REMARK SMILES IDX 1 1 2 2 4 3 5 4 6 5 7 6 8 7 9 8 33 9 34 10 10 11 11 12 12 13
REMARK SMILES IDX 13 14 15 15 16 16 17 17 19 18 23 19 24 20 25 21 26 22 28 23
REMARK SMILES IDX 30 24 31 25 29 26 27 27 20 28 14 29 3 30 32 31 21 33 22 34
REMARK SMILES IDX 18 36
REMARK H PARENT 32 32 22 35 18 37
REMARK Flexibility Score: inf
ROOT
ATOM      1  C   UNL     1      25.726  29.246  35.697  1.00  0.00     0.011 C 
ATOM      2  C   UNL     1      25.144  28.053  34.901  1.00  0.00    -0.035 C 
ATOM      3  C   UNL     1      24.582  28.504  33.536  1.00  0.00     0.007 C 
ATOM      4  C   UNL     1      23.357  29.417  33.674  1.00  0.00     0.013 C 
ATOM      5  C   UNL     1      22.243  28.875  34.621  1.00  0.00     0.026 C 
ATOM      6  C   UNL     1      21.441  27.716  34.006  1.00  0.00     0.171 C 
ATOM      7  O   UNL     1      21.108  26.809  35.038  1.00  0.00    -0.369 OA
ATOM      8  C   UNL     1      21.487  27.410  36.266  1.00  0.00     0.096 C 
ATOM      9  C   UNL     1      22.750  28.239  35.901  1.00  0.00     0.037 C 
ATOM     10  C   UNL     1      24.015  27.354  35.690  1.00  0.00     0.014 C 
ATOM     11  C   UNL     1      21.820  26.289  37.246  1.00  0.00     0.005 C 
ATOM     12  C   UNL     1      21.400  26.223  38.520  1.00  0.00    -0.024 C 
ATOM     13  C   UNL     1      20.348  27.150  39.107  1.00  0.00     0.024 C 
ATOM     14  C   UNL     1      20.277  27.149  40.700  1.00  0.00    -0.022 C 
ATOM     15  C   UNL     1      19.728  25.750  41.168  1.00  0.00     0.010 C 
ATOM     16  C   UNL     1      18.208  25.696  41.302  1.00  0.00     0.033 C 
ATOM     17  C   UNL     1      17.640  26.686  42.345  1.00  0.00     0.123 C 
ATOM     18  C   UNL     1      18.514  27.983  42.550  1.00  0.00     0.020 C 
ATOM     19  C   UNL     1      19.337  28.331  41.228  1.00  0.00     0.006 C 
ATOM     20  C   UNL     1      18.394  28.848  40.096  1.00  0.00     0.005 C 
ATOM     21  C   UNL     1      19.153  29.427  38.899  1.00  0.00     0.008 C 
ATOM     22  C   UNL     1      20.355  28.551  38.386  1.00  0.00    -0.017 C 
ATOM     23  C   UNL     1      20.264  28.300  36.791  1.00  0.00     0.009 C 
ATOM     24  C   UNL     1      20.152  29.669  35.991  1.00  0.00     0.043 C 
ATOM     25  C   UNL     1      21.305  30.051  35.018  1.00  0.00     0.124 C 
ATOM     26  C   UNL     1      18.954  27.489  36.454  1.00  0.00     0.015 C 
ATOM     27  C   UNL     1      21.652  29.331  38.753  1.00  0.00     0.013 C 
ATOM     28  C   UNL     1      17.607  29.183  42.979  1.00  0.00     0.017 C 
ATOM     29  C   UNL     1      21.711  27.286  41.307  1.00  0.00     0.012 C 
ATOM     30  C   UNL     1      26.285  27.042  34.655  1.00  0.00     0.011 C 
ENDROOT
BRANCH  25  31
ATOM     31  O   UNL     1      20.769  30.641  33.857  1.00  0.00    -0.392 OA
ATOM     32  H   UNL     1      21.354  31.413  33.631  1.00  0.00     0.210 HD
ENDBRANCH  25  31
BRANCH  18  33
ATOM     33  C   UNL     1      19.461  27.768  43.775  1.00  0.00     0.165 C 
BRANCH  33  34
ATOM     34  O   UNL     1      19.318  28.800  44.716  1.00  0.00    -0.396 OA
ATOM     35  H   UNL     1      19.586  28.420  45.591  1.00  0.00     0.210 HD
ENDBRANCH  33  34
ENDBRANCH  18  33
BRANCH  17  36
ATOM     36  O   UNL     1      16.326  27.015  41.961  1.00  0.00    -0.392 OA
ATOM     37  H   UNL     1      16.086  26.425  41.196  1.00  0.00     0.210 HD
ENDBRANCH  17  36
TORSDOF 4
ENDMDL
MODEL 8
REMARK VINA RESULT:    -6.021      4.230      5.930
REMARK INTER + INTRA:          -7.042
REMARK INTER:                  -6.996
REMARK INTRA:                  -0.045
REMARK UNBOUND:                -0.141
REMARK SMILES CC1(C)CC[C@]23CO[C@@]4(C=C[C@H]5[C@]6(C)CC[C@H](O)[C@@](C)(CO)[C@@H]6CC[C@]5(C)[C@@]4(C)C[C@@H]2O)[C@H]3C1
REMARK SMILES IDX 1 1 2 2 4 3 5 4 6 5 7 6 8 7 9 8 33 9 34 10 10 11 11 12 12 13
REMARK SMILES IDX 13 14 15 15 16 16 17 17 19 18 23 19 24 20 25 21 26 22 28 23
REMARK SMILES IDX 30 24 31 25 29 26 27 27 20 28 14 29 3 30 32 31 21 33 22 34
REMARK SMILES IDX 18 36
REMARK H PARENT 32 32 22 35 18 37
REMARK Flexibility Score: inf
ROOT
ATOM      1  C   UNL     1      14.011  26.572  33.846  1.00  0.00     0.011 C 
ATOM      2  C   UNL     1      13.843  28.087  34.114  1.00  0.00    -0.035 C 
ATOM      3  C   UNL     1      14.250  28.928  32.885  1.00  0.00     0.007 C 
ATOM      4  C   UNL     1      15.748  28.829  32.571  1.00  0.00     0.013 C 
ATOM      5  C   UNL     1      16.688  29.074  33.791  1.00  0.00     0.026 C 
ATOM      6  C   UNL     1      16.766  30.553  34.203  1.00  0.00     0.171 C 
ATOM      7  O   UNL     1      16.881  30.616  35.611  1.00  0.00    -0.369 OA
ATOM      8  C   UNL     1      17.060  29.289  36.079  1.00  0.00     0.096 C 
ATOM      9  C   UNL     1      16.233  28.428  35.085  1.00  0.00     0.037 C 
ATOM     10  C   UNL     1      14.696  28.538  35.321  1.00  0.00     0.014 C 
ATOM     11  C   UNL     1      16.486  29.216  37.491  1.00  0.00     0.005 C 
ATOM     12  C   UNL     1      17.090  28.640  38.543  1.00  0.00    -0.024 C 
ATOM     13  C   UNL     1      18.534  28.169  38.530  1.00  0.00     0.024 C 
ATOM     14  C   UNL     1      18.925  27.190  39.728  1.00  0.00    -0.022 C 
ATOM     15  C   UNL     1      18.900  28.017  41.067  1.00  0.00     0.010 C 
ATOM     16  C   UNL     1      20.240  28.659  41.422  1.00  0.00     0.033 C 
ATOM     17  C   UNL     1      21.380  27.637  41.636  1.00  0.00     0.123 C 
ATOM     18  C   UNL     1      21.214  26.299  40.817  1.00  0.00     0.020 C 
ATOM     19  C   UNL     1      20.369  26.546  39.487  1.00  0.00     0.006 C 
ATOM     20  C   UNL     1      21.186  27.371  38.443  1.00  0.00     0.005 C 
ATOM     21  C   UNL     1      20.523  27.423  37.065  1.00  0.00     0.008 C 
ATOM     22  C   UNL     1      18.983  27.748  37.079  1.00  0.00    -0.017 C 
ATOM     23  C   UNL     1      18.626  28.958  36.067  1.00  0.00     0.009 C 
ATOM     24  C   UNL     1      19.150  28.661  34.596  1.00  0.00     0.043 C 
ATOM     25  C   UNL     1      18.101  28.514  33.456  1.00  0.00     0.124 C 
ATOM     26  C   UNL     1      19.357  30.275  36.535  1.00  0.00     0.015 C 
ATOM     27  C   UNL     1      18.257  26.437  36.657  1.00  0.00     0.013 C 
ATOM     28  C   UNL     1      22.617  25.692  40.487  1.00  0.00     0.017 C 
ATOM     29  C   UNL     1      17.850  26.067  39.882  1.00  0.00     0.012 C 
ATOM     30  C   UNL     1      12.354  28.355  34.424  1.00  0.00     0.011 C 
ENDROOT
BRANCH  25  31
ATOM     31  O   UNL     1      18.587  29.127  32.284  1.00  0.00    -0.392 OA
ATOM     32  H   UNL     1      17.802  29.272  31.690  1.00  0.00     0.210 HD
ENDBRANCH  25  31
BRANCH  18  33
ATOM     33  C   UNL     1      20.542  25.225  41.733  1.00  0.00     0.165 C 
BRANCH  33  34
ATOM     34  O   UNL     1      21.275  24.027  41.733  1.00  0.00    -0.396 OA
ATOM     35  H   UNL     1      20.649  23.317  42.025  1.00  0.00     0.210 HD
ENDBRANCH  33  34
ENDBRANCH  18  33
BRANCH  17  36
ATOM     36  O   UNL     1      22.597  28.274  41.325  1.00  0.00    -0.392 OA
ATOM     37  H   UNL     1      23.266  27.560  41.142  1.00  0.00     0.210 HD
ENDBRANCH  17  36
TORSDOF 4
ENDMDL
MODEL 9
REMARK VINA RESULT:    -5.996      2.153      4.370
REMARK INTER + INTRA:          -7.013
REMARK INTER:                  -6.872
REMARK INTRA:                  -0.141
REMARK UNBOUND:                -0.141
REMARK SMILES CC1(C)CC[C@]23CO[C@@]4(C=C[C@H]5[C@]6(C)CC[C@H](O)[C@@](C)(CO)[C@@H]6CC[C@]5(C)[C@@]4(C)C[C@@H]2O)[C@H]3C1
REMARK SMILES IDX 1 1 2 2 4 3 5 4 6 5 7 6 8 7 9 8 33 9 34 10 10 11 11 12 12 13
REMARK SMILES IDX 13 14 15 15 16 16 17 17 19 18 23 19 24 20 25 21 26 22 28 23
REMARK SMILES IDX 30 24 31 25 29 26 27 27 20 28 14 29 3 30 32 31 21 33 22 34
REMARK SMILES IDX 18 36
REMARK H PARENT 32 32 22 35 18 37
REMARK Flexibility Score: inf
ROOT
ATOM      1  C   UNL     1      13.576  30.495  38.469  1.00  0.00     0.011 C 
ATOM      2  C   UNL     1      13.096  29.024  38.513  1.00  0.00    -0.035 C 
ATOM      3  C   UNL     1      11.968  28.828  39.548  1.00  0.00     0.007 C 
ATOM      4  C   UNL     1      12.445  29.045  40.990  1.00  0.00     0.013 C 
ATOM      5  C   UNL     1      13.740  28.265  41.373  1.00  0.00     0.026 C 
ATOM      6  C   UNL     1      13.500  26.759  41.568  1.00  0.00     0.171 C 
ATOM      7  O   UNL     1      14.640  26.064  41.104  1.00  0.00    -0.369 OA
ATOM      8  C   UNL     1      15.632  27.033  40.805  1.00  0.00     0.096 C 
ATOM      9  C   UNL     1      14.818  28.259  40.307  1.00  0.00     0.037 C 
ATOM     10  C   UNL     1      14.257  28.068  38.865  1.00  0.00     0.014 C 
ATOM     11  C   UNL     1      16.516  26.464  39.699  1.00  0.00     0.005 C 
ATOM     12  C   UNL     1      17.859  26.495  39.688  1.00  0.00    -0.024 C 
ATOM     13  C   UNL     1      18.700  26.908  40.884  1.00  0.00     0.024 C 
ATOM     14  C   UNL     1      20.224  27.234  40.543  1.00  0.00    -0.022 C 
ATOM     15  C   UNL     1      20.936  25.890  40.136  1.00  0.00     0.010 C 
ATOM     16  C   UNL     1      21.568  25.145  41.309  1.00  0.00     0.033 C 
ATOM     17  C   UNL     1      22.675  25.949  42.031  1.00  0.00     0.123 C 
ATOM     18  C   UNL     1      22.496  27.514  41.952  1.00  0.00     0.020 C 
ATOM     19  C   UNL     1      20.956  27.904  41.797  1.00  0.00     0.006 C 
ATOM     20  C   UNL     1      20.169  27.635  43.118  1.00  0.00     0.005 C 
ATOM     21  C   UNL     1      18.755  28.219  43.106  1.00  0.00     0.008 C 
ATOM     22  C   UNL     1      17.929  27.937  41.796  1.00  0.00    -0.017 C 
ATOM     23  C   UNL     1      16.474  27.320  42.137  1.00  0.00     0.009 C 
ATOM     24  C   UNL     1      15.671  28.246  43.148  1.00  0.00     0.043 C 
ATOM     25  C   UNL     1      14.349  28.903  42.655  1.00  0.00     0.124 C 
ATOM     26  C   UNL     1      16.643  25.927  42.858  1.00  0.00     0.015 C 
ATOM     27  C   UNL     1      17.797  29.303  41.061  1.00  0.00     0.013 C 
ATOM     28  C   UNL     1      23.123  28.192  43.214  1.00  0.00     0.017 C 
ATOM     29  C   UNL     1      20.312  28.175  39.299  1.00  0.00     0.012 C 
ATOM     30  C   UNL     1      12.551  28.658  37.115  1.00  0.00     0.011 C 
ENDROOT
BRANCH  25  31
ATOM     31  O   UNL     1      13.395  28.884  43.692  1.00  0.00    -0.392 OA
ATOM     32  H   UNL     1      12.537  29.196  43.298  1.00  0.00     0.210 HD
ENDBRANCH  25  31
BRANCH  18  33
ATOM     33  C   UNL     1      23.349  28.062  40.763  1.00  0.00     0.165 C 
BRANCH  33  34
ATOM     34  O   UNL     1      24.371  27.164  40.414  1.00  0.00    -0.396 OA
ATOM     35  H   UNL     1      25.054  27.228  41.129  1.00  0.00     0.210 HD
ENDBRANCH  33  34
ENDBRANCH  18  33
BRANCH  17  36
ATOM     36  O   UNL     1      22.727  25.511  43.368  1.00  0.00    -0.392 OA
ATOM     37  H   UNL     1      23.423  24.802  43.419  1.00  0.00     0.210 HD
ENDBRANCH  17  36
TORSDOF 4
ENDMDL
