MODEL 1
REMARK VINA RESULT:    -3.594      0.000      0.000
REMARK INTER + INTRA:          -3.955
REMARK INTER:                  -3.909
REMARK INTRA:                  -0.045
REMARK UNBOUND:                -0.045
REMARK SMILES COc1ccccc1O
REMARK SMILES IDX 3 1 4 2 5 3 6 4 7 5 8 6 2 7 1 8 9 9
REMARK H PARENT 9 10
REMARK Flexibility Score: inf
ROOT
ATOM      1  C   UNL     1      11.457  13.350  19.911  1.00  0.00     0.160 A 
ATOM      2  C   UNL     1      11.454  13.092  21.296  1.00  0.00     0.050 A 
ATOM      3  C   UNL     1      12.075  13.979  22.181  1.00  0.00     0.004 A 
ATOM      4  C   UNL     1      12.703  15.128  21.696  1.00  0.00     0.004 A 
ATOM      5  C   UNL     1      12.712  15.392  20.325  1.00  0.00     0.050 A 
ATOM      6  C   UNL     1      12.093  14.512  19.430  1.00  0.00     0.157 A 
ENDROOT
BRANCH   1   7
ATOM      7  O   UNL     1      10.843  12.483  18.993  1.00  0.00    -0.493 OA
ATOM      8  C   UNL     1       9.459  12.507  18.662  1.00  0.00     0.278 C 
ENDBRANCH   1   7
BRANCH   6   9
ATOM      9  O   UNL     1      12.121  14.806  18.067  1.00  0.00    -0.504 OA
ATOM     10  H   UNL     1      11.307  14.698  17.474  1.00  0.00     0.293 HD
ENDBRANCH   6   9
TORSDOF 2
ENDMDL
MODEL 2
REMARK VINA RESULT:    -3.511      1.864      2.382
REMARK INTER + INTRA:          -3.864
REMARK INTER:                  -3.838
REMARK INTRA:                  -0.026
REMARK UNBOUND:                -0.045
REMARK SMILES COc1ccccc1O
REMARK SMILES IDX 3 1 4 2 5 3 6 4 7 5 8 6 2 7 1 8 9 9
REMARK H PARENT 9 10
REMARK Flexibility Score: inf
ROOT
ATOM      1  C   UNL     1      11.384  13.347  20.425  1.00  0.00     0.160 A 
ATOM      2  C   UNL     1      12.679  12.961  20.826  1.00  0.00     0.050 A 
ATOM      3  C   UNL     1      13.794  13.332  20.068  1.00  0.00     0.004 A 
ATOM      4  C   UNL     1      13.631  14.089  18.907  1.00  0.00     0.004 A 
ATOM      5  C   UNL     1      12.352  14.476  18.500  1.00  0.00     0.050 A 
ATOM      6  C   UNL     1      11.229  14.111  19.251  1.00  0.00     0.157 A 
ENDROOT
BRANCH   1   7
ATOM      7  O   UNL     1      10.242  12.993  21.160  1.00  0.00    -0.493 OA
ATOM      8  C   UNL     1      10.250  12.625  22.535  1.00  0.00     0.278 C 
ENDBRANCH   1   7
BRANCH   6   9
ATOM      9  O   UNL     1       9.967  14.514  18.815  1.00  0.00    -0.504 OA
ATOM     10  H   UNL     1       9.616  14.286  17.893  1.00  0.00     0.293 HD
ENDBRANCH   6   9
TORSDOF 2
ENDMDL
MODEL 3
REMARK VINA RESULT:    -3.444      1.784      3.177
REMARK INTER + INTRA:          -3.791
REMARK INTER:                  -3.745
REMARK INTRA:                  -0.046
REMARK UNBOUND:                -0.045
REMARK SMILES COc1ccccc1O
REMARK SMILES IDX 3 1 4 2 5 3 6 4 7 5 8 6 2 7 1 8 9 9
REMARK H PARENT 9 10
REMARK Flexibility Score: inf
ROOT
ATOM      1  C   UNL     1      11.739  13.666  21.583  1.00  0.00     0.160 A 
ATOM      2  C   UNL     1      12.350  14.334  22.663  1.00  0.00     0.050 A 
ATOM      3  C   UNL     1      11.749  14.333  23.926  1.00  0.00     0.004 A 
ATOM      4  C   UNL     1      10.537  13.668  24.124  1.00  0.00     0.004 A 
ATOM      5  C   UNL     1       9.923  13.004  23.061  1.00  0.00     0.050 A 
ATOM      6  C   UNL     1      10.516  12.998  21.793  1.00  0.00     0.157 A 
ENDROOT
BRANCH   1   7
ATOM      7  O   UNL     1      12.313  13.645  20.302  1.00  0.00    -0.493 OA
ATOM      8  C   UNL     1      12.188  14.692  19.345  1.00  0.00     0.278 C 
ENDBRANCH   1   7
BRANCH   6   9
ATOM      9  O   UNL     1       9.875  12.325  20.753  1.00  0.00    -0.504 OA
ATOM     10  H   UNL     1      10.209  11.438  20.397  1.00  0.00     0.293 HD
ENDBRANCH   6   9
TORSDOF 2
ENDMDL
MODEL 4
REMARK VINA RESULT:    -3.442      1.721      2.890
REMARK INTER + INTRA:          -3.790
REMARK INTER:                  -3.750
REMARK INTRA:                  -0.039
REMARK UNBOUND:                -0.045
REMARK SMILES COc1ccccc1O
REMARK SMILES IDX 3 1 4 2 5 3 6 4 7 5 8 6 2 7 1 8 9 9
REMARK H PARENT 9 10
REMARK Flexibility Score: inf
ROOT
ATOM      1  C   UNL     1      10.881  13.109  21.219  1.00  0.00     0.160 A 
ATOM      2  C   UNL     1      12.048  13.843  21.511  1.00  0.00     0.050 A 
ATOM      3  C   UNL     1      12.693  14.574  20.508  1.00  0.00     0.004 A 
ATOM      4  C   UNL     1      12.183  14.581  19.208  1.00  0.00     0.004 A 
ATOM      5  C   UNL     1      11.027  13.856  18.909  1.00  0.00     0.050 A 
ATOM      6  C   UNL     1      10.373  13.122  19.904  1.00  0.00     0.157 A 
ENDROOT
BRANCH   1   7
ATOM      7  O   UNL     1      10.207  12.365  22.199  1.00  0.00    -0.493 OA
ATOM      8  C   UNL     1       9.623  12.919  23.373  1.00  0.00     0.278 C 
ENDBRANCH   1   7
BRANCH   6   9
ATOM      9  O   UNL     1       9.222  12.409  19.570  1.00  0.00    -0.504 OA
ATOM     10  H   UNL     1       8.304  12.836  19.569  1.00  0.00     0.293 HD
ENDBRANCH   6   9
TORSDOF 2
ENDMDL
MODEL 5
REMARK VINA RESULT:    -3.391      1.332      3.176
REMARK INTER + INTRA:          -3.734
REMARK INTER:                  -3.708
REMARK INTRA:                  -0.025
REMARK UNBOUND:                -0.045
REMARK SMILES COc1ccccc1O
REMARK SMILES IDX 3 1 4 2 5 3 6 4 7 5 8 6 2 7 1 8 9 9
REMARK H PARENT 9 10
REMARK Flexibility Score: inf
ROOT
ATOM      1  C   UNL     1      11.796  14.115  20.524  1.00  0.00     0.160 A 
ATOM      2  C   UNL     1      11.318  13.253  21.530  1.00  0.00     0.050 A 
ATOM      3  C   UNL     1      10.487  12.177  21.203  1.00  0.00     0.004 A 
ATOM      4  C   UNL     1      10.126  11.950  19.874  1.00  0.00     0.004 A 
ATOM      5  C   UNL     1      10.593  12.799  18.869  1.00  0.00     0.050 A 
ATOM      6  C   UNL     1      11.426  13.879  19.185  1.00  0.00     0.157 A 
ENDROOT
BRANCH   1   7
ATOM      7  O   UNL     1      12.632  15.205  20.814  1.00  0.00    -0.493 OA
ATOM      8  C   UNL     1      13.220  15.454  22.086  1.00  0.00     0.278 C 
ENDBRANCH   1   7
BRANCH   6   9
ATOM      9  O   UNL     1      11.875  14.707  18.156  1.00  0.00    -0.504 OA
ATOM     10  H   UNL     1      12.749  15.216  18.215  1.00  0.00     0.293 HD
ENDBRANCH   6   9
TORSDOF 2
ENDMDL
MODEL 6
REMARK VINA RESULT:    -3.307      1.131      2.270
REMARK INTER + INTRA:          -3.643
REMARK INTER:                  -3.603
REMARK INTRA:                  -0.040
REMARK UNBOUND:                -0.045
REMARK SMILES COc1ccccc1O
REMARK SMILES IDX 3 1 4 2 5 3 6 4 7 5 8 6 2 7 1 8 9 9
REMARK H PARENT 9 10
REMARK Flexibility Score: inf
ROOT
ATOM      1  C   UNL     1      11.657  13.445  19.534  1.00  0.00     0.160 A 
ATOM      2  C   UNL     1      12.471  14.257  18.718  1.00  0.00     0.050 A 
ATOM      3  C   UNL     1      13.276  15.249  19.287  1.00  0.00     0.004 A 
ATOM      4  C   UNL     1      13.278  15.442  20.669  1.00  0.00     0.004 A 
ATOM      5  C   UNL     1      12.475  14.644  21.487  1.00  0.00     0.050 A 
ATOM      6  C   UNL     1      11.666  13.647  20.929  1.00  0.00     0.157 A 
ENDROOT
BRANCH   1   7
ATOM      7  O   UNL     1      10.837  12.440  19.000  1.00  0.00    -0.493 OA
ATOM      8  C   UNL     1       9.505  12.644  18.541  1.00  0.00     0.278 C 
ENDBRANCH   1   7
BRANCH   6   9
ATOM      9  O   UNL     1      10.877  12.869  21.775  1.00  0.00    -0.504 OA
ATOM     10  H   UNL     1      10.592  11.927  21.533  1.00  0.00     0.293 HD
ENDBRANCH   6   9
TORSDOF 2
ENDMDL
MODEL 7
REMARK VINA RESULT:    -3.112      2.312      3.156
REMARK INTER + INTRA:          -3.430
REMARK INTER:                  -3.400
REMARK INTRA:                  -0.029
REMARK UNBOUND:                -0.045
REMARK SMILES COc1ccccc1O
REMARK SMILES IDX 3 1 4 2 5 3 6 4 7 5 8 6 2 7 1 8 9 9
REMARK H PARENT 9 10
REMARK Flexibility Score: inf
ROOT
ATOM      1  C   UNL     1      11.779  13.768  21.661  1.00  0.00     0.160 A 
ATOM      2  C   UNL     1      10.616  12.983  21.785  1.00  0.00     0.050 A 
ATOM      3  C   UNL     1       9.950  12.894  23.012  1.00  0.00     0.004 A 
ATOM      4  C   UNL     1      10.436  13.585  24.124  1.00  0.00     0.004 A 
ATOM      5  C   UNL     1      11.588  14.365  24.012  1.00  0.00     0.050 A 
ATOM      6  C   UNL     1      12.262  14.461  22.789  1.00  0.00     0.157 A 
ENDROOT
BRANCH   1   7
ATOM      7  O   UNL     1      12.473  13.881  20.447  1.00  0.00    -0.493 OA
ATOM      8  C   UNL     1      11.853  13.973  19.169  1.00  0.00     0.278 C 
ENDBRANCH   1   7
BRANCH   6   9
ATOM      9  O   UNL     1      13.411  15.249  22.713  1.00  0.00    -0.504 OA
ATOM     10  H   UNL     1      13.371  16.261  22.693  1.00  0.00     0.293 HD
ENDBRANCH   6   9
TORSDOF 2
ENDMDL
MODEL 8
REMARK VINA RESULT:    -3.005      1.761      3.808
REMARK INTER + INTRA:          -3.314
REMARK INTER:                  -3.269
REMARK INTRA:                  -0.045
REMARK UNBOUND:                -0.045
REMARK SMILES COc1ccccc1O
REMARK SMILES IDX 3 1 4 2 5 3 6 4 7 5 8 6 2 7 1 8 9 9
REMARK H PARENT 9 10
REMARK Flexibility Score: inf
ROOT
ATOM      1  C   UNL     1      11.504  14.079  20.170  1.00  0.00     0.160 A 
ATOM      2  C   UNL     1      10.739  14.086  18.987  1.00  0.00     0.050 A 
ATOM      3  C   UNL     1       9.919  12.998  18.670  1.00  0.00     0.004 A 
ATOM      4  C   UNL     1       9.855  11.897  19.525  1.00  0.00     0.004 A 
ATOM      5  C   UNL     1      10.610  11.880  20.699  1.00  0.00     0.050 A 
ATOM      6  C   UNL     1      11.433  12.963  21.027  1.00  0.00     0.157 A 
ENDROOT
BRANCH   1   7
ATOM      7  O   UNL     1      12.337  15.153  20.521  1.00  0.00    -0.493 OA
ATOM      8  C   UNL     1      13.588  15.439  19.905  1.00  0.00     0.278 C 
ENDBRANCH   1   7
BRANCH   6   9
ATOM      9  O   UNL     1      12.175  12.913  22.207  1.00  0.00    -0.504 OA
ATOM     10  H   UNL     1      11.895  13.415  23.042  1.00  0.00     0.293 HD
ENDBRANCH   6   9
TORSDOF 2
ENDMDL
MODEL 9
REMARK VINA RESULT:    -2.981      2.204      2.937
REMARK INTER + INTRA:          -3.287
REMARK INTER:                  -3.244
REMARK INTRA:                  -0.044
REMARK UNBOUND:                -0.045
REMARK SMILES COc1ccccc1O
REMARK SMILES IDX 3 1 4 2 5 3 6 4 7 5 8 6 2 7 1 8 9 9
REMARK H PARENT 9 10
REMARK Flexibility Score: inf
ROOT
ATOM      1  C   UNL     1      11.821  13.481  21.239  1.00  0.00     0.160 A 
ATOM      2  C   UNL     1      11.705  13.000  19.920  1.00  0.00     0.050 A 
ATOM      3  C   UNL     1      12.239  13.728  18.852  1.00  0.00     0.004 A 
ATOM      4  C   UNL     1      12.892  14.940  19.088  1.00  0.00     0.004 A 
ATOM      5  C   UNL     1      13.011  15.426  20.391  1.00  0.00     0.050 A 
ATOM      6  C   UNL     1      12.481  14.705  21.468  1.00  0.00     0.157 A 
ENDROOT
BRANCH   1   7
ATOM      7  O   UNL     1      11.298  12.778  22.335  1.00  0.00    -0.493 OA
ATOM      8  C   UNL     1       9.953  12.877  22.790  1.00  0.00     0.278 C 
ENDBRANCH   1   7
BRANCH   6   9
ATOM      9  O   UNL     1      12.618  15.220  22.756  1.00  0.00    -0.504 OA
ATOM     10  H   UNL     1      12.289  14.722  23.575  1.00  0.00     0.293 HD
ENDBRANCH   6   9
TORSDOF 2
ENDMDL
