MODEL 1
REMARK VINA RESULT:    -5.329      0.000      0.000
REMARK INTER + INTRA:          -9.993
REMARK INTER:                  -8.288
REMARK INTRA:                  -1.704
REMARK UNBOUND:                -1.704
REMARK SMILES C[C@]12C[C@]3(O)O[C@H](O1)[C@@]1(COC(=O)c4ccccc4)[C@@H]3C[C@]12O[C@H]1O[C@@H](CO)[C@@H](O)[C@H](O)[C@H]1O
REMARK SMILES IDX 1 1 2 2 3 3 4 4 20 5 21 6 22 7 9 8 7 9 8 10 6 11 23 12 24 13
REMARK SMILES IDX 33 14 25 15 31 16 26 17 29 18 34 19 32 21 27 23 28 24 30 26
REMARK SMILES IDX 5 28 10 30 11 31 12 32 13 33 14 34 15 35 19 36 16 37 18 38
REMARK SMILES IDX 17 39
REMARK H PARENT 34 20 32 22 28 25 30 27 5 29
REMARK Flexibility Score: inf
ROOT
ATOM      1  C   UNL     1      -8.252  90.924 -14.180  1.00  0.00     0.046 C 
ATOM      2  C   UNL     1      -7.313  91.368 -13.059  1.00  0.00     0.104 C 
ATOM      3  C   UNL     1      -7.480  90.442 -11.797  1.00  0.00     0.104 C 
ATOM      4  C   UNL     1      -6.411  90.992 -10.787  1.00  0.00     0.175 C 
ATOM      5  C   UNL     1      -5.021  91.148 -11.488  1.00  0.00     0.070 C 
ATOM      6  C   UNL     1      -4.914  90.348 -12.794  1.00  0.00     0.050 C 
ATOM      7  C   UNL     1      -5.782  91.452 -13.438  1.00  0.00     0.115 C 
ATOM      8  C   UNL     1      -5.340  92.384 -12.311  1.00  0.00     0.096 C 
ATOM      9  C   UNL     1      -6.596  92.996 -11.720  1.00  0.00     0.267 C 
ATOM     10  O   UNL     1      -7.643  92.673 -12.620  1.00  0.00    -0.342 OA
ATOM     11  O   UNL     1      -6.808  92.316 -10.493  1.00  0.00    -0.320 OA
ENDROOT
BRANCH   7  12
ATOM     12  O   UNL     1      -5.409  91.961 -14.713  1.00  0.00    -0.339 OA
BRANCH  12  13
ATOM     13  C   UNL     1      -4.928  90.958 -15.597  1.00  0.00     0.282 C 
ATOM     14  C   UNL     1      -3.522  91.309 -16.135  1.00  0.00     0.202 C 
ATOM     15  O   UNL     1      -5.852  90.750 -16.659  1.00  0.00    -0.341 OA
ATOM     16  C   UNL     1      -3.566  92.516 -17.084  1.00  0.00     0.179 C 
ATOM     17  C   UNL     1      -5.967  91.844 -17.567  1.00  0.00     0.178 C 
ATOM     18  C   UNL     1      -4.604  92.246 -18.181  1.00  0.00     0.177 C 
BRANCH  14  19
ATOM     19  O   UNL     1      -2.606  91.517 -15.090  1.00  0.00    -0.385 OA
ATOM     20  H   UNL     1      -2.798  90.849 -14.380  1.00  0.00     0.211 HD
ENDBRANCH  14  19
BRANCH  16  21
ATOM     21  O   UNL     1      -2.296  92.695 -17.656  1.00  0.00    -0.387 OA
ATOM     22  H   UNL     1      -1.735  91.933 -17.359  1.00  0.00     0.211 HD
ENDBRANCH  16  21
BRANCH  17  23
ATOM     23  C   UNL     1      -6.775  93.028 -16.977  1.00  0.00     0.191 C 
BRANCH  23  24
ATOM     24  O   UNL     1      -7.495  93.691 -17.981  1.00  0.00    -0.394 OA
ATOM     25  H   UNL     1      -7.838  92.992 -18.598  1.00  0.00     0.210 HD
ENDBRANCH  23  24
ENDBRANCH  17  23
BRANCH  18  26
ATOM     26  O   UNL     1      -4.755  93.377 -19.002  1.00  0.00    -0.387 OA
ATOM     27  H   UNL     1      -4.576  93.087 -19.934  1.00  0.00     0.211 HD
ENDBRANCH  18  26
ENDBRANCH  12  13
ENDBRANCH   7  12
BRANCH   4  28
ATOM     28  O   UNL     1      -6.340  90.227  -9.615  1.00  0.00    -0.365 OA
ATOM     29  H   UNL     1      -7.267  89.940  -9.407  1.00  0.00     0.214 HD
ENDBRANCH   4  28
BRANCH   8  30
ATOM     30  C   UNL     1      -4.163  93.338 -12.582  1.00  0.00     0.249 C 
BRANCH  30  31
ATOM     31  O   UNL     1      -4.363  94.555 -11.871  1.00  0.00    -0.461 OA
BRANCH  31  32
ATOM     32  C   UNL     1      -3.668  94.875 -10.702  1.00  0.00     0.338 C 
ATOM     33  O   UNL     1      -2.528  95.413 -10.773  1.00  0.00    -0.246 OA
BRANCH  32  34
ATOM     34  C   UNL     1      -4.271  94.581  -9.385  1.00  0.00     0.060 A 
ATOM     35  C   UNL     1      -4.024  93.349  -8.751  1.00  0.00     0.015 A 
ATOM     36  C   UNL     1      -5.099  95.522  -8.746  1.00  0.00     0.015 A 
ATOM     37  C   UNL     1      -4.593  93.067  -7.506  1.00  0.00     0.001 A 
ATOM     38  C   UNL     1      -5.666  95.236  -7.499  1.00  0.00     0.001 A 
ATOM     39  C   UNL     1      -5.413  94.009  -6.880  1.00  0.00     0.000 A 
ENDBRANCH  32  34
ENDBRANCH  31  32
ENDBRANCH  30  31
ENDBRANCH   8  30
TORSDOF 12
ENDMDL
MODEL 2
REMARK VINA RESULT:    -5.247      1.683      2.145
REMARK INTER + INTRA:          -9.866
REMARK INTER:                  -8.344
REMARK INTRA:                  -1.521
REMARK UNBOUND:                -1.704
REMARK SMILES C[C@]12C[C@]3(O)O[C@H](O1)[C@@]1(COC(=O)c4ccccc4)[C@@H]3C[C@]12O[C@H]1O[C@@H](CO)[C@@H](O)[C@H](O)[C@H]1O
REMARK SMILES IDX 1 1 2 2 3 3 4 4 20 5 21 6 22 7 9 8 7 9 8 10 6 11 23 12 24 13
REMARK SMILES IDX 33 14 25 15 31 16 26 17 29 18 34 19 32 21 27 23 28 24 30 26
REMARK SMILES IDX 5 28 10 30 11 31 12 32 13 33 14 34 15 35 19 36 16 37 18 38
REMARK SMILES IDX 17 39
REMARK H PARENT 34 20 32 22 28 25 30 27 5 29
REMARK Flexibility Score: inf
ROOT
ATOM      1  C   UNL     1      -9.124  92.246 -13.934  1.00  0.00     0.046 C 
ATOM      2  C   UNL     1      -8.121  91.401 -13.149  1.00  0.00     0.104 C 
ATOM      3  C   UNL     1      -8.755  90.018 -12.749  1.00  0.00     0.104 C 
ATOM      4  C   UNL     1      -7.584  89.266 -12.021  1.00  0.00     0.175 C 
ATOM      5  C   UNL     1      -6.274  89.330 -12.875  1.00  0.00     0.070 C 
ATOM      6  C   UNL     1      -6.534  89.693 -14.345  1.00  0.00     0.050 C 
ATOM      7  C   UNL     1      -6.733  91.145 -13.860  1.00  0.00     0.115 C 
ATOM      8  C   UNL     1      -5.925  90.785 -12.614  1.00  0.00     0.096 C 
ATOM      9  C   UNL     1      -6.739  91.225 -11.412  1.00  0.00     0.267 C 
ATOM     10  O   UNL     1      -7.784  92.033 -11.928  1.00  0.00    -0.342 OA
ATOM     11  O   UNL     1      -7.292  90.035 -10.872  1.00  0.00    -0.320 OA
ENDROOT
BRANCH   7  12
ATOM     12  O   UNL     1      -6.122  92.203 -14.589  1.00  0.00    -0.339 OA
BRANCH  12  13
ATOM     13  C   UNL     1      -6.199  92.027 -15.997  1.00  0.00     0.282 C 
ATOM     14  C   UNL     1      -4.800  92.105 -16.652  1.00  0.00     0.202 C 
ATOM     15  O   UNL     1      -7.090  92.980 -16.567  1.00  0.00    -0.341 OA
ATOM     16  C   UNL     1      -4.222  93.525 -16.581  1.00  0.00     0.179 C 
ATOM     17  C   UNL     1      -6.629  94.329 -16.512  1.00  0.00     0.178 C 
ATOM     18  C   UNL     1      -5.242  94.506 -17.174  1.00  0.00     0.177 C 
BRANCH  14  19
ATOM     19  O   UNL     1      -3.916  91.166 -16.092  1.00  0.00    -0.385 OA
ATOM     20  H   UNL     1      -3.133  91.662 -15.737  1.00  0.00     0.211 HD
ENDBRANCH  14  19
BRANCH  16  21
ATOM     21  O   UNL     1      -3.027  93.570 -17.318  1.00  0.00    -0.387 OA
ATOM     22  H   UNL     1      -3.149  92.976 -18.104  1.00  0.00     0.211 HD
ENDBRANCH  16  21
BRANCH  17  23
ATOM     23  C   UNL     1      -6.742  94.940 -15.091  1.00  0.00     0.191 C 
BRANCH  23  24
ATOM     24  O   UNL     1      -5.474  95.089 -14.510  1.00  0.00    -0.394 OA
ATOM     25  H   UNL     1      -5.601  95.610 -13.674  1.00  0.00     0.210 HD
ENDBRANCH  23  24
ENDBRANCH  17  23
BRANCH  18  26
ATOM     26  O   UNL     1      -4.796  95.830 -17.021  1.00  0.00    -0.387 OA
ATOM     27  H   UNL     1      -4.830  96.255 -17.918  1.00  0.00     0.211 HD
ENDBRANCH  18  26
ENDBRANCH  12  13
ENDBRANCH   7  12
BRANCH   4  28
ATOM     28  O   UNL     1      -7.929  87.957 -11.664  1.00  0.00    -0.365 OA
ATOM     29  H   UNL     1      -7.641  87.834 -10.722  1.00  0.00     0.214 HD
ENDBRANCH   4  28
BRANCH   8  30
ATOM     30  C   UNL     1      -4.425  91.128 -12.601  1.00  0.00     0.249 C 
BRANCH  30  31
ATOM     31  O   UNL     1      -4.134  91.951 -11.476  1.00  0.00    -0.461 OA
BRANCH  31  32
ATOM     32  C   UNL     1      -4.122  93.347 -11.539  1.00  0.00     0.338 C 
ATOM     33  O   UNL     1      -3.686  93.929 -12.572  1.00  0.00    -0.246 OA
BRANCH  32  34
ATOM     34  C   UNL     1      -4.621  94.139 -10.395  1.00  0.00     0.060 A 
ATOM     35  C   UNL     1      -4.501  93.642  -9.084  1.00  0.00     0.015 A 
ATOM     36  C   UNL     1      -5.222  95.395 -10.595  1.00  0.00     0.015 A 
ATOM     37  C   UNL     1      -4.972  94.387  -7.998  1.00  0.00     0.001 A 
ATOM     38  C   UNL     1      -5.691  96.138  -9.506  1.00  0.00     0.001 A 
ATOM     39  C   UNL     1      -5.566  95.634  -8.209  1.00  0.00     0.000 A 
ENDBRANCH  32  34
ENDBRANCH  31  32
ENDBRANCH  30  31
ENDBRANCH   8  30
TORSDOF 12
ENDMDL
MODEL 3
REMARK VINA RESULT:    -5.021      3.212      6.612
REMARK INTER + INTRA:          -9.514
REMARK INTER:                  -7.825
REMARK INTRA:                  -1.689
REMARK UNBOUND:                -1.704
REMARK SMILES C[C@]12C[C@]3(O)O[C@H](O1)[C@@]1(COC(=O)c4ccccc4)[C@@H]3C[C@]12O[C@H]1O[C@@H](CO)[C@@H](O)[C@H](O)[C@H]1O
REMARK SMILES IDX 1 1 2 2 3 3 4 4 20 5 21 6 22 7 9 8 7 9 8 10 6 11 23 12 24 13
REMARK SMILES IDX 33 14 25 15 31 16 26 17 29 18 34 19 32 21 27 23 28 24 30 26
REMARK SMILES IDX 5 28 10 30 11 31 12 32 13 33 14 34 15 35 19 36 16 37 18 38
REMARK SMILES IDX 17 39
REMARK H PARENT 34 20 32 22 28 25 30 27 5 29
REMARK Flexibility Score: inf
ROOT
ATOM      1  C   UNL     1      -8.612  87.814 -10.006  1.00  0.00     0.046 C 
ATOM      2  C   UNL     1      -8.111  89.158 -10.533  1.00  0.00     0.104 C 
ATOM      3  C   UNL     1      -9.208  90.271 -10.341  1.00  0.00     0.104 C 
ATOM      4  C   UNL     1      -8.511  91.576 -10.867  1.00  0.00     0.175 C 
ATOM      5  C   UNL     1      -7.089  91.735 -10.233  1.00  0.00     0.070 C 
ATOM      6  C   UNL     1      -6.894  90.877  -8.973  1.00  0.00     0.050 C 
ATOM      7  C   UNL     1      -6.746  89.670  -9.926  1.00  0.00     0.115 C 
ATOM      8  C   UNL     1      -6.382  90.656 -11.034  1.00  0.00     0.096 C 
ATOM      9  C   UNL     1      -7.268  90.337 -12.224  1.00  0.00     0.267 C 
ATOM     10  O   UNL     1      -7.877  89.091 -11.928  1.00  0.00    -0.342 OA
ATOM     11  O   UNL     1      -8.261  91.351 -12.239  1.00  0.00    -0.320 OA
ENDROOT
BRANCH   7  12
ATOM     12  O   UNL     1      -5.697  88.737  -9.692  1.00  0.00    -0.339 OA
BRANCH  12  13
ATOM     13  C   UNL     1      -5.548  88.396  -8.321  1.00  0.00     0.282 C 
ATOM     14  C   UNL     1      -4.086  88.577  -7.852  1.00  0.00     0.202 C 
ATOM     15  O   UNL     1      -6.005  87.069  -8.088  1.00  0.00    -0.341 OA
ATOM     16  C   UNL     1      -3.154  87.541  -8.498  1.00  0.00     0.179 C 
ATOM     17  C   UNL     1      -5.202  86.052  -8.684  1.00  0.00     0.178 C 
ATOM     18  C   UNL     1      -3.721  86.137  -8.244  1.00  0.00     0.177 C 
BRANCH  14  19
ATOM     19  O   UNL     1      -3.628  89.886  -8.081  1.00  0.00    -0.385 OA
ATOM     20  H   UNL     1      -3.966  90.175  -8.968  1.00  0.00     0.211 HD
ENDBRANCH  14  19
BRANCH  16  21
ATOM     21  O   UNL     1      -1.877  87.654  -7.925  1.00  0.00    -0.387 OA
ATOM     22  H   UNL     1      -1.259  87.936  -8.648  1.00  0.00     0.211 HD
ENDBRANCH  16  21
BRANCH  17  23
ATOM     23  C   UNL     1      -5.409  85.950 -10.217  1.00  0.00     0.191 C 
BRANCH  23  24
ATOM     24  O   UNL     1      -4.996  84.697 -10.694  1.00  0.00    -0.394 OA
ATOM     25  H   UNL     1      -4.318  84.869 -11.400  1.00  0.00     0.210 HD
ENDBRANCH  23  24
ENDBRANCH  17  23
BRANCH  18  26
ATOM     26  O   UNL     1      -2.957  85.171  -8.920  1.00  0.00    -0.387 OA
ATOM     27  H   UNL     1      -2.226  85.652  -9.388  1.00  0.00     0.211 HD
ENDBRANCH  18  26
ENDBRANCH  12  13
ENDBRANCH   7  12
BRANCH   4  28
ATOM     28  O   UNL     1      -9.307  92.715 -10.691  1.00  0.00    -0.365 OA
ATOM     29  H   UNL     1      -9.138  93.041  -9.769  1.00  0.00     0.214 HD
ENDBRANCH   4  28
BRANCH   8  30
ATOM     30  C   UNL     1      -4.890  90.898 -11.325  1.00  0.00     0.249 C 
BRANCH  30  31
ATOM     31  O   UNL     1      -4.706  91.120 -12.719  1.00  0.00    -0.461 OA
BRANCH  31  32
ATOM     32  C   UNL     1      -4.302  92.350 -13.246  1.00  0.00     0.338 C 
ATOM     33  O   UNL     1      -3.656  92.391 -14.330  1.00  0.00    -0.246 OA
BRANCH  32  34
ATOM     34  C   UNL     1      -4.634  93.600 -12.530  1.00  0.00     0.060 A 
ATOM     35  C   UNL     1      -3.667  94.236 -11.730  1.00  0.00     0.015 A 
ATOM     36  C   UNL     1      -5.915  94.172 -12.635  1.00  0.00     0.015 A 
ATOM     37  C   UNL     1      -3.976  95.419 -11.050  1.00  0.00     0.001 A 
ATOM     38  C   UNL     1      -6.220  95.355 -11.954  1.00  0.00     0.001 A 
ATOM     39  C   UNL     1      -5.251  95.977 -11.162  1.00  0.00     0.000 A 
ENDBRANCH  32  34
ENDBRANCH  31  32
ENDBRANCH  30  31
ENDBRANCH   8  30
TORSDOF 12
ENDMDL
MODEL 4
REMARK VINA RESULT:    -5.019      3.160      7.308
REMARK INTER + INTRA:          -9.511
REMARK INTER:                  -8.355
REMARK INTRA:                  -1.156
REMARK UNBOUND:                -1.704
REMARK SMILES C[C@]12C[C@]3(O)O[C@H](O1)[C@@]1(COC(=O)c4ccccc4)[C@@H]3C[C@]12O[C@H]1O[C@@H](CO)[C@@H](O)[C@H](O)[C@H]1O
REMARK SMILES IDX 1 1 2 2 3 3 4 4 20 5 21 6 22 7 9 8 7 9 8 10 6 11 23 12 24 13
REMARK SMILES IDX 33 14 25 15 31 16 26 17 29 18 34 19 32 21 27 23 28 24 30 26
REMARK SMILES IDX 5 28 10 30 11 31 12 32 13 33 14 34 15 35 19 36 16 37 18 38
REMARK SMILES IDX 17 39
REMARK H PARENT 34 20 32 22 28 25 30 27 5 29
REMARK Flexibility Score: inf
ROOT
ATOM      1  C   UNL     1      -8.396  87.759 -10.313  1.00  0.00     0.046 C 
ATOM      2  C   UNL     1      -7.963  89.180 -10.671  1.00  0.00     0.104 C 
ATOM      3  C   UNL     1      -9.169  90.181 -10.520  1.00  0.00     0.104 C 
ATOM      4  C   UNL     1      -8.538  91.579 -10.856  1.00  0.00     0.175 C 
ATOM      5  C   UNL     1      -7.213  91.793 -10.052  1.00  0.00     0.070 C 
ATOM      6  C   UNL     1      -7.081  90.846  -8.850  1.00  0.00     0.050 C 
ATOM      7  C   UNL     1      -6.723  89.744  -9.871  1.00  0.00     0.115 C 
ATOM      8  C   UNL     1      -6.330  90.850 -10.849  1.00  0.00     0.096 C 
ATOM      9  C   UNL     1      -7.050  90.568 -12.154  1.00  0.00     0.267 C 
ATOM     10  O   UNL     1      -7.574  89.256 -12.030  1.00  0.00    -0.342 OA
ATOM     11  O   UNL     1      -8.122  91.496 -12.205  1.00  0.00    -0.320 OA
ENDROOT
BRANCH   7  12
ATOM     12  O   UNL     1      -5.627  88.880  -9.593  1.00  0.00    -0.339 OA
BRANCH  12  13
ATOM     13  C   UNL     1      -5.538  88.515  -8.223  1.00  0.00     0.282 C 
ATOM     14  C   UNL     1      -4.105  88.716  -7.678  1.00  0.00     0.202 C 
ATOM     15  O   UNL     1      -5.977  87.174  -8.038  1.00  0.00    -0.341 OA
ATOM     16  C   UNL     1      -3.120  87.713  -8.297  1.00  0.00     0.179 C 
ATOM     17  C   UNL     1      -5.123  86.186  -8.613  1.00  0.00     0.178 C 
ATOM     18  C   UNL     1      -3.668  86.294  -8.099  1.00  0.00     0.177 C 
BRANCH  14  19
ATOM     19  O   UNL     1      -3.665  90.039  -7.859  1.00  0.00    -0.385 OA
ATOM     20  H   UNL     1      -4.460  90.597  -8.065  1.00  0.00     0.211 HD
ENDBRANCH  14  19
BRANCH  16  21
ATOM     21  O   UNL     1      -1.875  87.842  -7.659  1.00  0.00    -0.387 OA
ATOM     22  H   UNL     1      -1.844  87.156  -6.942  1.00  0.00     0.211 HD
ENDBRANCH  16  21
BRANCH  17  23
ATOM     23  C   UNL     1      -5.252  86.111 -10.156  1.00  0.00     0.191 C 
BRANCH  23  24
ATOM     24  O   UNL     1      -4.935  84.826 -10.621  1.00  0.00    -0.394 OA
ATOM     25  H   UNL     1      -4.520  84.340  -9.861  1.00  0.00     0.210 HD
ENDBRANCH  23  24
ENDBRANCH  17  23
BRANCH  18  26
ATOM     26  O   UNL     1      -2.850  85.357  -8.753  1.00  0.00    -0.387 OA
ATOM     27  H   UNL     1      -2.751  84.580  -8.143  1.00  0.00     0.211 HD
ENDBRANCH  18  26
ENDBRANCH  12  13
ENDBRANCH   7  12
BRANCH   4  28
ATOM     28  O   UNL     1      -9.447  92.631 -10.685  1.00  0.00    -0.365 OA
ATOM     29  H   UNL     1     -10.355  92.241 -10.783  1.00  0.00     0.214 HD
ENDBRANCH   4  28
BRANCH   8  30
ATOM     30  C   UNL     1      -4.843  91.235 -10.946  1.00  0.00     0.249 C 
BRANCH  30  31
ATOM     31  O   UNL     1      -4.392  91.067 -12.285  1.00  0.00    -0.461 OA
BRANCH  31  32
ATOM     32  C   UNL     1      -4.133  92.141 -13.140  1.00  0.00     0.338 C 
ATOM     33  O   UNL     1      -3.745  93.245 -12.667  1.00  0.00    -0.246 OA
BRANCH  32  34
ATOM     34  C   UNL     1      -4.315  91.980 -14.598  1.00  0.00     0.060 A 
ATOM     35  C   UNL     1      -5.060  90.899 -15.104  1.00  0.00     0.015 A 
ATOM     36  C   UNL     1      -3.750  92.900 -15.501  1.00  0.00     0.015 A 
ATOM     37  C   UNL     1      -5.235  90.743 -16.483  1.00  0.00     0.001 A 
ATOM     38  C   UNL     1      -3.928  92.740 -16.879  1.00  0.00     0.001 A 
ATOM     39  C   UNL     1      -4.669  91.663 -17.370  1.00  0.00     0.000 A 
ENDBRANCH  32  34
ENDBRANCH  31  32
ENDBRANCH  30  31
ENDBRANCH   8  30
TORSDOF 12
ENDMDL
MODEL 5
REMARK VINA RESULT:    -5.012      2.978      5.915
REMARK INTER + INTRA:          -9.500
REMARK INTER:                  -7.982
REMARK INTRA:                  -1.518
REMARK UNBOUND:                -1.704
REMARK SMILES C[C@]12C[C@]3(O)O[C@H](O1)[C@@]1(COC(=O)c4ccccc4)[C@@H]3C[C@]12O[C@H]1O[C@@H](CO)[C@@H](O)[C@H](O)[C@H]1O
REMARK SMILES IDX 1 1 2 2 3 3 4 4 20 5 21 6 22 7 9 8 7 9 8 10 6 11 23 12 24 13
REMARK SMILES IDX 33 14 25 15 31 16 26 17 29 18 34 19 32 21 27 23 28 24 30 26
REMARK SMILES IDX 5 28 10 30 11 31 12 32 13 33 14 34 15 35 19 36 16 37 18 38
REMARK SMILES IDX 17 39
REMARK H PARENT 34 20 32 22 28 25 30 27 5 29
REMARK Flexibility Score: inf
ROOT
ATOM      1  C   UNL     1      -3.925  94.322 -11.346  1.00  0.00     0.046 C 
ATOM      2  C   UNL     1      -4.604  93.946 -10.030  1.00  0.00     0.104 C 
ATOM      3  C   UNL     1      -4.865  95.229  -9.156  1.00  0.00     0.104 C 
ATOM      4  C   UNL     1      -5.615  94.674  -7.893  1.00  0.00     0.175 C 
ATOM      5  C   UNL     1      -6.797  93.741  -8.320  1.00  0.00     0.070 C 
ATOM      6  C   UNL     1      -7.213  93.934  -9.786  1.00  0.00     0.050 C 
ATOM      7  C   UNL     1      -5.949  93.128 -10.158  1.00  0.00     0.115 C 
ATOM      8  C   UNL     1      -5.971  92.541  -8.748  1.00  0.00     0.096 C 
ATOM      9  C   UNL     1      -4.583  92.729  -8.165  1.00  0.00     0.267 C 
ATOM     10  O   UNL     1      -3.758  93.120  -9.251  1.00  0.00    -0.342 OA
ATOM     11  O   UNL     1      -4.698  93.810  -7.253  1.00  0.00    -0.320 OA
ENDROOT
BRANCH   7  12
ATOM     12  O   UNL     1      -6.051  92.111 -11.148  1.00  0.00    -0.339 OA
BRANCH  12  13
ATOM     13  C   UNL     1      -6.993  92.415 -12.167  1.00  0.00     0.282 C 
ATOM     14  C   UNL     1      -7.959  91.233 -12.413  1.00  0.00     0.202 C 
ATOM     15  O   UNL     1      -6.323  92.793 -13.365  1.00  0.00    -0.341 OA
ATOM     16  C   UNL     1      -7.236  90.038 -13.052  1.00  0.00     0.179 C 
ATOM     17  C   UNL     1      -5.605  91.737 -14.000  1.00  0.00     0.178 C 
ATOM     18  C   UNL     1      -6.505  90.517 -14.313  1.00  0.00     0.177 C 
BRANCH  14  19
ATOM     19  O   UNL     1      -8.622  90.855 -11.233  1.00  0.00    -0.385 OA
ATOM     20  H   UNL     1      -9.500  91.319 -11.216  1.00  0.00     0.211 HD
ENDBRANCH  14  19
BRANCH  16  21
ATOM     21  O   UNL     1      -8.184  89.057 -13.389  1.00  0.00    -0.387 OA
ATOM     22  H   UNL     1      -9.005  89.535 -13.677  1.00  0.00     0.211 HD
ENDBRANCH  16  21
BRANCH  17  23
ATOM     23  C   UNL     1      -4.285  91.386 -13.266  1.00  0.00     0.191 C 
BRANCH  23  24
ATOM     24  O   UNL     1      -3.327  90.899 -14.167  1.00  0.00    -0.394 OA
ATOM     25  H   UNL     1      -2.762  91.673 -14.430  1.00  0.00     0.210 HD
ENDBRANCH  23  24
ENDBRANCH  17  23
BRANCH  18  26
ATOM     26  O   UNL     1      -5.738  89.475 -14.861  1.00  0.00    -0.387 OA
ATOM     27  H   UNL     1      -5.690  88.758 -14.176  1.00  0.00     0.211 HD
ENDBRANCH  18  26
ENDBRANCH  12  13
ENDBRANCH   7  12
BRANCH   4  28
ATOM     28  O   UNL     1      -6.022  95.693  -7.022  1.00  0.00    -0.365 OA
ATOM     29  H   UNL     1      -5.250  95.883  -6.427  1.00  0.00     0.214 HD
ENDBRANCH   4  28
BRANCH   8  30
ATOM     30  C   UNL     1      -6.627  91.163  -8.548  1.00  0.00     0.249 C 
BRANCH  30  31
ATOM     31  O   UNL     1      -5.621  90.157  -8.505  1.00  0.00    -0.461 OA
BRANCH  31  32
ATOM     32  C   UNL     1      -5.762  88.915  -9.131  1.00  0.00     0.338 C 
ATOM     33  O   UNL     1      -6.726  88.712  -9.920  1.00  0.00    -0.246 OA
BRANCH  32  34
ATOM     34  C   UNL     1      -4.780  87.843  -8.864  1.00  0.00     0.060 A 
ATOM     35  C   UNL     1      -3.563  88.140  -8.223  1.00  0.00     0.015 A 
ATOM     36  C   UNL     1      -5.042  86.514  -9.245  1.00  0.00     0.015 A 
ATOM     37  C   UNL     1      -2.631  87.129  -7.969  1.00  0.00     0.001 A 
ATOM     38  C   UNL     1      -4.107  85.506  -8.989  1.00  0.00     0.001 A 
ATOM     39  C   UNL     1      -2.903  85.813  -8.352  1.00  0.00     0.000 A 
ENDBRANCH  32  34
ENDBRANCH  31  32
ENDBRANCH  30  31
ENDBRANCH   8  30
TORSDOF 12
ENDMDL
MODEL 6
REMARK VINA RESULT:    -4.997      4.479      8.469
REMARK INTER + INTRA:          -9.476
REMARK INTER:                  -8.039
REMARK INTRA:                  -1.437
REMARK UNBOUND:                -1.704
REMARK SMILES C[C@]12C[C@]3(O)O[C@H](O1)[C@@]1(COC(=O)c4ccccc4)[C@@H]3C[C@]12O[C@H]1O[C@@H](CO)[C@@H](O)[C@H](O)[C@H]1O
REMARK SMILES IDX 1 1 2 2 3 3 4 4 20 5 21 6 22 7 9 8 7 9 8 10 6 11 23 12 24 13
REMARK SMILES IDX 33 14 25 15 31 16 26 17 29 18 34 19 32 21 27 23 28 24 30 26
REMARK SMILES IDX 5 28 10 30 11 31 12 32 13 33 14 34 15 35 19 36 16 37 18 38
REMARK SMILES IDX 17 39
REMARK H PARENT 34 20 32 22 28 25 30 27 5 29
REMARK Flexibility Score: inf
ROOT
ATOM      1  C   UNL     1      -2.286  93.097 -22.586  1.00  0.00     0.046 C 
ATOM      2  C   UNL     1      -2.941  93.090 -21.205  1.00  0.00     0.104 C 
ATOM      3  C   UNL     1      -1.875  93.391 -20.086  1.00  0.00     0.104 C 
ATOM      4  C   UNL     1      -2.719  93.411 -18.762  1.00  0.00     0.175 C 
ATOM      5  C   UNL     1      -3.984  94.317 -18.929  1.00  0.00     0.070 C 
ATOM      6  C   UNL     1      -3.878  95.283 -20.119  1.00  0.00     0.050 C 
ATOM      7  C   UNL     1      -4.171  94.064 -21.021  1.00  0.00     0.115 C 
ATOM      8  C   UNL     1      -4.797  93.381 -19.806  1.00  0.00     0.096 C 
ATOM      9  C   UNL     1      -4.164  92.007 -19.691  1.00  0.00     0.267 C 
ATOM     10  O   UNL     1      -3.456  91.806 -20.904  1.00  0.00    -0.342 OA
ATOM     11  O   UNL     1      -3.238  92.104 -18.620  1.00  0.00    -0.320 OA
ENDROOT
BRANCH   7  12
ATOM     12  O   UNL     1      -5.108  94.205 -22.082  1.00  0.00    -0.339 OA
BRANCH  12  13
ATOM     13  C   UNL     1      -5.119  95.507 -22.649  1.00  0.00     0.282 C 
ATOM     14  C   UNL     1      -6.562  96.024 -22.847  1.00  0.00     0.202 C 
ATOM     15  O   UNL     1      -4.393  95.520 -23.873  1.00  0.00    -0.341 OA
ATOM     16  C   UNL     1      -7.298  95.239 -23.943  1.00  0.00     0.179 C 
ATOM     17  C   UNL     1      -5.004  94.785 -24.932  1.00  0.00     0.178 C 
ATOM     18  C   UNL     1      -6.449  95.258 -25.221  1.00  0.00     0.177 C 
BRANCH  14  19
ATOM     19  O   UNL     1      -7.284  96.013 -21.641  1.00  0.00    -0.385 OA
ATOM     20  H   UNL     1      -7.481  96.954 -21.396  1.00  0.00     0.211 HD
ENDBRANCH  14  19
BRANCH  16  21
ATOM     21  O   UNL     1      -8.542  95.845 -24.183  1.00  0.00    -0.387 OA
ATOM     22  H   UNL     1      -8.596  96.020 -25.158  1.00  0.00     0.211 HD
ENDBRANCH  16  21
BRANCH  17  23
ATOM     23  C   UNL     1      -4.857  93.252 -24.757  1.00  0.00     0.191 C 
BRANCH  23  24
ATOM     24  O   UNL     1      -4.857  92.605 -26.001  1.00  0.00    -0.394 OA
ATOM     25  H   UNL     1      -5.645  91.999 -26.009  1.00  0.00     0.210 HD
ENDBRANCH  23  24
ENDBRANCH  17  23
BRANCH  18  26
ATOM     26  O   UNL     1      -7.035  94.452 -26.211  1.00  0.00    -0.387 OA
ATOM     27  H   UNL     1      -7.509  95.059 -26.838  1.00  0.00     0.211 HD
ENDBRANCH  18  26
ENDBRANCH  12  13
ENDBRANCH   7  12
BRANCH   4  28
ATOM     28  O   UNL     1      -1.951  93.761 -17.644  1.00  0.00    -0.365 OA
ATOM     29  H   UNL     1      -2.075  94.736 -17.509  1.00  0.00     0.214 HD
ENDBRANCH   4  28
BRANCH   8  30
ATOM     30  C   UNL     1      -6.325  93.457 -19.642  1.00  0.00     0.249 C 
BRANCH  30  31
ATOM     31  O   UNL     1      -6.737  92.582 -18.598  1.00  0.00    -0.461 OA
BRANCH  31  32
ATOM     32  C   UNL     1      -6.769  92.964 -17.254  1.00  0.00     0.338 C 
ATOM     33  O   UNL     1      -7.621  93.806 -16.857  1.00  0.00    -0.246 OA
BRANCH  32  34
ATOM     34  C   UNL     1      -5.800  92.380 -16.302  1.00  0.00     0.060 A 
ATOM     35  C   UNL     1      -5.713  90.985 -16.146  1.00  0.00     0.015 A 
ATOM     36  C   UNL     1      -4.953  93.206 -15.540  1.00  0.00     0.015 A 
ATOM     37  C   UNL     1      -4.799  90.428 -15.246  1.00  0.00     0.001 A 
ATOM     38  C   UNL     1      -4.040  92.645 -14.641  1.00  0.00     0.001 A 
ATOM     39  C   UNL     1      -3.963  91.258 -14.494  1.00  0.00     0.000 A 
ENDBRANCH  32  34
ENDBRANCH  31  32
ENDBRANCH  30  31
ENDBRANCH   8  30
TORSDOF 12
ENDMDL
MODEL 7
REMARK VINA RESULT:    -4.989      2.219      7.043
REMARK INTER + INTRA:          -9.464
REMARK INTER:                  -8.244
REMARK INTRA:                  -1.220
REMARK UNBOUND:                -1.704
REMARK SMILES C[C@]12C[C@]3(O)O[C@H](O1)[C@@]1(COC(=O)c4ccccc4)[C@@H]3C[C@]12O[C@H]1O[C@@H](CO)[C@@H](O)[C@H](O)[C@H]1O
REMARK SMILES IDX 1 1 2 2 3 3 4 4 20 5 21 6 22 7 9 8 7 9 8 10 6 11 23 12 24 13
REMARK SMILES IDX 33 14 25 15 31 16 26 17 29 18 34 19 32 21 27 23 28 24 30 26
REMARK SMILES IDX 5 28 10 30 11 31 12 32 13 33 14 34 15 35 19 36 16 37 18 38
REMARK SMILES IDX 17 39
REMARK H PARENT 34 20 32 22 28 25 30 27 5 29
REMARK Flexibility Score: inf
ROOT
ATOM      1  C   UNL     1      -4.887  91.240 -11.163  1.00  0.00     0.046 C 
ATOM      2  C   UNL     1      -5.544  91.007 -12.523  1.00  0.00     0.104 C 
ATOM      3  C   UNL     1      -6.490  89.750 -12.473  1.00  0.00     0.104 C 
ATOM      4  C   UNL     1      -7.122  89.701 -13.909  1.00  0.00     0.175 C 
ATOM      5  C   UNL     1      -7.678  91.106 -14.315  1.00  0.00     0.070 C 
ATOM      6  C   UNL     1      -7.879  92.042 -13.113  1.00  0.00     0.050 C 
ATOM      7  C   UNL     1      -6.346  92.232 -13.118  1.00  0.00     0.115 C 
ATOM      8  C   UNL     1      -6.347  91.788 -14.580  1.00  0.00     0.096 C 
ATOM      9  C   UNL     1      -5.308  90.692 -14.715  1.00  0.00     0.267 C 
ATOM     10  O   UNL     1      -4.568  90.710 -13.504  1.00  0.00    -0.342 OA
ATOM     11  O   UNL     1      -6.042  89.480 -14.794  1.00  0.00    -0.320 OA
ENDROOT
BRANCH   7  12
ATOM     12  O   UNL     1      -5.817  93.544 -12.972  1.00  0.00    -0.339 OA
BRANCH  12  13
ATOM     13  C   UNL     1      -6.561  94.349 -12.067  1.00  0.00     0.282 C 
ATOM     14  C   UNL     1      -7.051  95.650 -12.743  1.00  0.00     0.202 C 
ATOM     15  O   UNL     1      -5.790  94.630 -10.904  1.00  0.00    -0.341 OA
ATOM     16  C   UNL     1      -5.884  96.596 -13.059  1.00  0.00     0.179 C 
ATOM     17  C   UNL     1      -4.669  95.482 -11.128  1.00  0.00     0.178 C 
ATOM     18  C   UNL     1      -5.072  96.828 -11.778  1.00  0.00     0.177 C 
BRANCH  14  19
ATOM     19  O   UNL     1      -7.812  95.379 -13.893  1.00  0.00    -0.385 OA
ATOM     20  H   UNL     1      -8.521  96.071 -13.959  1.00  0.00     0.211 HD
ENDBRANCH  14  19
BRANCH  16  21
ATOM     21  O   UNL     1      -6.398  97.816 -13.530  1.00  0.00    -0.387 OA
ATOM     22  H   UNL     1      -5.769  98.147 -14.222  1.00  0.00     0.211 HD
ENDBRANCH  16  21
BRANCH  17  23
ATOM     23  C   UNL     1      -3.498  94.756 -11.838  1.00  0.00     0.191 C 
BRANCH  23  24
ATOM     24  O   UNL     1      -2.272  95.362 -11.527  1.00  0.00    -0.394 OA
ATOM     25  H   UNL     1      -2.166  95.304 -10.541  1.00  0.00     0.210 HD
ENDBRANCH  23  24
ENDBRANCH  17  23
BRANCH  18  26
ATOM     26  O   UNL     1      -3.929  97.597 -12.054  1.00  0.00    -0.387 OA
ATOM     27  H   UNL     1      -3.170  96.965 -12.156  1.00  0.00     0.211 HD
ENDBRANCH  18  26
ENDBRANCH  12  13
ENDBRANCH   7  12
BRANCH   4  28
ATOM     28  O   UNL     1      -8.079  88.686 -14.037  1.00  0.00    -0.365 OA
ATOM     29  H   UNL     1      -8.867  88.970 -13.504  1.00  0.00     0.214 HD
ENDBRANCH   4  28
BRANCH   8  30
ATOM     30  C   UNL     1      -6.351  92.879 -15.666  1.00  0.00     0.249 C 
BRANCH  30  31
ATOM     31  O   UNL     1      -5.032  93.055 -16.170  1.00  0.00    -0.461 OA
BRANCH  31  32
ATOM     32  C   UNL     1      -4.767  93.462 -17.481  1.00  0.00     0.338 C 
ATOM     33  O   UNL     1      -5.255  94.541 -17.917  1.00  0.00    -0.246 OA
BRANCH  32  34
ATOM     34  C   UNL     1      -3.916  92.624 -18.352  1.00  0.00     0.060 A 
ATOM     35  C   UNL     1      -4.148  92.581 -19.739  1.00  0.00     0.015 A 
ATOM     36  C   UNL     1      -2.866  91.859 -17.813  1.00  0.00     0.015 A 
ATOM     37  C   UNL     1      -3.346  91.789 -20.567  1.00  0.00     0.001 A 
ATOM     38  C   UNL     1      -2.066  91.069 -18.645  1.00  0.00     0.001 A 
ATOM     39  C   UNL     1      -2.306  91.034 -20.020  1.00  0.00     0.000 A 
ENDBRANCH  32  34
ENDBRANCH  31  32
ENDBRANCH  30  31
ENDBRANCH   8  30
TORSDOF 12
ENDMDL
MODEL 8
REMARK VINA RESULT:    -4.960      2.753      7.523
REMARK INTER + INTRA:          -9.419
REMARK INTER:                  -7.946
REMARK INTRA:                  -1.473
REMARK UNBOUND:                -1.704
REMARK SMILES C[C@]12C[C@]3(O)O[C@H](O1)[C@@]1(COC(=O)c4ccccc4)[C@@H]3C[C@]12O[C@H]1O[C@@H](CO)[C@@H](O)[C@H](O)[C@H]1O
REMARK SMILES IDX 1 1 2 2 3 3 4 4 20 5 21 6 22 7 9 8 7 9 8 10 6 11 23 12 24 13
REMARK SMILES IDX 33 14 25 15 31 16 26 17 29 18 34 19 32 21 27 23 28 24 30 26
REMARK SMILES IDX 5 28 10 30 11 31 12 32 13 33 14 34 15 35 19 36 16 37 18 38
REMARK SMILES IDX 17 39
REMARK H PARENT 34 20 32 22 28 25 30 27 5 29
REMARK Flexibility Score: inf
ROOT
ATOM      1  C   UNL     1      -4.118  91.403 -12.443  1.00  0.00     0.046 C 
ATOM      2  C   UNL     1      -4.330  91.694 -13.928  1.00  0.00     0.104 C 
ATOM      3  C   UNL     1      -3.164  91.074 -14.786  1.00  0.00     0.104 C 
ATOM      4  C   UNL     1      -3.572  91.406 -16.265  1.00  0.00     0.175 C 
ATOM      5  C   UNL     1      -5.062  91.004 -16.529  1.00  0.00     0.070 C 
ATOM      6  C   UNL     1      -5.611  90.020 -15.486  1.00  0.00     0.050 C 
ATOM      7  C   UNL     1      -5.715  91.229 -14.530  1.00  0.00     0.115 C 
ATOM      8  C   UNL     1      -5.722  92.135 -15.760  1.00  0.00     0.096 C 
ATOM      9  C   UNL     1      -4.661  93.197 -15.538  1.00  0.00     0.267 C 
ATOM     10  O   UNL     1      -4.284  93.087 -14.175  1.00  0.00    -0.342 OA
ATOM     11  O   UNL     1      -3.566  92.816 -16.357  1.00  0.00    -0.320 OA
ENDROOT
BRANCH   7  12
ATOM     12  O   UNL     1      -6.897  91.392 -13.755  1.00  0.00    -0.339 OA
BRANCH  12  13
ATOM     13  C   UNL     1      -6.986  90.476 -12.673  1.00  0.00     0.282 C 
ATOM     14  C   UNL     1      -8.276  89.628 -12.757  1.00  0.00     0.202 C 
ATOM     15  O   UNL     1      -6.902  91.167 -11.431  1.00  0.00    -0.341 OA
ATOM     16  C   UNL     1      -9.528  90.479 -12.503  1.00  0.00     0.179 C 
ATOM     17  C   UNL     1      -8.022  92.002 -11.141  1.00  0.00     0.178 C 
ATOM     18  C   UNL     1      -9.360  91.225 -11.173  1.00  0.00     0.177 C 
BRANCH  14  19
ATOM     19  O   UNL     1      -8.364  88.944 -13.981  1.00  0.00    -0.385 OA
ATOM     20  H   UNL     1      -8.542  87.987 -13.783  1.00  0.00     0.211 HD
ENDBRANCH  14  19
BRANCH  16  21
ATOM     21  O   UNL     1     -10.650  89.635 -12.443  1.00  0.00    -0.387 OA
ATOM     22  H   UNL     1     -10.947  89.615 -11.496  1.00  0.00     0.211 HD
ENDBRANCH  16  21
BRANCH  17  23
ATOM     23  C   UNL     1      -8.022  93.311 -11.972  1.00  0.00     0.191 C 
BRANCH  23  24
ATOM     24  O   UNL     1      -6.714  93.773 -12.176  1.00  0.00    -0.394 OA
ATOM     25  H   UNL     1      -6.789  94.655 -12.627  1.00  0.00     0.210 HD
ENDBRANCH  23  24
ENDBRANCH  17  23
BRANCH  18  26
ATOM     26  O   UNL     1     -10.437  92.104 -10.964  1.00  0.00    -0.387 OA
ATOM     27  H   UNL     1     -10.901  91.805 -10.139  1.00  0.00     0.211 HD
ENDBRANCH  18  26
ENDBRANCH  12  13
ENDBRANCH   7  12
BRANCH   4  28
ATOM     28  O   UNL     1      -2.691  90.847 -17.201  1.00  0.00    -0.365 OA
ATOM     29  H   UNL     1      -2.774  91.390 -18.028  1.00  0.00     0.214 HD
ENDBRANCH   4  28
BRANCH   8  30
ATOM     30  C   UNL     1      -7.082  92.614 -16.297  1.00  0.00     0.249 C 
BRANCH  30  31
ATOM     31  O   UNL     1      -6.928  93.884 -16.922  1.00  0.00    -0.461 OA
BRANCH  31  32
ATOM     32  C   UNL     1      -6.846  94.044 -18.308  1.00  0.00     0.338 C 
ATOM     33  O   UNL     1      -7.857  94.428 -18.959  1.00  0.00    -0.246 OA
BRANCH  32  34
ATOM     34  C   UNL     1      -5.574  93.761 -19.006  1.00  0.00     0.060 A 
ATOM     35  C   UNL     1      -4.551  94.726 -19.034  1.00  0.00     0.015 A 
ATOM     36  C   UNL     1      -5.366  92.528 -19.652  1.00  0.00     0.015 A 
ATOM     37  C   UNL     1      -3.346  94.463 -19.693  1.00  0.00     0.001 A 
ATOM     38  C   UNL     1      -4.159  92.269 -20.310  1.00  0.00     0.001 A 
ATOM     39  C   UNL     1      -3.151  93.236 -20.331  1.00  0.00     0.000 A 
ENDBRANCH  32  34
ENDBRANCH  31  32
ENDBRANCH  30  31
ENDBRANCH   8  30
TORSDOF 12
ENDMDL
MODEL 9
REMARK VINA RESULT:    -4.931      3.207      7.561
REMARK INTER + INTRA:          -9.374
REMARK INTER:                  -8.360
REMARK INTRA:                  -1.013
REMARK UNBOUND:                -1.704
REMARK SMILES C[C@]12C[C@]3(O)O[C@H](O1)[C@@]1(COC(=O)c4ccccc4)[C@@H]3C[C@]12O[C@H]1O[C@@H](CO)[C@@H](O)[C@H](O)[C@H]1O
REMARK SMILES IDX 1 1 2 2 3 3 4 4 20 5 21 6 22 7 9 8 7 9 8 10 6 11 23 12 24 13
REMARK SMILES IDX 33 14 25 15 31 16 26 17 29 18 34 19 32 21 27 23 28 24 30 26
REMARK SMILES IDX 5 28 10 30 11 31 12 32 13 33 14 34 15 35 19 36 16 37 18 38
REMARK SMILES IDX 17 39
REMARK H PARENT 34 20 32 22 28 25 30 27 5 29
REMARK Flexibility Score: inf
ROOT
ATOM      1  C   UNL     1      -7.324  90.153  -6.876  1.00  0.00     0.046 C 
ATOM      2  C   UNL     1      -6.641  91.171  -7.789  1.00  0.00     0.104 C 
ATOM      3  C   UNL     1      -6.615  92.592  -7.112  1.00  0.00     0.104 C 
ATOM      4  C   UNL     1      -5.832  93.481  -8.141  1.00  0.00     0.175 C 
ATOM      5  C   UNL     1      -4.505  92.778  -8.580  1.00  0.00     0.070 C 
ATOM      6  C   UNL     1      -4.072  91.661  -7.619  1.00  0.00     0.050 C 
ATOM      7  C   UNL     1      -5.181  90.799  -8.263  1.00  0.00     0.115 C 
ATOM      8  C   UNL     1      -5.117  91.720  -9.481  1.00  0.00     0.096 C 
ATOM      9  C   UNL     1      -6.537  92.162  -9.780  1.00  0.00     0.267 C 
ATOM     10  O   UNL     1      -7.374  91.335  -8.989  1.00  0.00    -0.342 OA
ATOM     11  O   UNL     1      -6.625  93.499  -9.311  1.00  0.00    -0.320 OA
ENDROOT
BRANCH   7  12
ATOM     12  O   UNL     1      -4.887  89.452  -8.612  1.00  0.00    -0.339 OA
BRANCH  12  13
ATOM     13  C   UNL     1      -4.922  88.566  -7.502  1.00  0.00     0.282 C 
ATOM     14  C   UNL     1      -3.555  87.877  -7.287  1.00  0.00     0.202 C 
ATOM     15  O   UNL     1      -5.963  87.609  -7.663  1.00  0.00    -0.341 OA
ATOM     16  C   UNL     1      -3.237  86.889  -8.419  1.00  0.00     0.179 C 
ATOM     17  C   UNL     1      -5.749  86.673  -8.718  1.00  0.00     0.178 C 
ATOM     18  C   UNL     1      -4.411  85.911  -8.567  1.00  0.00     0.177 C 
BRANCH  14  19
ATOM     19  O   UNL     1      -2.523  88.818  -7.127  1.00  0.00    -0.385 OA
ATOM     20  H   UNL     1      -2.758  89.400  -6.358  1.00  0.00     0.211 HD
ENDBRANCH  14  19
BRANCH  16  21
ATOM     21  O   UNL     1      -2.064  86.187  -8.097  1.00  0.00    -0.387 OA
ATOM     22  H   UNL     1      -2.339  85.384  -7.582  1.00  0.00     0.211 HD
ENDBRANCH  16  21
BRANCH  17  23
ATOM     23  C   UNL     1      -5.978  87.292 -10.121  1.00  0.00     0.191 C 
BRANCH  23  24
ATOM     24  O   UNL     1      -6.951  88.300 -10.070  1.00  0.00    -0.394 OA
ATOM     25  H   UNL     1      -7.583  88.052  -9.344  1.00  0.00     0.210 HD
ENDBRANCH  23  24
ENDBRANCH  17  23
BRANCH  18  26
ATOM     26  O   UNL     1      -4.207  85.064  -9.670  1.00  0.00    -0.387 OA
ATOM     27  H   UNL     1      -3.289  84.695  -9.587  1.00  0.00     0.211 HD
ENDBRANCH  18  26
ENDBRANCH  12  13
ENDBRANCH   7  12
BRANCH   4  28
ATOM     28  O   UNL     1      -5.620  94.784  -7.670  1.00  0.00    -0.365 OA
ATOM     29  H   UNL     1      -5.537  94.718  -6.683  1.00  0.00     0.214 HD
ENDBRANCH   4  28
BRANCH   8  30
ATOM     30  C   UNL     1      -4.261  91.275 -10.679  1.00  0.00     0.249 C 
BRANCH  30  31
ATOM     31  O   UNL     1      -4.901  91.659 -11.892  1.00  0.00    -0.461 OA
BRANCH  31  32
ATOM     32  C   UNL     1      -5.325  90.736 -12.852  1.00  0.00     0.338 C 
ATOM     33  O   UNL     1      -6.078  89.779 -12.518  1.00  0.00    -0.246 OA
BRANCH  32  34
ATOM     34  C   UNL     1      -4.889  90.885 -14.256  1.00  0.00     0.060 A 
ATOM     35  C   UNL     1      -3.586  91.327 -14.551  1.00  0.00     0.015 A 
ATOM     36  C   UNL     1      -5.764  90.589 -15.317  1.00  0.00     0.015 A 
ATOM     37  C   UNL     1      -3.170  91.469 -15.878  1.00  0.00     0.001 A 
ATOM     38  C   UNL     1      -5.343  90.732 -16.644  1.00  0.00     0.001 A 
ATOM     39  C   UNL     1      -4.047  91.172 -16.924  1.00  0.00     0.000 A 
ENDBRANCH  32  34
ENDBRANCH  31  32
ENDBRANCH  30  31
ENDBRANCH   8  30
TORSDOF 12
ENDMDL
