MODEL 1
REMARK VINA RESULT:    -3.991      0.000      0.000
REMARK INTER + INTRA:          -7.045
REMARK INTER:                  -6.208
REMARK INTRA:                  -0.838
REMARK UNBOUND:                -0.838
REMARK SMILES COc1cc(CNC(=O)CCCCC=CC(C)C)ccc1O
REMARK SMILES IDX 11 1 12 2 13 3 14 4 15 5 16 6 17 7 18 8 10 9 8 10 9 11 7 12
REMARK SMILES IDX 6 14 5 15 4 16 19 17 3 18 20 19 21 20 2 21 1 22 22 23
REMARK H PARENT 7 13 22 24
REMARK Flexibility Score: inf
ROOT
ATOM      1  C   UNL     1     127.622 127.037 116.644  1.00  0.00     0.010 C 
ENDROOT
BRANCH   1   2
ATOM      2  C   UNL     1     128.812 127.854 117.178  1.00  0.00     0.005 C 
BRANCH   2   3
ATOM      3  C   UNL     1     128.566 128.511 118.547  1.00  0.00     0.027 C 
BRANCH   3   4
ATOM      4  C   UNL     1     127.683 129.736 118.502  1.00  0.00    -0.031 C 
ATOM      5  C   UNL     1     126.413 129.883 118.947  1.00  0.00    -0.028 C 
BRANCH   5   6
ATOM      6  C   UNL     1     125.506 128.904 119.681  1.00  0.00     0.005 C 
ATOM      7  C   UNL     1     124.568 128.178 118.709  1.00  0.00     0.012 C 
ATOM      8  C   UNL     1     124.760 129.453 120.902  1.00  0.00     0.012 C 
ENDBRANCH   5   6
ENDBRANCH   3   4
ENDBRANCH   2   3
ENDBRANCH   1   2
BRANCH   1   9
ATOM      9  C   UNL     1     127.839 126.512 115.218  1.00  0.00     0.100 C 
BRANCH   9  10
ATOM     10  C   UNL     1     128.583 125.210 115.245  1.00  0.00     0.220 C 
ATOM     11  O   UNL     1     129.815 125.196 114.973  1.00  0.00    -0.275 OA
ATOM     12  N   UNL     1     127.895 123.989 115.553  1.00  0.00    -0.352 N 
ATOM     13  H   UNL     1     126.876 124.021 115.784  1.00  0.00     0.163 HD
BRANCH  12  14
ATOM     14  C   UNL     1     128.552 122.686 115.499  1.00  0.00     0.151 C 
BRANCH  14  15
ATOM     15  C   UNL     1     127.586 121.607 115.908  1.00  0.00    -0.025 A 
ATOM     16  C   UNL     1     127.185 121.495 117.249  1.00  0.00     0.056 A 
ATOM     17  C   UNL     1     127.040 120.740 114.950  1.00  0.00     0.009 A 
ATOM     18  C   UNL     1     126.255 120.510 117.640  1.00  0.00     0.160 A 
ATOM     19  C   UNL     1     126.117 119.763 115.332  1.00  0.00     0.050 A 
ATOM     20  C   UNL     1     125.725 119.646 116.671  1.00  0.00     0.157 A 
BRANCH  18  21
ATOM     21  O   UNL     1     125.837 120.362 118.972  1.00  0.00    -0.493 OA
ATOM     22  C   UNL     1     126.646 120.661 120.107  1.00  0.00     0.278 C 
ENDBRANCH  18  21
BRANCH  20  23
ATOM     23  O   UNL     1     124.803 118.670 117.050  1.00  0.00    -0.504 OA
ATOM     24  H   UNL     1     124.663 118.421 118.021  1.00  0.00     0.293 HD
ENDBRANCH  20  23
ENDBRANCH  14  15
ENDBRANCH  12  14
ENDBRANCH   9  10
ENDBRANCH   1   9
TORSDOF 10
ENDMDL
MODEL 2
REMARK VINA RESULT:    -3.908     10.736     13.017
REMARK INTER + INTRA:          -6.916
REMARK INTER:                  -6.202
REMARK INTRA:                  -0.713
REMARK UNBOUND:                -0.838
REMARK SMILES COc1cc(CNC(=O)CCCCC=CC(C)C)ccc1O
REMARK SMILES IDX 11 1 12 2 13 3 14 4 15 5 16 6 17 7 18 8 10 9 8 10 9 11 7 12
REMARK SMILES IDX 6 14 5 15 4 16 19 17 3 18 20 19 21 20 2 21 1 22 22 23
REMARK H PARENT 7 13 22 24
REMARK Flexibility Score: inf
ROOT
ATOM      1  C   UNL     1     112.881 127.918 117.231  1.00  0.00     0.010 C 
ENDROOT
BRANCH   1   2
ATOM      2  C   UNL     1     111.391 127.541 117.304  1.00  0.00     0.005 C 
BRANCH   2   3
ATOM      3  C   UNL     1     110.998 126.756 118.569  1.00  0.00     0.027 C 
BRANCH   3   4
ATOM      4  C   UNL     1     110.485 125.360 118.303  1.00  0.00    -0.031 C 
ATOM      5  C   UNL     1     111.002 124.176 118.708  1.00  0.00    -0.028 C 
BRANCH   5   6
ATOM      6  C   UNL     1     112.202 123.876 119.597  1.00  0.00     0.005 C 
ATOM      7  C   UNL     1     112.964 122.638 119.107  1.00  0.00     0.012 C 
ATOM      8  C   UNL     1     111.935 123.829 121.105  1.00  0.00     0.012 C 
ENDBRANCH   5   6
ENDBRANCH   3   4
ENDBRANCH   2   3
ENDBRANCH   1   2
BRANCH   1   9
ATOM      9  C   UNL     1     113.358 128.225 115.805  1.00  0.00     0.100 C 
BRANCH   9  10
ATOM     10  C   UNL     1     114.774 128.719 115.819  1.00  0.00     0.220 C 
ATOM     11  O   UNL     1     115.011 129.905 116.178  1.00  0.00    -0.275 OA
ATOM     12  N   UNL     1     115.845 127.859 115.404  1.00  0.00    -0.352 N 
ATOM     13  H   UNL     1     115.630 126.877 115.117  1.00  0.00     0.163 HD
BRANCH  12  14
ATOM     14  C   UNL     1     117.227 128.321 115.308  1.00  0.00     0.151 C 
BRANCH  14  15
ATOM     15  C   UNL     1     118.164 127.237 115.765  1.00  0.00    -0.025 A 
ATOM     16  C   UNL     1     118.080 126.744 117.077  1.00  0.00     0.056 A 
ATOM     17  C   UNL     1     119.091 126.675 114.875  1.00  0.00     0.009 A 
ATOM     18  C   UNL     1     118.930 125.704 117.508  1.00  0.00     0.160 A 
ATOM     19  C   UNL     1     119.934 125.644 115.297  1.00  0.00     0.050 A 
ATOM     20  C   UNL     1     119.857 125.159 116.608  1.00  0.00     0.157 A 
BRANCH  18  21
ATOM     21  O   UNL     1     118.881 125.191 118.814  1.00  0.00    -0.493 OA
ATOM     22  C   UNL     1     118.000 125.661 119.831  1.00  0.00     0.278 C 
ENDBRANCH  18  21
BRANCH  20  23
ATOM     23  O   UNL     1     120.700 124.129 117.027  1.00  0.00    -0.504 OA
ATOM     24  H   UNL     1     121.463 123.801 116.448  1.00  0.00     0.293 HD
ENDBRANCH  20  23
ENDBRANCH  14  15
ENDBRANCH  12  14
ENDBRANCH   9  10
ENDBRANCH   1   9
TORSDOF 10
ENDMDL
MODEL 3
REMARK VINA RESULT:    -3.826      2.452      4.073
REMARK INTER + INTRA:          -6.788
REMARK INTER:                  -5.707
REMARK INTRA:                  -1.081
REMARK UNBOUND:                -0.838
REMARK SMILES COc1cc(CNC(=O)CCCCC=CC(C)C)ccc1O
REMARK SMILES IDX 11 1 12 2 13 3 14 4 15 5 16 6 17 7 18 8 10 9 8 10 9 11 7 12
REMARK SMILES IDX 6 14 5 15 4 16 19 17 3 18 20 19 21 20 2 21 1 22 22 23
REMARK H PARENT 7 13 22 24
REMARK Flexibility Score: inf
ROOT
ATOM      1  C   UNL     1     129.704 123.959 116.190  1.00  0.00     0.010 C 
ENDROOT
BRANCH   1   2
ATOM      2  C   UNL     1     129.369 124.687 114.875  1.00  0.00     0.005 C 
BRANCH   2   3
ATOM      3  C   UNL     1     129.287 126.219 115.004  1.00  0.00     0.027 C 
BRANCH   3   4
ATOM      4  C   UNL     1     127.939 126.736 115.447  1.00  0.00    -0.031 C 
ATOM      5  C   UNL     1     127.537 127.099 116.689  1.00  0.00    -0.028 C 
BRANCH   5   6
ATOM      6  C   UNL     1     128.314 127.164 117.997  1.00  0.00     0.005 C 
ATOM      7  C   UNL     1     127.685 126.260 119.065  1.00  0.00     0.012 C 
ATOM      8  C   UNL     1     128.621 128.566 118.536  1.00  0.00     0.012 C 
ENDBRANCH   5   6
ENDBRANCH   3   4
ENDBRANCH   2   3
ENDBRANCH   1   2
BRANCH   1   9
ATOM      9  C   UNL     1     128.474 123.335 116.865  1.00  0.00     0.100 C 
BRANCH   9  10
ATOM     10  C   UNL     1     128.123 122.031 116.213  1.00  0.00     0.220 C 
ATOM     11  O   UNL     1     129.040 121.209 115.940  1.00  0.00    -0.275 OA
ATOM     12  N   UNL     1     126.759 121.731 115.881  1.00  0.00    -0.352 N 
ATOM     13  H   UNL     1     126.012 122.422 116.122  1.00  0.00     0.163 HD
BRANCH  12  14
ATOM     14  C   UNL     1     126.377 120.520 115.160  1.00  0.00     0.151 C 
BRANCH  14  15
ATOM     15  C   UNL     1     125.179 119.890 115.814  1.00  0.00    -0.025 A 
ATOM     16  C   UNL     1     123.948 119.853 115.139  1.00  0.00     0.056 A 
ATOM     17  C   UNL     1     125.290 119.290 117.077  1.00  0.00     0.009 A 
ATOM     18  C   UNL     1     122.825 119.235 115.727  1.00  0.00     0.160 A 
ATOM     19  C   UNL     1     124.181 118.676 117.664  1.00  0.00     0.050 A 
ATOM     20  C   UNL     1     122.951 118.647 116.994  1.00  0.00     0.157 A 
BRANCH  18  21
ATOM     21  O   UNL     1     121.577 119.186 115.086  1.00  0.00    -0.493 OA
ATOM     22  C   UNL     1     120.626 120.248 115.091  1.00  0.00     0.278 C 
ENDBRANCH  18  21
BRANCH  20  23
ATOM     23  O   UNL     1     121.845 118.033 117.582  1.00  0.00    -0.504 OA
ATOM     24  H   UNL     1     121.043 118.568 117.890  1.00  0.00     0.293 HD
ENDBRANCH  20  23
ENDBRANCH  14  15
ENDBRANCH  12  14
ENDBRANCH   9  10
ENDBRANCH   1   9
TORSDOF 10
ENDMDL
MODEL 4
REMARK VINA RESULT:    -3.721      5.829      8.185
REMARK INTER + INTRA:          -6.625
REMARK INTER:                  -5.624
REMARK INTRA:                  -1.001
REMARK UNBOUND:                -0.838
REMARK SMILES COc1cc(CNC(=O)CCCCC=CC(C)C)ccc1O
REMARK SMILES IDX 11 1 12 2 13 3 14 4 15 5 16 6 17 7 18 8 10 9 8 10 9 11 7 12
REMARK SMILES IDX 6 14 5 15 4 16 19 17 3 18 20 19 21 20 2 21 1 22 22 23
REMARK H PARENT 7 13 22 24
REMARK Flexibility Score: inf
ROOT
ATOM      1  C   UNL     1     123.224 127.092 120.661  1.00  0.00     0.010 C 
ENDROOT
BRANCH   1   2
ATOM      2  C   UNL     1     124.135 128.250 120.215  1.00  0.00     0.005 C 
BRANCH   2   3
ATOM      3  C   UNL     1     124.410 128.291 118.702  1.00  0.00     0.027 C 
BRANCH   3   4
ATOM      4  C   UNL     1     125.715 128.950 118.322  1.00  0.00    -0.031 C 
ATOM      5  C   UNL     1     126.898 128.369 118.009  1.00  0.00    -0.028 C 
BRANCH   5   6
ATOM      6  C   UNL     1     127.270 126.898 117.876  1.00  0.00     0.005 C 
ATOM      7  C   UNL     1     127.585 126.278 119.243  1.00  0.00     0.012 C 
ATOM      8  C   UNL     1     128.336 126.559 116.829  1.00  0.00     0.012 C 
ENDBRANCH   5   6
ENDBRANCH   3   4
ENDBRANCH   2   3
ENDBRANCH   1   2
BRANCH   1   9
ATOM      9  C   UNL     1     123.715 125.718 120.186  1.00  0.00     0.100 C 
BRANCH   9  10
ATOM     10  C   UNL     1     122.575 124.911 119.641  1.00  0.00     0.220 C 
ATOM     11  O   UNL     1     122.390 123.737 120.064  1.00  0.00    -0.275 OA
ATOM     12  N   UNL     1     121.718 125.460 118.630  1.00  0.00    -0.352 N 
ATOM     13  H   UNL     1     121.882 126.438 118.297  1.00  0.00     0.163 HD
BRANCH  12  14
ATOM     14  C   UNL     1     120.654 124.683 117.998  1.00  0.00     0.151 C 
BRANCH  14  15
ATOM     15  C   UNL     1     119.784 125.585 117.167  1.00  0.00    -0.025 A 
ATOM     16  C   UNL     1     118.764 126.334 117.776  1.00  0.00     0.056 A 
ATOM     17  C   UNL     1     120.014 125.725 115.790  1.00  0.00     0.009 A 
ATOM     18  C   UNL     1     117.963 127.209 117.013  1.00  0.00     0.160 A 
ATOM     19  C   UNL     1     119.225 126.591 115.030  1.00  0.00     0.050 A 
ATOM     20  C   UNL     1     118.201 127.331 115.636  1.00  0.00     0.157 A 
BRANCH  18  21
ATOM     21  O   UNL     1     116.930 127.967 117.585  1.00  0.00    -0.493 OA
ATOM     22  C   UNL     1     116.697 128.083 118.987  1.00  0.00     0.278 C 
ENDBRANCH  18  21
BRANCH  20  23
ATOM     23  O   UNL     1     117.414 128.196 114.875  1.00  0.00    -0.504 OA
ATOM     24  H   UNL     1     117.587 128.339 113.888  1.00  0.00     0.293 HD
ENDBRANCH  20  23
ENDBRANCH  14  15
ENDBRANCH  12  14
ENDBRANCH   9  10
ENDBRANCH   1   9
TORSDOF 10
ENDMDL
MODEL 5
REMARK VINA RESULT:    -3.702      2.202      4.214
REMARK INTER + INTRA:          -6.595
REMARK INTER:                  -5.195
REMARK INTRA:                  -1.400
REMARK UNBOUND:                -0.838
REMARK SMILES COc1cc(CNC(=O)CCCCC=CC(C)C)ccc1O
REMARK SMILES IDX 11 1 12 2 13 3 14 4 15 5 16 6 17 7 18 8 10 9 8 10 9 11 7 12
REMARK SMILES IDX 6 14 5 15 4 16 19 17 3 18 20 19 21 20 2 21 1 22 22 23
REMARK H PARENT 7 13 22 24
REMARK Flexibility Score: inf
ROOT
ATOM      1  C   UNL     1     125.383 126.823 120.307  1.00  0.00     0.010 C 
ENDROOT
BRANCH   1   2
ATOM      2  C   UNL     1     124.611 127.991 119.667  1.00  0.00     0.005 C 
BRANCH   2   3
ATOM      3  C   UNL     1     125.179 128.459 118.315  1.00  0.00     0.027 C 
BRANCH   3   4
ATOM      4  C   UNL     1     126.605 128.955 118.375  1.00  0.00    -0.031 C 
ATOM      5  C   UNL     1     127.746 128.297 118.058  1.00  0.00    -0.028 C 
BRANCH   5   6
ATOM      6  C   UNL     1     127.952 126.900 117.489  1.00  0.00     0.005 C 
ATOM      7  C   UNL     1     129.250 126.271 118.012  1.00  0.00     0.012 C 
ATOM      8  C   UNL     1     127.813 126.758 115.970  1.00  0.00     0.012 C 
ENDBRANCH   5   6
ENDBRANCH   3   4
ENDBRANCH   2   3
ENDBRANCH   1   2
BRANCH   1   9
ATOM      9  C   UNL     1     124.557 125.532 120.400  1.00  0.00     0.100 C 
BRANCH   9  10
ATOM     10  C   UNL     1     125.458 124.335 120.455  1.00  0.00     0.220 C 
ATOM     11  O   UNL     1     125.143 123.357 121.187  1.00  0.00    -0.275 OA
ATOM     12  N   UNL     1     126.680 124.312 119.702  1.00  0.00    -0.352 N 
ATOM     13  H   UNL     1     126.920 125.129 119.095  1.00  0.00     0.163 HD
BRANCH  12  14
ATOM     14  C   UNL     1     127.637 123.213 119.796  1.00  0.00     0.151 C 
BRANCH  14  15
ATOM     15  C   UNL     1     127.622 122.410 118.525  1.00  0.00    -0.025 A 
ATOM     16  C   UNL     1     126.642 121.423 118.329  1.00  0.00     0.056 A 
ATOM     17  C   UNL     1     128.550 122.671 117.506  1.00  0.00     0.009 A 
ATOM     18  C   UNL     1     126.597 120.686 117.128  1.00  0.00     0.160 A 
ATOM     19  C   UNL     1     128.508 121.945 116.313  1.00  0.00     0.050 A 
ATOM     20  C   UNL     1     127.536 120.954 116.122  1.00  0.00     0.157 A 
BRANCH  18  21
ATOM     21  O   UNL     1     125.637 119.687 116.899  1.00  0.00    -0.493 OA
ATOM     22  C   UNL     1     125.557 118.465 117.630  1.00  0.00     0.278 C 
ENDBRANCH  18  21
BRANCH  20  23
ATOM     23  O   UNL     1     127.497 120.230 114.931  1.00  0.00    -0.504 OA
ATOM     24  H   UNL     1     127.929 119.318 114.850  1.00  0.00     0.293 HD
ENDBRANCH  20  23
ENDBRANCH  14  15
ENDBRANCH  12  14
ENDBRANCH   9  10
ENDBRANCH   1   9
TORSDOF 10
ENDMDL
MODEL 6
REMARK VINA RESULT:    -3.694     11.139     13.674
REMARK INTER + INTRA:          -6.583
REMARK INTER:                  -5.565
REMARK INTRA:                  -1.018
REMARK UNBOUND:                -0.838
REMARK SMILES COc1cc(CNC(=O)CCCCC=CC(C)C)ccc1O
REMARK SMILES IDX 11 1 12 2 13 3 14 4 15 5 16 6 17 7 18 8 10 9 8 10 9 11 7 12
REMARK SMILES IDX 6 14 5 15 4 16 19 17 3 18 20 19 21 20 2 21 1 22 22 23
REMARK H PARENT 7 13 22 24
REMARK Flexibility Score: inf
ROOT
ATOM      1  C   UNL     1     112.069 127.311 117.963  1.00  0.00     0.010 C 
ENDROOT
BRANCH   1   2
ATOM      2  C   UNL     1     110.650 126.742 118.141  1.00  0.00     0.005 C 
BRANCH   2   3
ATOM      3  C   UNL     1     110.597 125.213 118.303  1.00  0.00     0.027 C 
BRANCH   3   4
ATOM      4  C   UNL     1     110.398 124.741 119.724  1.00  0.00    -0.031 C 
ATOM      5  C   UNL     1     111.257 124.060 120.519  1.00  0.00    -0.028 C 
BRANCH   5   6
ATOM      6  C   UNL     1     112.693 123.618 120.268  1.00  0.00     0.005 C 
ATOM      7  C   UNL     1     113.653 124.814 120.265  1.00  0.00     0.012 C 
ATOM      8  C   UNL     1     112.918 122.694 119.066  1.00  0.00     0.012 C 
ENDBRANCH   5   6
ENDBRANCH   3   4
ENDBRANCH   2   3
ENDBRANCH   1   2
BRANCH   1   9
ATOM      9  C   UNL     1     112.296 127.951 116.586  1.00  0.00     0.100 C 
BRANCH   9  10
ATOM     10  C   UNL     1     113.629 128.636 116.537  1.00  0.00     0.220 C 
ATOM     11  O   UNL     1     113.779 129.738 117.132  1.00  0.00    -0.275 OA
ATOM     12  N   UNL     1     114.715 128.055 115.802  1.00  0.00    -0.352 N 
ATOM     13  H   UNL     1     114.574 127.137 115.322  1.00  0.00     0.163 HD
BRANCH  12  14
ATOM     14  C   UNL     1     116.002 128.728 115.644  1.00  0.00     0.151 C 
BRANCH  14  15
ATOM     15  C   UNL     1     117.111 127.835 116.126  1.00  0.00    -0.025 A 
ATOM     16  C   UNL     1     117.130 127.396 117.460  1.00  0.00     0.056 A 
ATOM     17  C   UNL     1     118.104 127.391 115.240  1.00  0.00     0.009 A 
ATOM     18  C   UNL     1     118.146 126.531 117.916  1.00  0.00     0.160 A 
ATOM     19  C   UNL     1     119.112 126.533 115.687  1.00  0.00     0.050 A 
ATOM     20  C   UNL     1     119.136 126.103 117.020  1.00  0.00     0.157 A 
BRANCH  18  21
ATOM     21  O   UNL     1     118.202 126.079 119.244  1.00  0.00    -0.493 OA
ATOM     22  C   UNL     1     117.538 124.913 119.726  1.00  0.00     0.278 C 
ENDBRANCH  18  21
BRANCH  20  23
ATOM     23  O   UNL     1     120.143 125.246 117.463  1.00  0.00    -0.504 OA
ATOM     24  H   UNL     1     120.108 124.250 117.284  1.00  0.00     0.293 HD
ENDBRANCH  20  23
ENDBRANCH  14  15
ENDBRANCH  12  14
ENDBRANCH   9  10
ENDBRANCH   1   9
TORSDOF 10
ENDMDL
MODEL 7
REMARK VINA RESULT:    -3.688      5.341     10.298
REMARK INTER + INTRA:          -6.574
REMARK INTER:                  -5.136
REMARK INTRA:                  -1.438
REMARK UNBOUND:                -0.838
REMARK SMILES COc1cc(CNC(=O)CCCCC=CC(C)C)ccc1O
REMARK SMILES IDX 11 1 12 2 13 3 14 4 15 5 16 6 17 7 18 8 10 9 8 10 9 11 7 12
REMARK SMILES IDX 6 14 5 15 4 16 19 17 3 18 20 19 21 20 2 21 1 22 22 23
REMARK H PARENT 7 13 22 24
REMARK Flexibility Score: inf
ROOT
ATOM      1  C   UNL     1     126.941 115.869 122.026  1.00  0.00     0.010 C 
ENDROOT
BRANCH   1   2
ATOM      2  C   UNL     1     126.181 114.776 121.253  1.00  0.00     0.005 C 
BRANCH   2   3
ATOM      3  C   UNL     1     125.931 115.107 119.771  1.00  0.00     0.027 C 
BRANCH   3   4
ATOM      4  C   UNL     1     127.171 115.490 118.999  1.00  0.00    -0.031 C 
ATOM      5  C   UNL     1     128.203 114.705 118.607  1.00  0.00    -0.028 C 
BRANCH   5   6
ATOM      6  C   UNL     1     128.410 113.203 118.756  1.00  0.00     0.005 C 
ATOM      7  C   UNL     1     129.901 112.844 118.762  1.00  0.00     0.012 C 
ATOM      8  C   UNL     1     127.605 112.309 117.807  1.00  0.00     0.012 C 
ENDBRANCH   5   6
ENDBRANCH   3   4
ENDBRANCH   2   3
ENDBRANCH   1   2
BRANCH   1   9
ATOM      9  C   UNL     1     126.027 116.985 122.551  1.00  0.00     0.100 C 
BRANCH   9  10
ATOM     10  C   UNL     1     126.260 118.257 121.791  1.00  0.00     0.220 C 
ATOM     11  O   UNL     1     127.365 118.854 121.908  1.00  0.00    -0.275 OA
ATOM     12  N   UNL     1     125.227 118.803 120.959  1.00  0.00    -0.352 N 
ATOM     13  H   UNL     1     124.320 118.290 120.868  1.00  0.00     0.163 HD
BRANCH  12  14
ATOM     14  C   UNL     1     125.368 120.086 120.275  1.00  0.00     0.151 C 
BRANCH  14  15
ATOM     15  C   UNL     1     125.771 119.862 118.843  1.00  0.00    -0.025 A 
ATOM     16  C   UNL     1     126.441 120.874 118.136  1.00  0.00     0.056 A 
ATOM     17  C   UNL     1     125.528 118.630 118.219  1.00  0.00     0.009 A 
ATOM     18  C   UNL     1     126.854 120.665 116.804  1.00  0.00     0.160 A 
ATOM     19  C   UNL     1     125.936 118.418 116.900  1.00  0.00     0.050 A 
ATOM     20  C   UNL     1     126.597 119.430 116.192  1.00  0.00     0.157 A 
BRANCH  18  21
ATOM     21  O   UNL     1     127.519 121.656 116.064  1.00  0.00    -0.493 OA
ATOM     22  C   UNL     1     128.931 121.849 116.064  1.00  0.00     0.278 C 
ENDBRANCH  18  21
BRANCH  20  23
ATOM     23  O   UNL     1     127.003 119.216 114.875  1.00  0.00    -0.504 OA
ATOM     24  H   UNL     1     127.025 118.288 114.472  1.00  0.00     0.293 HD
ENDBRANCH  20  23
ENDBRANCH  14  15
ENDBRANCH  12  14
ENDBRANCH   9  10
ENDBRANCH   1   9
TORSDOF 10
ENDMDL
MODEL 8
REMARK VINA RESULT:    -3.683     10.618     13.144
REMARK INTER + INTRA:          -6.566
REMARK INTER:                  -4.962
REMARK INTRA:                  -1.604
REMARK UNBOUND:                -0.838
REMARK SMILES COc1cc(CNC(=O)CCCCC=CC(C)C)ccc1O
REMARK SMILES IDX 11 1 12 2 13 3 14 4 15 5 16 6 17 7 18 8 10 9 8 10 9 11 7 12
REMARK SMILES IDX 6 14 5 15 4 16 19 17 3 18 20 19 21 20 2 21 1 22 22 23
REMARK H PARENT 7 13 22 24
REMARK Flexibility Score: inf
ROOT
ATOM      1  C   UNL     1     126.462 114.999 121.073  1.00  0.00     0.010 C 
ENDROOT
BRANCH   1   2
ATOM      2  C   UNL     1     127.845 114.736 120.450  1.00  0.00     0.005 C 
BRANCH   2   3
ATOM      3  C   UNL     1     127.860 114.758 118.911  1.00  0.00     0.027 C 
BRANCH   3   4
ATOM      4  C   UNL     1     128.614 113.613 118.278  1.00  0.00    -0.031 C 
ATOM      5  C   UNL     1     128.174 112.366 117.987  1.00  0.00    -0.028 C 
BRANCH   5   6
ATOM      6  C   UNL     1     126.790 111.749 118.140  1.00  0.00     0.005 C 
ATOM      7  C   UNL     1     126.654 111.008 119.476  1.00  0.00     0.012 C 
ATOM      8  C   UNL     1     126.287 110.909 116.960  1.00  0.00     0.012 C 
ENDBRANCH   5   6
ENDBRANCH   3   4
ENDBRANCH   2   3
ENDBRANCH   1   2
BRANCH   1   9
ATOM      9  C   UNL     1     125.422 115.485 120.054  1.00  0.00     0.100 C 
BRANCH   9  10
ATOM     10  C   UNL     1     124.124 114.757 120.240  1.00  0.00     0.220 C 
ATOM     11  O   UNL     1     123.089 115.409 120.551  1.00  0.00    -0.275 OA
ATOM     12  N   UNL     1     124.065 113.331 120.092  1.00  0.00    -0.352 N 
ATOM     13  H   UNL     1     124.931 112.809 119.827  1.00  0.00     0.163 HD
BRANCH  12  14
ATOM     14  C   UNL     1     122.849 112.567 120.357  1.00  0.00     0.151 C 
BRANCH  14  15
ATOM     15  C   UNL     1     122.242 112.103 119.061  1.00  0.00    -0.025 A 
ATOM     16  C   UNL     1     121.150 112.794 118.510  1.00  0.00     0.056 A 
ATOM     17  C   UNL     1     122.789 111.013 118.368  1.00  0.00     0.009 A 
ATOM     18  C   UNL     1     120.593 112.390 117.279  1.00  0.00     0.160 A 
ATOM     19  C   UNL     1     122.242 110.610 117.148  1.00  0.00     0.050 A 
ATOM     20  C   UNL     1     121.147 111.293 116.603  1.00  0.00     0.157 A 
BRANCH  18  21
ATOM     21  O   UNL     1     119.497 113.050 116.702  1.00  0.00    -0.493 OA
ATOM     22  C   UNL     1     119.586 114.274 115.975  1.00  0.00     0.278 C 
ENDBRANCH  18  21
BRANCH  20  23
ATOM     23  O   UNL     1     120.602 110.889 115.384  1.00  0.00    -0.504 OA
ATOM     24  H   UNL     1     120.110 110.009 115.289  1.00  0.00     0.293 HD
ENDBRANCH  20  23
ENDBRANCH  14  15
ENDBRANCH  12  14
ENDBRANCH   9  10
ENDBRANCH   1   9
TORSDOF 10
ENDMDL
MODEL 9
REMARK VINA RESULT:    -3.503      2.246      3.428
REMARK INTER + INTRA:          -6.286
REMARK INTER:                  -5.267
REMARK INTRA:                  -1.019
REMARK UNBOUND:                -0.838
REMARK SMILES COc1cc(CNC(=O)CCCCC=CC(C)C)ccc1O
REMARK SMILES IDX 11 1 12 2 13 3 14 4 15 5 16 6 17 7 18 8 10 9 8 10 9 11 7 12
REMARK SMILES IDX 6 14 5 15 4 16 19 17 3 18 20 19 21 20 2 21 1 22 22 23
REMARK H PARENT 7 13 22 24
REMARK Flexibility Score: inf
ROOT
ATOM      1  C   UNL     1     129.771 124.036 116.054  1.00  0.00     0.010 C 
ENDROOT
BRANCH   1   2
ATOM      2  C   UNL     1     129.277 124.893 114.875  1.00  0.00     0.005 C 
BRANCH   2   3
ATOM      3  C   UNL     1     129.190 126.399 115.180  1.00  0.00     0.027 C 
BRANCH   3   4
ATOM      4  C   UNL     1     127.844 126.855 115.693  1.00  0.00    -0.031 C 
ATOM      5  C   UNL     1     127.515 127.307 116.927  1.00  0.00    -0.028 C 
BRANCH   5   6
ATOM      6  C   UNL     1     128.388 127.558 118.149  1.00  0.00     0.005 C 
ATOM      7  C   UNL     1     129.525 128.538 117.831  1.00  0.00     0.012 C 
ATOM      8  C   UNL     1     128.890 126.316 118.893  1.00  0.00     0.012 C 
ENDBRANCH   5   6
ENDBRANCH   3   4
ENDBRANCH   2   3
ENDBRANCH   1   2
BRANCH   1   9
ATOM      9  C   UNL     1     128.635 123.328 116.805  1.00  0.00     0.100 C 
BRANCH   9  10
ATOM     10  C   UNL     1     128.287 122.034 116.132  1.00  0.00     0.220 C 
ATOM     11  O   UNL     1     129.187 121.169 115.953  1.00  0.00    -0.275 OA
ATOM     12  N   UNL     1     126.949 121.793 115.673  1.00  0.00    -0.352 N 
ATOM     13  H   UNL     1     126.214 122.519 115.837  1.00  0.00     0.163 HD
BRANCH  12  14
ATOM     14  C   UNL     1     126.582 120.592 114.927  1.00  0.00     0.151 C 
BRANCH  14  15
ATOM     15  C   UNL     1     125.431 119.900 115.604  1.00  0.00    -0.025 A 
ATOM     16  C   UNL     1     125.473 119.653 116.986  1.00  0.00     0.056 A 
ATOM     17  C   UNL     1     124.287 119.541 114.875  1.00  0.00     0.009 A 
ATOM     18  C   UNL     1     124.387 119.035 117.638  1.00  0.00     0.160 A 
ATOM     19  C   UNL     1     123.207 118.930 115.517  1.00  0.00     0.050 A 
ATOM     20  C   UNL     1     123.254 118.676 116.894  1.00  0.00     0.157 A 
BRANCH  18  21
ATOM     21  O   UNL     1     124.397 118.766 119.016  1.00  0.00    -0.493 OA
ATOM     22  C   UNL     1     125.417 119.197 119.914  1.00  0.00     0.278 C 
ENDBRANCH  18  21
BRANCH  20  23
ATOM     23  O   UNL     1     122.174 118.066 117.532  1.00  0.00    -0.504 OA
ATOM     24  H   UNL     1     121.222 118.216 117.223  1.00  0.00     0.293 HD
ENDBRANCH  20  23
ENDBRANCH  14  15
ENDBRANCH  12  14
ENDBRANCH   9  10
ENDBRANCH   1   9
TORSDOF 10
ENDMDL
