MODEL 1
REMARK VINA RESULT:    20.717      0.000      0.000
REMARK INTER + INTRA:          50.596
REMARK INTER:                  52.205
REMARK INTRA:                  -1.609
REMARK UNBOUND:                -1.609
REMARK SMILES CCCCCCCCCCCCCCCCCCCCCCCCCCCC(=O)[O-]
REMARK SMILES IDX 15 1 16 2 17 3 18 4 19 5 20 6 21 7 22 8 23 9 24 10 25 11
REMARK SMILES IDX 26 12 27 13 28 14 29 15 30 16 14 17 13 18 12 19 11 20 10 21
REMARK SMILES IDX 9 22 8 23 7 24 6 25 5 26 4 27 3 28 2 29 1 30
REMARK H PARENT
REMARK Flexibility Score: inf
ROOT
ATOM      1  C   UNL     1       8.500  17.555  27.924  1.00  0.00     0.000 C 
ENDROOT
BRANCH   1   2
ATOM      2  C   UNL     1       7.336  17.108  27.016  1.00  0.00     0.000 C 
BRANCH   2   3
ATOM      3  C   UNL     1       6.871  18.156  25.982  1.00  0.00     0.000 C 
BRANCH   3   4
ATOM      4  C   UNL     1       5.353  18.441  25.974  1.00  0.00     0.000 C 
BRANCH   4   5
ATOM      5  C   UNL     1       4.652  18.138  27.309  1.00  0.00     0.000 C 
BRANCH   5   6
ATOM      6  C   UNL     1       3.259  17.503  27.110  1.00  0.00     0.000 C 
BRANCH   6   7
ATOM      7  C   UNL     1       2.598  17.935  25.791  1.00  0.00     0.000 C 
BRANCH   7   8
ATOM      8  C   UNL     1       1.081  17.678  25.808  1.00  0.00     0.000 C 
BRANCH   8   9
ATOM      9  C   UNL     1       0.512  17.317  24.425  1.00  0.00     0.000 C 
BRANCH   9  10
ATOM     10  C   UNL     1      -0.044  18.505  23.619  1.00  0.00     0.000 C 
BRANCH  10  11
ATOM     11  C   UNL     1       0.823  19.770  23.740  1.00  0.00     0.000 C 
BRANCH  11  12
ATOM     12  C   UNL     1       1.671  20.019  22.482  1.00  0.00     0.006 C 
BRANCH  12  13
ATOM     13  C   UNL     1       2.537  21.282  22.607  1.00  0.00     0.053 C 
BRANCH  13  14
ATOM     14  C   UNL     1       3.996  20.961  22.487  1.00  0.00     0.041 C 
ATOM     15  O   UNL     1       4.781  21.754  21.901  1.00  0.00    -0.550 OA
ATOM     16  O   UNL     1       4.500  19.803  23.067  1.00  0.00    -0.550 OA
ENDBRANCH  13  14
ENDBRANCH  12  13
ENDBRANCH  11  12
ENDBRANCH  10  11
ENDBRANCH   9  10
ENDBRANCH   8   9
ENDBRANCH   7   8
ENDBRANCH   6   7
ENDBRANCH   5   6
ENDBRANCH   4   5
ENDBRANCH   3   4
ENDBRANCH   2   3
ENDBRANCH   1   2
BRANCH   1  17
ATOM     17  C   UNL     1       9.806  16.758  27.745  1.00  0.00     0.000 C 
BRANCH  17  18
ATOM     18  C   UNL     1       9.601  15.444  26.974  1.00  0.00     0.000 C 
BRANCH  18  19
ATOM     19  C   UNL     1      10.914  14.966  26.333  1.00  0.00     0.000 C 
BRANCH  19  20
ATOM     20  C   UNL     1      10.969  13.431  26.179  1.00  0.00     0.000 C 
BRANCH  20  21
ATOM     21  C   UNL     1      11.719  12.713  27.317  1.00  0.00     0.000 C 
BRANCH  21  22
ATOM     22  C   UNL     1      11.075  11.401  27.799  1.00  0.00    -0.000 C 
BRANCH  22  23
ATOM     23  C   UNL     1       9.959  10.850  26.892  1.00  0.00    -0.000 C 
BRANCH  23  24
ATOM     24  C   UNL     1       9.784   9.318  26.977  1.00  0.00    -0.000 C 
BRANCH  24  25
ATOM     25  C   UNL     1       8.676   8.906  27.959  1.00  0.00    -0.000 C 
BRANCH  25  26
ATOM     26  C   UNL     1       7.298   8.938  27.280  1.00  0.00    -0.000 C 
BRANCH  26  27
ATOM     27  C   UNL     1       6.154   9.268  28.255  1.00  0.00    -0.000 C 
BRANCH  27  28
ATOM     28  C   UNL     1       5.106  10.260  27.717  1.00  0.00    -0.000 C 
BRANCH  28  29
ATOM     29  C   UNL     1       5.519  10.903  26.384  1.00  0.00    -0.003 C 
ATOM     30  C   UNL     1       5.469  12.425  26.468  1.00  0.00     0.004 C 
ENDBRANCH  28  29
ENDBRANCH  27  28
ENDBRANCH  26  27
ENDBRANCH  25  26
ENDBRANCH  24  25
ENDBRANCH  23  24
ENDBRANCH  22  23
ENDBRANCH  21  22
ENDBRANCH  20  21
ENDBRANCH  19  20
ENDBRANCH  18  19
ENDBRANCH  17  18
ENDBRANCH   1  17
TORSDOF 26
ENDMDL
MODEL 2
REMARK VINA RESULT:    21.290      1.755      2.937
REMARK INTER + INTRA:          52.041
REMARK INTER:                  53.121
REMARK INTRA:                  -1.080
REMARK UNBOUND:                -1.609
REMARK SMILES CCCCCCCCCCCCCCCCCCCCCCCCCCCC(=O)[O-]
REMARK SMILES IDX 15 1 16 2 17 3 18 4 19 5 20 6 21 7 22 8 23 9 24 10 25 11
REMARK SMILES IDX 26 12 27 13 28 14 29 15 30 16 14 17 13 18 12 19 11 20 10 21
REMARK SMILES IDX 9 22 8 23 7 24 6 25 5 26 4 27 3 28 2 29 1 30
REMARK H PARENT
REMARK Flexibility Score: inf
ROOT
ATOM      1  C   UNL     1       8.365  17.568  27.960  1.00  0.00     0.000 C 
ENDROOT
BRANCH   1   2
ATOM      2  C   UNL     1       7.460  17.523  26.711  1.00  0.00     0.000 C 
BRANCH   2   3
ATOM      3  C   UNL     1       6.010  18.003  26.933  1.00  0.00     0.000 C 
BRANCH   3   4
ATOM      4  C   UNL     1       5.368  18.728  25.732  1.00  0.00     0.000 C 
BRANCH   4   5
ATOM      5  C   UNL     1       5.958  18.328  24.368  1.00  0.00     0.000 C 
BRANCH   5   6
ATOM      6  C   UNL     1       5.142  18.892  23.186  1.00  0.00     0.000 C 
BRANCH   6   7
ATOM      7  C   UNL     1       4.427  20.206  23.539  1.00  0.00     0.000 C 
BRANCH   7   8
ATOM      8  C   UNL     1       3.796  20.857  22.296  1.00  0.00     0.000 C 
BRANCH   8   9
ATOM      9  C   UNL     1       2.273  20.650  22.211  1.00  0.00     0.000 C 
BRANCH   9  10
ATOM     10  C   UNL     1       1.506  20.911  23.520  1.00  0.00     0.000 C 
BRANCH  10  11
ATOM     11  C   UNL     1       0.546  19.766  23.890  1.00  0.00     0.000 C 
BRANCH  11  12
ATOM     12  C   UNL     1       0.921  19.099  25.224  1.00  0.00     0.006 C 
BRANCH  12  13
ATOM     13  C   UNL     1       1.183  17.593  25.066  1.00  0.00     0.053 C 
BRANCH  13  14
ATOM     14  C   UNL     1       0.149  16.945  24.196  1.00  0.00     0.041 C 
ATOM     15  O   UNL     1      -0.137  17.431  23.069  1.00  0.00    -0.550 OA
ATOM     16  O   UNL     1      -0.469  15.772  24.612  1.00  0.00    -0.550 OA
ENDBRANCH  13  14
ENDBRANCH  12  13
ENDBRANCH  11  12
ENDBRANCH  10  11
ENDBRANCH   9  10
ENDBRANCH   8   9
ENDBRANCH   7   8
ENDBRANCH   6   7
ENDBRANCH   5   6
ENDBRANCH   4   5
ENDBRANCH   3   4
ENDBRANCH   2   3
ENDBRANCH   1   2
BRANCH   1  17
ATOM     17  C   UNL     1       9.670  16.759  27.846  1.00  0.00     0.000 C 
BRANCH  17  18
ATOM     18  C   UNL     1       9.565  15.596  26.847  1.00  0.00     0.000 C 
BRANCH  18  19
ATOM     19  C   UNL     1      10.937  14.952  26.597  1.00  0.00     0.000 C 
BRANCH  19  20
ATOM     20  C   UNL     1      10.835  13.438  26.309  1.00  0.00     0.000 C 
BRANCH  20  21
ATOM     21  C   UNL     1      11.622  12.557  27.297  1.00  0.00     0.000 C 
BRANCH  21  22
ATOM     22  C   UNL     1      10.903  11.272  27.745  1.00  0.00    -0.000 C 
BRANCH  22  23
ATOM     23  C   UNL     1      10.005  10.621  26.676  1.00  0.00    -0.000 C 
BRANCH  23  24
ATOM     24  C   UNL     1       9.659   9.144  26.965  1.00  0.00    -0.000 C 
BRANCH  24  25
ATOM     25  C   UNL     1       8.576   8.995  28.046  1.00  0.00    -0.000 C 
BRANCH  25  26
ATOM     26  C   UNL     1       7.184   8.842  27.413  1.00  0.00    -0.000 C 
BRANCH  26  27
ATOM     27  C   UNL     1       6.060   9.430  28.285  1.00  0.00    -0.000 C 
BRANCH  27  28
ATOM     28  C   UNL     1       5.140  10.436  27.570  1.00  0.00    -0.000 C 
BRANCH  28  29
ATOM     29  C   UNL     1       5.908  11.407  26.660  1.00  0.00    -0.003 C 
ATOM     30  C   UNL     1       5.124  11.705  25.386  1.00  0.00     0.004 C 
ENDBRANCH  28  29
ENDBRANCH  27  28
ENDBRANCH  26  27
ENDBRANCH  25  26
ENDBRANCH  24  25
ENDBRANCH  23  24
ENDBRANCH  22  23
ENDBRANCH  21  22
ENDBRANCH  20  21
ENDBRANCH  19  20
ENDBRANCH  18  19
ENDBRANCH  17  18
ENDBRANCH   1  17
TORSDOF 26
ENDMDL
MODEL 3
REMARK VINA RESULT:    21.308      2.503     10.157
REMARK INTER + INTRA:          52.085
REMARK INTER:                  53.628
REMARK INTRA:                  -1.543
REMARK UNBOUND:                -1.609
REMARK SMILES CCCCCCCCCCCCCCCCCCCCCCCCCCCC(=O)[O-]
REMARK SMILES IDX 15 1 16 2 17 3 18 4 19 5 20 6 21 7 22 8 23 9 24 10 25 11
REMARK SMILES IDX 26 12 27 13 28 14 29 15 30 16 14 17 13 18 12 19 11 20 10 21
REMARK SMILES IDX 9 22 8 23 7 24 6 25 5 26 4 27 3 28 2 29 1 30
REMARK H PARENT
REMARK Flexibility Score: inf
ROOT
ATOM      1  C   UNL     1       8.495  17.477  28.136  1.00  0.00     0.000 C 
ENDROOT
BRANCH   1   2
ATOM      2  C   UNL     1       9.978  17.108  27.926  1.00  0.00     0.000 C 
BRANCH   2   3
ATOM      3  C   UNL     1      10.256  16.156  26.742  1.00  0.00     0.000 C 
BRANCH   3   4
ATOM      4  C   UNL     1       9.932  14.670  27.005  1.00  0.00     0.000 C 
BRANCH   4   5
ATOM      5  C   UNL     1      10.804  13.687  26.206  1.00  0.00     0.000 C 
BRANCH   5   6
ATOM      6  C   UNL     1      11.774  12.895  27.108  1.00  0.00     0.000 C 
BRANCH   6   7
ATOM      7  C   UNL     1      11.088  11.714  27.815  1.00  0.00     0.000 C 
BRANCH   7   8
ATOM      8  C   UNL     1      10.139  10.962  26.866  1.00  0.00     0.000 C 
BRANCH   8   9
ATOM      9  C   UNL     1      10.129   9.441  27.099  1.00  0.00     0.000 C 
BRANCH   9  10
ATOM     10  C   UNL     1       8.790   8.866  27.596  1.00  0.00     0.000 C 
BRANCH  10  11
ATOM     11  C   UNL     1       7.643   9.891  27.546  1.00  0.00     0.000 C 
BRANCH  11  12
ATOM     12  C   UNL     1       6.278   9.255  27.858  1.00  0.00     0.006 C 
BRANCH  12  13
ATOM     13  C   UNL     1       5.125  10.261  27.719  1.00  0.00     0.053 C 
BRANCH  13  14
ATOM     14  C   UNL     1       5.377  11.235  26.607  1.00  0.00     0.041 C 
ATOM     15  O   UNL     1       5.334  12.476  26.820  1.00  0.00    -0.550 OA
ATOM     16  O   UNL     1       5.707  10.768  25.341  1.00  0.00    -0.550 OA
ENDBRANCH  13  14
ENDBRANCH  12  13
ENDBRANCH  11  12
ENDBRANCH  10  11
ENDBRANCH   9  10
ENDBRANCH   8   9
ENDBRANCH   7   8
ENDBRANCH   6   7
ENDBRANCH   5   6
ENDBRANCH   4   5
ENDBRANCH   3   4
ENDBRANCH   2   3
ENDBRANCH   1   2
BRANCH   1  17
ATOM     17  C   UNL     1       7.550  17.045  27.000  1.00  0.00     0.000 C 
BRANCH  17  18
ATOM     18  C   UNL     1       7.146  18.211  26.085  1.00  0.00     0.000 C 
BRANCH  18  19
ATOM     19  C   UNL     1       5.619  18.293  25.930  1.00  0.00     0.000 C 
BRANCH  19  20
ATOM     20  C   UNL     1       4.883  18.165  27.281  1.00  0.00     0.000 C 
BRANCH  20  21
ATOM     21  C   UNL     1       3.463  17.578  27.169  1.00  0.00     0.000 C 
BRANCH  21  22
ATOM     22  C   UNL     1       2.739  17.867  25.841  1.00  0.00    -0.000 C 
BRANCH  22  23
ATOM     23  C   UNL     1       1.201  17.841  25.917  1.00  0.00    -0.000 C 
BRANCH  23  24
ATOM     24  C   UNL     1       0.517  17.406  24.603  1.00  0.00    -0.000 C 
BRANCH  24  25
ATOM     25  C   UNL     1       0.446  18.545  23.573  1.00  0.00    -0.000 C 
BRANCH  25  26
ATOM     26  C   UNL     1       0.427  19.915  24.267  1.00  0.00    -0.000 C 
BRANCH  26  27
ATOM     27  C   UNL     1       1.421  20.916  23.649  1.00  0.00    -0.000 C 
BRANCH  27  28
ATOM     28  C   UNL     1       2.125  20.426  22.370  1.00  0.00    -0.000 C 
BRANCH  28  29
ATOM     29  C   UNL     1       3.653  20.356  22.518  1.00  0.00    -0.003 C 
ATOM     30  C   UNL     1       4.275  21.748  22.469  1.00  0.00     0.004 C 
ENDBRANCH  28  29
ENDBRANCH  27  28
ENDBRANCH  26  27
ENDBRANCH  25  26
ENDBRANCH  24  25
ENDBRANCH  23  24
ENDBRANCH  22  23
ENDBRANCH  21  22
ENDBRANCH  20  21
ENDBRANCH  19  20
ENDBRANCH  18  19
ENDBRANCH  17  18
ENDBRANCH   1  17
TORSDOF 26
ENDMDL
MODEL 4
REMARK VINA RESULT:    21.843      2.600     10.107
REMARK INTER + INTRA:          53.436
REMARK INTER:                  55.632
REMARK INTRA:                  -2.197
REMARK UNBOUND:                -1.609
REMARK SMILES CCCCCCCCCCCCCCCCCCCCCCCCCCCC(=O)[O-]
REMARK SMILES IDX 15 1 16 2 17 3 18 4 19 5 20 6 21 7 22 8 23 9 24 10 25 11
REMARK SMILES IDX 26 12 27 13 28 14 29 15 30 16 14 17 13 18 12 19 11 20 10 21
REMARK SMILES IDX 9 22 8 23 7 24 6 25 5 26 4 27 3 28 2 29 1 30
REMARK H PARENT
REMARK Flexibility Score: inf
ROOT
ATOM      1  C   UNL     1       8.504  17.761  27.857  1.00  0.00     0.000 C 
ENDROOT
BRANCH   1   2
ATOM      2  C   UNL     1       9.893  17.103  27.723  1.00  0.00     0.000 C 
BRANCH   2   3
ATOM      3  C   UNL     1       9.877  15.572  27.526  1.00  0.00     0.000 C 
BRANCH   3   4
ATOM      4  C   UNL     1      10.787  15.046  26.395  1.00  0.00     0.000 C 
BRANCH   4   5
ATOM      5  C   UNL     1      10.716  13.523  26.190  1.00  0.00     0.000 C 
BRANCH   5   6
ATOM      6  C   UNL     1      11.461  12.745  27.295  1.00  0.00     0.000 C 
BRANCH   6   7
ATOM      7  C   UNL     1      10.750  11.436  27.675  1.00  0.00     0.000 C 
BRANCH   7   8
ATOM      8  C   UNL     1      10.282  10.665  26.428  1.00  0.00     0.000 C 
BRANCH   8   9
ATOM      9  C   UNL     1       9.571   9.343  26.766  1.00  0.00     0.000 C 
BRANCH   9  10
ATOM     10  C   UNL     1       9.177   9.174  28.244  1.00  0.00     0.000 C 
BRANCH  10  11
ATOM     11  C   UNL     1       7.653   9.137  28.457  1.00  0.00     0.000 C 
BRANCH  11  12
ATOM     12  C   UNL     1       6.875   9.325  27.144  1.00  0.00     0.006 C 
BRANCH  12  13
ATOM     13  C   UNL     1       5.530  10.033  27.363  1.00  0.00     0.053 C 
BRANCH  13  14
ATOM     14  C   UNL     1       5.451  11.313  26.588  1.00  0.00     0.041 C 
ATOM     15  O   UNL     1       5.591  11.314  25.336  1.00  0.00    -0.550 OA
ATOM     16  O   UNL     1       5.173  12.505  27.247  1.00  0.00    -0.550 OA
ENDBRANCH  13  14
ENDBRANCH  12  13
ENDBRANCH  11  12
ENDBRANCH  10  11
ENDBRANCH   9  10
ENDBRANCH   8   9
ENDBRANCH   7   8
ENDBRANCH   6   7
ENDBRANCH   5   6
ENDBRANCH   4   5
ENDBRANCH   3   4
ENDBRANCH   2   3
ENDBRANCH   1   2
BRANCH   1  17
ATOM     17  C   UNL     1       7.393  17.112  27.012  1.00  0.00     0.000 C 
BRANCH  17  18
ATOM     18  C   UNL     1       6.063  17.878  27.086  1.00  0.00     0.000 C 
BRANCH  18  19
ATOM     19  C   UNL     1       5.896  18.819  25.882  1.00  0.00     0.000 C 
BRANCH  19  20
ATOM     20  C   UNL     1       6.398  18.186  24.566  1.00  0.00     0.000 C 
BRANCH  20  21
ATOM     21  C   UNL     1       5.529  18.517  23.339  1.00  0.00     0.000 C 
BRANCH  21  22
ATOM     22  C   UNL     1       4.411  19.546  23.587  1.00  0.00    -0.000 C 
BRANCH  22  23
ATOM     23  C   UNL     1       4.420  20.761  22.641  1.00  0.00    -0.000 C 
BRANCH  23  24
ATOM     24  C   UNL     1       3.013  21.219  22.198  1.00  0.00    -0.000 C 
BRANCH  24  25
ATOM     25  C   UNL     1       1.911  20.243  22.640  1.00  0.00    -0.000 C 
BRANCH  25  26
ATOM     26  C   UNL     1       1.090  20.829  23.799  1.00  0.00    -0.000 C 
BRANCH  26  27
ATOM     27  C   UNL     1       0.325  19.756  24.595  1.00  0.00    -0.000 C 
BRANCH  27  28
ATOM     28  C   UNL     1       0.241  18.377  23.914  1.00  0.00    -0.000 C 
BRANCH  28  29
ATOM     29  C   UNL     1       0.949  17.271  24.711  1.00  0.00    -0.003 C 
ATOM     30  C   UNL     1       1.593  17.830  25.976  1.00  0.00     0.004 C 
ENDBRANCH  28  29
ENDBRANCH  27  28
ENDBRANCH  26  27
ENDBRANCH  25  26
ENDBRANCH  24  25
ENDBRANCH  23  24
ENDBRANCH  22  23
ENDBRANCH  21  22
ENDBRANCH  20  21
ENDBRANCH  19  20
ENDBRANCH  18  19
ENDBRANCH  17  18
ENDBRANCH   1  17
TORSDOF 26
ENDMDL
MODEL 5
REMARK VINA RESULT:    21.979      2.573     10.425
REMARK INTER + INTRA:          53.778
REMARK INTER:                  55.312
REMARK INTRA:                  -1.534
REMARK UNBOUND:                -1.609
REMARK SMILES CCCCCCCCCCCCCCCCCCCCCCCCCCCC(=O)[O-]
REMARK SMILES IDX 15 1 16 2 17 3 18 4 19 5 20 6 21 7 22 8 23 9 24 10 25 11
REMARK SMILES IDX 26 12 27 13 28 14 29 15 30 16 14 17 13 18 12 19 11 20 10 21
REMARK SMILES IDX 9 22 8 23 7 24 6 25 5 26 4 27 3 28 2 29 1 30
REMARK H PARENT
REMARK Flexibility Score: inf
ROOT
ATOM      1  C   UNL     1       7.399  17.041  27.139  1.00  0.00     0.000 C 
ENDROOT
BRANCH   1   2
ATOM      2  C   UNL     1       8.611  17.510  27.971  1.00  0.00     0.000 C 
BRANCH   2   3
ATOM      3  C   UNL     1       9.913  16.714  27.739  1.00  0.00     0.000 C 
BRANCH   3   4
ATOM      4  C   UNL     1       9.756  15.429  26.897  1.00  0.00     0.000 C 
BRANCH   4   5
ATOM      5  C   UNL     1      11.084  14.864  26.362  1.00  0.00     0.000 C 
BRANCH   5   6
ATOM      6  C   UNL     1      11.061  13.326  26.242  1.00  0.00     0.000 C 
BRANCH   6   7
ATOM      7  C   UNL     1      11.363  12.626  27.577  1.00  0.00     0.000 C 
BRANCH   7   8
ATOM      8  C   UNL     1      11.136  11.107  27.483  1.00  0.00     0.000 C 
BRANCH   8   9
ATOM      9  C   UNL     1       9.677  10.732  27.173  1.00  0.00     0.000 C 
BRANCH   9  10
ATOM     10  C   UNL     1       9.437   9.241  26.874  1.00  0.00     0.000 C 
BRANCH  10  11
ATOM     11  C   UNL     1       8.503   8.568  27.895  1.00  0.00     0.000 C 
BRANCH  11  12
ATOM     12  C   UNL     1       7.134   9.263  27.980  1.00  0.00     0.006 C 
BRANCH  12  13
ATOM     13  C   UNL     1       6.656   9.772  26.611  1.00  0.00     0.053 C 
BRANCH  13  14
ATOM     14  C   UNL     1       5.570  10.795  26.754  1.00  0.00     0.041 C 
ATOM     15  O   UNL     1       4.791  10.768  27.744  1.00  0.00    -0.550 OA
ATOM     16  O   UNL     1       5.448  11.810  25.813  1.00  0.00    -0.550 OA
ENDBRANCH  13  14
ENDBRANCH  12  13
ENDBRANCH  11  12
ENDBRANCH  10  11
ENDBRANCH   9  10
ENDBRANCH   8   9
ENDBRANCH   7   8
ENDBRANCH   6   7
ENDBRANCH   5   6
ENDBRANCH   4   5
ENDBRANCH   3   4
ENDBRANCH   2   3
ENDBRANCH   1   2
BRANCH   1  17
ATOM     17  C   UNL     1       7.099  17.892  25.891  1.00  0.00     0.000 C 
BRANCH  17  18
ATOM     18  C   UNL     1       5.863  18.789  26.065  1.00  0.00     0.000 C 
BRANCH  18  19
ATOM     19  C   UNL     1       4.811  18.119  26.962  1.00  0.00     0.000 C 
BRANCH  19  20
ATOM     20  C   UNL     1       3.572  17.651  26.168  1.00  0.00     0.000 C 
BRANCH  20  21
ATOM     21  C   UNL     1       2.232  17.935  26.872  1.00  0.00     0.000 C 
BRANCH  21  22
ATOM     22  C   UNL     1       0.980  17.454  26.116  1.00  0.00    -0.000 C 
BRANCH  22  23
ATOM     23  C   UNL     1       1.166  17.269  24.598  1.00  0.00    -0.000 C 
BRANCH  23  24
ATOM     24  C   UNL     1       0.091  17.977  23.745  1.00  0.00    -0.000 C 
BRANCH  24  25
ATOM     25  C   UNL     1      -0.223  19.393  24.253  1.00  0.00    -0.000 C 
BRANCH  25  26
ATOM     26  C   UNL     1       0.990  20.321  24.083  1.00  0.00    -0.000 C 
BRANCH  26  27
ATOM     27  C   UNL     1       1.843  19.974  22.850  1.00  0.00    -0.000 C 
BRANCH  27  28
ATOM     28  C   UNL     1       2.581  21.166  22.212  1.00  0.00    -0.000 C 
BRANCH  28  29
ATOM     29  C   UNL     1       4.109  21.058  22.331  1.00  0.00    -0.003 C 
ATOM     30  C   UNL     1       4.512  19.846  23.166  1.00  0.00     0.004 C 
ENDBRANCH  28  29
ENDBRANCH  27  28
ENDBRANCH  26  27
ENDBRANCH  25  26
ENDBRANCH  24  25
ENDBRANCH  23  24
ENDBRANCH  22  23
ENDBRANCH  21  22
ENDBRANCH  20  21
ENDBRANCH  19  20
ENDBRANCH  18  19
ENDBRANCH  17  18
ENDBRANCH   1  17
TORSDOF 26
ENDMDL
MODEL 6
REMARK VINA RESULT:    22.139      1.890      3.563
REMARK INTER + INTRA:          54.180
REMARK INTER:                  55.222
REMARK INTRA:                  -1.042
REMARK UNBOUND:                -1.609
REMARK SMILES CCCCCCCCCCCCCCCCCCCCCCCCCCCC(=O)[O-]
REMARK SMILES IDX 15 1 16 2 17 3 18 4 19 5 20 6 21 7 22 8 23 9 24 10 25 11
REMARK SMILES IDX 26 12 27 13 28 14 29 15 30 16 14 17 13 18 12 19 11 20 10 21
REMARK SMILES IDX 9 22 8 23 7 24 6 25 5 26 4 27 3 28 2 29 1 30
REMARK H PARENT
REMARK Flexibility Score: inf
ROOT
ATOM      1  C   UNL     1       6.089  17.863  27.106  1.00  0.00     0.000 C 
ENDROOT
BRANCH   1   2
ATOM      2  C   UNL     1       5.978  18.787  25.875  1.00  0.00     0.000 C 
BRANCH   2   3
ATOM      3  C   UNL     1       6.372  18.139  24.530  1.00  0.00     0.000 C 
BRANCH   3   4
ATOM      4  C   UNL     1       5.498  18.547  23.325  1.00  0.00     0.000 C 
BRANCH   4   5
ATOM      5  C   UNL     1       4.424  19.597  23.656  1.00  0.00     0.000 C 
BRANCH   5   6
ATOM      6  C   UNL     1       4.209  20.601  22.503  1.00  0.00     0.000 C 
BRANCH   6   7
ATOM      7  C   UNL     1       2.729  20.737  22.110  1.00  0.00     0.000 C 
BRANCH   7   8
ATOM      8  C   UNL     1       2.051  21.900  22.856  1.00  0.00     0.000 C 
BRANCH   8   9
ATOM      9  C   UNL     1       1.044  21.430  23.921  1.00  0.00     0.000 C 
BRANCH   9  10
ATOM     10  C   UNL     1       0.750  19.919  23.919  1.00  0.00     0.000 C 
BRANCH  10  11
ATOM     11  C   UNL     1       0.249  19.405  25.280  1.00  0.00     0.000 C 
BRANCH  11  12
ATOM     12  C   UNL     1       1.152  18.300  25.854  1.00  0.00     0.006 C 
BRANCH  12  13
ATOM     13  C   UNL     1       1.371  17.154  24.855  1.00  0.00     0.053 C 
BRANCH  13  14
ATOM     14  C   UNL     1       0.084  16.733  24.212  1.00  0.00     0.041 C 
ATOM     15  O   UNL     1      -0.629  15.834  24.732  1.00  0.00    -0.550 OA
ATOM     16  O   UNL     1      -0.353  17.371  23.057  1.00  0.00    -0.550 OA
ENDBRANCH  13  14
ENDBRANCH  12  13
ENDBRANCH  11  12
ENDBRANCH  10  11
ENDBRANCH   9  10
ENDBRANCH   8   9
ENDBRANCH   7   8
ENDBRANCH   6   7
ENDBRANCH   5   6
ENDBRANCH   4   5
ENDBRANCH   3   4
ENDBRANCH   2   3
ENDBRANCH   1   2
BRANCH   1  17
ATOM     17  C   UNL     1       7.364  17.001  27.158  1.00  0.00     0.000 C 
BRANCH  17  18
ATOM     18  C   UNL     1       8.596  17.788  27.633  1.00  0.00     0.000 C 
BRANCH  18  19
ATOM     19  C   UNL     1       9.723  16.841  28.075  1.00  0.00     0.000 C 
BRANCH  19  20
ATOM     20  C   UNL     1      10.341  16.068  26.890  1.00  0.00     0.000 C 
BRANCH  20  21
ATOM     21  C   UNL     1       9.967  14.575  26.852  1.00  0.00     0.000 C 
BRANCH  21  22
ATOM     22  C   UNL     1      11.140  13.613  26.588  1.00  0.00    -0.000 C 
BRANCH  22  23
ATOM     23  C   UNL     1      10.735  12.156  26.294  1.00  0.00    -0.000 C 
BRANCH  23  24
ATOM     24  C   UNL     1      10.900  11.205  27.499  1.00  0.00    -0.000 C 
BRANCH  24  25
ATOM     25  C   UNL     1      10.212   9.849  27.277  1.00  0.00    -0.000 C 
BRANCH  25  26
ATOM     26  C   UNL     1       8.749  10.038  26.845  1.00  0.00    -0.000 C 
BRANCH  26  27
ATOM     27  C   UNL     1       7.786   9.059  27.540  1.00  0.00    -0.000 C 
BRANCH  27  28
ATOM     28  C   UNL     1       6.311   9.500  27.556  1.00  0.00    -0.000 C 
BRANCH  28  29
ATOM     29  C   UNL     1       5.950  10.427  26.385  1.00  0.00    -0.003 C 
ATOM     30  C   UNL     1       5.221  11.675  26.874  1.00  0.00     0.004 C 
ENDBRANCH  28  29
ENDBRANCH  27  28
ENDBRANCH  26  27
ENDBRANCH  25  26
ENDBRANCH  24  25
ENDBRANCH  23  24
ENDBRANCH  22  23
ENDBRANCH  21  22
ENDBRANCH  20  21
ENDBRANCH  19  20
ENDBRANCH  18  19
ENDBRANCH  17  18
ENDBRANCH   1  17
TORSDOF 26
ENDMDL
MODEL 7
REMARK VINA RESULT:    22.660      2.747     10.231
REMARK INTER + INTRA:          55.494
REMARK INTER:                  57.376
REMARK INTRA:                  -1.882
REMARK UNBOUND:                -1.609
REMARK SMILES CCCCCCCCCCCCCCCCCCCCCCCCCCCC(=O)[O-]
REMARK SMILES IDX 15 1 16 2 17 3 18 4 19 5 20 6 21 7 22 8 23 9 24 10 25 11
REMARK SMILES IDX 26 12 27 13 28 14 29 15 30 16 14 17 13 18 12 19 11 20 10 21
REMARK SMILES IDX 9 22 8 23 7 24 6 25 5 26 4 27 3 28 2 29 1 30
REMARK H PARENT
REMARK Flexibility Score: inf
ROOT
ATOM      1  C   UNL     1       6.862  17.368  26.762  1.00  0.00     0.000 C 
ENDROOT
BRANCH   1   2
ATOM      2  C   UNL     1       7.395  17.474  28.206  1.00  0.00     0.000 C 
BRANCH   2   3
ATOM      3  C   UNL     1       8.932  17.510  28.338  1.00  0.00     0.000 C 
BRANCH   3   4
ATOM      4  C   UNL     1       9.707  16.889  27.155  1.00  0.00     0.000 C 
BRANCH   4   5
ATOM      5  C   UNL     1       9.796  15.354  27.201  1.00  0.00     0.000 C 
BRANCH   5   6
ATOM      6  C   UNL     1      10.839  14.796  26.210  1.00  0.00     0.000 C 
BRANCH   6   7
ATOM      7  C   UNL     1      10.795  13.263  26.109  1.00  0.00     0.000 C 
BRANCH   7   8
ATOM      8  C   UNL     1      11.614  12.600  27.231  1.00  0.00     0.000 C 
BRANCH   8   9
ATOM      9  C   UNL     1      10.891  11.411  27.887  1.00  0.00     0.000 C 
BRANCH   9  10
ATOM     10  C   UNL     1       9.889  10.675  26.979  1.00  0.00     0.000 C 
BRANCH  10  11
ATOM     11  C   UNL     1       9.552   9.260  27.482  1.00  0.00     0.000 C 
BRANCH  11  12
ATOM     12  C   UNL     1       8.038   8.989  27.490  1.00  0.00     0.006 C 
BRANCH  12  13
ATOM     13  C   UNL     1       7.302   9.784  26.401  1.00  0.00     0.053 C 
BRANCH  13  14
ATOM     14  C   UNL     1       6.070  10.445  26.943  1.00  0.00     0.041 C 
ATOM     15  O   UNL     1       5.514  10.008  27.986  1.00  0.00    -0.550 OA
ATOM     16  O   UNL     1       5.561  11.577  26.318  1.00  0.00    -0.550 OA
ENDBRANCH  13  14
ENDBRANCH  12  13
ENDBRANCH  11  12
ENDBRANCH  10  11
ENDBRANCH   9  10
ENDBRANCH   8   9
ENDBRANCH   7   8
ENDBRANCH   6   7
ENDBRANCH   5   6
ENDBRANCH   4   5
ENDBRANCH   3   4
ENDBRANCH   2   3
ENDBRANCH   1   2
BRANCH   1  17
ATOM     17  C   UNL     1       7.109  18.610  25.886  1.00  0.00     0.000 C 
BRANCH  17  18
ATOM     18  C   UNL     1       5.807  19.294  25.441  1.00  0.00     0.000 C 
BRANCH  18  19
ATOM     19  C   UNL     1       5.103  18.487  24.339  1.00  0.00     0.000 C 
BRANCH  19  20
ATOM     20  C   UNL     1       5.054  19.245  22.994  1.00  0.00     0.000 C 
BRANCH  20  21
ATOM     21  C   UNL     1       4.339  20.607  23.068  1.00  0.00     0.000 C 
BRANCH  21  22
ATOM     22  C   UNL     1       3.046  20.713  22.239  1.00  0.00    -0.000 C 
BRANCH  22  23
ATOM     23  C   UNL     1       1.843  21.322  22.984  1.00  0.00    -0.000 C 
BRANCH  23  24
ATOM     24  C   UNL     1       0.970  20.280  23.718  1.00  0.00    -0.000 C 
BRANCH  24  25
ATOM     25  C   UNL     1       1.029  18.894  23.058  1.00  0.00    -0.000 C 
BRANCH  25  26
ATOM     26  C   UNL     1      -0.179  18.038  23.467  1.00  0.00    -0.000 C 
BRANCH  26  27
ATOM     27  C   UNL     1       0.172  16.964  24.513  1.00  0.00    -0.000 C 
BRANCH  27  28
ATOM     28  C   UNL     1       1.608  17.039  25.065  1.00  0.00    -0.000 C 
BRANCH  28  29
ATOM     29  C   UNL     1       1.766  18.082  26.182  1.00  0.00    -0.003 C 
ATOM     30  C   UNL     1       2.937  17.736  27.096  1.00  0.00     0.004 C 
ENDBRANCH  28  29
ENDBRANCH  27  28
ENDBRANCH  26  27
ENDBRANCH  25  26
ENDBRANCH  24  25
ENDBRANCH  23  24
ENDBRANCH  22  23
ENDBRANCH  21  22
ENDBRANCH  20  21
ENDBRANCH  19  20
ENDBRANCH  18  19
ENDBRANCH  17  18
ENDBRANCH   1  17
TORSDOF 26
ENDMDL
