MODEL 1
REMARK VINA RESULT:    46.751      0.000      0.000
REMARK INTER + INTRA:          50.851
REMARK INTER:                  50.851
REMARK INTRA:                   0.000
REMARK UNBOUND:                 0.000
REMARK SMILES Cc1cc(O)c2c(c1)C(=O)c1cc(O)cc(O)c1C2=O
REMARK SMILES IDX 1 1 2 2 8 3 7 4 6 5 4 6 3 7 19 8 20 9 18 10 11 11 9 12 10 13
REMARK SMILES IDX 12 14 13 15 15 16 16 17 5 18 17 20 14 22
REMARK H PARENT 5 19 17 21 14 23
REMARK Flexibility Score: inf
ROOT
ATOM      1  C   UNL     1       6.320   9.283  15.905  1.00  0.00     0.044 C 
ATOM      2  C   UNL     1       7.789   9.016  16.048  1.00  0.00    -0.047 A 
ATOM      3  C   UNL     1       8.643  10.015  16.528  1.00  0.00     0.016 A 
ATOM      4  C   UNL     1      10.017   9.764  16.698  1.00  0.00     0.038 A 
ATOM      5  C   UNL     1      10.539   8.488  16.402  1.00  0.00     0.076 A 
ATOM      6  C   UNL     1       9.669   7.477  15.929  1.00  0.00     0.127 A 
ATOM      7  C   UNL     1       8.305   7.746  15.764  1.00  0.00     0.050 A 
ATOM      8  C   UNL     1      11.985   8.228  16.624  1.00  0.00     0.201 C 
ATOM      9  O   UNL     1      12.395   7.039  16.716  1.00  0.00    -0.288 OA
ATOM     10  C   UNL     1      12.923   9.362  16.853  1.00  0.00     0.076 A 
ATOM     11  C   UNL     1      12.382  10.619  17.210  1.00  0.00     0.041 A 
ATOM     12  C   UNL     1      10.916  10.832  17.191  1.00  0.00     0.194 C 
ATOM     13  O   UNL     1      10.433  11.932  17.578  1.00  0.00    -0.289 OA
ATOM     14  C   UNL     1      13.239  11.672  17.576  1.00  0.00     0.059 A 
ATOM     15  C   UNL     1      14.625  11.493  17.573  1.00  0.00     0.120 A 
ATOM     16  C   UNL     1      15.164  10.272  17.176  1.00  0.00     0.093 A 
ATOM     17  C   UNL     1      14.336   9.216  16.781  1.00  0.00     0.131 A 
ENDROOT
BRANCH   6  18
ATOM     18  O   UNL     1      10.158   6.207  15.615  1.00  0.00    -0.507 OA
ATOM     19  H   UNL     1       9.761   5.368  16.022  1.00  0.00     0.293 HD
ENDBRANCH   6  18
BRANCH  17  20
ATOM     20  O   UNL     1      14.960   8.064  16.295  1.00  0.00    -0.507 OA
ATOM     21  H   UNL     1      15.419   8.012  15.397  1.00  0.00     0.293 HD
ENDBRANCH  17  20
BRANCH  15  22
ATOM     22  O   UNL     1      15.476  12.530  17.951  1.00  0.00    -0.508 OA
ATOM     23  H   UNL     1      16.230  12.382  18.611  1.00  0.00     0.293 HD
ENDBRANCH  15  22
TORSDOF 3
ENDMDL
MODEL 2
REMARK VINA RESULT:    49.091      1.955      5.449
REMARK INTER + INTRA:          53.396
REMARK INTER:                  53.396
REMARK INTRA:                   0.000
REMARK UNBOUND:                 0.000
REMARK SMILES Cc1cc(O)c2c(c1)C(=O)c1cc(O)cc(O)c1C2=O
REMARK SMILES IDX 1 1 2 2 8 3 7 4 6 5 4 6 3 7 19 8 20 9 18 10 11 11 9 12 10 13
REMARK SMILES IDX 12 14 13 15 15 16 16 17 5 18 17 20 14 22
REMARK H PARENT 5 19 17 21 14 23
REMARK Flexibility Score: inf
ROOT
ATOM      1  C   UNL     1      15.046  14.313  17.122  1.00  0.00     0.044 C 
ATOM      2  C   UNL     1      14.668  12.862  17.056  1.00  0.00    -0.047 A 
ATOM      3  C   UNL     1      13.348  12.467  17.298  1.00  0.00     0.016 A 
ATOM      4  C   UNL     1      12.975  11.114  17.204  1.00  0.00     0.038 A 
ATOM      5  C   UNL     1      13.935  10.145  16.842  1.00  0.00     0.076 A 
ATOM      6  C   UNL     1      15.265  10.551  16.585  1.00  0.00     0.127 A 
ATOM      7  C   UNL     1      15.618  11.903  16.686  1.00  0.00     0.050 A 
ATOM      8  C   UNL     1      13.516   8.725  16.709  1.00  0.00     0.201 C 
ATOM      9  O   UNL     1      14.236   7.925  16.055  1.00  0.00    -0.288 OA
ATOM     10  C   UNL     1      12.199   8.280  17.245  1.00  0.00     0.076 A 
ATOM     11  C   UNL     1      11.228   9.264  17.543  1.00  0.00     0.041 A 
ATOM     12  C   UNL     1      11.580  10.702  17.478  1.00  0.00     0.194 C 
ATOM     13  O   UNL     1      10.693  11.578  17.675  1.00  0.00    -0.289 OA
ATOM     14  C   UNL     1       9.927   8.876  17.909  1.00  0.00     0.059 A 
ATOM     15  C   UNL     1       9.589   7.524  18.000  1.00  0.00     0.120 A 
ATOM     16  C   UNL     1      10.555   6.551  17.755  1.00  0.00     0.093 A 
ATOM     17  C   UNL     1      11.863   6.908  17.414  1.00  0.00     0.131 A 
ENDROOT
BRANCH   6  18
ATOM     18  O   UNL     1      16.241   9.615  16.238  1.00  0.00    -0.507 OA
ATOM     19  H   UNL     1      16.230   8.672  16.607  1.00  0.00     0.293 HD
ENDBRANCH   6  18
BRANCH  17  20
ATOM     20  O   UNL     1      12.795   5.875  17.291  1.00  0.00    -0.507 OA
ATOM     21  H   UNL     1      13.148   5.341  18.073  1.00  0.00     0.293 HD
ENDBRANCH  17  20
BRANCH  15  22
ATOM     22  O   UNL     1       8.296   7.136  18.348  1.00  0.00    -0.508 OA
ATOM     23  H   UNL     1       7.666   6.726  17.668  1.00  0.00     0.293 HD
ENDBRANCH  15  22
TORSDOF 3
ENDMDL
MODEL 3
REMARK VINA RESULT:    49.488      2.005      3.327
REMARK INTER + INTRA:          53.827
REMARK INTER:                  53.827
REMARK INTRA:                   0.000
REMARK UNBOUND:                 0.000
REMARK SMILES Cc1cc(O)c2c(c1)C(=O)c1cc(O)cc(O)c1C2=O
REMARK SMILES IDX 1 1 2 2 8 3 7 4 6 5 4 6 3 7 19 8 20 9 18 10 11 11 9 12 10 13
REMARK SMILES IDX 12 14 13 15 15 16 16 17 5 18 17 20 14 22
REMARK H PARENT 5 19 17 21 14 23
REMARK Flexibility Score: inf
ROOT
ATOM      1  C   UNL     1       4.188  10.218  13.969  1.00  0.00     0.044 C 
ATOM      2  C   UNL     1       5.379   9.424  14.419  1.00  0.00    -0.047 A 
ATOM      3  C   UNL     1       6.386  10.033  15.175  1.00  0.00     0.016 A 
ATOM      4  C   UNL     1       7.490   9.289  15.631  1.00  0.00     0.038 A 
ATOM      5  C   UNL     1       7.574   7.911  15.343  1.00  0.00     0.076 A 
ATOM      6  C   UNL     1       6.547   7.297  14.589  1.00  0.00     0.127 A 
ATOM      7  C   UNL     1       5.457   8.055  14.142  1.00  0.00     0.050 A 
ATOM      8  C   UNL     1       8.727   7.131  15.865  1.00  0.00     0.201 C 
ATOM      9  O   UNL     1       8.646   5.875  15.935  1.00  0.00    -0.288 OA
ATOM     10  C   UNL     1       9.921   7.835  16.411  1.00  0.00     0.076 A 
ATOM     11  C   UNL     1       9.797   9.202  16.752  1.00  0.00     0.041 A 
ATOM     12  C   UNL     1       8.560   9.945  16.417  1.00  0.00     0.194 C 
ATOM     13  O   UNL     1       8.424  11.144  16.786  1.00  0.00    -0.289 OA
ATOM     14  C   UNL     1      10.856   9.860  17.404  1.00  0.00     0.059 A 
ATOM     15  C   UNL     1      12.038   9.179  17.702  1.00  0.00     0.120 A 
ATOM     16  C   UNL     1      12.184   7.846  17.325  1.00  0.00     0.093 A 
ATOM     17  C   UNL     1      11.158   7.175  16.652  1.00  0.00     0.131 A 
ENDROOT
BRANCH   6  18
ATOM     18  O   UNL     1       6.608   5.938  14.276  1.00  0.00    -0.507 OA
ATOM     19  H   UNL     1       7.169   5.593  13.506  1.00  0.00     0.293 HD
ENDBRANCH   6  18
BRANCH  17  20
ATOM     20  O   UNL     1      11.426   5.876  16.214  1.00  0.00    -0.507 OA
ATOM     21  H   UNL     1      11.873   5.661  15.334  1.00  0.00     0.293 HD
ENDBRANCH  17  20
BRANCH  15  22
ATOM     22  O   UNL     1      13.083   9.824  18.362  1.00  0.00    -0.508 OA
ATOM     23  H   UNL     1      13.555  10.622  17.954  1.00  0.00     0.293 HD
ENDBRANCH  15  22
TORSDOF 3
ENDMDL
