MODEL 1
REMARK VINA RESULT:    -4.167      0.000      0.000
REMARK INTER + INTRA:          -9.779
REMARK INTER:                  -8.065
REMARK INTRA:                  -1.714
REMARK UNBOUND:                -1.714
REMARK SMILES CCCCCCCCCCCCCCCCCC(=O)[O-]
REMARK SMILES IDX 10 1 11 2 12 3 13 4 14 5 15 6 16 7 17 8 18 9 19 10 20 11
REMARK SMILES IDX 9 12 8 13 7 14 6 15 5 16 4 17 3 18 2 19 1 20
REMARK H PARENT
REMARK Flexibility Score: inf
ROOT
ATOM      1  C   UNL     1      13.395  -1.978 -18.607  1.00  0.00     0.000 C 
ENDROOT
BRANCH   1   2
ATOM      2  C   UNL     1      12.792  -1.452 -17.295  1.00  0.00     0.000 C 
BRANCH   2   3
ATOM      3  C   UNL     1      12.198  -0.042 -17.440  1.00  0.00     0.000 C 
BRANCH   3   4
ATOM      4  C   UNL     1      10.667  -0.101 -17.565  1.00  0.00     0.000 C 
BRANCH   4   5
ATOM      5  C   UNL     1      10.199  -0.266 -19.021  1.00  0.00     0.000 C 
BRANCH   5   6
ATOM      6  C   UNL     1       9.849  -1.723 -19.364  1.00  0.00     0.000 C 
BRANCH   6   7
ATOM      7  C   UNL     1      10.579  -2.228 -20.620  1.00  0.00     0.006 C 
BRANCH   7   8
ATOM      8  C   UNL     1       9.749  -3.236 -21.426  1.00  0.00     0.053 C 
BRANCH   8   9
ATOM      9  C   UNL     1       9.949  -3.019 -22.893  1.00  0.00     0.041 C 
ATOM     10  O   UNL     1      10.469  -1.952 -23.310  1.00  0.00    -0.550 OA
ATOM     11  O   UNL     1       9.514  -3.975 -23.802  1.00  0.00    -0.550 OA
ENDBRANCH   8   9
ENDBRANCH   7   8
ENDBRANCH   6   7
ENDBRANCH   5   6
ENDBRANCH   4   5
ENDBRANCH   3   4
ENDBRANCH   2   3
ENDBRANCH   1   2
BRANCH   1  12
ATOM     12  C   UNL     1      14.307  -0.948 -19.296  1.00  0.00     0.000 C 
BRANCH  12  13
ATOM     13  C   UNL     1      13.952  -0.765 -20.788  1.00  0.00    -0.000 C 
BRANCH  13  14
ATOM     14  C   UNL     1      12.835   0.265 -21.030  1.00  0.00    -0.000 C 
BRANCH  14  15
ATOM     15  C   UNL     1      13.346   1.715 -21.010  1.00  0.00    -0.000 C 
BRANCH  15  16
ATOM     16  C   UNL     1      12.832   2.496 -19.781  1.00  0.00    -0.000 C 
BRANCH  16  17
ATOM     17  C   UNL     1      13.026   4.019 -19.892  1.00  0.00    -0.000 C 
BRANCH  17  18
ATOM     18  C   UNL     1      14.219   4.407 -20.778  1.00  0.00    -0.000 C 
BRANCH  18  19
ATOM     19  C   UNL     1      14.670   5.844 -20.493  1.00  0.00    -0.003 C 
ATOM     20  C   UNL     1      16.161   6.018 -20.769  1.00  0.00     0.004 C 
ENDBRANCH  18  19
ENDBRANCH  17  18
ENDBRANCH  16  17
ENDBRANCH  15  16
ENDBRANCH  14  15
ENDBRANCH  13  14
ENDBRANCH  12  13
ENDBRANCH   1  12
TORSDOF 16
ENDMDL
MODEL 2
REMARK VINA RESULT:    -4.099      1.045      1.987
REMARK INTER + INTRA:          -9.646
REMARK INTER:                  -8.169
REMARK INTRA:                  -1.478
REMARK UNBOUND:                -1.714
REMARK SMILES CCCCCCCCCCCCCCCCCC(=O)[O-]
REMARK SMILES IDX 10 1 11 2 12 3 13 4 14 5 15 6 16 7 17 8 18 9 19 10 20 11
REMARK SMILES IDX 9 12 8 13 7 14 6 15 5 16 4 17 3 18 2 19 1 20
REMARK H PARENT
REMARK Flexibility Score: inf
ROOT
ATOM      1  C   UNL     1      13.929  -1.014 -20.652  1.00  0.00     0.000 C 
ENDROOT
BRANCH   1   2
ATOM      2  C   UNL     1      14.051  -1.050 -19.121  1.00  0.00     0.000 C 
BRANCH   2   3
ATOM      3  C   UNL     1      12.887  -1.797 -18.451  1.00  0.00     0.000 C 
BRANCH   3   4
ATOM      4  C   UNL     1      12.037  -0.839 -17.601  1.00  0.00     0.000 C 
BRANCH   4   5
ATOM      5  C   UNL     1      10.804  -0.314 -18.355  1.00  0.00     0.000 C 
BRANCH   5   6
ATOM      6  C   UNL     1       9.914  -1.449 -18.888  1.00  0.00     0.000 C 
BRANCH   6   7
ATOM      7  C   UNL     1       9.841  -1.474 -20.423  1.00  0.00     0.006 C 
BRANCH   7   8
ATOM      8  C   UNL     1      10.205  -2.843 -21.014  1.00  0.00     0.053 C 
BRANCH   8   9
ATOM      9  C   UNL     1      10.193  -2.784 -22.509  1.00  0.00     0.041 C 
ATOM     10  O   UNL     1      10.506  -1.720 -23.103  1.00  0.00    -0.550 OA
ATOM     11  O   UNL     1       9.789  -3.891 -23.244  1.00  0.00    -0.550 OA
ENDBRANCH   8   9
ENDBRANCH   7   8
ENDBRANCH   6   7
ENDBRANCH   5   6
ENDBRANCH   4   5
ENDBRANCH   3   4
ENDBRANCH   2   3
ENDBRANCH   1   2
BRANCH   1  12
ATOM     12  C   UNL     1      13.063   0.157 -21.150  1.00  0.00     0.000 C 
BRANCH  12  13
ATOM     13  C   UNL     1      13.062   1.341 -20.158  1.00  0.00    -0.000 C 
BRANCH  13  14
ATOM     14  C   UNL     1      13.029   2.716 -20.846  1.00  0.00    -0.000 C 
BRANCH  14  15
ATOM     15  C   UNL     1      13.439   3.863 -19.907  1.00  0.00    -0.000 C 
BRANCH  15  16
ATOM     16  C   UNL     1      13.281   5.246 -20.575  1.00  0.00    -0.000 C 
BRANCH  16  17
ATOM     17  C   UNL     1      14.553   6.110 -20.515  1.00  0.00    -0.000 C 
BRANCH  17  18
ATOM     18  C   UNL     1      15.768   5.431 -21.162  1.00  0.00    -0.000 C 
BRANCH  18  19
ATOM     19  C   UNL     1      15.927   5.866 -22.624  1.00  0.00    -0.003 C 
ATOM     20  C   UNL     1      16.579   4.767 -23.458  1.00  0.00     0.004 C 
ENDBRANCH  18  19
ENDBRANCH  17  18
ENDBRANCH  16  17
ENDBRANCH  15  16
ENDBRANCH  14  15
ENDBRANCH  13  14
ENDBRANCH  12  13
ENDBRANCH   1  12
TORSDOF 16
ENDMDL
MODEL 3
REMARK VINA RESULT:    -4.040      0.624      1.492
REMARK INTER + INTRA:          -9.533
REMARK INTER:                  -7.650
REMARK INTRA:                  -1.883
REMARK UNBOUND:                -1.714
REMARK SMILES CCCCCCCCCCCCCCCCCC(=O)[O-]
REMARK SMILES IDX 10 1 11 2 12 3 13 4 14 5 15 6 16 7 17 8 18 9 19 10 20 11
REMARK SMILES IDX 9 12 8 13 7 14 6 15 5 16 4 17 3 18 2 19 1 20
REMARK H PARENT
REMARK Flexibility Score: inf
ROOT
ATOM      1  C   UNL     1      12.652  -1.517 -17.096  1.00  0.00     0.000 C 
ENDROOT
BRANCH   1   2
ATOM      2  C   UNL     1      12.756   0.011 -16.968  1.00  0.00     0.000 C 
BRANCH   2   3
ATOM      3  C   UNL     1      11.424   0.722 -17.254  1.00  0.00     0.000 C 
BRANCH   3   4
ATOM      4  C   UNL     1      10.334  -0.290 -17.640  1.00  0.00     0.000 C 
BRANCH   4   5
ATOM      5  C   UNL     1      10.118  -0.378 -19.160  1.00  0.00     0.000 C 
BRANCH   5   6
ATOM      6  C   UNL     1       9.620  -1.763 -19.605  1.00  0.00     0.000 C 
BRANCH   6   7
ATOM      7  C   UNL     1      10.534  -2.412 -20.657  1.00  0.00     0.006 C 
BRANCH   7   8
ATOM      8  C   UNL     1       9.805  -3.456 -21.515  1.00  0.00     0.053 C 
BRANCH   8   9
ATOM      9  C   UNL     1       9.890  -3.089 -22.963  1.00  0.00     0.041 C 
ATOM     10  O   UNL     1       9.544  -3.916 -23.847  1.00  0.00    -0.550 OA
ATOM     11  O   UNL     1      10.398  -1.852 -23.338  1.00  0.00    -0.550 OA
ENDBRANCH   8   9
ENDBRANCH   7   8
ENDBRANCH   6   7
ENDBRANCH   5   6
ENDBRANCH   4   5
ENDBRANCH   3   4
ENDBRANCH   2   3
ENDBRANCH   1   2
BRANCH   1  12
ATOM     12  C   UNL     1      13.231  -2.042 -18.422  1.00  0.00     0.000 C 
BRANCH  12  13
ATOM     13  C   UNL     1      14.141  -1.000 -19.110  1.00  0.00    -0.000 C 
BRANCH  13  14
ATOM     14  C   UNL     1      14.154  -1.117 -20.644  1.00  0.00    -0.000 C 
BRANCH  14  15
ATOM     15  C   UNL     1      13.230  -0.096 -21.328  1.00  0.00    -0.000 C 
BRANCH  15  16
ATOM     16  C   UNL     1      12.830   1.054 -20.380  1.00  0.00    -0.000 C 
BRANCH  16  17
ATOM     17  C   UNL     1      13.218   2.449 -20.903  1.00  0.00    -0.000 C 
BRANCH  17  18
ATOM     18  C   UNL     1      13.270   3.510 -19.795  1.00  0.00    -0.000 C 
BRANCH  18  19
ATOM     19  C   UNL     1      13.291   4.923 -20.390  1.00  0.00    -0.003 C 
ATOM     20  C   UNL     1      14.721   5.399 -20.629  1.00  0.00     0.004 C 
ENDBRANCH  18  19
ENDBRANCH  17  18
ENDBRANCH  16  17
ENDBRANCH  15  16
ENDBRANCH  14  15
ENDBRANCH  13  14
ENDBRANCH  12  13
ENDBRANCH   1  12
TORSDOF 16
ENDMDL
MODEL 4
REMARK VINA RESULT:    -3.872      3.738      7.796
REMARK INTER + INTRA:          -9.208
REMARK INTER:                  -7.803
REMARK INTRA:                  -1.404
REMARK UNBOUND:                -1.714
REMARK SMILES CCCCCCCCCCCCCCCCCC(=O)[O-]
REMARK SMILES IDX 10 1 11 2 12 3 13 4 14 5 15 6 16 7 17 8 18 9 19 10 20 11
REMARK SMILES IDX 9 12 8 13 7 14 6 15 5 16 4 17 3 18 2 19 1 20
REMARK H PARENT
REMARK Flexibility Score: inf
ROOT
ATOM      1  C   UNL     1      11.496   1.225 -18.202  1.00  0.00     0.000 C 
ENDROOT
BRANCH   1   2
ATOM      2  C   UNL     1      12.798   2.004 -18.446  1.00  0.00     0.000 C 
BRANCH   2   3
ATOM      3  C   UNL     1      12.885   2.582 -19.868  1.00  0.00     0.000 C 
BRANCH   3   4
ATOM      4  C   UNL     1      13.223   4.081 -19.831  1.00  0.00     0.000 C 
BRANCH   4   5
ATOM      5  C   UNL     1      14.266   4.479 -20.888  1.00  0.00     0.000 C 
BRANCH   5   6
ATOM      6  C   UNL     1      15.007   5.776 -20.522  1.00  0.00     0.000 C 
BRANCH   6   7
ATOM      7  C   UNL     1      16.280   5.987 -21.359  1.00  0.00     0.006 C 
BRANCH   7   8
ATOM      8  C   UNL     1      16.381   5.015 -22.543  1.00  0.00     0.053 C 
BRANCH   8   9
ATOM      9  C   UNL     1      17.589   5.327 -23.370  1.00  0.00     0.041 C 
ATOM     10  O   UNL     1      17.488   5.444 -24.619  1.00  0.00    -0.550 OA
ATOM     11  O   UNL     1      18.834   5.440 -22.765  1.00  0.00    -0.550 OA
ENDBRANCH   8   9
ENDBRANCH   7   8
ENDBRANCH   6   7
ENDBRANCH   5   6
ENDBRANCH   4   5
ENDBRANCH   3   4
ENDBRANCH   2   3
ENDBRANCH   1   2
BRANCH   1  12
ATOM     12  C   UNL     1      11.672   0.077 -17.192  1.00  0.00     0.000 C 
BRANCH  12  13
ATOM     13  C   UNL     1      13.024  -0.649 -17.370  1.00  0.00    -0.000 C 
BRANCH  13  14
ATOM     14  C   UNL     1      12.983  -1.770 -18.421  1.00  0.00    -0.000 C 
BRANCH  14  15
ATOM     15  C   UNL     1      13.845  -1.462 -19.657  1.00  0.00    -0.000 C 
BRANCH  15  16
ATOM     16  C   UNL     1      12.997  -0.973 -20.851  1.00  0.00    -0.000 C 
BRANCH  16  17
ATOM     17  C   UNL     1      11.516  -1.383 -20.764  1.00  0.00    -0.000 C 
BRANCH  17  18
ATOM     18  C   UNL     1      10.974  -1.952 -22.083  1.00  0.00    -0.000 C 
BRANCH  18  19
ATOM     19  C   UNL     1       9.883  -2.997 -21.823  1.00  0.00    -0.003 C 
ATOM     20  C   UNL     1       9.816  -4.018 -22.955  1.00  0.00     0.004 C 
ENDBRANCH  18  19
ENDBRANCH  17  18
ENDBRANCH  16  17
ENDBRANCH  15  16
ENDBRANCH  14  15
ENDBRANCH  13  14
ENDBRANCH  12  13
ENDBRANCH   1  12
TORSDOF 16
ENDMDL
MODEL 5
REMARK VINA RESULT:    -3.818      1.514      3.063
REMARK INTER + INTRA:          -9.104
REMARK INTER:                  -7.919
REMARK INTRA:                  -1.184
REMARK UNBOUND:                -1.714
REMARK SMILES CCCCCCCCCCCCCCCCCC(=O)[O-]
REMARK SMILES IDX 10 1 11 2 12 3 13 4 14 5 15 6 16 7 17 8 18 9 19 10 20 11
REMARK SMILES IDX 9 12 8 13 7 14 6 15 5 16 4 17 3 18 2 19 1 20
REMARK H PARENT
REMARK Flexibility Score: inf
ROOT
ATOM      1  C   UNL     1      11.824   0.599 -18.071  1.00  0.00     0.000 C 
ENDROOT
BRANCH   1   2
ATOM      2  C   UNL     1      12.397  -0.361 -17.016  1.00  0.00     0.000 C 
BRANCH   2   3
ATOM      3  C   UNL     1      12.946  -1.659 -17.631  1.00  0.00     0.000 C 
BRANCH   3   4
ATOM      4  C   UNL     1      12.561  -1.769 -19.115  1.00  0.00     0.000 C 
BRANCH   4   5
ATOM      5  C   UNL     1      13.664  -1.251 -20.053  1.00  0.00     0.000 C 
BRANCH   5   6
ATOM      6  C   UNL     1      13.110  -0.786 -21.410  1.00  0.00     0.000 C 
BRANCH   6   7
ATOM      7  C   UNL     1      11.578  -0.888 -21.492  1.00  0.00     0.006 C 
BRANCH   7   8
ATOM      8  C   UNL     1      11.105  -1.912 -22.533  1.00  0.00     0.053 C 
BRANCH   8   9
ATOM      9  C   UNL     1      10.083  -2.826 -21.936  1.00  0.00     0.041 C 
ATOM     10  O   UNL     1       9.634  -2.607 -20.780  1.00  0.00    -0.550 OA
ATOM     11  O   UNL     1       9.661  -3.949 -22.636  1.00  0.00    -0.550 OA
ENDBRANCH   8   9
ENDBRANCH   7   8
ENDBRANCH   6   7
ENDBRANCH   5   6
ENDBRANCH   4   5
ENDBRANCH   3   4
ENDBRANCH   2   3
ENDBRANCH   1   2
BRANCH   1  12
ATOM     12  C   UNL     1      12.535   1.964 -18.079  1.00  0.00     0.000 C 
BRANCH  12  13
ATOM     13  C   UNL     1      12.887   2.426 -19.510  1.00  0.00    -0.000 C 
BRANCH  13  14
ATOM     14  C   UNL     1      13.106   3.944 -19.627  1.00  0.00    -0.000 C 
BRANCH  14  15
ATOM     15  C   UNL     1      13.934   4.335 -20.862  1.00  0.00    -0.000 C 
BRANCH  15  16
ATOM     16  C   UNL     1      14.810   5.580 -20.605  1.00  0.00    -0.000 C 
BRANCH  16  17
ATOM     17  C   UNL     1      15.731   5.941 -21.785  1.00  0.00    -0.000 C 
BRANCH  17  18
ATOM     18  C   UNL     1      17.211   5.650 -21.498  1.00  0.00    -0.000 C 
BRANCH  18  19
ATOM     19  C   UNL     1      17.998   5.470 -22.802  1.00  0.00    -0.003 C 
ATOM     20  C   UNL     1      17.062   5.214 -23.980  1.00  0.00     0.004 C 
ENDBRANCH  18  19
ENDBRANCH  17  18
ENDBRANCH  16  17
ENDBRANCH  15  16
ENDBRANCH  14  15
ENDBRANCH  13  14
ENDBRANCH  12  13
ENDBRANCH   1  12
TORSDOF 16
ENDMDL
MODEL 6
REMARK VINA RESULT:    -3.727      1.285      2.834
REMARK INTER + INTRA:          -8.927
REMARK INTER:                  -7.749
REMARK INTRA:                  -1.178
REMARK UNBOUND:                -1.714
REMARK SMILES CCCCCCCCCCCCCCCCCC(=O)[O-]
REMARK SMILES IDX 10 1 11 2 12 3 13 4 14 5 15 6 16 7 17 8 18 9 19 10 20 11
REMARK SMILES IDX 9 12 8 13 7 14 6 15 5 16 4 17 3 18 2 19 1 20
REMARK H PARENT
REMARK Flexibility Score: inf
ROOT
ATOM      1  C   UNL     1      13.794   0.011 -21.051  1.00  0.00     0.000 C 
ENDROOT
BRANCH   1   2
ATOM      2  C   UNL     1      13.539  -1.366 -20.417  1.00  0.00     0.000 C 
BRANCH   2   3
ATOM      3  C   UNL     1      14.013  -1.444 -18.957  1.00  0.00     0.000 C 
BRANCH   3   4
ATOM      4  C   UNL     1      12.831  -1.711 -18.011  1.00  0.00     0.000 C 
BRANCH   4   5
ATOM      5  C   UNL     1      12.008  -0.445 -17.720  1.00  0.00     0.000 C 
BRANCH   5   6
ATOM      6  C   UNL     1      10.506  -0.647 -17.982  1.00  0.00     0.000 C 
BRANCH   6   7
ATOM      7  C   UNL     1      10.176  -0.768 -19.478  1.00  0.00     0.006 C 
BRANCH   7   8
ATOM      8  C   UNL     1       9.750  -2.187 -19.881  1.00  0.00     0.053 C 
BRANCH   8   9
ATOM      9  C   UNL     1      10.078  -2.439 -21.319  1.00  0.00     0.041 C 
ATOM     10  O   UNL     1      10.577  -1.525 -22.025  1.00  0.00    -0.550 OA
ATOM     11  O   UNL     1       9.786  -3.671 -21.892  1.00  0.00    -0.550 OA
ENDBRANCH   8   9
ENDBRANCH   7   8
ENDBRANCH   6   7
ENDBRANCH   5   6
ENDBRANCH   4   5
ENDBRANCH   3   4
ENDBRANCH   2   3
ENDBRANCH   1   2
BRANCH   1  12
ATOM     12  C   UNL     1      12.834   1.092 -20.525  1.00  0.00     0.000 C 
BRANCH  12  13
ATOM     13  C   UNL     1      13.239   2.506 -20.997  1.00  0.00    -0.000 C 
BRANCH  13  14
ATOM     14  C   UNL     1      13.217   3.556 -19.873  1.00  0.00    -0.000 C 
BRANCH  14  15
ATOM     15  C   UNL     1      13.221   5.000 -20.405  1.00  0.00    -0.000 C 
BRANCH  15  16
ATOM     16  C   UNL     1      14.612   5.659 -20.288  1.00  0.00    -0.000 C 
BRANCH  16  17
ATOM     17  C   UNL     1      15.356   5.771 -21.630  1.00  0.00    -0.000 C 
BRANCH  17  18
ATOM     18  C   UNL     1      16.882   5.812 -21.466  1.00  0.00    -0.000 C 
BRANCH  18  19
ATOM     19  C   UNL     1      17.577   5.036 -22.591  1.00  0.00    -0.003 C 
ATOM     20  C   UNL     1      16.594   4.682 -23.704  1.00  0.00     0.004 C 
ENDBRANCH  18  19
ENDBRANCH  17  18
ENDBRANCH  16  17
ENDBRANCH  15  16
ENDBRANCH  14  15
ENDBRANCH  13  14
ENDBRANCH  12  13
ENDBRANCH   1  12
TORSDOF 16
ENDMDL
MODEL 7
REMARK VINA RESULT:    -3.650      3.404      7.647
REMARK INTER + INTRA:          -8.779
REMARK INTER:                  -7.202
REMARK INTRA:                  -1.577
REMARK UNBOUND:                -1.714
REMARK SMILES CCCCCCCCCCCCCCCCCC(=O)[O-]
REMARK SMILES IDX 10 1 11 2 12 3 13 4 14 5 15 6 16 7 17 8 18 9 19 10 20 11
REMARK SMILES IDX 9 12 8 13 7 14 6 15 5 16 4 17 3 18 2 19 1 20
REMARK H PARENT
REMARK Flexibility Score: inf
ROOT
ATOM      1  C   UNL     1      13.244   0.189 -21.343  1.00  0.00     0.000 C 
ENDROOT
BRANCH   1   2
ATOM      2  C   UNL     1      12.931   1.361 -20.399  1.00  0.00     0.000 C 
BRANCH   2   3
ATOM      3  C   UNL     1      13.257   2.728 -21.022  1.00  0.00     0.000 C 
BRANCH   3   4
ATOM      4  C   UNL     1      13.248   3.834 -19.955  1.00  0.00     0.000 C 
BRANCH   4   5
ATOM      5  C   UNL     1      13.543   5.225 -20.540  1.00  0.00     0.000 C 
BRANCH   5   6
ATOM      6  C   UNL     1      15.030   5.603 -20.438  1.00  0.00     0.000 C 
BRANCH   6   7
ATOM      7  C   UNL     1      15.680   5.828 -21.812  1.00  0.00     0.006 C 
BRANCH   7   8
ATOM      8  C   UNL     1      17.204   5.644 -21.787  1.00  0.00     0.053 C 
BRANCH   8   9
ATOM      9  C   UNL     1      17.708   5.293 -23.151  1.00  0.00     0.041 C 
ATOM     10  O   UNL     1      18.839   5.692 -23.531  1.00  0.00    -0.550 OA
ATOM     11  O   UNL     1      16.907   4.565 -24.022  1.00  0.00    -0.550 OA
ENDBRANCH   8   9
ENDBRANCH   7   8
ENDBRANCH   6   7
ENDBRANCH   5   6
ENDBRANCH   4   5
ENDBRANCH   3   4
ENDBRANCH   2   3
ENDBRANCH   1   2
BRANCH   1  12
ATOM     12  C   UNL     1      13.973  -0.965 -20.633  1.00  0.00     0.000 C 
BRANCH  12  13
ATOM     13  C   UNL     1      13.973  -0.794 -19.098  1.00  0.00    -0.000 C 
BRANCH  13  14
ATOM     14  C   UNL     1      13.556  -2.066 -18.340  1.00  0.00    -0.000 C 
BRANCH  14  15
ATOM     15  C   UNL     1      12.109  -2.006 -17.823  1.00  0.00    -0.000 C 
BRANCH  15  16
ATOM     16  C   UNL     1      11.487  -0.603 -17.995  1.00  0.00    -0.000 C 
BRANCH  16  17
ATOM     17  C   UNL     1      10.274  -0.577 -18.942  1.00  0.00    -0.000 C 
BRANCH  17  18
ATOM     18  C   UNL     1       9.978  -1.945 -19.571  1.00  0.00    -0.000 C 
BRANCH  18  19
ATOM     19  C   UNL     1      10.458  -1.996 -21.026  1.00  0.00    -0.003 C 
ATOM     20  C   UNL     1       9.927  -3.237 -21.739  1.00  0.00     0.004 C 
ENDBRANCH  18  19
ENDBRANCH  17  18
ENDBRANCH  16  17
ENDBRANCH  15  16
ENDBRANCH  14  15
ENDBRANCH  13  14
ENDBRANCH  12  13
ENDBRANCH   1  12
TORSDOF 16
ENDMDL
MODEL 8
REMARK VINA RESULT:    -3.627      1.782      3.099
REMARK INTER + INTRA:          -8.734
REMARK INTER:                  -7.399
REMARK INTRA:                  -1.335
REMARK UNBOUND:                -1.714
REMARK SMILES CCCCCCCCCCCCCCCCCC(=O)[O-]
REMARK SMILES IDX 10 1 11 2 12 3 13 4 14 5 15 6 16 7 17 8 18 9 19 10 20 11
REMARK SMILES IDX 9 12 8 13 7 14 6 15 5 16 4 17 3 18 2 19 1 20
REMARK H PARENT
REMARK Flexibility Score: inf
ROOT
ATOM      1  C   UNL     1      11.976   0.146 -17.597  1.00  0.00     0.000 C 
ENDROOT
BRANCH   1   2
ATOM      2  C   UNL     1      12.606  -1.188 -17.165  1.00  0.00     0.000 C 
BRANCH   2   3
ATOM      3  C   UNL     1      13.075  -2.037 -18.357  1.00  0.00     0.000 C 
BRANCH   3   4
ATOM      4  C   UNL     1      14.122  -1.280 -19.191  1.00  0.00     0.000 C 
BRANCH   4   5
ATOM      5  C   UNL     1      13.740  -1.186 -20.677  1.00  0.00     0.000 C 
BRANCH   5   6
ATOM      6  C   UNL     1      12.519  -0.281 -20.915  1.00  0.00     0.000 C 
BRANCH   6   7
ATOM      7  C   UNL     1      11.371  -1.011 -21.632  1.00  0.00     0.006 C 
BRANCH   7   8
ATOM      8  C   UNL     1      10.863  -2.231 -20.852  1.00  0.00     0.053 C 
BRANCH   8   9
ATOM      9  C   UNL     1       9.918  -1.802 -19.774  1.00  0.00     0.041 C 
ATOM     10  O   UNL     1       9.494  -2.638 -18.934  1.00  0.00    -0.550 OA
ATOM     11  O   UNL     1       9.467  -0.489 -19.728  1.00  0.00    -0.550 OA
ENDBRANCH   8   9
ENDBRANCH   7   8
ENDBRANCH   6   7
ENDBRANCH   5   6
ENDBRANCH   4   5
ENDBRANCH   3   4
ENDBRANCH   2   3
ENDBRANCH   1   2
BRANCH   1  12
ATOM     12  C   UNL     1      12.583   1.354 -16.862  1.00  0.00     0.000 C 
BRANCH  12  13
ATOM     13  C   UNL     1      13.259   2.345 -17.835  1.00  0.00    -0.000 C 
BRANCH  13  14
ATOM     14  C   UNL     1      12.519   2.488 -19.175  1.00  0.00    -0.000 C 
BRANCH  14  15
ATOM     15  C   UNL     1      13.295   3.335 -20.198  1.00  0.00    -0.000 C 
BRANCH  15  16
ATOM     16  C   UNL     1      13.169   4.848 -19.916  1.00  0.00    -0.000 C 
BRANCH  16  17
ATOM     17  C   UNL     1      13.888   5.731 -20.951  1.00  0.00    -0.000 C 
BRANCH  17  18
ATOM     18  C   UNL     1      15.409   5.773 -20.746  1.00  0.00    -0.000 C 
BRANCH  18  19
ATOM     19  C   UNL     1      16.134   6.062 -22.066  1.00  0.00    -0.003 C 
ATOM     20  C   UNL     1      16.550   4.768 -22.760  1.00  0.00     0.004 C 
ENDBRANCH  18  19
ENDBRANCH  17  18
ENDBRANCH  16  17
ENDBRANCH  15  16
ENDBRANCH  14  15
ENDBRANCH  13  14
ENDBRANCH  12  13
ENDBRANCH   1  12
TORSDOF 16
ENDMDL
MODEL 9
REMARK VINA RESULT:    -3.612      2.869      4.598
REMARK INTER + INTRA:          -8.704
REMARK INTER:                  -7.640
REMARK INTRA:                  -1.064
REMARK UNBOUND:                -1.714
REMARK SMILES CCCCCCCCCCCCCCCCCC(=O)[O-]
REMARK SMILES IDX 10 1 11 2 12 3 13 4 14 5 15 6 16 7 17 8 18 9 19 10 20 11
REMARK SMILES IDX 9 12 8 13 7 14 6 15 5 16 4 17 3 18 2 19 1 20
REMARK H PARENT
REMARK Flexibility Score: inf
ROOT
ATOM      1  C   UNL     1      13.619   0.163 -20.975  1.00  0.00     0.000 C 
ENDROOT
BRANCH   1   2
ATOM      2  C   UNL     1      12.838  -1.160 -21.019  1.00  0.00     0.000 C 
BRANCH   2   3
ATOM      3  C   UNL     1      11.473  -1.021 -21.711  1.00  0.00     0.000 C 
BRANCH   3   4
ATOM      4  C   UNL     1      10.606  -2.267 -21.471  1.00  0.00     0.000 C 
BRANCH   4   5
ATOM      5  C   UNL     1       9.885  -2.235 -20.114  1.00  0.00     0.000 C 
BRANCH   5   6
ATOM      6  C   UNL     1       9.917  -0.842 -19.464  1.00  0.00     0.000 C 
BRANCH   6   7
ATOM      7  C   UNL     1      10.602  -0.846 -18.088  1.00  0.00     0.006 C 
BRANCH   7   8
ATOM      8  C   UNL     1      11.287   0.488 -17.760  1.00  0.00     0.053 C 
BRANCH   8   9
ATOM      9  C   UNL     1      12.478   0.260 -16.884  1.00  0.00     0.041 C 
ATOM     10  O   UNL     1      12.532  -0.754 -16.140  1.00  0.00    -0.550 OA
ATOM     11  O   UNL     1      13.507   1.192 -16.854  1.00  0.00    -0.550 OA
ENDBRANCH   8   9
ENDBRANCH   7   8
ENDBRANCH   6   7
ENDBRANCH   5   6
ENDBRANCH   4   5
ENDBRANCH   3   4
ENDBRANCH   2   3
ENDBRANCH   1   2
BRANCH   1  12
ATOM     12  C   UNL     1      12.765   1.339 -20.468  1.00  0.00     0.000 C 
BRANCH  12  13
ATOM     13  C   UNL     1      13.286   2.698 -20.984  1.00  0.00    -0.000 C 
BRANCH  13  14
ATOM     14  C   UNL     1      13.253   3.810 -19.922  1.00  0.00    -0.000 C 
BRANCH  14  15
ATOM     15  C   UNL     1      13.408   5.217 -20.524  1.00  0.00    -0.000 C 
BRANCH  15  16
ATOM     16  C   UNL     1      14.840   5.768 -20.351  1.00  0.00    -0.000 C 
BRANCH  16  17
ATOM     17  C   UNL     1      15.605   5.926 -21.678  1.00  0.00    -0.000 C 
BRANCH  17  18
ATOM     18  C   UNL     1      17.115   5.698 -21.528  1.00  0.00    -0.000 C 
BRANCH  18  19
ATOM     19  C   UNL     1      17.753   5.336 -22.874  1.00  0.00    -0.003 C 
ATOM     20  C   UNL     1      16.719   4.753 -23.834  1.00  0.00     0.004 C 
ENDBRANCH  18  19
ENDBRANCH  17  18
ENDBRANCH  16  17
ENDBRANCH  15  16
ENDBRANCH  14  15
ENDBRANCH  13  14
ENDBRANCH  12  13
ENDBRANCH   1  12
TORSDOF 16
ENDMDL
