MODEL 1
REMARK VINA RESULT:    22.491      0.000      0.000
REMARK INTER + INTRA:          34.432
REMARK INTER:                  31.694
REMARK INTRA:                   2.738
REMARK UNBOUND:                 2.738
REMARK SMILES CC1=CCC(=C(C)C)C(=O)CC(C)=CCC1
REMARK SMILES IDX 12 1 14 2 13 3 15 4 16 5 2 6 1 7 3 8 11 10 9 11 10 12 5 13
REMARK SMILES IDX 6 14 7 15 8 16 4 17
REMARK H PARENT
REMARK Flexibility Score: 60.00
ROOT
ATOM      1  C   UNL     1       2.746  77.525  19.412  1.00  0.00    -0.070 C 
ATOM      2  C   UNL     1       1.954  76.637  20.055  1.00  0.00    -0.027 C 
ATOM      3  C   UNL     1       2.791  78.941  19.929  1.00  0.00     0.039 C 
ENDROOT
BRANCH   2   4
ATOM      4  C   UNL     1       1.902  75.159  19.767  1.00  0.00     0.032 C 
BRANCH   4   5
ATOM      5  C   UNL     1       0.836  74.874  18.702  1.00  0.00     0.034 C 
BRANCH   5   6
ATOM      6  C   UNL     1       1.069  73.559  17.986  1.00  0.00    -0.077 C 
ATOM      7  C   UNL     1      -0.002  72.499  18.055  1.00  0.00     0.039 C 
ATOM      8  C   UNL     1       2.222  73.247  17.342  1.00  0.00    -0.023 CG0
ATOM      9  G   UNL     1       3.411  74.157  17.089  1.00  0.00     0.000 G0
ENDBRANCH   5   6
ENDBRANCH   4   5
ENDBRANCH   2   4
BRANCH   1  10
ATOM     10  C   UNL     1       3.572  77.174  18.191  1.00  0.00     0.111 C 
BRANCH  10  11
ATOM     11  C   UNL     1       4.540  76.049  18.470  1.00  0.00     0.163 C 
ATOM     12  O   UNL     1       5.711  76.371  18.810  1.00  0.00    -0.294 OA
BRANCH  11  13
ATOM     13  C   UNL     1       4.188  74.595  18.344  1.00  0.00    -0.002 C 
ATOM     14  C   UNL     1       4.686  73.680  19.231  1.00  0.00    -0.069 C 
ATOM     15  C   UNL     1       5.358  74.110  20.516  1.00  0.00     0.039 C 
ATOM     16  C   UNL     1       4.549  72.191  19.008  1.00  0.00     0.039 C 
BRANCH  13  17
ATOM     17  C   UNL     1       3.419  74.154  17.103  1.00  0.00     0.066 CG0
ATOM     18  G   UNL     1       2.217  73.257  17.336  1.00  0.00     0.000 G0
ENDBRANCH  13  17
ENDBRANCH  11  13
ENDBRANCH  10  11
ENDBRANCH   1  10
TORSDOF 0
ENDMDL
MODEL 2
REMARK VINA RESULT:    23.715      1.584      3.205
REMARK INTER + INTRA:          36.158
REMARK INTER:                  35.100
REMARK INTRA:                   1.057
REMARK UNBOUND:                 2.738
REMARK SMILES CC1=CCC(=C(C)C)C(=O)CC(C)=CCC1
REMARK SMILES IDX 12 1 14 2 13 3 15 4 16 5 2 6 1 7 3 8 11 10 9 11 10 12 5 13
REMARK SMILES IDX 6 14 7 15 8 16 4 17
REMARK H PARENT
REMARK Flexibility Score: 60.00
ROOT
ATOM      1  C   UNL     1       4.349  76.085  18.608  1.00  0.00    -0.070 C 
ATOM      2  C   UNL     1       3.520  77.142  18.763  1.00  0.00    -0.027 C 
ATOM      3  C   UNL     1       5.540  76.242  17.698  1.00  0.00     0.039 C 
ENDROOT
BRANCH   2   4
ATOM      4  C   UNL     1       2.374  77.207  19.739  1.00  0.00     0.032 C 
BRANCH   4   5
ATOM      5  C   UNL     1       1.671  75.846  19.807  1.00  0.00     0.034 C 
BRANCH   5   6
ATOM      6  C   UNL     1       0.572  75.709  18.772  1.00  0.00    -0.077 C 
ATOM      7  C   UNL     1      -0.436  76.822  18.638  1.00  0.00     0.039 C 
ATOM      8  C   UNL     1       0.397  74.605  18.003  1.00  0.00    -0.023 CG0
ATOM      9  G   UNL     1       1.303  73.390  17.914  1.00  0.00     0.000 G0
ENDBRANCH   5   6
ENDBRANCH   4   5
ENDBRANCH   2   4
BRANCH   1  10
ATOM     10  C   UNL     1       4.128  74.748  19.288  1.00  0.00     0.111 C 
BRANCH  10  11
ATOM     11  C   UNL     1       3.865  73.645  18.290  1.00  0.00     0.163 C 
ATOM     12  O   UNL     1       4.689  72.690  18.261  1.00  0.00    -0.294 OA
BRANCH  11  13
ATOM     13  C   UNL     1       2.707  73.642  17.336  1.00  0.00    -0.002 C 
ATOM     14  C   UNL     1       2.883  74.007  16.029  1.00  0.00    -0.069 C 
ATOM     15  C   UNL     1       4.263  74.146  15.426  1.00  0.00     0.039 C 
ATOM     16  C   UNL     1       1.714  74.241  15.098  1.00  0.00     0.039 C 
BRANCH  13  17
ATOM     17  C   UNL     1       1.314  73.402  17.908  1.00  0.00     0.066 CG0
ATOM     18  G   UNL     1       0.401  74.612  17.992  1.00  0.00     0.000 G0
ENDBRANCH  13  17
ENDBRANCH  11  13
ENDBRANCH  10  11
ENDBRANCH   1  10
TORSDOF 0
ENDMDL
MODEL 3
REMARK VINA RESULT:    24.114      2.039      4.008
REMARK INTER + INTRA:          36.720
REMARK INTER:                  35.960
REMARK INTRA:                   0.760
REMARK UNBOUND:                 2.738
REMARK SMILES CC1=CCC(=C(C)C)C(=O)CC(C)=CCC1
REMARK SMILES IDX 12 1 14 2 13 3 15 4 16 5 2 6 1 7 3 8 11 10 9 11 10 12 5 13
REMARK SMILES IDX 6 14 7 15 8 16 4 17
REMARK H PARENT
REMARK Flexibility Score: 60.00
ROOT
ATOM      1  C   UNL     1       1.241  75.180  19.741  1.00  0.00    -0.070 C 
ATOM      2  C   UNL     1       2.384  75.879  19.923  1.00  0.00    -0.027 C 
ATOM      3  C   UNL     1       0.551  74.617  20.956  1.00  0.00     0.039 C 
ENDROOT
BRANCH   2   4
ATOM      4  C   UNL     1       3.120  76.631  18.844  1.00  0.00     0.032 C 
BRANCH   4   5
ATOM      5  C   UNL     1       4.430  75.908  18.508  1.00  0.00     0.034 C 
BRANCH   5   6
ATOM      6  C   UNL     1       4.491  74.514  19.099  1.00  0.00    -0.077 C 
ATOM      7  C   UNL     1       4.939  74.356  20.531  1.00  0.00     0.039 C 
ATOM      8  C   UNL     1       4.234  73.386  18.391  1.00  0.00    -0.023 CG0
ATOM      9  G   UNL     1       3.716  73.288  16.968  1.00  0.00     0.000 G0
ENDBRANCH   5   6
ENDBRANCH   4   5
ENDBRANCH   2   4
BRANCH   1  10
ATOM     10  C   UNL     1       0.632  74.921  18.377  1.00  0.00     0.111 C 
BRANCH  10  11
ATOM     11  C   UNL     1       1.283  73.748  17.683  1.00  0.00     0.163 C 
ATOM     12  O   UNL     1       0.896  72.596  18.019  1.00  0.00    -0.294 OA
BRANCH  11  13
ATOM     13  C   UNL     1       2.363  73.885  16.650  1.00  0.00    -0.002 C 
ATOM     14  C   UNL     1       2.077  74.381  15.407  1.00  0.00    -0.069 C 
ATOM     15  C   UNL     1       0.762  75.066  15.113  1.00  0.00     0.039 C 
ATOM     16  C   UNL     1       3.074  74.319  14.271  1.00  0.00     0.039 C 
BRANCH  13  17
ATOM     17  C   UNL     1       3.731  73.289  16.967  1.00  0.00     0.066 CG0
ATOM     18  G   UNL     1       4.196  73.395  18.408  1.00  0.00     0.000 G0
ENDBRANCH  13  17
ENDBRANCH  11  13
ENDBRANCH  10  11
ENDBRANCH   1  10
TORSDOF 0
ENDMDL
MODEL 4
REMARK VINA RESULT:    24.169      1.668      3.913
REMARK INTER + INTRA:          36.797
REMARK INTER:                  36.263
REMARK INTRA:                   0.534
REMARK UNBOUND:                 2.738
REMARK SMILES CC1=CCC(=C(C)C)C(=O)CC(C)=CCC1
REMARK SMILES IDX 12 1 14 2 13 3 15 4 16 5 2 6 1 7 3 8 11 10 9 11 10 12 5 13
REMARK SMILES IDX 6 14 7 15 8 16 4 17
REMARK H PARENT
REMARK Flexibility Score: 60.00
ROOT
ATOM      1  C   UNL     1       0.771  75.117  18.314  1.00  0.00    -0.070 C 
ATOM      2  C   UNL     1       1.079  74.455  17.176  1.00  0.00    -0.027 C 
ATOM      3  C   UNL     1      -0.148  76.308  18.217  1.00  0.00     0.039 C 
ENDROOT
BRANCH   2   4
ATOM      4  C   UNL     1       1.859  73.167  17.109  1.00  0.00     0.032 C 
BRANCH   4   5
ATOM      5  C   UNL     1       3.342  73.469  16.862  1.00  0.00     0.034 C 
BRANCH   5   6
ATOM      6  C   UNL     1       4.166  73.404  18.132  1.00  0.00    -0.077 C 
ATOM      7  C   UNL     1       4.619  72.055  18.631  1.00  0.00     0.039 C 
ATOM      8  C   UNL     1       4.461  74.488  18.893  1.00  0.00    -0.023 CG0
ATOM      9  G   UNL     1       4.169  75.944  18.575  1.00  0.00     0.000 G0
ENDBRANCH   5   6
ENDBRANCH   4   5
ENDBRANCH   2   4
BRANCH   1  10
ATOM     10  C   UNL     1       1.318  74.734  19.675  1.00  0.00     0.111 C 
BRANCH  10  11
ATOM     11  C   UNL     1       2.217  75.806  20.243  1.00  0.00     0.163 C 
ATOM     12  O   UNL     1       2.161  76.000  21.488  1.00  0.00    -0.294 OA
BRANCH  11  13
ATOM     13  C   UNL     1       3.138  76.650  19.412  1.00  0.00    -0.002 C 
ATOM     14  C   UNL     1       2.933  77.998  19.298  1.00  0.00    -0.069 C 
ATOM     15  C   UNL     1       1.973  78.730  20.208  1.00  0.00     0.039 C 
ATOM     16  C   UNL     1       3.688  78.842  18.296  1.00  0.00     0.039 C 
BRANCH  13  17
ATOM     17  C   UNL     1       4.184  75.936  18.562  1.00  0.00     0.066 CG0
ATOM     18  G   UNL     1       4.459  74.484  18.908  1.00  0.00     0.000 G0
ENDBRANCH  13  17
ENDBRANCH  11  13
ENDBRANCH  10  11
ENDBRANCH   1  10
TORSDOF 0
ENDMDL
MODEL 5
REMARK VINA RESULT:    24.183      1.810      3.800
REMARK INTER + INTRA:          36.817
REMARK INTER:                  34.463
REMARK INTRA:                   2.354
REMARK UNBOUND:                 2.738
REMARK SMILES CC1=CCC(=C(C)C)C(=O)CC(C)=CCC1
REMARK SMILES IDX 12 1 14 2 13 3 15 4 16 5 2 6 1 7 3 8 11 10 9 11 10 12 5 13
REMARK SMILES IDX 6 14 7 15 8 16 4 17
REMARK H PARENT
REMARK Flexibility Score: 60.00
ROOT
ATOM      1  C   UNL     1       3.288  73.736  16.826  1.00  0.00    -0.070 C 
ATOM      2  C   UNL     1       1.941  73.856  16.806  1.00  0.00    -0.027 C 
ATOM      3  C   UNL     1       4.053  74.098  15.579  1.00  0.00     0.039 C 
ENDROOT
BRANCH   2   4
ATOM      4  C   UNL     1       1.039  73.678  18.000  1.00  0.00     0.032 C 
BRANCH   4   5
ATOM      5  C   UNL     1      -0.252  74.481  17.800  1.00  0.00     0.034 C 
BRANCH   5   6
ATOM      6  C   UNL     1      -0.146  75.893  18.341  1.00  0.00    -0.077 C 
ATOM      7  C   UNL     1      -1.163  76.914  17.897  1.00  0.00     0.039 C 
ATOM      8  C   UNL     1       0.859  76.314  19.149  1.00  0.00    -0.023 CG0
ATOM      9  G   UNL     1       1.956  75.470  19.772  1.00  0.00     0.000 G0
ENDBRANCH   5   6
ENDBRANCH   4   5
ENDBRANCH   2   4
BRANCH   1  10
ATOM     10  C   UNL     1       4.062  73.238  18.031  1.00  0.00     0.111 C 
BRANCH  10  11
ATOM     11  C   UNL     1       4.175  74.294  19.104  1.00  0.00     0.163 C 
ATOM     12  O   UNL     1       5.006  74.084  20.029  1.00  0.00    -0.294 OA
BRANCH  11  13
ATOM     13  C   UNL     1       3.348  75.546  19.133  1.00  0.00    -0.002 C 
ATOM     14  C   UNL     1       3.884  76.742  18.738  1.00  0.00    -0.069 C 
ATOM     15  C   UNL     1       5.201  76.813  18.000  1.00  0.00     0.039 C 
ATOM     16  C   UNL     1       3.169  78.055  18.969  1.00  0.00     0.039 C 
BRANCH  13  17
ATOM     17  C   UNL     1       1.971  75.473  19.783  1.00  0.00     0.066 CG0
ATOM     18  G   UNL     1       0.885  76.335  19.164  1.00  0.00     0.000 G0
ENDBRANCH  13  17
ENDBRANCH  11  13
ENDBRANCH  10  11
ENDBRANCH   1  10
TORSDOF 0
ENDMDL
MODEL 6
REMARK VINA RESULT:    24.515      2.233      4.636
REMARK INTER + INTRA:          37.285
REMARK INTER:                  36.485
REMARK INTRA:                   0.800
REMARK UNBOUND:                 2.738
REMARK SMILES CC1=CCC(=C(C)C)C(=O)CC(C)=CCC1
REMARK SMILES IDX 12 1 14 2 13 3 15 4 16 5 2 6 1 7 3 8 11 10 9 11 10 12 5 13
REMARK SMILES IDX 6 14 7 15 8 16 4 17
REMARK H PARENT
REMARK Flexibility Score: 60.00
ROOT
ATOM      1  C   UNL     1       2.315  73.776  16.982  1.00  0.00    -0.070 C 
ATOM      2  C   UNL     1       3.604  73.792  17.391  1.00  0.00    -0.027 C 
ATOM      3  C   UNL     1       2.033  73.975  15.514  1.00  0.00     0.039 C 
ENDROOT
BRANCH   2   4
ATOM      4  C   UNL     1       4.072  73.467  18.786  1.00  0.00     0.032 C 
BRANCH   4   5
ATOM      5  C   UNL     1       4.684  74.715  19.433  1.00  0.00     0.034 C 
BRANCH   5   6
ATOM      6  C   UNL     1       4.217  75.997  18.774  1.00  0.00    -0.077 C 
ATOM      7  C   UNL     1       5.012  76.546  17.617  1.00  0.00     0.039 C 
ATOM      8  C   UNL     1       3.159  76.725  19.213  1.00  0.00    -0.023 CG0
ATOM      9  G   UNL     1       2.178  76.357  20.311  1.00  0.00     0.000 G0
ENDBRANCH   5   6
ENDBRANCH   4   5
ENDBRANCH   2   4
BRANCH   1  10
ATOM     10  C   UNL     1       1.144  73.589  17.925  1.00  0.00     0.111 C 
BRANCH  10  11
ATOM     11  C   UNL     1       0.829  74.851  18.691  1.00  0.00     0.163 C 
ATOM     12  O   UNL     1       0.125  75.717  18.102  1.00  0.00    -0.294 OA
BRANCH  11  13
ATOM     13  C   UNL     1       1.321  75.129  20.081  1.00  0.00    -0.002 C 
ATOM     14  C   UNL     1       0.876  74.383  21.138  1.00  0.00    -0.069 C 
ATOM     15  C   UNL     1       0.114  73.095  20.930  1.00  0.00     0.039 C 
ATOM     16  C   UNL     1       1.162  74.774  22.571  1.00  0.00     0.039 C 
BRANCH  13  17
ATOM     17  C   UNL     1       2.179  76.372  20.296  1.00  0.00     0.066 CG0
ATOM     18  G   UNL     1       3.172  76.706  19.198  1.00  0.00     0.000 G0
ENDBRANCH  13  17
ENDBRANCH  11  13
ENDBRANCH  10  11
ENDBRANCH   1  10
TORSDOF 0
ENDMDL
MODEL 7
REMARK VINA RESULT:    24.544      1.568      3.284
REMARK INTER + INTRA:          37.325
REMARK INTER:                  36.382
REMARK INTRA:                   0.943
REMARK UNBOUND:                 2.738
REMARK SMILES CC1=CCC(=C(C)C)C(=O)CC(C)=CCC1
REMARK SMILES IDX 12 1 14 2 13 3 15 4 16 5 2 6 1 7 3 8 11 10 9 11 10 12 5 13
REMARK SMILES IDX 6 14 7 15 8 16 4 17
REMARK H PARENT
REMARK Flexibility Score: 60.00
ROOT
ATOM      1  C   UNL     1       4.238  74.579  18.880  1.00  0.00    -0.070 C 
ATOM      2  C   UNL     1       3.880  73.666  17.949  1.00  0.00    -0.027 C 
ATOM      3  C   UNL     1       4.748  74.078  20.207  1.00  0.00     0.039 C 
ENDROOT
BRANCH   2   4
ATOM      4  C   UNL     1       3.492  73.986  16.528  1.00  0.00     0.032 C 
BRANCH   4   5
ATOM      5  C   UNL     1       1.990  73.745  16.333  1.00  0.00     0.034 C 
BRANCH   5   6
ATOM      6  C   UNL     1       1.343  73.108  17.546  1.00  0.00    -0.077 C 
ATOM      7  C   UNL     1       1.260  71.603  17.614  1.00  0.00     0.039 C 
ATOM      8  C   UNL     1       0.766  73.816  18.549  1.00  0.00    -0.023 CG0
ATOM      9  G   UNL     1       0.770  75.322  18.735  1.00  0.00     0.000 G0
ENDBRANCH   5   6
ENDBRANCH   4   5
ENDBRANCH   2   4
BRANCH   1  10
ATOM     10  C   UNL     1       4.133  76.075  18.662  1.00  0.00     0.111 C 
BRANCH  10  11
ATOM     11  C   UNL     1       2.908  76.657  19.325  1.00  0.00     0.163 C 
ATOM     12  O   UNL     1       2.887  77.906  19.496  1.00  0.00    -0.294 OA
BRANCH  11  13
ATOM     13  C   UNL     1       1.746  75.834  19.800  1.00  0.00    -0.002 C 
ATOM     14  C   UNL     1       1.663  75.440  21.108  1.00  0.00    -0.069 C 
ATOM     15  C   UNL     1       2.554  76.039  22.172  1.00  0.00     0.039 C 
ATOM     16  C   UNL     1       0.643  74.426  21.576  1.00  0.00     0.039 C 
BRANCH  13  17
ATOM     17  C   UNL     1       0.774  75.303  18.752  1.00  0.00     0.066 CG0
ATOM     18  G   UNL     1       0.765  73.800  18.539  1.00  0.00     0.000 G0
ENDBRANCH  13  17
ENDBRANCH  11  13
ENDBRANCH  10  11
ENDBRANCH   1  10
TORSDOF 0
ENDMDL
MODEL 8
REMARK VINA RESULT:    24.827      1.537      3.785
REMARK INTER + INTRA:          37.725
REMARK INTER:                  37.477
REMARK INTRA:                   0.248
REMARK UNBOUND:                 2.738
REMARK SMILES CC1=CCC(=C(C)C)C(=O)CC(C)=CCC1
REMARK SMILES IDX 12 1 14 2 13 3 15 4 16 5 2 6 1 7 3 8 11 10 9 11 10 12 5 13
REMARK SMILES IDX 6 14 7 15 8 16 4 17
REMARK H PARENT
REMARK Flexibility Score: 60.00
ROOT
ATOM      1  C   UNL     1       1.272  73.180  17.856  1.00  0.00    -0.070 C 
ATOM      2  C   UNL     1       0.785  74.025  18.792  1.00  0.00    -0.027 C 
ATOM      3  C   UNL     1       1.033  71.703  18.040  1.00  0.00     0.039 C 
ENDROOT
BRANCH   2   4
ATOM      4  C   UNL     1       0.804  75.529  18.692  1.00  0.00     0.032 C 
BRANCH   4   5
ATOM      5  C   UNL     1       1.634  76.116  19.841  1.00  0.00     0.034 C 
BRANCH   5   6
ATOM      6  C   UNL     1       2.950  76.698  19.366  1.00  0.00    -0.077 C 
ATOM      7  C   UNL     1       3.021  78.175  19.068  1.00  0.00     0.039 C 
ATOM      8  C   UNL     1       4.056  75.952  19.120  1.00  0.00    -0.023 CG0
ATOM      9  G   UNL     1       4.249  74.472  19.394  1.00  0.00     0.000 G0
ENDBRANCH   5   6
ENDBRANCH   4   5
ENDBRANCH   2   4
BRANCH   1  10
ATOM     10  C   UNL     1       2.059  73.641  16.646  1.00  0.00     0.111 C 
BRANCH  10  11
ATOM     11  C   UNL     1       3.494  73.956  16.994  1.00  0.00     0.163 C 
ATOM     12  O   UNL     1       4.152  74.631  16.157  1.00  0.00    -0.294 OA
BRANCH  11  13
ATOM     13  C   UNL     1       4.168  73.494  18.254  1.00  0.00    -0.002 C 
ATOM     14  C   UNL     1       4.543  72.186  18.402  1.00  0.00    -0.069 C 
ATOM     15  C   UNL     1       4.561  71.232  17.230  1.00  0.00     0.039 C 
ATOM     16  C   UNL     1       5.008  71.632  19.730  1.00  0.00     0.039 C 
BRANCH  13  17
ATOM     17  C   UNL     1       4.251  74.477  19.417  1.00  0.00     0.066 CG0
ATOM     18  G   UNL     1       4.050  75.943  19.079  1.00  0.00     0.000 G0
ENDBRANCH  13  17
ENDBRANCH  11  13
ENDBRANCH  10  11
ENDBRANCH   1  10
TORSDOF 0
ENDMDL
MODEL 9
REMARK VINA RESULT:    24.924      1.864      4.239
REMARK INTER + INTRA:          37.862
REMARK INTER:                  37.228
REMARK INTRA:                   0.635
REMARK UNBOUND:                 2.738
REMARK SMILES CC1=CCC(=C(C)C)C(=O)CC(C)=CCC1
REMARK SMILES IDX 12 1 14 2 13 3 15 4 16 5 2 6 1 7 3 8 11 10 9 11 10 12 5 13
REMARK SMILES IDX 6 14 7 15 8 16 4 17
REMARK H PARENT
REMARK Flexibility Score: 60.00
ROOT
ATOM      1  C   UNL     1       4.115  73.689  18.324  1.00  0.00    -0.070 C 
ATOM      2  C   UNL     1       4.203  74.846  19.018  1.00  0.00    -0.027 C 
ATOM      3  C   UNL     1       4.391  72.400  19.054  1.00  0.00     0.039 C 
ENDROOT
BRANCH   2   4
ATOM      4  C   UNL     1       3.819  76.204  18.488  1.00  0.00     0.032 C 
BRANCH   4   5
ATOM      5  C   UNL     1       2.845  76.884  19.457  1.00  0.00     0.034 C 
BRANCH   5   6
ATOM      6  C   UNL     1       2.103  75.889  20.326  1.00  0.00    -0.077 C 
ATOM      7  C   UNL     1       2.375  75.882  21.810  1.00  0.00     0.039 C 
ATOM      8  C   UNL     1       1.258  74.947  19.837  1.00  0.00    -0.023 CG0
ATOM      9  G   UNL     1       0.783  74.790  18.404  1.00  0.00     0.000 G0
ENDBRANCH   5   6
ENDBRANCH   4   5
ENDBRANCH   2   4
BRANCH   1  10
ATOM     10  C   UNL     1       3.771  73.626  16.849  1.00  0.00     0.111 C 
BRANCH  10  11
ATOM     11  C   UNL     1       2.280  73.654  16.616  1.00  0.00     0.163 C 
ATOM     12  O   UNL     1       1.888  73.842  15.432  1.00  0.00    -0.294 OA
BRANCH  11  13
ATOM     13  C   UNL     1       1.262  73.495  17.707  1.00  0.00    -0.002 C 
ATOM     14  C   UNL     1       0.672  72.281  17.935  1.00  0.00    -0.069 C 
ATOM     15  C   UNL     1       1.210  71.012  17.314  1.00  0.00     0.039 C 
ATOM     16  C   UNL     1      -0.516  72.129  18.859  1.00  0.00     0.039 C 
BRANCH  13  17
ATOM     17  C   UNL     1       0.778  74.754  18.419  1.00  0.00     0.066 CG0
ATOM     18  G   UNL     1       1.259  74.951  19.845  1.00  0.00     0.000 G0
ENDBRANCH  13  17
ENDBRANCH  11  13
ENDBRANCH  10  11
ENDBRANCH   1  10
TORSDOF 0
ENDMDL
