MODEL 1
REMARK VINA RESULT:    -5.502      0.000      0.000
REMARK INTER + INTRA:         -11.210
REMARK INTER:                 -10.327
REMARK INTRA:                  -0.882
REMARK UNBOUND:                -0.882
REMARK SMILES O=C([O-])CCCCCCCCCCCCCCC(=O)[O-]
REMARK SMILES IDX 10 1 9 2 8 3 7 4 6 5 5 6 4 7 2 8 1 9 3 10 11 11 12 12 13 13
REMARK SMILES IDX 14 14 15 15 16 16 17 17 18 18 19 19 20 20
REMARK H PARENT
REMARK Flexibility Score: inf
ROOT
ATOM      1  C   UNL     1      41.324  65.991  25.536  1.00  0.00     0.000 C 
ENDROOT
BRANCH   1   2
ATOM      2  C   UNL     1      41.575  65.213  24.234  1.00  0.00     0.000 C 
BRANCH   2   3
ATOM      3  C   UNL     1      41.722  63.700  24.469  1.00  0.00     0.000 C 
BRANCH   3   4
ATOM      4  C   UNL     1      42.416  63.375  25.801  1.00  0.00     0.000 C 
BRANCH   4   5
ATOM      5  C   UNL     1      42.928  61.926  25.868  1.00  0.00     0.000 C 
BRANCH   5   6
ATOM      6  C   UNL     1      44.353  61.815  26.441  1.00  0.00     0.006 C 
BRANCH   6   7
ATOM      7  C   UNL     1      45.457  62.214  25.447  1.00  0.00     0.053 C 
BRANCH   7   8
ATOM      8  C   UNL     1      46.577  62.964  26.103  1.00  0.00     0.041 C 
ATOM      9  O   UNL     1      47.583  63.315  25.431  1.00  0.00    -0.550 OA
ATOM     10  O   UNL     1      46.496  63.307  27.447  1.00  0.00    -0.550 OA
ENDBRANCH   7   8
ENDBRANCH   6   7
ENDBRANCH   5   6
ENDBRANCH   4   5
ENDBRANCH   3   4
ENDBRANCH   2   3
ENDBRANCH   1   2
BRANCH   1  11
ATOM     11  C   UNL     1      40.124  66.944  25.437  1.00  0.00     0.000 C 
BRANCH  11  12
ATOM     12  C   UNL     1      39.327  66.692  24.151  1.00  0.00     0.000 C 
BRANCH  12  13
ATOM     13  C   UNL     1      37.932  67.329  24.232  1.00  0.00     0.000 C 
BRANCH  13  14
ATOM     14  C   UNL     1      37.350  67.295  25.653  1.00  0.00     0.000 C 
BRANCH  14  15
ATOM     15  C   UNL     1      35.885  67.764  25.703  1.00  0.00     0.000 C 
BRANCH  15  16
ATOM     16  C   UNL     1      35.000  66.845  26.561  1.00  0.00     0.006 C 
BRANCH  16  17
ATOM     17  C   UNL     1      34.604  65.557  25.830  1.00  0.00     0.053 C 
BRANCH  17  18
ATOM     18  C   UNL     1      34.804  64.369  26.717  1.00  0.00     0.041 C 
ATOM     19  O   UNL     1      34.813  63.208  26.228  1.00  0.00    -0.550 OA
ATOM     20  O   UNL     1      35.032  64.546  28.076  1.00  0.00    -0.550 OA
ENDBRANCH  17  18
ENDBRANCH  16  17
ENDBRANCH  15  16
ENDBRANCH  14  15
ENDBRANCH  13  14
ENDBRANCH  12  13
ENDBRANCH  11  12
ENDBRANCH   1  11
TORSDOF 15
ENDMDL
MODEL 2
REMARK VINA RESULT:    -5.455      4.981      9.330
REMARK INTER + INTRA:         -11.120
REMARK INTER:                 -10.461
REMARK INTRA:                  -0.660
REMARK UNBOUND:                -0.882
REMARK SMILES O=C([O-])CCCCCCCCCCCCCCC(=O)[O-]
REMARK SMILES IDX 10 1 9 2 8 3 7 4 6 5 5 6 4 7 2 8 1 9 3 10 11 11 12 12 13 13
REMARK SMILES IDX 14 14 15 15 16 16 17 17 18 18 19 19 20 20
REMARK H PARENT
REMARK Flexibility Score: inf
ROOT
ATOM      1  C   UNL     1      41.154  67.293  23.128  1.00  0.00     0.000 C 
ENDROOT
BRANCH   1   2
ATOM      2  C   UNL     1      41.945  67.909  24.293  1.00  0.00     0.000 C 
BRANCH   2   3
ATOM      3  C   UNL     1      42.929  68.997  23.830  1.00  0.00     0.000 C 
BRANCH   3   4
ATOM      4  C   UNL     1      43.492  69.818  25.001  1.00  0.00     0.000 C 
BRANCH   4   5
ATOM      5  C   UNL     1      44.192  71.109  24.540  1.00  0.00     0.000 C 
BRANCH   5   6
ATOM      6  C   UNL     1      43.566  72.381  25.139  1.00  0.00     0.006 C 
BRANCH   6   7
ATOM      7  C   UNL     1      42.577  73.092  24.199  1.00  0.00     0.053 C 
BRANCH   7   8
ATOM      8  C   UNL     1      41.459  73.760  24.939  1.00  0.00     0.041 C 
ATOM      9  O   UNL     1      40.505  74.285  24.306  1.00  0.00    -0.550 OA
ATOM     10  O   UNL     1      41.451  73.775  26.329  1.00  0.00    -0.550 OA
ENDBRANCH   7   8
ENDBRANCH   6   7
ENDBRANCH   5   6
ENDBRANCH   4   5
ENDBRANCH   3   4
ENDBRANCH   2   3
ENDBRANCH   1   2
BRANCH   1  11
ATOM     11  C   UNL     1      41.102  65.759  23.191  1.00  0.00     0.000 C 
BRANCH  11  12
ATOM     12  C   UNL     1      41.453  65.255  24.596  1.00  0.00     0.000 C 
BRANCH  12  13
ATOM     13  C   UNL     1      41.821  63.764  24.571  1.00  0.00     0.000 C 
BRANCH  13  14
ATOM     14  C   UNL     1      42.395  63.274  25.909  1.00  0.00     0.000 C 
BRANCH  14  15
ATOM     15  C   UNL     1      43.072  61.898  25.795  1.00  0.00     0.000 C 
BRANCH  15  16
ATOM     16  C   UNL     1      44.474  61.875  26.426  1.00  0.00     0.006 C 
BRANCH  16  17
ATOM     17  C   UNL     1      45.591  62.013  25.385  1.00  0.00     0.053 C 
BRANCH  17  18
ATOM     18  C   UNL     1      46.638  62.967  25.867  1.00  0.00     0.041 C 
ATOM     19  O   UNL     1      46.676  63.308  27.079  1.00  0.00    -0.550 OA
ATOM     20  O   UNL     1      47.605  63.441  24.988  1.00  0.00    -0.550 OA
ENDBRANCH  17  18
ENDBRANCH  16  17
ENDBRANCH  15  16
ENDBRANCH  14  15
ENDBRANCH  13  14
ENDBRANCH  12  13
ENDBRANCH  11  12
ENDBRANCH   1  11
TORSDOF 15
ENDMDL
MODEL 3
REMARK VINA RESULT:    -5.422      4.967      6.464
REMARK INTER + INTRA:         -11.059
REMARK INTER:                 -10.380
REMARK INTRA:                  -0.679
REMARK UNBOUND:                -0.882
REMARK SMILES O=C([O-])CCCCCCCCCCCCCCC(=O)[O-]
REMARK SMILES IDX 10 1 9 2 8 3 7 4 6 5 5 6 4 7 2 8 1 9 3 10 11 11 12 12 13 13
REMARK SMILES IDX 14 14 15 15 16 16 17 17 18 18 19 19 20 20
REMARK H PARENT
REMARK Flexibility Score: inf
ROOT
ATOM      1  C   UNL     1      40.938  66.073  23.321  1.00  0.00     0.000 C 
ENDROOT
BRANCH   1   2
ATOM      2  C   UNL     1      41.441  65.512  24.661  1.00  0.00     0.000 C 
BRANCH   2   3
ATOM      3  C   UNL     1      41.736  64.003  24.596  1.00  0.00     0.000 C 
BRANCH   3   4
ATOM      4  C   UNL     1      42.387  63.475  25.884  1.00  0.00     0.000 C 
BRANCH   4   5
ATOM      5  C   UNL     1      42.937  62.046  25.730  1.00  0.00     0.000 C 
BRANCH   5   6
ATOM      6  C   UNL     1      44.313  61.855  26.392  1.00  0.00     0.006 C 
BRANCH   6   7
ATOM      7  C   UNL     1      45.499  62.031  25.428  1.00  0.00     0.053 C 
BRANCH   7   8
ATOM      8  C   UNL     1      46.562  62.931  25.980  1.00  0.00     0.041 C 
ATOM      9  O   UNL     1      47.468  63.377  25.228  1.00  0.00    -0.550 OA
ATOM     10  O   UNL     1      46.533  63.306  27.318  1.00  0.00    -0.550 OA
ENDBRANCH   7   8
ENDBRANCH   6   7
ENDBRANCH   5   6
ENDBRANCH   4   5
ENDBRANCH   3   4
ENDBRANCH   2   3
ENDBRANCH   1   2
BRANCH   1  11
ATOM     11  C   UNL     1      41.429  67.504  23.054  1.00  0.00     0.000 C 
BRANCH  11  12
ATOM     12  C   UNL     1      42.054  68.113  24.316  1.00  0.00     0.000 C 
BRANCH  12  13
ATOM     13  C   UNL     1      43.091  69.187  23.953  1.00  0.00     0.000 C 
BRANCH  13  14
ATOM     14  C   UNL     1      43.488  70.055  25.157  1.00  0.00     0.000 C 
BRANCH  14  15
ATOM     15  C   UNL     1      44.274  71.312  24.746  1.00  0.00     0.000 C 
BRANCH  15  16
ATOM     16  C   UNL     1      43.600  72.610  25.219  1.00  0.00     0.006 C 
BRANCH  16  17
ATOM     17  C   UNL     1      42.559  73.131  24.221  1.00  0.00     0.053 C 
BRANCH  17  18
ATOM     18  C   UNL     1      41.412  73.765  24.944  1.00  0.00     0.041 C 
ATOM     19  O   UNL     1      40.460  74.276  24.297  1.00  0.00    -0.550 OA
ATOM     20  O   UNL     1      41.369  73.745  26.332  1.00  0.00    -0.550 OA
ENDBRANCH  17  18
ENDBRANCH  16  17
ENDBRANCH  15  16
ENDBRANCH  14  15
ENDBRANCH  13  14
ENDBRANCH  12  13
ENDBRANCH  11  12
ENDBRANCH   1  11
TORSDOF 15
ENDMDL
MODEL 4
REMARK VINA RESULT:    -5.356      0.518      9.235
REMARK INTER + INTRA:         -10.936
REMARK INTER:                 -10.115
REMARK INTRA:                  -0.821
REMARK UNBOUND:                -0.882
REMARK SMILES O=C([O-])CCCCCCCCCCCCCCC(=O)[O-]
REMARK SMILES IDX 10 1 9 2 8 3 7 4 6 5 5 6 4 7 2 8 1 9 3 10 11 11 12 12 13 13
REMARK SMILES IDX 14 14 15 15 16 16 17 17 18 18 19 19 20 20
REMARK H PARENT
REMARK Flexibility Score: inf
ROOT
ATOM      1  C   UNL     1      40.342  67.095  25.197  1.00  0.00     0.000 C 
ENDROOT
BRANCH   1   2
ATOM      2  C   UNL     1      39.382  66.720  24.057  1.00  0.00     0.000 C 
BRANCH   2   3
ATOM      3  C   UNL     1      37.985  67.342  24.232  1.00  0.00     0.000 C 
BRANCH   3   4
ATOM      4  C   UNL     1      37.492  67.279  25.687  1.00  0.00     0.000 C 
BRANCH   4   5
ATOM      5  C   UNL     1      36.069  67.839  25.857  1.00  0.00     0.000 C 
BRANCH   5   6
ATOM      6  C   UNL     1      34.981  66.752  25.791  1.00  0.00     0.006 C 
BRANCH   6   7
ATOM      7  C   UNL     1      34.919  65.856  27.040  1.00  0.00     0.053 C 
BRANCH   7   8
ATOM      8  C   UNL     1      34.783  64.403  26.699  1.00  0.00     0.041 C 
ATOM      9  O   UNL     1      35.027  63.524  27.566  1.00  0.00    -0.550 OA
ATOM     10  O   UNL     1      34.353  64.020  25.435  1.00  0.00    -0.550 OA
ENDBRANCH   7   8
ENDBRANCH   6   7
ENDBRANCH   5   6
ENDBRANCH   4   5
ENDBRANCH   3   4
ENDBRANCH   2   3
ENDBRANCH   1   2
BRANCH   1  11
ATOM     11  C   UNL     1      41.330  65.969  25.536  1.00  0.00     0.000 C 
BRANCH  11  12
ATOM     12  C   UNL     1      41.684  65.155  24.286  1.00  0.00     0.000 C 
BRANCH  12  13
ATOM     13  C   UNL     1      41.615  63.647  24.572  1.00  0.00     0.000 C 
BRANCH  13  14
ATOM     14  C   UNL     1      42.373  63.252  25.848  1.00  0.00     0.000 C 
BRANCH  14  15
ATOM     15  C   UNL     1      43.065  61.884  25.725  1.00  0.00     0.000 C 
BRANCH  15  16
ATOM     16  C   UNL     1      44.437  61.851  26.417  1.00  0.00     0.006 C 
BRANCH  16  17
ATOM     17  C   UNL     1      45.594  62.121  25.447  1.00  0.00     0.053 C 
BRANCH  17  18
ATOM     18  C   UNL     1      46.633  62.978  26.097  1.00  0.00     0.041 C 
ATOM     19  O   UNL     1      47.589  63.439  25.419  1.00  0.00    -0.550 OA
ATOM     20  O   UNL     1      46.519  63.311  27.441  1.00  0.00    -0.550 OA
ENDBRANCH  17  18
ENDBRANCH  16  17
ENDBRANCH  15  16
ENDBRANCH  14  15
ENDBRANCH  13  14
ENDBRANCH  12  13
ENDBRANCH  11  12
ENDBRANCH   1  11
TORSDOF 15
ENDMDL
MODEL 5
REMARK VINA RESULT:    -5.297      4.968      6.568
REMARK INTER + INTRA:         -10.824
REMARK INTER:                 -10.122
REMARK INTRA:                  -0.702
REMARK UNBOUND:                -0.882
REMARK SMILES O=C([O-])CCCCCCCCCCCCCCC(=O)[O-]
REMARK SMILES IDX 10 1 9 2 8 3 7 4 6 5 5 6 4 7 2 8 1 9 3 10 11 11 12 12 13 13
REMARK SMILES IDX 14 14 15 15 16 16 17 17 18 18 19 19 20 20
REMARK H PARENT
REMARK Flexibility Score: inf
ROOT
ATOM      1  C   UNL     1      41.083  67.181  23.241  1.00  0.00     0.000 C 
ENDROOT
BRANCH   1   2
ATOM      2  C   UNL     1      41.839  67.842  24.405  1.00  0.00     0.000 C 
BRANCH   2   3
ATOM      3  C   UNL     1      42.810  68.938  23.933  1.00  0.00     0.000 C 
BRANCH   3   4
ATOM      4  C   UNL     1      43.250  69.866  25.076  1.00  0.00     0.000 C 
BRANCH   4   5
ATOM      5  C   UNL     1      44.242  70.949  24.615  1.00  0.00     0.000 C 
BRANCH   5   6
ATOM      6  C   UNL     1      43.851  72.363  25.080  1.00  0.00     0.006 C 
BRANCH   6   7
ATOM      7  C   UNL     1      42.770  73.029  24.212  1.00  0.00     0.053 C 
BRANCH   7   8
ATOM      8  C   UNL     1      41.648  73.598  25.025  1.00  0.00     0.041 C 
ATOM      9  O   UNL     1      41.665  73.506  26.281  1.00  0.00    -0.550 OA
ATOM     10  O   UNL     1      40.598  74.260  24.400  1.00  0.00    -0.550 OA
ENDBRANCH   7   8
ENDBRANCH   6   7
ENDBRANCH   5   6
ENDBRANCH   4   5
ENDBRANCH   3   4
ENDBRANCH   2   3
ENDBRANCH   1   2
BRANCH   1  11
ATOM     11  C   UNL     1      39.822  66.434  23.700  1.00  0.00     0.000 C 
BRANCH  11  12
ATOM     12  C   UNL     1      39.166  67.144  24.892  1.00  0.00     0.000 C 
BRANCH  12  13
ATOM     13  C   UNL     1      37.659  67.327  24.662  1.00  0.00     0.000 C 
BRANCH  13  14
ATOM     14  C   UNL     1      36.882  67.531  25.972  1.00  0.00     0.000 C 
BRANCH  14  15
ATOM     15  C   UNL     1      35.358  67.536  25.762  1.00  0.00     0.000 C 
BRANCH  15  16
ATOM     16  C   UNL     1      34.753  66.123  25.796  1.00  0.00     0.006 C 
BRANCH  16  17
ATOM     17  C   UNL     1      35.036  65.392  27.114  1.00  0.00     0.053 C 
BRANCH  17  18
ATOM     18  C   UNL     1      34.806  63.922  26.956  1.00  0.00     0.041 C 
ATOM     19  O   UNL     1      34.680  63.420  25.807  1.00  0.00    -0.550 OA
ATOM     20  O   UNL     1      34.781  63.097  28.073  1.00  0.00    -0.550 OA
ENDBRANCH  17  18
ENDBRANCH  16  17
ENDBRANCH  15  16
ENDBRANCH  14  15
ENDBRANCH  13  14
ENDBRANCH  12  13
ENDBRANCH  11  12
ENDBRANCH   1  11
TORSDOF 15
ENDMDL
MODEL 6
REMARK VINA RESULT:    -5.223      5.013      9.192
REMARK INTER + INTRA:         -10.685
REMARK INTER:                  -9.987
REMARK INTRA:                  -0.698
REMARK UNBOUND:                -0.882
REMARK SMILES O=C([O-])CCCCCCCCCCCCCCC(=O)[O-]
REMARK SMILES IDX 10 1 9 2 8 3 7 4 6 5 5 6 4 7 2 8 1 9 3 10 11 11 12 12 13 13
REMARK SMILES IDX 14 14 15 15 16 16 17 17 18 18 19 19 20 20
REMARK H PARENT
REMARK Flexibility Score: inf
ROOT
ATOM      1  C   UNL     1      40.116  66.397  23.251  1.00  0.00     0.000 C 
ENDROOT
BRANCH   1   2
ATOM      2  C   UNL     1      39.483  66.743  24.609  1.00  0.00     0.000 C 
BRANCH   2   3
ATOM      3  C   UNL     1      38.016  67.188  24.480  1.00  0.00     0.000 C 
BRANCH   3   4
ATOM      4  C   UNL     1      37.347  67.414  25.845  1.00  0.00     0.000 C 
BRANCH   4   5
ATOM      5  C   UNL     1      35.848  67.739  25.727  1.00  0.00     0.000 C 
BRANCH   5   6
ATOM      6  C   UNL     1      34.963  66.483  25.643  1.00  0.00     0.006 C 
BRANCH   6   7
ATOM      7  C   UNL     1      34.754  65.776  26.993  1.00  0.00     0.053 C 
BRANCH   7   8
ATOM      8  C   UNL     1      34.852  64.285  26.883  1.00  0.00     0.041 C 
ATOM      9  O   UNL     1      35.118  63.590  27.899  1.00  0.00    -0.550 OA
ATOM     10  O   UNL     1      34.617  63.657  25.665  1.00  0.00    -0.550 OA
ENDBRANCH   7   8
ENDBRANCH   6   7
ENDBRANCH   5   6
ENDBRANCH   4   5
ENDBRANCH   3   4
ENDBRANCH   2   3
ENDBRANCH   1   2
BRANCH   1  11
ATOM     11  C   UNL     1      41.374  67.228  22.955  1.00  0.00     0.000 C 
BRANCH  11  12
ATOM     12  C   UNL     1      41.797  68.042  24.184  1.00  0.00     0.000 C 
BRANCH  12  13
ATOM     13  C   UNL     1      42.963  68.983  23.847  1.00  0.00     0.000 C 
BRANCH  13  14
ATOM     14  C   UNL     1      43.378  69.860  25.038  1.00  0.00     0.000 C 
BRANCH  14  15
ATOM     15  C   UNL     1      44.296  71.023  24.625  1.00  0.00     0.000 C 
BRANCH  15  16
ATOM     16  C   UNL     1      43.791  72.383  25.134  1.00  0.00     0.006 C 
BRANCH  16  17
ATOM     17  C   UNL     1      42.866  73.082  24.131  1.00  0.00     0.053 C 
BRANCH  17  18
ATOM     18  C   UNL     1      41.658  73.628  24.825  1.00  0.00     0.041 C 
ATOM     19  O   UNL     1      41.579  73.589  26.082  1.00  0.00    -0.550 OA
ATOM     20  O   UNL     1      40.643  74.225  24.089  1.00  0.00    -0.550 OA
ENDBRANCH  17  18
ENDBRANCH  16  17
ENDBRANCH  15  16
ENDBRANCH  14  15
ENDBRANCH  13  14
ENDBRANCH  12  13
ENDBRANCH  11  12
ENDBRANCH   1  11
TORSDOF 15
ENDMDL
MODEL 7
REMARK VINA RESULT:    -4.530      1.174      1.597
REMARK INTER + INTRA:          -9.385
REMARK INTER:                  -9.145
REMARK INTRA:                  -0.240
REMARK UNBOUND:                -0.882
REMARK SMILES O=C([O-])CCCCCCCCCCCCCCC(=O)[O-]
REMARK SMILES IDX 10 1 9 2 8 3 7 4 6 5 5 6 4 7 2 8 1 9 3 10 11 11 12 12 13 13
REMARK SMILES IDX 14 14 15 15 16 16 17 17 18 18 19 19 20 20
REMARK H PARENT
REMARK Flexibility Score: inf
ROOT
ATOM      1  C   UNL     1      41.348  67.410  24.517  1.00  0.00     0.000 C 
ENDROOT
BRANCH   1   2
ATOM      2  C   UNL     1      41.362  66.234  25.507  1.00  0.00     0.000 C 
BRANCH   2   3
ATOM      3  C   UNL     1      41.690  64.893  24.827  1.00  0.00     0.000 C 
BRANCH   3   4
ATOM      4  C   UNL     1      42.069  63.798  25.837  1.00  0.00     0.000 C 
BRANCH   4   5
ATOM      5  C   UNL     1      42.494  62.484  25.159  1.00  0.00     0.000 C 
BRANCH   5   6
ATOM      6  C   UNL     1      43.076  61.457  26.145  1.00  0.00     0.006 C 
BRANCH   6   7
ATOM      7  C   UNL     1      44.413  61.885  26.775  1.00  0.00     0.053 C 
BRANCH   7   8
ATOM      8  C   UNL     1      45.496  62.069  25.756  1.00  0.00     0.041 C 
ATOM      9  O   UNL     1      46.370  62.962  25.914  1.00  0.00    -0.550 OA
ATOM     10  O   UNL     1      45.563  61.232  24.648  1.00  0.00    -0.550 OA
ENDBRANCH   7   8
ENDBRANCH   6   7
ENDBRANCH   5   6
ENDBRANCH   4   5
ENDBRANCH   3   4
ENDBRANCH   2   3
ENDBRANCH   1   2
BRANCH   1  11
ATOM     11  C   UNL     1      41.007  66.976  23.084  1.00  0.00     0.000 C 
BRANCH  11  12
ATOM     12  C   UNL     1      39.489  66.945  22.866  1.00  0.00     0.000 C 
BRANCH  12  13
ATOM     13  C   UNL     1      38.746  66.716  24.192  1.00  0.00     0.000 C 
BRANCH  13  14
ATOM     14  C   UNL     1      37.566  67.681  24.382  1.00  0.00     0.000 C 
BRANCH  14  15
ATOM     15  C   UNL     1      36.905  67.542  25.764  1.00  0.00     0.000 C 
BRANCH  15  16
ATOM     16  C   UNL     1      35.370  67.522  25.684  1.00  0.00     0.006 C 
BRANCH  16  17
ATOM     17  C   UNL     1      34.730  66.735  26.835  1.00  0.00     0.053 C 
BRANCH  17  18
ATOM     18  C   UNL     1      34.724  65.271  26.527  1.00  0.00     0.041 C 
ATOM     19  O   UNL     1      34.401  64.866  25.379  1.00  0.00    -0.550 OA
ATOM     20  O   UNL     1      35.125  64.355  27.492  1.00  0.00    -0.550 OA
ENDBRANCH  17  18
ENDBRANCH  16  17
ENDBRANCH  15  16
ENDBRANCH  14  15
ENDBRANCH  13  14
ENDBRANCH  12  13
ENDBRANCH  11  12
ENDBRANCH   1  11
TORSDOF 15
ENDMDL
MODEL 8
REMARK VINA RESULT:    -4.256      1.237      2.188
REMARK INTER + INTRA:          -8.870
REMARK INTER:                  -8.363
REMARK INTRA:                  -0.508
REMARK UNBOUND:                -0.882
REMARK SMILES O=C([O-])CCCCCCCCCCCCCCC(=O)[O-]
REMARK SMILES IDX 10 1 9 2 8 3 7 4 6 5 5 6 4 7 2 8 1 9 3 10 11 11 12 12 13 13
REMARK SMILES IDX 14 14 15 15 16 16 17 17 18 18 19 19 20 20
REMARK H PARENT
REMARK Flexibility Score: inf
ROOT
ATOM      1  C   UNL     1      41.872  65.000  24.224  1.00  0.00     0.000 C 
ENDROOT
BRANCH   1   2
ATOM      2  C   UNL     1      41.845  63.516  24.624  1.00  0.00     0.000 C 
BRANCH   2   3
ATOM      3  C   UNL     1      42.177  63.298  26.111  1.00  0.00     0.000 C 
BRANCH   3   4
ATOM      4  C   UNL     1      42.582  61.847  26.417  1.00  0.00     0.000 C 
BRANCH   4   5
ATOM      5  C   UNL     1      43.826  61.398  25.630  1.00  0.00     0.000 C 
BRANCH   5   6
ATOM      6  C   UNL     1      45.120  62.084  26.104  1.00  0.00     0.006 C 
BRANCH   6   7
ATOM      7  C   UNL     1      46.176  62.254  24.998  1.00  0.00     0.053 C 
BRANCH   7   8
ATOM      8  C   UNL     1      47.210  63.282  25.344  1.00  0.00     0.041 C 
ATOM      9  O   UNL     1      47.426  63.585  26.547  1.00  0.00    -0.550 OA
ATOM     10  O   UNL     1      47.961  63.882  24.339  1.00  0.00    -0.550 OA
ENDBRANCH   7   8
ENDBRANCH   6   7
ENDBRANCH   5   6
ENDBRANCH   4   5
ENDBRANCH   3   4
ENDBRANCH   2   3
ENDBRANCH   1   2
BRANCH   1  11
ATOM     11  C   UNL     1      41.097  65.280  22.928  1.00  0.00     0.000 C 
BRANCH  11  12
ATOM     12  C   UNL     1      40.712  66.761  22.828  1.00  0.00     0.000 C 
BRANCH  12  13
ATOM     13  C   UNL     1      40.818  67.452  24.196  1.00  0.00     0.000 C 
BRANCH  13  14
ATOM     14  C   UNL     1      39.711  67.015  25.166  1.00  0.00     0.000 C 
BRANCH  14  15
ATOM     15  C   UNL     1      38.301  67.216  24.583  1.00  0.00     0.000 C 
BRANCH  15  16
ATOM     16  C   UNL     1      37.243  67.470  25.670  1.00  0.00     0.006 C 
BRANCH  16  17
ATOM     17  C   UNL     1      35.811  67.311  25.147  1.00  0.00     0.053 C 
BRANCH  17  18
ATOM     18  C   UNL     1      34.936  66.699  26.195  1.00  0.00     0.041 C 
ATOM     19  O   UNL     1      34.542  65.509  26.075  1.00  0.00    -0.550 OA
ATOM     20  O   UNL     1      34.599  67.425  27.331  1.00  0.00    -0.550 OA
ENDBRANCH  17  18
ENDBRANCH  16  17
ENDBRANCH  15  16
ENDBRANCH  14  15
ENDBRANCH  13  14
ENDBRANCH  12  13
ENDBRANCH  11  12
ENDBRANCH   1  11
TORSDOF 15
ENDMDL
MODEL 9
REMARK VINA RESULT:    -3.699     12.344     13.143
REMARK INTER + INTRA:          -7.825
REMARK INTER:                  -7.179
REMARK INTRA:                  -0.646
REMARK UNBOUND:                -0.882
REMARK SMILES O=C([O-])CCCCCCCCCCCCCCC(=O)[O-]
REMARK SMILES IDX 10 1 9 2 8 3 7 4 6 5 5 6 4 7 2 8 1 9 3 10 11 11 12 12 13 13
REMARK SMILES IDX 14 14 15 15 16 16 17 17 18 18 19 19 20 20
REMARK H PARENT
REMARK Flexibility Score: inf
ROOT
ATOM      1  C   UNL     1      39.169  62.110  11.943  1.00  0.00     0.000 C 
ENDROOT
BRANCH   1   2
ATOM      2  C   UNL     1      40.055  61.122  12.718  1.00  0.00     0.000 C 
BRANCH   2   3
ATOM      3  C   UNL     1      41.295  60.686  11.917  1.00  0.00     0.000 C 
BRANCH   3   4
ATOM      4  C   UNL     1      42.581  60.724  12.758  1.00  0.00     0.000 C 
BRANCH   4   5
ATOM      5  C   UNL     1      43.639  59.718  12.271  1.00  0.00     0.000 C 
BRANCH   5   6
ATOM      6  C   UNL     1      43.210  58.252  12.462  1.00  0.00     0.006 C 
BRANCH   6   7
ATOM      7  C   UNL     1      44.151  57.439  13.367  1.00  0.00     0.053 C 
BRANCH   7   8
ATOM      8  C   UNL     1      43.644  57.328  14.772  1.00  0.00     0.041 C 
ATOM      9  O   UNL     1      43.744  58.303  15.562  1.00  0.00    -0.550 OA
ATOM     10  O   UNL     1      43.029  56.158  15.202  1.00  0.00    -0.550 OA
ENDBRANCH   7   8
ENDBRANCH   6   7
ENDBRANCH   5   6
ENDBRANCH   4   5
ENDBRANCH   3   4
ENDBRANCH   2   3
ENDBRANCH   1   2
BRANCH   1  11
ATOM     11  C   UNL     1      39.525  63.577  12.227  1.00  0.00     0.000 C 
BRANCH  11  12
ATOM     12  C   UNL     1      38.300  64.483  12.053  1.00  0.00     0.000 C 
BRANCH  12  13
ATOM     13  C   UNL     1      37.006  63.657  12.002  1.00  0.00     0.000 C 
BRANCH  13  14
ATOM     14  C   UNL     1      36.054  63.978  13.165  1.00  0.00     0.000 C 
BRANCH  14  15
ATOM     15  C   UNL     1      34.741  64.625  12.693  1.00  0.00     0.000 C 
BRANCH  15  16
ATOM     16  C   UNL     1      33.772  64.909  13.852  1.00  0.00     0.006 C 
BRANCH  16  17
ATOM     17  C   UNL     1      32.538  65.704  13.408  1.00  0.00     0.053 C 
BRANCH  17  18
ATOM     18  C   UNL     1      31.887  66.359  14.585  1.00  0.00     0.041 C 
ATOM     19  O   UNL     1      30.946  67.178  14.414  1.00  0.00    -0.550 OA
ATOM     20  O   UNL     1      32.283  66.026  15.875  1.00  0.00    -0.550 OA
ENDBRANCH  17  18
ENDBRANCH  16  17
ENDBRANCH  15  16
ENDBRANCH  14  15
ENDBRANCH  13  14
ENDBRANCH  12  13
ENDBRANCH  11  12
ENDBRANCH   1  11
TORSDOF 15
ENDMDL
