MODEL 1
REMARK VINA RESULT:    -3.125      0.000      0.000
REMARK INTER + INTRA:          -7.090
REMARK INTER:                  -5.682
REMARK INTRA:                  -1.408
REMARK UNBOUND:                -1.408
REMARK SMILES CCCCCC=CCC=CCCCCCCCC(=O)[O-]
REMARK SMILES IDX 11 1 12 2 13 3 14 4 15 5 16 6 17 7 18 8 19 9 20 10 10 11
REMARK SMILES IDX 9 12 8 13 7 14 6 15 5 16 4 17 3 18 2 19 1 20
REMARK H PARENT
REMARK Flexibility Score: inf
ROOT
ATOM      1  C   UNL     1      -1.258 -15.878  18.055  1.00  0.00     0.027 C 
ENDROOT
BRANCH   1   2
ATOM      2  C   UNL     1      -0.252 -17.030  17.939  1.00  0.00     0.004 C 
BRANCH   2   3
ATOM      3  C   UNL     1       1.161 -16.610  18.372  1.00  0.00     0.000 C 
BRANCH   3   4
ATOM      4  C   UNL     1       2.125 -17.801  18.333  1.00  0.00     0.000 C 
BRANCH   4   5
ATOM      5  C   UNL     1       1.872 -18.752  19.512  1.00  0.00     0.000 C 
BRANCH   5   6
ATOM      6  C   UNL     1       1.875 -20.236  19.102  1.00  0.00     0.006 C 
BRANCH   6   7
ATOM      7  C   UNL     1       1.821 -20.462  17.580  1.00  0.00     0.053 C 
BRANCH   7   8
ATOM      8  C   UNL     1       0.428 -20.700  17.083  1.00  0.00     0.041 C 
ATOM      9  O   UNL     1       0.224 -20.941  15.864  1.00  0.00    -0.550 OA
ATOM     10  O   UNL     1      -0.650 -20.624  17.957  1.00  0.00    -0.550 OA
ENDBRANCH   7   8
ENDBRANCH   6   7
ENDBRANCH   5   6
ENDBRANCH   4   5
ENDBRANCH   3   4
ENDBRANCH   2   3
ENDBRANCH   1   2
BRANCH   1  11
ATOM     11  C   UNL     1      -1.809 -15.496  16.707  1.00  0.00    -0.031 C 
ATOM     12  C   UNL     1      -2.707 -14.511  16.564  1.00  0.00    -0.027 C 
BRANCH  12  13
ATOM     13  C   UNL     1      -3.315 -14.190  15.229  1.00  0.00     0.054 C 
BRANCH  13  14
ATOM     14  C   UNL     1      -3.681 -12.729  15.152  1.00  0.00    -0.027 C 
ATOM     15  C   UNL     1      -4.777 -12.175  15.706  1.00  0.00    -0.031 C 
BRANCH  15  16
ATOM     16  C   UNL     1      -5.796 -12.917  16.532  1.00  0.00     0.027 C 
BRANCH  16  17
ATOM     17  C   UNL     1      -5.943 -12.285  17.925  1.00  0.00     0.004 C 
BRANCH  17  18
ATOM     18  C   UNL     1      -5.030 -12.940  18.977  1.00  0.00     0.000 C 
BRANCH  18  19
ATOM     19  C   UNL     1      -3.992 -11.995  19.608  1.00  0.00    -0.003 C 
ATOM     20  C   UNL     1      -3.013 -11.415  18.588  1.00  0.00     0.004 C 
ENDBRANCH  18  19
ENDBRANCH  17  18
ENDBRANCH  16  17
ENDBRANCH  15  16
ENDBRANCH  13  14
ENDBRANCH  12  13
ENDBRANCH   1  11
TORSDOF 14
ENDMDL
MODEL 2
REMARK VINA RESULT:    -3.081      1.370      2.118
REMARK INTER + INTRA:          -7.012
REMARK INTER:                  -6.226
REMARK INTRA:                  -0.786
REMARK UNBOUND:                -1.408
REMARK SMILES CCCCCC=CCC=CCCCCCCCC(=O)[O-]
REMARK SMILES IDX 11 1 12 2 13 3 14 4 15 5 16 6 17 7 18 8 19 9 20 10 10 11
REMARK SMILES IDX 9 12 8 13 7 14 6 15 5 16 4 17 3 18 2 19 1 20
REMARK H PARENT
REMARK Flexibility Score: inf
ROOT
ATOM      1  C   UNL     1      -1.637 -15.514  16.432  1.00  0.00     0.027 C 
ENDROOT
BRANCH   1   2
ATOM      2  C   UNL     1      -1.405 -15.911  17.895  1.00  0.00     0.004 C 
BRANCH   2   3
ATOM      3  C   UNL     1       0.003 -16.482  18.124  1.00  0.00     0.000 C 
BRANCH   3   4
ATOM      4  C   UNL     1      -0.054 -17.987  18.408  1.00  0.00     0.000 C 
BRANCH   4   5
ATOM      5  C   UNL     1       1.348 -18.546  18.690  1.00  0.00     0.000 C 
BRANCH   5   6
ATOM      6  C   UNL     1       1.329 -20.007  19.174  1.00  0.00     0.006 C 
BRANCH   6   7
ATOM      7  C   UNL     1       0.289 -20.887  18.459  1.00  0.00     0.053 C 
BRANCH   7   8
ATOM      8  C   UNL     1       0.538 -20.990  16.985  1.00  0.00     0.041 C 
ATOM      9  O   UNL     1       1.712 -21.124  16.550  1.00  0.00    -0.550 OA
ATOM     10  O   UNL     1      -0.520 -20.906  16.089  1.00  0.00    -0.550 OA
ENDBRANCH   7   8
ENDBRANCH   6   7
ENDBRANCH   5   6
ENDBRANCH   4   5
ENDBRANCH   3   4
ENDBRANCH   2   3
ENDBRANCH   1   2
BRANCH   1  11
ATOM     11  C   UNL     1      -2.810 -14.580  16.298  1.00  0.00    -0.031 C 
ATOM     12  C   UNL     1      -2.858 -13.639  15.343  1.00  0.00    -0.027 C 
BRANCH  12  13
ATOM     13  C   UNL     1      -3.991 -12.657  15.266  1.00  0.00     0.054 C 
BRANCH  13  14
ATOM     14  C   UNL     1      -5.308 -13.350  15.510  1.00  0.00    -0.027 C 
ATOM     15  C   UNL     1      -6.157 -13.067  16.517  1.00  0.00    -0.031 C 
BRANCH  15  16
ATOM     16  C   UNL     1      -5.951 -11.981  17.542  1.00  0.00     0.027 C 
BRANCH  16  17
ATOM     17  C   UNL     1      -5.348 -12.550  18.836  1.00  0.00     0.004 C 
BRANCH  17  18
ATOM     18  C   UNL     1      -6.214 -12.260  20.076  1.00  0.00     0.000 C 
BRANCH  18  19
ATOM     19  C   UNL     1      -7.526 -11.511  19.785  1.00  0.00    -0.003 C 
ATOM     20  C   UNL     1      -8.330 -11.199  21.046  1.00  0.00     0.004 C 
ENDBRANCH  18  19
ENDBRANCH  17  18
ENDBRANCH  16  17
ENDBRANCH  15  16
ENDBRANCH  13  14
ENDBRANCH  12  13
ENDBRANCH   1  11
TORSDOF 14
ENDMDL
MODEL 3
REMARK VINA RESULT:    -2.901      5.097      8.034
REMARK INTER + INTRA:          -6.684
REMARK INTER:                  -5.313
REMARK INTRA:                  -1.371
REMARK UNBOUND:                -1.408
REMARK SMILES CCCCCC=CCC=CCCCCCCCC(=O)[O-]
REMARK SMILES IDX 11 1 12 2 13 3 14 4 15 5 16 6 17 7 18 8 19 9 20 10 10 11
REMARK SMILES IDX 9 12 8 13 7 14 6 15 5 16 4 17 3 18 2 19 1 20
REMARK H PARENT
REMARK Flexibility Score: inf
ROOT
ATOM      1  C   UNL     1      -4.220 -14.341  15.462  1.00  0.00     0.027 C 
ENDROOT
BRANCH   1   2
ATOM      2  C   UNL     1      -2.798 -14.029  15.947  1.00  0.00     0.004 C 
BRANCH   2   3
ATOM      3  C   UNL     1      -2.474 -14.727  17.276  1.00  0.00     0.000 C 
BRANCH   3   4
ATOM      4  C   UNL     1      -3.129 -13.998  18.455  1.00  0.00     0.000 C 
BRANCH   4   5
ATOM      5  C   UNL     1      -3.122 -12.478  18.233  1.00  0.00     0.000 C 
BRANCH   5   6
ATOM      6  C   UNL     1      -3.878 -11.705  19.329  1.00  0.00     0.006 C 
BRANCH   6   7
ATOM      7  C   UNL     1      -5.099 -12.454  19.891  1.00  0.00     0.053 C 
BRANCH   7   8
ATOM      8  C   UNL     1      -6.380 -12.041  19.232  1.00  0.00     0.041 C 
ATOM      9  O   UNL     1      -7.359 -11.668  19.931  1.00  0.00    -0.550 OA
ATOM     10  O   UNL     1      -6.506 -12.097  17.850  1.00  0.00    -0.550 OA
ENDBRANCH   7   8
ENDBRANCH   6   7
ENDBRANCH   5   6
ENDBRANCH   4   5
ENDBRANCH   3   4
ENDBRANCH   2   3
ENDBRANCH   1   2
BRANCH   1  11
ATOM     11  C   UNL     1      -4.909 -13.102  14.957  1.00  0.00    -0.031 C 
ATOM     12  C   UNL     1      -4.330 -11.894  15.022  1.00  0.00    -0.027 C 
BRANCH  12  13
ATOM     13  C   UNL     1      -5.056 -10.652  14.593  1.00  0.00     0.054 C 
BRANCH  13  14
ATOM     14  C   UNL     1      -4.252  -9.900  13.562  1.00  0.00    -0.027 C 
ATOM     15  C   UNL     1      -4.727  -8.916  12.776  1.00  0.00    -0.031 C 
BRANCH  15  16
ATOM     16  C   UNL     1      -6.133  -8.373  12.826  1.00  0.00     0.027 C 
BRANCH  16  17
ATOM     17  C   UNL     1      -6.613  -7.955  11.427  1.00  0.00     0.004 C 
BRANCH  17  18
ATOM     18  C   UNL     1      -6.374  -9.042  10.364  1.00  0.00     0.000 C 
BRANCH  18  19
ATOM     19  C   UNL     1      -5.979  -8.509   8.975  1.00  0.00    -0.003 C 
ATOM     20  C   UNL     1      -5.645  -7.018   8.978  1.00  0.00     0.004 C 
ENDBRANCH  18  19
ENDBRANCH  17  18
ENDBRANCH  16  17
ENDBRANCH  15  16
ENDBRANCH  13  14
ENDBRANCH  12  13
ENDBRANCH   1  11
TORSDOF 14
ENDMDL
MODEL 4
REMARK VINA RESULT:    -2.783      2.877      8.609
REMARK INTER + INTRA:          -6.468
REMARK INTER:                  -5.128
REMARK INTRA:                  -1.340
REMARK UNBOUND:                -1.408
REMARK SMILES CCCCCC=CCC=CCCCCCCCC(=O)[O-]
REMARK SMILES IDX 11 1 12 2 13 3 14 4 15 5 16 6 17 7 18 8 19 9 20 10 10 11
REMARK SMILES IDX 9 12 8 13 7 14 6 15 5 16 4 17 3 18 2 19 1 20
REMARK H PARENT
REMARK Flexibility Score: inf
ROOT
ATOM      1  C   UNL     1      -2.601 -15.237  16.682  1.00  0.00     0.027 C 
ENDROOT
BRANCH   1   2
ATOM      2  C   UNL     1      -1.958 -14.702  15.396  1.00  0.00     0.004 C 
BRANCH   2   3
ATOM      3  C   UNL     1      -2.822 -13.626  14.722  1.00  0.00     0.000 C 
BRANCH   3   4
ATOM      4  C   UNL     1      -4.303 -13.812  15.069  1.00  0.00     0.000 C 
BRANCH   4   5
ATOM      5  C   UNL     1      -4.866 -12.562  15.762  1.00  0.00     0.000 C 
BRANCH   5   6
ATOM      6  C   UNL     1      -5.808 -12.894  16.934  1.00  0.00     0.006 C 
BRANCH   6   7
ATOM      7  C   UNL     1      -5.501 -12.111  18.222  1.00  0.00     0.053 C 
BRANCH   7   8
ATOM      8  C   UNL     1      -4.160 -12.453  18.797  1.00  0.00     0.041 C 
ATOM      9  O   UNL     1      -3.976 -13.570  19.351  1.00  0.00    -0.550 OA
ATOM     10  O   UNL     1      -3.122 -11.531  18.751  1.00  0.00    -0.550 OA
ENDBRANCH   7   8
ENDBRANCH   6   7
ENDBRANCH   5   6
ENDBRANCH   4   5
ENDBRANCH   3   4
ENDBRANCH   2   3
ENDBRANCH   1   2
BRANCH   1  11
ATOM     11  C   UNL     1      -1.574 -15.441  17.764  1.00  0.00    -0.031 C 
ATOM     12  C   UNL     1      -0.551 -16.294  17.615  1.00  0.00    -0.027 C 
BRANCH  12  13
ATOM     13  C   UNL     1       0.422 -16.555  18.728  1.00  0.00     0.054 C 
BRANCH  13  14
ATOM     14  C   UNL     1       1.693 -17.162  18.188  1.00  0.00    -0.027 C 
ATOM     15  C   UNL     1       2.124 -18.412  18.446  1.00  0.00    -0.031 C 
BRANCH  15  16
ATOM     16  C   UNL     1       1.386 -19.425  19.282  1.00  0.00     0.027 C 
BRANCH  16  17
ATOM     17  C   UNL     1       1.380 -20.804  18.602  1.00  0.00     0.004 C 
BRANCH  17  18
ATOM     18  C   UNL     1       1.916 -20.759  17.159  1.00  0.00     0.000 C 
BRANCH  18  19
ATOM     19  C   UNL     1       0.884 -21.121  16.077  1.00  0.00    -0.003 C 
ATOM     20  C   UNL     1      -0.552 -20.796  16.486  1.00  0.00     0.004 C 
ENDBRANCH  18  19
ENDBRANCH  17  18
ENDBRANCH  16  17
ENDBRANCH  15  16
ENDBRANCH  13  14
ENDBRANCH  12  13
ENDBRANCH   1  11
TORSDOF 14
ENDMDL
MODEL 5
REMARK VINA RESULT:    -2.776      3.797      8.680
REMARK INTER + INTRA:          -6.456
REMARK INTER:                  -5.157
REMARK INTRA:                  -1.299
REMARK UNBOUND:                -1.408
REMARK SMILES CCCCCC=CCC=CCCCCCCCC(=O)[O-]
REMARK SMILES IDX 11 1 12 2 13 3 14 4 15 5 16 6 17 7 18 8 19 9 20 10 10 11
REMARK SMILES IDX 9 12 8 13 7 14 6 15 5 16 4 17 3 18 2 19 1 20
REMARK H PARENT
REMARK Flexibility Score: inf
ROOT
ATOM      1  C   UNL     1      -2.686 -13.925  15.415  1.00  0.00     0.027 C 
ENDROOT
BRANCH   1   2
ATOM      2  C   UNL     1      -4.197 -14.030  15.654  1.00  0.00     0.004 C 
BRANCH   2   3
ATOM      3  C   UNL     1      -4.722 -12.895  16.547  1.00  0.00     0.000 C 
BRANCH   3   4
ATOM      4  C   UNL     1      -3.565 -12.123  17.192  1.00  0.00     0.000 C 
BRANCH   4   5
ATOM      5  C   UNL     1      -3.536 -12.346  18.711  1.00  0.00     0.000 C 
BRANCH   5   6
ATOM      6  C   UNL     1      -4.809 -13.027  19.246  1.00  0.00     0.006 C 
BRANCH   6   7
ATOM      7  C   UNL     1      -5.613 -12.160  20.231  1.00  0.00     0.053 C 
BRANCH   7   8
ATOM      8  C   UNL     1      -6.945 -11.750  19.682  1.00  0.00     0.041 C 
ATOM      9  O   UNL     1      -7.129 -11.703  18.437  1.00  0.00    -0.550 OA
ATOM     10  O   UNL     1      -7.976 -11.390  20.541  1.00  0.00    -0.550 OA
ENDBRANCH   7   8
ENDBRANCH   6   7
ENDBRANCH   5   6
ENDBRANCH   4   5
ENDBRANCH   3   4
ENDBRANCH   2   3
ENDBRANCH   1   2
BRANCH   1  11
ATOM     11  C   UNL     1      -1.969 -15.156  15.901  1.00  0.00    -0.031 C 
ATOM     12  C   UNL     1      -1.789 -15.399  17.208  1.00  0.00    -0.027 C 
BRANCH  12  13
ATOM     13  C   UNL     1      -1.001 -16.585  17.683  1.00  0.00     0.054 C 
BRANCH  13  14
ATOM     14  C   UNL     1       0.284 -16.140  18.336  1.00  0.00    -0.027 C 
ATOM     15  C   UNL     1       1.362 -16.921  18.537  1.00  0.00    -0.031 C 
BRANCH  15  16
ATOM     16  C   UNL     1       1.479 -18.360  18.104  1.00  0.00     0.027 C 
BRANCH  16  17
ATOM     17  C   UNL     1       1.110 -19.314  19.250  1.00  0.00     0.004 C 
BRANCH  17  18
ATOM     18  C   UNL     1       0.896 -20.763  18.776  1.00  0.00     0.000 C 
BRANCH  18  19
ATOM     19  C   UNL     1       0.846 -20.940  17.249  1.00  0.00    -0.003 C 
ATOM     20  C   UNL     1      -0.565 -20.811  16.676  1.00  0.00     0.004 C 
ENDBRANCH  18  19
ENDBRANCH  17  18
ENDBRANCH  16  17
ENDBRANCH  15  16
ENDBRANCH  13  14
ENDBRANCH  12  13
ENDBRANCH   1  11
TORSDOF 14
ENDMDL
MODEL 6
REMARK VINA RESULT:    -2.612      1.032      2.606
REMARK INTER + INTRA:          -6.158
REMARK INTER:                  -4.891
REMARK INTRA:                  -1.267
REMARK UNBOUND:                -1.408
REMARK SMILES CCCCCC=CCC=CCCCCCCCC(=O)[O-]
REMARK SMILES IDX 11 1 12 2 13 3 14 4 15 5 16 6 17 7 18 8 19 9 20 10 10 11
REMARK SMILES IDX 9 12 8 13 7 14 6 15 5 16 4 17 3 18 2 19 1 20
REMARK H PARENT
REMARK Flexibility Score: inf
ROOT
ATOM      1  C   UNL     1      -1.978 -16.017  18.113  1.00  0.00     0.027 C 
ENDROOT
BRANCH   1   2
ATOM      2  C   UNL     1      -0.464 -16.216  17.967  1.00  0.00     0.004 C 
BRANCH   2   3
ATOM      3  C   UNL     1      -0.040 -17.663  18.258  1.00  0.00     0.000 C 
BRANCH   3   4
ATOM      4  C   UNL     1       1.398 -17.719  18.786  1.00  0.00     0.000 C 
BRANCH   4   5
ATOM      5  C   UNL     1       1.731 -19.117  19.327  1.00  0.00     0.000 C 
BRANCH   5   6
ATOM      6  C   UNL     1       0.747 -20.200  18.848  1.00  0.00     0.006 C 
BRANCH   6   7
ATOM      7  C   UNL     1       1.319 -21.125  17.759  1.00  0.00     0.053 C 
BRANCH   7   8
ATOM      8  C   UNL     1       0.574 -21.017  16.464  1.00  0.00     0.041 C 
ATOM      9  O   UNL     1       1.188 -21.125  15.370  1.00  0.00    -0.550 OA
ATOM     10  O   UNL     1      -0.793 -20.766  16.461  1.00  0.00    -0.550 OA
ENDBRANCH   7   8
ENDBRANCH   6   7
ENDBRANCH   5   6
ENDBRANCH   4   5
ENDBRANCH   3   4
ENDBRANCH   2   3
ENDBRANCH   1   2
BRANCH   1  11
ATOM     11  C   UNL     1      -2.338 -14.556  18.140  1.00  0.00    -0.031 C 
ATOM     12  C   UNL     1      -3.107 -14.035  19.107  1.00  0.00    -0.027 C 
BRANCH  12  13
ATOM     13  C   UNL     1      -3.530 -12.595  19.082  1.00  0.00     0.054 C 
BRANCH  13  14
ATOM     14  C   UNL     1      -5.010 -12.474  19.350  1.00  0.00    -0.027 C 
ATOM     15  C   UNL     1      -5.941 -12.166  18.428  1.00  0.00    -0.031 C 
BRANCH  15  16
ATOM     16  C   UNL     1      -5.664 -11.934  16.964  1.00  0.00     0.027 C 
BRANCH  16  17
ATOM     17  C   UNL     1      -5.600 -13.264  16.197  1.00  0.00     0.004 C 
BRANCH  17  18
ATOM     18  C   UNL     1      -4.553 -13.251  15.068  1.00  0.00     0.000 C 
BRANCH  18  19
ATOM     19  C   UNL     1      -3.468 -14.336  15.182  1.00  0.00    -0.003 C 
ATOM     20  C   UNL     1      -2.132 -13.914  14.572  1.00  0.00     0.004 C 
ENDBRANCH  18  19
ENDBRANCH  17  18
ENDBRANCH  16  17
ENDBRANCH  15  16
ENDBRANCH  13  14
ENDBRANCH  12  13
ENDBRANCH   1  11
TORSDOF 14
ENDMDL
MODEL 7
REMARK VINA RESULT:    -2.579      6.324     10.210
REMARK INTER + INTRA:          -6.098
REMARK INTER:                  -5.284
REMARK INTRA:                  -0.814
REMARK UNBOUND:                -1.408
REMARK SMILES CCCCCC=CCC=CCCCCCCCC(=O)[O-]
REMARK SMILES IDX 11 1 12 2 13 3 14 4 15 5 16 6 17 7 18 8 19 9 20 10 10 11
REMARK SMILES IDX 9 12 8 13 7 14 6 15 5 16 4 17 3 18 2 19 1 20
REMARK H PARENT
REMARK Flexibility Score: inf
ROOT
ATOM      1  C   UNL     1      -4.498 -11.825  14.369  1.00  0.00     0.027 C 
ENDROOT
BRANCH   1   2
ATOM      2  C   UNL     1      -4.612 -10.299  14.264  1.00  0.00     0.004 C 
BRANCH   2   3
ATOM      3  C   UNL     1      -4.903  -9.838  12.828  1.00  0.00     0.000 C 
BRANCH   3   4
ATOM      4  C   UNL     1      -5.138  -8.325  12.773  1.00  0.00     0.000 C 
BRANCH   4   5
ATOM      5  C   UNL     1      -6.638  -8.004  12.705  1.00  0.00     0.000 C 
BRANCH   5   6
ATOM      6  C   UNL     1      -7.165  -7.882  11.263  1.00  0.00     0.006 C 
BRANCH   6   7
ATOM      7  C   UNL     1      -6.096  -7.451  10.244  1.00  0.00     0.053 C 
BRANCH   7   8
ATOM      8  C   UNL     1      -5.886  -8.469   9.165  1.00  0.00     0.041 C 
ATOM      9  O   UNL     1      -5.409  -8.122   8.052  1.00  0.00    -0.550 OA
ATOM     10  O   UNL     1      -6.245  -9.795   9.374  1.00  0.00    -0.550 OA
ENDBRANCH   7   8
ENDBRANCH   6   7
ENDBRANCH   5   6
ENDBRANCH   4   5
ENDBRANCH   3   4
ENDBRANCH   2   3
ENDBRANCH   1   2
BRANCH   1  11
ATOM     11  C   UNL     1      -3.964 -12.243  15.714  1.00  0.00    -0.031 C 
ATOM     12  C   UNL     1      -3.722 -13.528  16.009  1.00  0.00    -0.027 C 
BRANCH  12  13
ATOM     13  C   UNL     1      -3.269 -13.946  17.378  1.00  0.00     0.054 C 
BRANCH  13  14
ATOM     14  C   UNL     1      -3.123 -12.743  18.277  1.00  0.00    -0.027 C 
ATOM     15  C   UNL     1      -4.057 -12.306  19.144  1.00  0.00    -0.031 C 
BRANCH  15  16
ATOM     16  C   UNL     1      -5.386 -12.973  19.390  1.00  0.00     0.027 C 
BRANCH  16  17
ATOM     17  C   UNL     1      -6.283 -12.102  20.285  1.00  0.00     0.004 C 
BRANCH  17  18
ATOM     18  C   UNL     1      -7.512 -11.549  19.541  1.00  0.00     0.000 C 
BRANCH  18  19
ATOM     19  C   UNL     1      -8.390 -10.594  20.367  1.00  0.00    -0.003 C 
ATOM     20  C   UNL     1      -8.705 -11.128  21.764  1.00  0.00     0.004 C 
ENDBRANCH  18  19
ENDBRANCH  17  18
ENDBRANCH  16  17
ENDBRANCH  15  16
ENDBRANCH  13  14
ENDBRANCH  12  13
ENDBRANCH   1  11
TORSDOF 14
ENDMDL
MODEL 8
REMARK VINA RESULT:    -2.578      3.015      3.904
REMARK INTER + INTRA:          -6.097
REMARK INTER:                  -5.522
REMARK INTRA:                  -0.575
REMARK UNBOUND:                -1.408
REMARK SMILES CCCCCC=CCC=CCCCCCCCC(=O)[O-]
REMARK SMILES IDX 11 1 12 2 13 3 14 4 15 5 16 6 17 7 18 8 19 9 20 10 10 11
REMARK SMILES IDX 9 12 8 13 7 14 6 15 5 16 4 17 3 18 2 19 1 20
REMARK H PARENT
REMARK Flexibility Score: inf
ROOT
ATOM      1  C   UNL     1      -1.716 -15.873  18.256  1.00  0.00     0.027 C 
ENDROOT
BRANCH   1   2
ATOM      2  C   UNL     1      -0.315 -16.414  17.946  1.00  0.00     0.004 C 
BRANCH   2   3
ATOM      3  C   UNL     1      -0.222 -17.933  18.156  1.00  0.00     0.000 C 
BRANCH   3   4
ATOM      4  C   UNL     1       1.133 -18.323  18.758  1.00  0.00     0.000 C 
BRANCH   4   5
ATOM      5  C   UNL     1       2.060 -17.104  18.860  1.00  0.00     0.000 C 
BRANCH   5   6
ATOM      6  C   UNL     1       1.986 -16.402  20.229  1.00  0.00     0.006 C 
BRANCH   6   7
ATOM      7  C   UNL     1       1.951 -14.866  20.140  1.00  0.00     0.053 C 
BRANCH   7   8
ATOM      8  C   UNL     1       2.082 -14.209  21.481  1.00  0.00     0.041 C 
ATOM      9  O   UNL     1       2.125 -14.909  22.527  1.00  0.00    -0.550 OA
ATOM     10  O   UNL     1       2.125 -12.824  21.581  1.00  0.00    -0.550 OA
ENDBRANCH   7   8
ENDBRANCH   6   7
ENDBRANCH   5   6
ENDBRANCH   4   5
ENDBRANCH   3   4
ENDBRANCH   2   3
ENDBRANCH   1   2
BRANCH   1  11
ATOM     11  C   UNL     1      -2.161 -14.880  17.216  1.00  0.00    -0.031 C 
ATOM     12  C   UNL     1      -2.024 -15.121  15.904  1.00  0.00    -0.027 C 
BRANCH  12  13
ATOM     13  C   UNL     1      -2.392 -14.092  14.875  1.00  0.00     0.054 C 
BRANCH  13  14
ATOM     14  C   UNL     1      -3.870 -14.150  14.575  1.00  0.00    -0.027 C 
ATOM     15  C   UNL     1      -4.826 -13.498  15.265  1.00  0.00    -0.031 C 
BRANCH  15  16
ATOM     16  C   UNL     1      -4.573 -12.568  16.424  1.00  0.00     0.027 C 
BRANCH  16  17
ATOM     17  C   UNL     1      -5.877 -12.255  17.175  1.00  0.00     0.004 C 
BRANCH  17  18
ATOM     18  C   UNL     1      -5.764 -12.495  18.692  1.00  0.00     0.000 C 
BRANCH  18  19
ATOM     19  C   UNL     1      -4.340 -12.786  19.194  1.00  0.00    -0.003 C 
ATOM     20  C   UNL     1      -3.401 -11.587  19.063  1.00  0.00     0.004 C 
ENDBRANCH  18  19
ENDBRANCH  17  18
ENDBRANCH  16  17
ENDBRANCH  15  16
ENDBRANCH  13  14
ENDBRANCH  12  13
ENDBRANCH   1  11
TORSDOF 14
ENDMDL
MODEL 9
REMARK VINA RESULT:    -2.293      2.856      8.462
REMARK INTER + INTRA:          -5.579
REMARK INTER:                  -4.759
REMARK INTRA:                  -0.819
REMARK UNBOUND:                -1.408
REMARK SMILES CCCCCC=CCC=CCCCCCCCC(=O)[O-]
REMARK SMILES IDX 11 1 12 2 13 3 14 4 15 5 16 6 17 7 18 8 19 9 20 10 10 11
REMARK SMILES IDX 9 12 8 13 7 14 6 15 5 16 4 17 3 18 2 19 1 20
REMARK H PARENT
REMARK Flexibility Score: inf
ROOT
ATOM      1  C   UNL     1      -3.055 -13.995  14.709  1.00  0.00     0.027 C 
ENDROOT
BRANCH   1   2
ATOM      2  C   UNL     1      -3.771 -13.063  15.694  1.00  0.00     0.004 C 
BRANCH   2   3
ATOM      3  C   UNL     1      -5.300 -13.182  15.596  1.00  0.00     0.000 C 
BRANCH   3   4
ATOM      4  C   UNL     1      -5.990 -12.234  16.583  1.00  0.00     0.000 C 
BRANCH   4   5
ATOM      5  C   UNL     1      -6.242 -12.931  17.928  1.00  0.00     0.000 C 
BRANCH   5   6
ATOM      6  C   UNL     1      -6.205 -11.963  19.126  1.00  0.00     0.006 C 
BRANCH   6   7
ATOM      7  C   UNL     1      -4.972 -12.138  20.030  1.00  0.00     0.053 C 
BRANCH   7   8
ATOM      8  C   UNL     1      -3.715 -12.374  19.249  1.00  0.00     0.041 C 
ATOM      9  O   UNL     1      -3.141 -11.415  18.670  1.00  0.00    -0.550 OA
ATOM     10  O   UNL     1      -3.194 -13.657  19.134  1.00  0.00    -0.550 OA
ENDBRANCH   7   8
ENDBRANCH   6   7
ENDBRANCH   5   6
ENDBRANCH   4   5
ENDBRANCH   3   4
ENDBRANCH   2   3
ENDBRANCH   1   2
BRANCH   1  11
ATOM     11  C   UNL     1      -1.934 -14.743  15.379  1.00  0.00    -0.031 C 
ATOM     12  C   UNL     1      -2.025 -15.163  16.649  1.00  0.00    -0.027 C 
BRANCH  12  13
ATOM     13  C   UNL     1      -0.873 -15.834  17.338  1.00  0.00     0.054 C 
BRANCH  13  14
ATOM     14  C   UNL     1      -1.288 -17.184  17.870  1.00  0.00    -0.027 C 
ATOM     15  C   UNL     1      -0.451 -18.106  18.382  1.00  0.00    -0.031 C 
BRANCH  15  16
ATOM     16  C   UNL     1       1.036 -17.924  18.550  1.00  0.00     0.027 C 
BRANCH  16  17
ATOM     17  C   UNL     1       1.674 -19.163  19.197  1.00  0.00     0.004 C 
BRANCH  17  18
ATOM     18  C   UNL     1       1.007 -20.478  18.754  1.00  0.00     0.000 C 
BRANCH  18  19
ATOM     19  C   UNL     1       1.258 -20.866  17.287  1.00  0.00    -0.003 C 
ATOM     20  C   UNL     1      -0.032 -21.096  16.499  1.00  0.00     0.004 C 
ENDBRANCH  18  19
ENDBRANCH  17  18
ENDBRANCH  16  17
ENDBRANCH  15  16
ENDBRANCH  13  14
ENDBRANCH  12  13
ENDBRANCH   1  11
TORSDOF 14
ENDMDL
