MODEL 1
REMARK VINA RESULT:    -3.909      0.000      0.000
REMARK INTER + INTRA:          -4.154
REMARK INTER:                  -4.137
REMARK INTRA:                  -0.017
REMARK UNBOUND:                -0.017
REMARK SMILES O=C([O-])c1cccnc1
REMARK SMILES IDX 4 1 5 2 9 3 6 4 8 5 7 6 2 7 1 8 3 9
REMARK H PARENT
REMARK Flexibility Score: inf
ROOT
ATOM      1  C   UNL     1      13.480  28.716  -5.806  1.00  0.00     0.016 A 
ATOM      2  C   UNL     1      12.442  28.224  -6.613  1.00  0.00     0.013 A 
ATOM      3  C   UNL     1      13.255  28.828  -4.423  1.00  0.00     0.120 A 
ATOM      4  C   UNL     1      11.222  27.861  -6.042  1.00  0.00     0.021 A 
ATOM      5  N   UNL     1      12.057  28.466  -3.890  1.00  0.00    -0.264 NA
ATOM      6  C   UNL     1      11.046  27.991  -4.664  1.00  0.00     0.111 A 
ENDROOT
BRANCH   1   7
ATOM      7  C   UNL     1      14.777  29.105  -6.399  1.00  0.00     0.073 C 
ATOM      8  O   UNL     1      14.892  30.183  -7.041  1.00  0.00    -0.545 OA
ATOM      9  O   UNL     1      15.892  28.285  -6.256  1.00  0.00    -0.545 OA
ENDBRANCH   1   7
TORSDOF 1
ENDMDL
MODEL 2
REMARK VINA RESULT:    -3.830      3.534      4.222
REMARK INTER + INTRA:          -4.071
REMARK INTER:                  -4.055
REMARK INTRA:                  -0.016
REMARK UNBOUND:                -0.017
REMARK SMILES O=C([O-])c1cccnc1
REMARK SMILES IDX 4 1 5 2 9 3 6 4 8 5 7 6 2 7 1 8 3 9
REMARK H PARENT
REMARK Flexibility Score: inf
ROOT
ATOM      1  C   UNL     1      15.227  28.926  -4.584  1.00  0.00     0.016 A 
ATOM      2  C   UNL     1      15.567  28.078  -5.649  1.00  0.00     0.013 A 
ATOM      3  C   UNL     1      15.620  30.274  -4.651  1.00  0.00     0.120 A 
ATOM      4  C   UNL     1      16.280  28.575  -6.741  1.00  0.00     0.021 A 
ATOM      5  N   UNL     1      16.313  30.734  -5.727  1.00  0.00    -0.264 NA
ATOM      6  C   UNL     1      16.648  29.920  -6.762  1.00  0.00     0.111 A 
ENDROOT
BRANCH   1   7
ATOM      7  C   UNL     1      14.472  28.411  -3.420  1.00  0.00     0.073 C 
ATOM      8  O   UNL     1      13.213  28.443  -3.407  1.00  0.00    -0.545 OA
ATOM      9  O   UNL     1      15.145  27.882  -2.324  1.00  0.00    -0.545 OA
ENDBRANCH   1   7
TORSDOF 1
ENDMDL
MODEL 3
REMARK VINA RESULT:    -3.815      2.802      4.259
REMARK INTER + INTRA:          -4.055
REMARK INTER:                  -4.039
REMARK INTRA:                  -0.016
REMARK UNBOUND:                -0.017
REMARK SMILES O=C([O-])c1cccnc1
REMARK SMILES IDX 4 1 5 2 9 3 6 4 8 5 7 6 2 7 1 8 3 9
REMARK H PARENT
REMARK Flexibility Score: inf
ROOT
ATOM      1  C   UNL     1      14.614  29.176  -6.356  1.00  0.00     0.016 A 
ATOM      2  C   UNL     1      15.685  28.272  -6.428  1.00  0.00     0.013 A 
ATOM      3  C   UNL     1      14.845  30.516  -6.713  1.00  0.00     0.120 A 
ATOM      4  C   UNL     1      16.945  28.708  -6.843  1.00  0.00     0.021 A 
ATOM      5  N   UNL     1      16.082  30.916  -7.115  1.00  0.00    -0.264 NA
ATOM      6  C   UNL     1      17.125  30.048  -7.186  1.00  0.00     0.111 A 
ENDROOT
BRANCH   1   7
ATOM      7  C   UNL     1      13.276  28.726  -5.917  1.00  0.00     0.073 C 
ATOM      8  O   UNL     1      12.893  28.913  -4.731  1.00  0.00    -0.545 OA
ATOM      9  O   UNL     1      12.419  28.091  -6.809  1.00  0.00    -0.545 OA
ENDBRANCH   1   7
TORSDOF 1
ENDMDL
MODEL 4
REMARK VINA RESULT:    -3.802      1.332      2.391
REMARK INTER + INTRA:          -4.041
REMARK INTER:                  -4.022
REMARK INTRA:                  -0.019
REMARK UNBOUND:                -0.017
REMARK SMILES O=C([O-])c1cccnc1
REMARK SMILES IDX 4 1 5 2 9 3 6 4 8 5 7 6 2 7 1 8 3 9
REMARK H PARENT
REMARK Flexibility Score: inf
ROOT
ATOM      1  C   UNL     1      14.647  28.973  -5.483  1.00  0.00     0.016 A 
ATOM      2  C   UNL     1      15.026  28.820  -4.140  1.00  0.00     0.013 A 
ATOM      3  C   UNL     1      13.280  28.901  -5.804  1.00  0.00     0.120 A 
ATOM      4  C   UNL     1      14.058  28.599  -3.159  1.00  0.00     0.021 A 
ATOM      5  N   UNL     1      12.356  28.686  -4.829  1.00  0.00    -0.264 NA
ATOM      6  C   UNL     1      12.714  28.534  -3.527  1.00  0.00     0.111 A 
ENDROOT
BRANCH   1   7
ATOM      7  C   UNL     1      15.663  29.207  -6.532  1.00  0.00     0.073 C 
ATOM      8  O   UNL     1      16.630  28.412  -6.677  1.00  0.00    -0.545 OA
ATOM      9  O   UNL     1      15.565  30.309  -7.375  1.00  0.00    -0.545 OA
ENDBRANCH   1   7
TORSDOF 1
ENDMDL
MODEL 5
REMARK VINA RESULT:    -3.757      2.791      4.221
REMARK INTER + INTRA:          -3.994
REMARK INTER:                  -3.977
REMARK INTRA:                  -0.017
REMARK UNBOUND:                -0.017
REMARK SMILES O=C([O-])c1cccnc1
REMARK SMILES IDX 4 1 5 2 9 3 6 4 8 5 7 6 2 7 1 8 3 9
REMARK H PARENT
REMARK Flexibility Score: inf
ROOT
ATOM      1  C   UNL     1      14.560  29.145  -6.365  1.00  0.00     0.016 A 
ATOM      2  C   UNL     1      14.788  30.468  -6.776  1.00  0.00     0.013 A 
ATOM      3  C   UNL     1      15.641  28.247  -6.373  1.00  0.00     0.120 A 
ATOM      4  C   UNL     1      16.063  30.866  -7.182  1.00  0.00     0.021 A 
ATOM      5  N   UNL     1      16.874  28.660  -6.772  1.00  0.00    -0.264 NA
ATOM      6  C   UNL     1      17.104  29.938  -7.173  1.00  0.00     0.111 A 
ENDROOT
BRANCH   1   7
ATOM      7  C   UNL     1      13.213  28.711  -5.934  1.00  0.00     0.073 C 
ATOM      8  O   UNL     1      12.771  29.026  -4.797  1.00  0.00    -0.545 OA
ATOM      9  O   UNL     1      12.415  27.948  -6.780  1.00  0.00    -0.545 OA
ENDBRANCH   1   7
TORSDOF 1
ENDMDL
MODEL 6
REMARK VINA RESULT:    -3.707      1.730      2.097
REMARK INTER + INTRA:          -3.940
REMARK INTER:                  -3.922
REMARK INTRA:                  -0.018
REMARK UNBOUND:                -0.017
REMARK SMILES O=C([O-])c1cccnc1
REMARK SMILES IDX 4 1 5 2 9 3 6 4 8 5 7 6 2 7 1 8 3 9
REMARK H PARENT
REMARK Flexibility Score: inf
ROOT
ATOM      1  C   UNL     1      13.660  28.700  -4.460  1.00  0.00     0.016 A 
ATOM      2  C   UNL     1      13.664  28.624  -5.862  1.00  0.00     0.013 A 
ATOM      3  C   UNL     1      12.448  28.481  -3.782  1.00  0.00     0.120 A 
ATOM      4  C   UNL     1      12.485  28.339  -6.552  1.00  0.00     0.021 A 
ATOM      5  N   UNL     1      11.313  28.204  -4.478  1.00  0.00    -0.264 NA
ATOM      6  C   UNL     1      11.307  28.130  -5.835  1.00  0.00     0.111 A 
ENDROOT
BRANCH   1   7
ATOM      7  C   UNL     1      14.903  29.002  -3.717  1.00  0.00     0.073 C 
ATOM      8  O   UNL     1      15.547  30.060  -3.948  1.00  0.00    -0.545 OA
ATOM      9  O   UNL     1      15.377  28.121  -2.751  1.00  0.00    -0.545 OA
ENDBRANCH   1   7
TORSDOF 1
ENDMDL
MODEL 7
REMARK VINA RESULT:    -3.651      2.361      3.278
REMARK INTER + INTRA:          -3.881
REMARK INTER:                  -3.864
REMARK INTRA:                  -0.017
REMARK UNBOUND:                -0.017
REMARK SMILES O=C([O-])c1cccnc1
REMARK SMILES IDX 4 1 5 2 9 3 6 4 8 5 7 6 2 7 1 8 3 9
REMARK H PARENT
REMARK Flexibility Score: inf
ROOT
ATOM      1  C   UNL     1      13.354  28.998  -3.274  1.00  0.00     0.016 A 
ATOM      2  C   UNL     1      13.276  30.260  -2.662  1.00  0.00     0.013 A 
ATOM      3  C   UNL     1      12.169  28.412  -3.750  1.00  0.00     0.120 A 
ATOM      4  C   UNL     1      12.044  30.903  -2.536  1.00  0.00     0.021 A 
ATOM      5  N   UNL     1      10.980  29.060  -3.615  1.00  0.00    -0.264 NA
ATOM      6  C   UNL     1      10.894  30.280  -3.024  1.00  0.00     0.111 A 
ENDROOT
BRANCH   1   7
ATOM      7  C   UNL     1      14.654  28.307  -3.412  1.00  0.00     0.073 C 
ATOM      8  O   UNL     1      15.209  28.204  -4.538  1.00  0.00    -0.545 OA
ATOM      9  O   UNL     1      15.283  27.761  -2.298  1.00  0.00    -0.545 OA
ENDBRANCH   1   7
TORSDOF 1
ENDMDL
MODEL 8
REMARK VINA RESULT:    -3.642      1.210      1.780
REMARK INTER + INTRA:          -3.871
REMARK INTER:                  -3.852
REMARK INTRA:                  -0.020
REMARK UNBOUND:                -0.017
REMARK SMILES O=C([O-])c1cccnc1
REMARK SMILES IDX 4 1 5 2 9 3 6 4 8 5 7 6 2 7 1 8 3 9
REMARK H PARENT
REMARK Flexibility Score: inf
ROOT
ATOM      1  C   UNL     1      13.659  28.754  -5.346  1.00  0.00     0.016 A 
ATOM      2  C   UNL     1      13.140  28.713  -4.043  1.00  0.00     0.013 A 
ATOM      3  C   UNL     1      12.802  28.448  -6.417  1.00  0.00     0.120 A 
ATOM      4  C   UNL     1      11.803  28.374  -3.831  1.00  0.00     0.021 A 
ATOM      5  N   UNL     1      11.502  28.121  -6.184  1.00  0.00    -0.264 NA
ATOM      6  C   UNL     1      10.991  28.077  -4.926  1.00  0.00     0.111 A 
ENDROOT
BRANCH   1   7
ATOM      7  C   UNL     1      15.075  29.111  -5.583  1.00  0.00     0.073 C 
ATOM      8  O   UNL     1      15.586  30.114  -5.019  1.00  0.00    -0.545 OA
ATOM      9  O   UNL     1      15.862  28.341  -6.433  1.00  0.00    -0.545 OA
ENDBRANCH   1   7
TORSDOF 1
ENDMDL
MODEL 9
REMARK VINA RESULT:    -3.552      3.291      4.199
REMARK INTER + INTRA:          -3.776
REMARK INTER:                  -3.758
REMARK INTRA:                  -0.018
REMARK UNBOUND:                -0.017
REMARK SMILES O=C([O-])c1cccnc1
REMARK SMILES IDX 4 1 5 2 9 3 6 4 8 5 7 6 2 7 1 8 3 9
REMARK H PARENT
REMARK Flexibility Score: inf
ROOT
ATOM      1  C   UNL     1      12.899  29.209  -3.798  1.00  0.00     0.016 A 
ATOM      2  C   UNL     1      13.987  28.716  -3.060  1.00  0.00     0.013 A 
ATOM      3  C   UNL     1      12.990  29.211  -5.201  1.00  0.00     0.120 A 
ATOM      4  C   UNL     1      15.124  28.245  -3.717  1.00  0.00     0.021 A 
ATOM      5  N   UNL     1      14.109  28.745  -5.817  1.00  0.00    -0.264 NA
ATOM      6  C   UNL     1      15.167  28.267  -5.111  1.00  0.00     0.111 A 
ENDROOT
BRANCH   1   7
ATOM      7  C   UNL     1      11.689  29.713  -3.113  1.00  0.00     0.073 C 
ATOM      8  O   UNL     1      11.766  30.664  -2.290  1.00  0.00    -0.545 OA
ATOM      9  O   UNL     1      10.446  29.144  -3.371  1.00  0.00    -0.545 OA
ENDBRANCH   1   7
TORSDOF 1
ENDMDL
