MODEL 1
REMARK VINA RESULT:    -4.376      0.000      0.000
REMARK INTER + INTRA:          -9.200
REMARK INTER:                  -8.086
REMARK INTRA:                  -1.114
REMARK UNBOUND:                -1.114
REMARK SMILES CCCCCCCCCCCCCCCCO
REMARK SMILES IDX 9 1 8 2 7 3 6 4 5 5 4 6 3 7 2 8 1 9 10 10 11 11 12 12 13 13
REMARK SMILES IDX 14 14 15 15 16 16 17 17
REMARK H PARENT 17 18
REMARK Flexibility Score: inf
ROOT
ATOM      1  C   UNL     1      28.228  26.272  21.453  1.00  0.00     0.000 C 
ENDROOT
BRANCH   1   2
ATOM      2  C   UNL     1      29.726  26.516  21.690  1.00  0.00    -0.000 C 
BRANCH   2   3
ATOM      3  C   UNL     1      30.489  25.190  21.793  1.00  0.00    -0.000 C 
BRANCH   3   4
ATOM      4  C   UNL     1      31.698  25.321  22.728  1.00  0.00    -0.000 C 
BRANCH   4   5
ATOM      5  C   UNL     1      31.713  26.693  23.417  1.00  0.00    -0.000 C 
BRANCH   5   6
ATOM      6  C   UNL     1      33.104  27.353  23.411  1.00  0.00    -0.000 C 
BRANCH   6   7
ATOM      7  C   UNL     1      33.121  28.831  22.981  1.00  0.00    -0.000 C 
BRANCH   7   8
ATOM      8  C   UNL     1      32.321  29.090  21.695  1.00  0.00    -0.003 C 
ATOM      9  C   UNL     1      31.165  30.053  21.952  1.00  0.00     0.004 C 
ENDBRANCH   7   8
ENDBRANCH   6   7
ENDBRANCH   5   6
ENDBRANCH   4   5
ENDBRANCH   3   4
ENDBRANCH   2   3
ENDBRANCH   1   2
BRANCH   1  10
ATOM     10  C   UNL     1      27.366  26.651  22.667  1.00  0.00     0.000 C 
BRANCH  10  11
ATOM     11  C   UNL     1      26.219  25.658  22.911  1.00  0.00     0.000 C 
BRANCH  11  12
ATOM     12  C   UNL     1      25.841  25.611  24.399  1.00  0.00     0.000 C 
BRANCH  12  13
ATOM     13  C   UNL     1      25.909  26.990  25.080  1.00  0.00     0.000 C 
BRANCH  13  14
ATOM     14  C   UNL     1      24.772  27.958  24.706  1.00  0.00     0.002 C 
BRANCH  14  15
ATOM     15  C   UNL     1      25.083  29.418  25.072  1.00  0.00     0.028 C 
BRANCH  15  16
ATOM     16  C   UNL     1      24.514  30.393  24.041  1.00  0.00     0.156 C 
BRANCH  16  17
ATOM     17  O   UNL     1      24.581  29.833  22.759  1.00  0.00    -0.396 OA
ATOM     18  H   UNL     1      25.510  29.979  22.442  1.00  0.00     0.210 HD
ENDBRANCH  16  17
ENDBRANCH  15  16
ENDBRANCH  14  15
ENDBRANCH  13  14
ENDBRANCH  12  13
ENDBRANCH  11  12
ENDBRANCH  10  11
ENDBRANCH   1  10
TORSDOF 15
ENDMDL
MODEL 2
REMARK VINA RESULT:    -4.370      0.995      2.152
REMARK INTER + INTRA:          -9.188
REMARK INTER:                  -7.569
REMARK INTRA:                  -1.619
REMARK UNBOUND:                -1.114
REMARK SMILES CCCCCCCCCCCCCCCCO
REMARK SMILES IDX 9 1 8 2 7 3 6 4 5 5 4 6 3 7 2 8 1 9 10 10 11 11 12 12 13 13
REMARK SMILES IDX 14 14 15 15 16 16 17 17
REMARK H PARENT 17 18
REMARK Flexibility Score: inf
ROOT
ATOM      1  C   UNL     1      30.276  26.030  22.670  1.00  0.00     0.000 C 
ENDROOT
BRANCH   1   2
ATOM      2  C   UNL     1      31.637  25.327  22.545  1.00  0.00    -0.000 C 
BRANCH   2   3
ATOM      3  C   UNL     1      32.571  25.731  23.693  1.00  0.00    -0.000 C 
BRANCH   3   4
ATOM      4  C   UNL     1      31.989  26.907  24.487  1.00  0.00    -0.000 C 
BRANCH   4   5
ATOM      5  C   UNL     1      33.068  27.960  24.779  1.00  0.00    -0.000 C 
BRANCH   5   6
ATOM      6  C   UNL     1      32.744  29.336  24.169  1.00  0.00    -0.000 C 
BRANCH   6   7
ATOM      7  C   UNL     1      31.407  29.413  23.410  1.00  0.00    -0.000 C 
BRANCH   7   8
ATOM      8  C   UNL     1      31.588  29.616  21.898  1.00  0.00    -0.003 C 
ATOM      9  C   UNL     1      32.903  29.010  21.416  1.00  0.00     0.004 C 
ENDBRANCH   7   8
ENDBRANCH   6   7
ENDBRANCH   5   6
ENDBRANCH   4   5
ENDBRANCH   3   4
ENDBRANCH   2   3
ENDBRANCH   1   2
BRANCH   1  10
ATOM     10  C   UNL     1      29.705  26.462  21.310  1.00  0.00     0.000 C 
BRANCH  10  11
ATOM     11  C   UNL     1      28.184  26.269  21.219  1.00  0.00     0.000 C 
BRANCH  11  12
ATOM     12  C   UNL     1      27.476  26.915  22.420  1.00  0.00     0.000 C 
BRANCH  12  13
ATOM     13  C   UNL     1      26.213  26.150  22.855  1.00  0.00     0.000 C 
BRANCH  13  14
ATOM     14  C   UNL     1      25.404  26.818  23.982  1.00  0.00     0.002 C 
BRANCH  14  15
ATOM     15  C   UNL     1      25.771  28.297  24.189  1.00  0.00     0.028 C 
BRANCH  15  16
ATOM     16  C   UNL     1      24.565  29.213  23.982  1.00  0.00     0.156 C 
BRANCH  16  17
ATOM     17  O   UNL     1      24.633  29.825  22.724  1.00  0.00    -0.396 OA
ATOM     18  H   UNL     1      23.738  29.709  22.312  1.00  0.00     0.210 HD
ENDBRANCH  16  17
ENDBRANCH  15  16
ENDBRANCH  14  15
ENDBRANCH  13  14
ENDBRANCH  12  13
ENDBRANCH  11  12
ENDBRANCH  10  11
ENDBRANCH   1  10
TORSDOF 15
ENDMDL
MODEL 3
REMARK VINA RESULT:    -4.198      5.927      7.607
REMARK INTER + INTRA:          -8.870
REMARK INTER:                  -8.367
REMARK INTRA:                  -0.503
REMARK UNBOUND:                -1.114
REMARK SMILES CCCCCCCCCCCCCCCCO
REMARK SMILES IDX 9 1 8 2 7 3 6 4 5 5 4 6 3 7 2 8 1 9 10 10 11 11 12 12 13 13
REMARK SMILES IDX 14 14 15 15 16 16 17 17
REMARK H PARENT 17 18
REMARK Flexibility Score: inf
ROOT
ATOM      1  C   UNL     1      24.224  23.783  22.874  1.00  0.00     0.000 C 
ENDROOT
BRANCH   1   2
ATOM      2  C   UNL     1      25.075  24.787  23.667  1.00  0.00    -0.000 C 
BRANCH   2   3
ATOM      3  C   UNL     1      26.430  25.018  22.985  1.00  0.00    -0.000 C 
BRANCH   3   4
ATOM      4  C   UNL     1      26.760  26.513  22.909  1.00  0.00    -0.000 C 
BRANCH   4   5
ATOM      5  C   UNL     1      28.257  26.733  22.644  1.00  0.00    -0.000 C 
BRANCH   5   6
ATOM      6  C   UNL     1      28.935  25.517  21.986  1.00  0.00    -0.000 C 
BRANCH   6   7
ATOM      7  C   UNL     1      30.468  25.607  21.877  1.00  0.00    -0.000 C 
BRANCH   7   8
ATOM      8  C   UNL     1      31.119  26.249  23.111  1.00  0.00    -0.003 C 
ATOM      9  C   UNL     1      32.255  25.381  23.646  1.00  0.00     0.004 C 
ENDBRANCH   7   8
ENDBRANCH   6   7
ENDBRANCH   5   6
ENDBRANCH   4   5
ENDBRANCH   3   4
ENDBRANCH   2   3
ENDBRANCH   1   2
BRANCH   1  10
ATOM     10  C   UNL     1      22.799  23.645  23.431  1.00  0.00     0.000 C 
BRANCH  10  11
ATOM     11  C   UNL     1      21.842  22.957  22.445  1.00  0.00     0.000 C 
BRANCH  11  12
ATOM     12  C   UNL     1      22.341  21.549  22.087  1.00  0.00     0.000 C 
BRANCH  12  13
ATOM     13  C   UNL     1      21.513  20.432  22.748  1.00  0.00     0.000 C 
BRANCH  13  14
ATOM     14  C   UNL     1      20.774  19.503  21.769  1.00  0.00     0.002 C 
BRANCH  14  15
ATOM     15  C   UNL     1      20.257  18.217  22.435  1.00  0.00     0.028 C 
BRANCH  15  16
ATOM     16  C   UNL     1      19.150  17.559  21.611  1.00  0.00     0.156 C 
BRANCH  16  17
ATOM     17  O   UNL     1      19.561  17.415  20.279  1.00  0.00    -0.396 OA
ATOM     18  H   UNL     1      19.060  18.096  19.761  1.00  0.00     0.210 HD
ENDBRANCH  16  17
ENDBRANCH  15  16
ENDBRANCH  14  15
ENDBRANCH  13  14
ENDBRANCH  12  13
ENDBRANCH  11  12
ENDBRANCH  10  11
ENDBRANCH   1  10
TORSDOF 15
ENDMDL
MODEL 4
REMARK VINA RESULT:    -4.170      1.732      5.963
REMARK INTER + INTRA:          -8.818
REMARK INTER:                  -7.462
REMARK INTRA:                  -1.356
REMARK UNBOUND:                -1.114
REMARK SMILES CCCCCCCCCCCCCCCCO
REMARK SMILES IDX 9 1 8 2 7 3 6 4 5 5 4 6 3 7 2 8 1 9 10 10 11 11 12 12 13 13
REMARK SMILES IDX 14 14 15 15 16 16 17 17
REMARK H PARENT 17 18
REMARK Flexibility Score: inf
ROOT
ATOM      1  C   UNL     1      29.709  25.926  20.888  1.00  0.00     0.000 C 
ENDROOT
BRANCH   1   2
ATOM      2  C   UNL     1      28.264  26.343  21.205  1.00  0.00    -0.000 C 
BRANCH   2   3
ATOM      3  C   UNL     1      27.967  26.200  22.703  1.00  0.00    -0.000 C 
BRANCH   3   4
ATOM      4  C   UNL     1      26.748  25.300  22.939  1.00  0.00    -0.000 C 
BRANCH   4   5
ATOM      5  C   UNL     1      25.648  26.052  23.702  1.00  0.00    -0.000 C 
BRANCH   5   6
ATOM      6  C   UNL     1      25.909  27.567  23.792  1.00  0.00    -0.000 C 
BRANCH   6   7
ATOM      7  C   UNL     1      24.775  28.386  24.437  1.00  0.00    -0.000 C 
BRANCH   7   8
ATOM      8  C   UNL     1      24.488  29.699  23.694  1.00  0.00    -0.003 C 
ATOM      9  C   UNL     1      24.578  30.895  24.639  1.00  0.00     0.004 C 
ENDBRANCH   7   8
ENDBRANCH   6   7
ENDBRANCH   5   6
ENDBRANCH   4   5
ENDBRANCH   3   4
ENDBRANCH   2   3
ENDBRANCH   1   2
BRANCH   1  10
ATOM     10  C   UNL     1      30.356  25.122  22.027  1.00  0.00     0.000 C 
BRANCH  10  11
ATOM     11  C   UNL     1      31.744  25.656  22.413  1.00  0.00     0.000 C 
BRANCH  11  12
ATOM     12  C   UNL     1      31.752  26.169  23.861  1.00  0.00     0.000 C 
BRANCH  12  13
ATOM     13  C   UNL     1      31.603  27.698  23.958  1.00  0.00     0.000 C 
BRANCH  13  14
ATOM     14  C   UNL     1      32.041  28.475  22.703  1.00  0.00     0.002 C 
BRANCH  14  15
ATOM     15  C   UNL     1      30.881  29.222  22.024  1.00  0.00     0.028 C 
BRANCH  15  16
ATOM     16  C   UNL     1      30.644  30.594  22.656  1.00  0.00     0.156 C 
BRANCH  16  17
ATOM     17  O   UNL     1      30.300  31.527  21.669  1.00  0.00    -0.396 OA
ATOM     18  H   UNL     1      31.047  31.526  21.017  1.00  0.00     0.210 HD
ENDBRANCH  16  17
ENDBRANCH  15  16
ENDBRANCH  14  15
ENDBRANCH  13  14
ENDBRANCH  12  13
ENDBRANCH  11  12
ENDBRANCH  10  11
ENDBRANCH   1  10
TORSDOF 15
ENDMDL
MODEL 5
REMARK VINA RESULT:    -4.135      1.646      4.100
REMARK INTER + INTRA:          -8.754
REMARK INTER:                  -7.154
REMARK INTRA:                  -1.600
REMARK UNBOUND:                -1.114
REMARK SMILES CCCCCCCCCCCCCCCCO
REMARK SMILES IDX 9 1 8 2 7 3 6 4 5 5 4 6 3 7 2 8 1 9 10 10 11 11 12 12 13 13
REMARK SMILES IDX 14 14 15 15 16 16 17 17
REMARK H PARENT 17 18
REMARK Flexibility Score: inf
ROOT
ATOM      1  C   UNL     1      30.897  29.953  22.189  1.00  0.00     0.000 C 
ENDROOT
BRANCH   1   2
ATOM      2  C   UNL     1      32.067  29.067  21.732  1.00  0.00    -0.000 C 
BRANCH   2   3
ATOM      3  C   UNL     1      32.759  28.409  22.932  1.00  0.00    -0.000 C 
BRANCH   3   4
ATOM      4  C   UNL     1      32.713  26.880  22.824  1.00  0.00    -0.000 C 
BRANCH   4   5
ATOM      5  C   UNL     1      31.361  26.336  23.309  1.00  0.00    -0.000 C 
BRANCH   5   6
ATOM      6  C   UNL     1      30.567  25.624  22.198  1.00  0.00    -0.000 C 
BRANCH   6   7
ATOM      7  C   UNL     1      29.368  26.417  21.645  1.00  0.00    -0.000 C 
BRANCH   7   8
ATOM      8  C   UNL     1      28.542  27.097  22.746  1.00  0.00    -0.003 C 
ATOM      9  C   UNL     1      27.090  26.626  22.714  1.00  0.00     0.004 C 
ENDBRANCH   7   8
ENDBRANCH   6   7
ENDBRANCH   5   6
ENDBRANCH   4   5
ENDBRANCH   3   4
ENDBRANCH   2   3
ENDBRANCH   1   2
BRANCH   1  10
ATOM     10  C   UNL     1      30.887  30.181  23.709  1.00  0.00     0.000 C 
BRANCH  10  11
ATOM     11  C   UNL     1      29.466  30.340  24.273  1.00  0.00     0.000 C 
BRANCH  11  12
ATOM     12  C   UNL     1      28.935  31.760  24.032  1.00  0.00     0.000 C 
BRANCH  12  13
ATOM     13  C   UNL     1      27.589  32.025  24.732  1.00  0.00     0.000 C 
BRANCH  13  14
ATOM     14  C   UNL     1      26.674  30.795  24.870  1.00  0.00     0.002 C 
BRANCH  14  15
ATOM     15  C   UNL     1      25.188  31.124  24.650  1.00  0.00     0.028 C 
BRANCH  15  16
ATOM     16  C   UNL     1      24.424  29.931  24.076  1.00  0.00     0.156 C 
BRANCH  16  17
ATOM     17  O   UNL     1      24.641  29.839  22.694  1.00  0.00    -0.396 OA
ATOM     18  H   UNL     1      24.761  30.769  22.372  1.00  0.00     0.210 HD
ENDBRANCH  16  17
ENDBRANCH  15  16
ENDBRANCH  14  15
ENDBRANCH  13  14
ENDBRANCH  12  13
ENDBRANCH  11  12
ENDBRANCH  10  11
ENDBRANCH   1  10
TORSDOF 15
ENDMDL
MODEL 6
REMARK VINA RESULT:    -4.127      4.647      8.943
REMARK INTER + INTRA:          -8.739
REMARK INTER:                  -7.801
REMARK INTRA:                  -0.938
REMARK UNBOUND:                -1.114
REMARK SMILES CCCCCCCCCCCCCCCCO
REMARK SMILES IDX 9 1 8 2 7 3 6 4 5 5 4 6 3 7 2 8 1 9 10 10 11 11 12 12 13 13
REMARK SMILES IDX 14 14 15 15 16 16 17 17
REMARK H PARENT 17 18
REMARK Flexibility Score: inf
ROOT
ATOM      1  C   UNL     1      25.912  24.991  23.255  1.00  0.00     0.000 C 
ENDROOT
BRANCH   1   2
ATOM      2  C   UNL     1      24.514  24.590  23.750  1.00  0.00    -0.000 C 
BRANCH   2   3
ATOM      3  C   UNL     1      23.897  23.516  22.846  1.00  0.00    -0.000 C 
BRANCH   3   4
ATOM      4  C   UNL     1      22.377  23.444  23.034  1.00  0.00    -0.000 C 
BRANCH   4   5
ATOM      5  C   UNL     1      21.740  22.498  22.006  1.00  0.00    -0.000 C 
BRANCH   5   6
ATOM      6  C   UNL     1      22.387  21.100  21.994  1.00  0.00    -0.000 C 
BRANCH   6   7
ATOM      7  C   UNL     1      21.569  19.998  22.690  1.00  0.00    -0.000 C 
BRANCH   7   8
ATOM      8  C   UNL     1      20.519  19.360  21.769  1.00  0.00    -0.003 C 
ATOM      9  C   UNL     1      19.802  18.207  22.468  1.00  0.00     0.004 C 
ENDBRANCH   7   8
ENDBRANCH   6   7
ENDBRANCH   5   6
ENDBRANCH   4   5
ENDBRANCH   3   4
ENDBRANCH   2   3
ENDBRANCH   1   2
BRANCH   1  10
ATOM     10  C   UNL     1      25.955  26.420  22.693  1.00  0.00     0.000 C 
BRANCH  10  11
ATOM     11  C   UNL     1      26.505  27.437  23.705  1.00  0.00     0.000 C 
BRANCH  11  12
ATOM     12  C   UNL     1      27.912  27.040  24.173  1.00  0.00     0.000 C 
BRANCH  12  13
ATOM     13  C   UNL     1      29.015  27.457  23.182  1.00  0.00     0.000 C 
BRANCH  13  14
ATOM     14  C   UNL     1      29.954  26.321  22.738  1.00  0.00     0.002 C 
BRANCH  14  15
ATOM     15  C   UNL     1      29.511  25.657  21.424  1.00  0.00     0.028 C 
BRANCH  15  16
ATOM     16  C   UNL     1      28.967  26.681  20.427  1.00  0.00     0.156 C 
BRANCH  16  17
ATOM     17  O   UNL     1      27.847  26.162  19.765  1.00  0.00    -0.396 OA
ATOM     18  H   UNL     1      28.017  25.191  19.654  1.00  0.00     0.210 HD
ENDBRANCH  16  17
ENDBRANCH  15  16
ENDBRANCH  14  15
ENDBRANCH  13  14
ENDBRANCH  12  13
ENDBRANCH  11  12
ENDBRANCH  10  11
ENDBRANCH   1  10
TORSDOF 15
ENDMDL
MODEL 7
REMARK VINA RESULT:    -4.089      6.006     10.238
REMARK INTER + INTRA:          -8.669
REMARK INTER:                  -8.126
REMARK INTRA:                  -0.543
REMARK UNBOUND:                -1.114
REMARK SMILES CCCCCCCCCCCCCCCCO
REMARK SMILES IDX 9 1 8 2 7 3 6 4 5 5 4 6 3 7 2 8 1 9 10 10 11 11 12 12 13 13
REMARK SMILES IDX 14 14 15 15 16 16 17 17
REMARK H PARENT 17 18
REMARK Flexibility Score: inf
ROOT
ATOM      1  C   UNL     1      24.082  23.638  22.889  1.00  0.00     0.000 C 
ENDROOT
BRANCH   1   2
ATOM      2  C   UNL     1      22.695  23.075  22.539  1.00  0.00    -0.000 C 
BRANCH   2   3
ATOM      3  C   UNL     1      22.793  21.607  22.103  1.00  0.00    -0.000 C 
BRANCH   3   4
ATOM      4  C   UNL     1      21.412  21.047  21.744  1.00  0.00    -0.000 C 
BRANCH   4   5
ATOM      5  C   UNL     1      21.189  19.674  22.398  1.00  0.00    -0.000 C 
BRANCH   5   6
ATOM      6  C   UNL     1      20.326  18.733  21.537  1.00  0.00    -0.000 C 
BRANCH   6   7
ATOM      7  C   UNL     1      19.473  17.726  22.330  1.00  0.00    -0.000 C 
BRANCH   7   8
ATOM      8  C   UNL     1      19.630  17.875  23.851  1.00  0.00    -0.003 C 
ATOM      9  C   UNL     1      20.005  16.543  24.496  1.00  0.00     0.004 C 
ENDBRANCH   7   8
ENDBRANCH   6   7
ENDBRANCH   5   6
ENDBRANCH   4   5
ENDBRANCH   3   4
ENDBRANCH   2   3
ENDBRANCH   1   2
BRANCH   1  10
ATOM     10  C   UNL     1      24.063  24.515  24.151  1.00  0.00     0.000 C 
BRANCH  10  11
ATOM     11  C   UNL     1      25.364  25.310  24.337  1.00  0.00     0.000 C 
BRANCH  11  12
ATOM     12  C   UNL     1      25.854  25.884  22.999  1.00  0.00     0.000 C 
BRANCH  12  13
ATOM     13  C   UNL     1      27.304  26.396  23.060  1.00  0.00     0.000 C 
BRANCH  13  14
ATOM     14  C   UNL     1      28.306  25.619  22.188  1.00  0.00     0.002 C 
BRANCH  14  15
ATOM     15  C   UNL     1      29.325  26.531  21.485  1.00  0.00     0.028 C 
BRANCH  15  16
ATOM     16  C   UNL     1      29.129  26.535  19.969  1.00  0.00     0.156 C 
BRANCH  16  17
ATOM     17  O   UNL     1      27.829  26.124  19.649  1.00  0.00    -0.396 OA
ATOM     18  H   UNL     1      27.369  26.923  19.285  1.00  0.00     0.210 HD
ENDBRANCH  16  17
ENDBRANCH  15  16
ENDBRANCH  14  15
ENDBRANCH  13  14
ENDBRANCH  12  13
ENDBRANCH  11  12
ENDBRANCH  10  11
ENDBRANCH   1  10
TORSDOF 15
ENDMDL
MODEL 8
REMARK VINA RESULT:    -4.075      5.389      6.960
REMARK INTER + INTRA:          -8.643
REMARK INTER:                  -7.665
REMARK INTRA:                  -0.978
REMARK UNBOUND:                -1.114
REMARK SMILES CCCCCCCCCCCCCCCCO
REMARK SMILES IDX 9 1 8 2 7 3 6 4 5 5 4 6 3 7 2 8 1 9 10 10 11 11 12 12 13 13
REMARK SMILES IDX 14 14 15 15 16 16 17 17
REMARK H PARENT 17 18
REMARK Flexibility Score: inf
ROOT
ATOM      1  C   UNL     1      25.636  24.596  23.098  1.00  0.00     0.000 C 
ENDROOT
BRANCH   1   2
ATOM      2  C   UNL     1      25.884  26.110  23.191  1.00  0.00    -0.000 C 
BRANCH   2   3
ATOM      3  C   UNL     1      26.977  26.424  24.220  1.00  0.00    -0.000 C 
BRANCH   3   4
ATOM      4  C   UNL     1      27.472  27.868  24.073  1.00  0.00    -0.000 C 
BRANCH   4   5
ATOM      5  C   UNL     1      29.005  27.934  24.151  1.00  0.00    -0.000 C 
BRANCH   5   6
ATOM      6  C   UNL     1      29.684  27.762  22.780  1.00  0.00    -0.000 C 
BRANCH   6   7
ATOM      7  C   UNL     1      30.345  26.391  22.548  1.00  0.00    -0.000 C 
BRANCH   7   8
ATOM      8  C   UNL     1      29.502  25.463  21.662  1.00  0.00    -0.003 C 
ATOM      9  C   UNL     1      28.695  26.261  20.641  1.00  0.00     0.004 C 
ENDBRANCH   7   8
ENDBRANCH   6   7
ENDBRANCH   5   6
ENDBRANCH   4   5
ENDBRANCH   3   4
ENDBRANCH   2   3
ENDBRANCH   1   2
BRANCH   1  10
ATOM     10  C   UNL     1      24.151  24.229  23.246  1.00  0.00     0.000 C 
BRANCH  10  11
ATOM     11  C   UNL     1      23.792  22.918  22.530  1.00  0.00     0.000 C 
BRANCH  11  12
ATOM     12  C   UNL     1      22.278  22.663  22.579  1.00  0.00     0.000 C 
BRANCH  12  13
ATOM     13  C   UNL     1      21.849  21.435  21.754  1.00  0.00     0.000 C 
BRANCH  13  14
ATOM     14  C   UNL     1      21.451  20.201  22.584  1.00  0.00     0.002 C 
BRANCH  14  15
ATOM     15  C   UNL     1      20.542  19.229  21.814  1.00  0.00     0.028 C 
BRANCH  15  16
ATOM     16  C   UNL     1      20.100  18.055  22.689  1.00  0.00     0.156 C 
BRANCH  16  17
ATOM     17  O   UNL     1      21.169  17.173  22.890  1.00  0.00    -0.396 OA
ATOM     18  H   UNL     1      20.923  16.616  23.672  1.00  0.00     0.210 HD
ENDBRANCH  16  17
ENDBRANCH  15  16
ENDBRANCH  14  15
ENDBRANCH  13  14
ENDBRANCH  12  13
ENDBRANCH  11  12
ENDBRANCH  10  11
ENDBRANCH   1  10
TORSDOF 15
ENDMDL
MODEL 9
REMARK VINA RESULT:    -4.060      2.205      2.928
REMARK INTER + INTRA:          -8.615
REMARK INTER:                  -6.998
REMARK INTRA:                  -1.617
REMARK UNBOUND:                -1.114
REMARK SMILES CCCCCCCCCCCCCCCCO
REMARK SMILES IDX 9 1 8 2 7 3 6 4 5 5 4 6 3 7 2 8 1 9 10 10 11 11 12 12 13 13
REMARK SMILES IDX 14 14 15 15 16 16 17 17
REMARK H PARENT 17 18
REMARK Flexibility Score: inf
ROOT
ATOM      1  C   UNL     1      29.193  25.640  22.206  1.00  0.00     0.000 C 
ENDROOT
BRANCH   1   2
ATOM      2  C   UNL     1      30.644  25.491  21.719  1.00  0.00    -0.000 C 
BRANCH   2   3
ATOM      3  C   UNL     1      31.602  25.303  22.902  1.00  0.00    -0.000 C 
BRANCH   3   4
ATOM      4  C   UNL     1      32.791  26.267  22.805  1.00  0.00    -0.000 C 
BRANCH   4   5
ATOM      5  C   UNL     1      32.566  27.506  23.684  1.00  0.00    -0.000 C 
BRANCH   5   6
ATOM      6  C   UNL     1      32.895  28.825  22.959  1.00  0.00    -0.000 C 
BRANCH   6   7
ATOM      7  C   UNL     1      32.009  29.135  21.739  1.00  0.00    -0.000 C 
BRANCH   7   8
ATOM      8  C   UNL     1      30.922  30.178  22.038  1.00  0.00    -0.003 C 
ATOM      9  C   UNL     1      30.916  30.555  23.518  1.00  0.00     0.004 C 
ENDBRANCH   7   8
ENDBRANCH   6   7
ENDBRANCH   5   6
ENDBRANCH   4   5
ENDBRANCH   3   4
ENDBRANCH   2   3
ENDBRANCH   1   2
BRANCH   1  10
ATOM     10  C   UNL     1      28.802  27.104  22.462  1.00  0.00     0.000 C 
BRANCH  10  11
ATOM     11  C   UNL     1      28.870  27.483  23.949  1.00  0.00     0.000 C 
BRANCH  11  12
ATOM     12  C   UNL     1      27.464  27.724  24.519  1.00  0.00     0.000 C 
BRANCH  12  13
ATOM     13  C   UNL     1      26.762  26.426  24.957  1.00  0.00     0.000 C 
BRANCH  13  14
ATOM     14  C   UNL     1      25.251  26.374  24.670  1.00  0.00     0.002 C 
BRANCH  14  15
ATOM     15  C   UNL     1      24.751  24.958  24.339  1.00  0.00     0.028 C 
BRANCH  15  16
ATOM     16  C   UNL     1      25.236  24.494  22.966  1.00  0.00     0.156 C 
BRANCH  16  17
ATOM     17  O   UNL     1      24.622  23.283  22.620  1.00  0.00    -0.396 OA
ATOM     18  H   UNL     1      25.260  22.810  22.027  1.00  0.00     0.210 HD
ENDBRANCH  16  17
ENDBRANCH  15  16
ENDBRANCH  14  15
ENDBRANCH  13  14
ENDBRANCH  12  13
ENDBRANCH  11  12
ENDBRANCH  10  11
ENDBRANCH   1  10
TORSDOF 15
ENDMDL
