MODEL 1
REMARK VINA RESULT:    -3.882      0.000      0.000
REMARK INTER + INTRA:          -5.402
REMARK INTER:                  -5.244
REMARK INTRA:                  -0.159
REMARK UNBOUND:                -0.159
REMARK SMILES CCCCCCCC(=O)[O-]
REMARK SMILES IDX 5 1 6 2 7 3 8 4 9 5 10 6 4 7 3 8 2 9 1 10
REMARK H PARENT
REMARK Flexibility Score: inf
ROOT
ATOM      1  C   UNL     1      34.521  28.830  28.928  1.00  0.00     0.000 C 
ENDROOT
BRANCH   1   2
ATOM      2  C   UNL     1      33.955  27.403  28.895  1.00  0.00     0.006 C 
BRANCH   2   3
ATOM      3  C   UNL     1      32.512  27.363  28.374  1.00  0.00     0.053 C 
BRANCH   3   4
ATOM      4  C   UNL     1      32.439  26.816  26.982  1.00  0.00     0.041 C 
ATOM      5  O   UNL     1      32.667  27.565  25.995  1.00  0.00    -0.550 OA
ATOM      6  O   UNL     1      32.150  25.473  26.775  1.00  0.00    -0.550 OA
ENDBRANCH   3   4
ENDBRANCH   2   3
ENDBRANCH   1   2
BRANCH   1   7
ATOM      7  C   UNL     1      36.012  28.821  29.285  1.00  0.00     0.000 C 
BRANCH   7   8
ATOM      8  C   UNL     1      36.551  30.248  29.441  1.00  0.00    -0.000 C 
BRANCH   8   9
ATOM      9  C   UNL     1      37.256  30.714  28.163  1.00  0.00    -0.003 C 
ATOM     10  C   UNL     1      37.601  32.199  28.232  1.00  0.00     0.004 C 
ENDBRANCH   8   9
ENDBRANCH   7   8
ENDBRANCH   1   7
TORSDOF 6
ENDMDL
MODEL 2
REMARK VINA RESULT:    -3.784     12.338     13.450
REMARK INTER + INTRA:          -5.270
REMARK INTER:                  -5.118
REMARK INTRA:                  -0.152
REMARK UNBOUND:                -0.159
REMARK SMILES CCCCCCCC(=O)[O-]
REMARK SMILES IDX 5 1 6 2 7 3 8 4 9 5 10 6 4 7 3 8 2 9 1 10
REMARK H PARENT
REMARK Flexibility Score: inf
ROOT
ATOM      1  C   UNL     1      38.910  26.039  17.362  1.00  0.00     0.000 C 
ENDROOT
BRANCH   1   2
ATOM      2  C   UNL     1      40.087  27.014  17.216  1.00  0.00     0.006 C 
BRANCH   2   3
ATOM      3  C   UNL     1      41.336  26.335  16.637  1.00  0.00     0.053 C 
BRANCH   3   4
ATOM      4  C   UNL     1      42.070  25.543  17.675  1.00  0.00     0.041 C 
ATOM      5  O   UNL     1      42.878  24.641  17.328  1.00  0.00    -0.550 OA
ATOM      6  O   UNL     1      41.888  25.823  19.022  1.00  0.00    -0.550 OA
ENDBRANCH   3   4
ENDBRANCH   2   3
ENDBRANCH   1   2
BRANCH   1   7
ATOM      7  C   UNL     1      37.876  26.256  16.250  1.00  0.00     0.000 C 
BRANCH   7   8
ATOM      8  C   UNL     1      36.573  25.507  16.555  1.00  0.00    -0.000 C 
BRANCH   8   9
ATOM      9  C   UNL     1      35.446  25.961  15.620  1.00  0.00    -0.003 C 
ATOM     10  C   UNL     1      35.060  27.413  15.885  1.00  0.00     0.004 C 
ENDBRANCH   8   9
ENDBRANCH   7   8
ENDBRANCH   1   7
TORSDOF 6
ENDMDL
MODEL 3
REMARK VINA RESULT:    -3.775     12.496     13.452
REMARK INTER + INTRA:          -5.258
REMARK INTER:                  -5.109
REMARK INTRA:                  -0.149
REMARK UNBOUND:                -0.159
REMARK SMILES CCCCCCCC(=O)[O-]
REMARK SMILES IDX 5 1 6 2 7 3 8 4 9 5 10 6 4 7 3 8 2 9 1 10
REMARK H PARENT
REMARK Flexibility Score: inf
ROOT
ATOM      1  C   UNL     1      41.506  29.005  17.163  1.00  0.00     0.000 C 
ENDROOT
BRANCH   1   2
ATOM      2  C   UNL     1      41.821  27.511  17.325  1.00  0.00     0.006 C 
BRANCH   2   3
ATOM      3  C   UNL     1      40.838  26.622  16.551  1.00  0.00     0.053 C 
BRANCH   3   4
ATOM      4  C   UNL     1      39.537  26.471  17.275  1.00  0.00     0.041 C 
ATOM      5  O   UNL     1      39.486  26.625  18.524  1.00  0.00    -0.550 OA
ATOM      6  O   UNL     1      38.374  26.191  16.568  1.00  0.00    -0.550 OA
ENDBRANCH   3   4
ENDBRANCH   2   3
ENDBRANCH   1   2
BRANCH   1   7
ATOM      7  C   UNL     1      42.441  29.655  16.136  1.00  0.00     0.000 C 
BRANCH   7   8
ATOM      8  C   UNL     1      42.427  31.183  16.267  1.00  0.00    -0.000 C 
BRANCH   8   9
ATOM      9  C   UNL     1      43.591  31.813  15.495  1.00  0.00    -0.003 C 
ATOM     10  C   UNL     1      44.928  31.501  16.161  1.00  0.00     0.004 C 
ENDBRANCH   8   9
ENDBRANCH   7   8
ENDBRANCH   1   7
TORSDOF 6
ENDMDL
MODEL 4
REMARK VINA RESULT:    -3.679      5.822      8.197
REMARK INTER + INTRA:          -5.128
REMARK INTER:                  -4.851
REMARK INTRA:                  -0.277
REMARK UNBOUND:                -0.159
REMARK SMILES CCCCCCCC(=O)[O-]
REMARK SMILES IDX 5 1 6 2 7 3 8 4 9 5 10 6 4 7 3 8 2 9 1 10
REMARK H PARENT
REMARK Flexibility Score: inf
ROOT
ATOM      1  C   UNL     1      39.070  32.771  28.140  1.00  0.00     0.000 C 
ENDROOT
BRANCH   1   2
ATOM      2  C   UNL     1      39.751  32.878  29.512  1.00  0.00     0.006 C 
BRANCH   2   3
ATOM      3  C   UNL     1      40.792  31.771  29.731  1.00  0.00     0.053 C 
BRANCH   3   4
ATOM      4  C   UNL     1      42.189  32.277  29.544  1.00  0.00     0.041 C 
ATOM      5  O   UNL     1      43.119  31.476  29.258  1.00  0.00    -0.550 OA
ATOM      6  O   UNL     1      42.459  33.634  29.653  1.00  0.00    -0.550 OA
ENDBRANCH   3   4
ENDBRANCH   2   3
ENDBRANCH   1   2
BRANCH   1   7
ATOM      7  C   UNL     1      37.598  32.367  28.287  1.00  0.00     0.000 C 
BRANCH   7   8
ATOM      8  C   UNL     1      37.417  30.859  28.075  1.00  0.00    -0.000 C 
BRANCH   8   9
ATOM      9  C   UNL     1      36.708  30.216  29.272  1.00  0.00    -0.003 C 
ATOM     10  C   UNL     1      35.521  29.369  28.822  1.00  0.00     0.004 C 
ENDBRANCH   8   9
ENDBRANCH   7   8
ENDBRANCH   1   7
TORSDOF 6
ENDMDL
MODEL 5
REMARK VINA RESULT:    -3.645      1.398      1.480
REMARK INTER + INTRA:          -5.082
REMARK INTER:                  -4.890
REMARK INTRA:                  -0.192
REMARK UNBOUND:                -0.159
REMARK SMILES CCCCCCCC(=O)[O-]
REMARK SMILES IDX 5 1 6 2 7 3 8 4 9 5 10 6 4 7 3 8 2 9 1 10
REMARK H PARENT
REMARK Flexibility Score: inf
ROOT
ATOM      1  C   UNL     1      35.020  29.142  28.684  1.00  0.00     0.000 C 
ENDROOT
BRANCH   1   2
ATOM      2  C   UNL     1      33.731  28.509  29.226  1.00  0.00     0.006 C 
BRANCH   2   3
ATOM      3  C   UNL     1      33.200  27.398  28.310  1.00  0.00     0.053 C 
BRANCH   3   4
ATOM      4  C   UNL     1      31.704  27.408  28.233  1.00  0.00     0.041 C 
ATOM      5  O   UNL     1      31.126  27.206  27.132  1.00  0.00    -0.550 OA
ATOM      6  O   UNL     1      30.949  27.608  29.380  1.00  0.00    -0.550 OA
ENDBRANCH   3   4
ENDBRANCH   2   3
ENDBRANCH   1   2
BRANCH   1   7
ATOM      7  C   UNL     1      36.172  28.985  29.684  1.00  0.00     0.000 C 
BRANCH   7   8
ATOM      8  C   UNL     1      37.119  30.190  29.628  1.00  0.00    -0.000 C 
BRANCH   8   9
ATOM      9  C   UNL     1      37.192  30.768  28.210  1.00  0.00    -0.003 C 
ATOM     10  C   UNL     1      37.660  32.220  28.230  1.00  0.00     0.004 C 
ENDBRANCH   8   9
ENDBRANCH   7   8
ENDBRANCH   1   7
TORSDOF 6
ENDMDL
MODEL 6
REMARK VINA RESULT:    -3.607      3.496      5.774
REMARK INTER + INTRA:          -5.031
REMARK INTER:                  -4.840
REMARK INTRA:                  -0.191
REMARK UNBOUND:                -0.159
REMARK SMILES CCCCCCCC(=O)[O-]
REMARK SMILES IDX 5 1 6 2 7 3 8 4 9 5 10 6 4 7 3 8 2 9 1 10
REMARK H PARENT
REMARK Flexibility Score: inf
ROOT
ATOM      1  C   UNL     1      35.132  27.877  29.536  1.00  0.00     0.000 C 
ENDROOT
BRANCH   1   2
ATOM      2  C   UNL     1      36.230  28.942  29.673  1.00  0.00     0.006 C 
BRANCH   2   3
ATOM      3  C   UNL     1      36.218  29.942  28.510  1.00  0.00     0.053 C 
BRANCH   3   4
ATOM      4  C   UNL     1      37.416  30.840  28.536  1.00  0.00     0.041 C 
ATOM      5  O   UNL     1      38.505  30.428  29.016  1.00  0.00    -0.550 OA
ATOM      6  O   UNL     1      37.339  32.120  28.003  1.00  0.00    -0.550 OA
ENDBRANCH   3   4
ENDBRANCH   2   3
ENDBRANCH   1   2
BRANCH   1   7
ATOM      7  C   UNL     1      33.937  28.418  28.743  1.00  0.00     0.000 C 
BRANCH   7   8
ATOM      8  C   UNL     1      32.788  27.404  28.715  1.00  0.00    -0.000 C 
BRANCH   8   9
ATOM      9  C   UNL     1      32.162  27.318  27.319  1.00  0.00    -0.003 C 
ATOM     10  C   UNL     1      32.281  25.908  26.746  1.00  0.00     0.004 C 
ENDBRANCH   8   9
ENDBRANCH   7   8
ENDBRANCH   1   7
TORSDOF 6
ENDMDL
MODEL 7
REMARK VINA RESULT:    -3.570      2.668      4.118
REMARK INTER + INTRA:          -4.981
REMARK INTER:                  -4.746
REMARK INTRA:                  -0.235
REMARK UNBOUND:                -0.159
REMARK SMILES CCCCCCCC(=O)[O-]
REMARK SMILES IDX 5 1 6 2 7 3 8 4 9 5 10 6 4 7 3 8 2 9 1 10
REMARK H PARENT
REMARK Flexibility Score: inf
ROOT
ATOM      1  C   UNL     1      37.692  30.880  28.193  1.00  0.00     0.000 C 
ENDROOT
BRANCH   1   2
ATOM      2  C   UNL     1      36.887  30.228  29.327  1.00  0.00     0.006 C 
BRANCH   2   3
ATOM      3  C   UNL     1      35.662  29.465  28.805  1.00  0.00     0.053 C 
BRANCH   3   4
ATOM      4  C   UNL     1      35.541  28.111  29.434  1.00  0.00     0.041 C 
ATOM      5  O   UNL     1      34.423  27.533  29.481  1.00  0.00    -0.550 OA
ATOM      6  O   UNL     1      36.667  27.474  29.938  1.00  0.00    -0.550 OA
ENDBRANCH   3   4
ENDBRANCH   2   3
ENDBRANCH   1   2
BRANCH   1   7
ATOM      7  C   UNL     1      37.507  32.402  28.193  1.00  0.00     0.000 C 
BRANCH   7   8
ATOM      8  C   UNL     1      38.854  33.122  28.323  1.00  0.00    -0.000 C 
BRANCH   8   9
ATOM      9  C   UNL     1      39.577  32.710  29.610  1.00  0.00    -0.003 C 
ATOM     10  C   UNL     1      41.092  32.781  29.441  1.00  0.00     0.004 C 
ENDBRANCH   8   9
ENDBRANCH   7   8
ENDBRANCH   1   7
TORSDOF 6
ENDMDL
MODEL 8
REMARK VINA RESULT:    -3.562      6.207      8.537
REMARK INTER + INTRA:          -4.969
REMARK INTER:                  -4.712
REMARK INTRA:                  -0.258
REMARK UNBOUND:                -0.159
REMARK SMILES CCCCCCCC(=O)[O-]
REMARK SMILES IDX 5 1 6 2 7 3 8 4 9 5 10 6 4 7 3 8 2 9 1 10
REMARK H PARENT
REMARK Flexibility Score: inf
ROOT
ATOM      1  C   UNL     1      40.278  32.728  28.977  1.00  0.00     0.000 C 
ENDROOT
BRANCH   1   2
ATOM      2  C   UNL     1      41.308  32.432  30.077  1.00  0.00     0.006 C 
BRANCH   2   3
ATOM      3  C   UNL     1      41.910  31.027  29.946  1.00  0.00     0.053 C 
BRANCH   3   4
ATOM      4  C   UNL     1      43.262  31.059  29.302  1.00  0.00     0.041 C 
ATOM      5  O   UNL     1      43.896  32.145  29.215  1.00  0.00    -0.550 OA
ATOM      6  O   UNL     1      43.836  29.888  28.828  1.00  0.00    -0.550 OA
ENDBRANCH   3   4
ENDBRANCH   2   3
ENDBRANCH   1   2
BRANCH   1   7
ATOM      7  C   UNL     1      38.865  32.839  29.562  1.00  0.00     0.000 C 
BRANCH   7   8
ATOM      8  C   UNL     1      37.802  32.571  28.490  1.00  0.00    -0.000 C 
BRANCH   8   9
ATOM      9  C   UNL     1      37.855  31.116  28.013  1.00  0.00    -0.003 C 
ATOM     10  C   UNL     1      36.699  30.304  28.589  1.00  0.00     0.004 C 
ENDBRANCH   8   9
ENDBRANCH   7   8
ENDBRANCH   1   7
TORSDOF 6
ENDMDL
MODEL 9
REMARK VINA RESULT:    -3.533     10.601     11.915
REMARK INTER + INTRA:          -4.931
REMARK INTER:                  -4.838
REMARK INTRA:                  -0.093
REMARK UNBOUND:                -0.159
REMARK SMILES CCCCCCCC(=O)[O-]
REMARK SMILES IDX 5 1 6 2 7 3 8 4 9 5 10 6 4 7 3 8 2 9 1 10
REMARK H PARENT
REMARK Flexibility Score: inf
ROOT
ATOM      1  C   UNL     1      43.772  32.609  29.731  1.00  0.00     0.000 C 
ENDROOT
BRANCH   1   2
ATOM      2  C   UNL     1      43.439  33.846  28.885  1.00  0.00     0.006 C 
BRANCH   2   3
ATOM      3  C   UNL     1      43.884  35.150  29.561  1.00  0.00     0.053 C 
BRANCH   3   4
ATOM      4  C   UNL     1      44.530  36.088  28.589  1.00  0.00     0.041 C 
ATOM      5  O   UNL     1      45.370  36.937  28.992  1.00  0.00    -0.550 OA
ATOM      6  O   UNL     1      44.231  36.005  27.236  1.00  0.00    -0.550 OA
ENDBRANCH   3   4
ENDBRANCH   2   3
ENDBRANCH   1   2
BRANCH   1   7
ATOM      7  C   UNL     1      43.675  31.329  28.894  1.00  0.00     0.000 C 
BRANCH   7   8
ATOM      8  C   UNL     1      44.119  30.105  29.704  1.00  0.00    -0.000 C 
BRANCH   8   9
ATOM      9  C   UNL     1      43.964  28.817  28.888  1.00  0.00    -0.003 C 
ATOM     10  C   UNL     1      44.905  27.727  29.391  1.00  0.00     0.004 C 
ENDBRANCH   8   9
ENDBRANCH   7   8
ENDBRANCH   1   7
TORSDOF 6
ENDMDL
