MODEL 1
REMARK VINA RESULT:    -7.102      0.000      0.000
REMARK INTER + INTRA:          -8.875
REMARK INTER:                  -8.556
REMARK INTRA:                  -0.320
REMARK UNBOUND:                -0.320
REMARK SMILES O=c1c(O)c(-c2ccc(O)c(O)c2)oc2cc(O)cc(O)c12
REMARK SMILES IDX 5 1 3 2 2 3 1 4 22 5 20 6 19 7 17 8 16 9 15 10 14 11 6 12
REMARK SMILES IDX 7 13 8 14 9 15 13 16 11 17 10 18 12 20 4 22 21 24 18 26
REMARK H PARENT 10 19 12 21 4 23 21 25 18 27
REMARK Flexibility Score: inf
ROOT
ATOM      1  C   UNL     1     -20.066  32.610  -7.451  1.00  0.00     0.180 A 
ATOM      2  C   UNL     1     -20.901  31.549  -7.842  1.00  0.00     0.208 A 
ATOM      3  C   UNL     1     -20.366  30.517  -8.630  1.00  0.00     0.238 A 
ATOM      4  O   UNL     1     -21.103  29.542  -8.931  1.00  0.00    -0.285 OA
ATOM      5  C   UNL     1     -19.009  30.567  -9.031  1.00  0.00     0.111 A 
ATOM      6  C   UNL     1     -18.373  29.597  -9.863  1.00  0.00     0.134 A 
ATOM      7  C   UNL     1     -16.994  29.678 -10.088  1.00  0.00     0.093 A 
ATOM      8  C   UNL     1     -16.239  30.731  -9.565  1.00  0.00     0.123 A 
ATOM      9  C   UNL     1     -16.862  31.716  -8.801  1.00  0.00     0.094 A 
ATOM     10  C   UNL     1     -18.230  31.642  -8.530  1.00  0.00     0.146 A 
ATOM     11  O   UNL     1     -18.782  32.596  -7.789  1.00  0.00    -0.452 OA
ENDROOT
BRANCH   1  12
ATOM     12  C   UNL     1     -20.563  33.746  -6.642  1.00  0.00     0.025 A 
ATOM     13  C   UNL     1     -21.242  34.825  -7.234  1.00  0.00     0.016 A 
ATOM     14  C   UNL     1     -21.682  35.898  -6.454  1.00  0.00     0.051 A 
ATOM     15  C   UNL     1     -21.437  35.916  -5.074  1.00  0.00     0.157 A 
ATOM     16  C   UNL     1     -20.302  33.779  -5.262  1.00  0.00     0.062 A 
ATOM     17  C   UNL     1     -20.741  34.852  -4.478  1.00  0.00     0.158 A 
BRANCH  15  18
ATOM     18  O   UNL     1     -21.878  36.987  -4.299  1.00  0.00    -0.504 OA
ATOM     19  H   UNL     1     -22.786  37.412  -4.447  1.00  0.00     0.293 HD
ENDBRANCH  15  18
BRANCH  17  20
ATOM     20  O   UNL     1     -20.475  34.842  -3.108  1.00  0.00    -0.504 OA
ATOM     21  H   UNL     1     -19.542  34.983  -2.740  1.00  0.00     0.293 HD
ENDBRANCH  17  20
ENDBRANCH   1  12
BRANCH   2  22
ATOM     22  O   UNL     1     -22.232  31.508  -7.417  1.00  0.00    -0.502 OA
ATOM     23  H   UNL     1     -22.524  30.990  -6.596  1.00  0.00     0.293 HD
ENDBRANCH   2  22
BRANCH   6  24
ATOM     24  O   UNL     1     -19.051  28.559 -10.508  1.00  0.00    -0.507 OA
ATOM     25  H   UNL     1     -19.748  27.971 -10.076  1.00  0.00     0.293 HD
ENDBRANCH   6  24
BRANCH   8  26
ATOM     26  O   UNL     1     -14.870  30.814  -9.807  1.00  0.00    -0.508 OA
ATOM     27  H   UNL     1     -14.191  30.583  -9.091  1.00  0.00     0.293 HD
ENDBRANCH   8  26
TORSDOF 6
ENDMDL
MODEL 2
REMARK VINA RESULT:    -6.672      2.001      7.006
REMARK INTER + INTRA:          -8.357
REMARK INTER:                  -8.064
REMARK INTRA:                  -0.293
REMARK UNBOUND:                -0.320
REMARK SMILES O=c1c(O)c(-c2ccc(O)c(O)c2)oc2cc(O)cc(O)c12
REMARK SMILES IDX 5 1 3 2 2 3 1 4 22 5 20 6 19 7 17 8 16 9 15 10 14 11 6 12
REMARK SMILES IDX 7 13 8 14 9 15 13 16 11 17 10 18 12 20 4 22 21 24 18 26
REMARK H PARENT 10 19 12 21 4 23 21 25 18 27
REMARK Flexibility Score: inf
ROOT
ATOM      1  C   UNL     1     -20.644  31.861  -7.308  1.00  0.00     0.180 A 
ATOM      2  C   UNL     1     -20.450  31.735  -5.921  1.00  0.00     0.208 A 
ATOM      3  C   UNL     1     -20.639  32.861  -5.103  1.00  0.00     0.238 A 
ATOM      4  O   UNL     1     -20.519  32.730  -3.858  1.00  0.00    -0.285 OA
ATOM      5  C   UNL     1     -21.001  34.101  -5.683  1.00  0.00     0.111 A 
ATOM      6  C   UNL     1     -21.179  35.315  -4.954  1.00  0.00     0.134 A 
ATOM      7  C   UNL     1     -21.665  36.451  -5.613  1.00  0.00     0.093 A 
ATOM      8  C   UNL     1     -21.918  36.434  -6.987  1.00  0.00     0.123 A 
ATOM      9  C   UNL     1     -21.691  35.271  -7.718  1.00  0.00     0.094 A 
ATOM     10  C   UNL     1     -21.240  34.111  -7.082  1.00  0.00     0.146 A 
ATOM     11  O   UNL     1     -21.047  33.021  -7.814  1.00  0.00    -0.452 OA
ENDROOT
BRANCH   1  12
ATOM     12  C   UNL     1     -20.440  30.726  -8.238  1.00  0.00     0.025 A 
ATOM     13  C   UNL     1     -19.269  30.613  -9.008  1.00  0.00     0.016 A 
ATOM     14  C   UNL     1     -19.109  29.546  -9.897  1.00  0.00     0.051 A 
ATOM     15  C   UNL     1     -20.120  28.586 -10.039  1.00  0.00     0.157 A 
ATOM     16  C   UNL     1     -21.459  29.773  -8.400  1.00  0.00     0.062 A 
ATOM     17  C   UNL     1     -21.301  28.704  -9.288  1.00  0.00     0.158 A 
BRANCH  15  18
ATOM     18  O   UNL     1     -19.956  27.522 -10.925  1.00  0.00    -0.504 OA
ATOM     19  H   UNL     1     -19.151  26.908 -10.874  1.00  0.00     0.293 HD
ENDBRANCH  15  18
BRANCH  17  20
ATOM     20  O   UNL     1     -22.329  27.769  -9.411  1.00  0.00    -0.504 OA
ATOM     21  H   UNL     1     -22.542  27.103  -8.678  1.00  0.00     0.293 HD
ENDBRANCH  17  20
ENDBRANCH   1  12
BRANCH   2  22
ATOM     22  O   UNL     1     -20.115  30.497  -5.368  1.00  0.00    -0.502 OA
ATOM     23  H   UNL     1     -20.681  30.047  -4.658  1.00  0.00     0.293 HD
ENDBRANCH   2  22
BRANCH   6  24
ATOM     24  O   UNL     1     -20.869  35.464  -3.599  1.00  0.00    -0.507 OA
ATOM     25  H   UNL     1     -21.414  35.999  -2.941  1.00  0.00     0.293 HD
ENDBRANCH   6  24
BRANCH   8  26
ATOM     26  O   UNL     1     -22.386  37.574  -7.638  1.00  0.00    -0.508 OA
ATOM     27  H   UNL     1     -22.102  38.503  -7.349  1.00  0.00     0.293 HD
ENDBRANCH   8  26
TORSDOF 6
ENDMDL
MODEL 3
REMARK VINA RESULT:    -6.603      1.494      3.119
REMARK INTER + INTRA:          -8.273
REMARK INTER:                  -7.970
REMARK INTRA:                  -0.303
REMARK UNBOUND:                -0.320
REMARK SMILES O=c1c(O)c(-c2ccc(O)c(O)c2)oc2cc(O)cc(O)c12
REMARK SMILES IDX 5 1 3 2 2 3 1 4 22 5 20 6 19 7 17 8 16 9 15 10 14 11 6 12
REMARK SMILES IDX 7 13 8 14 9 15 13 16 11 17 10 18 12 20 4 22 21 24 18 26
REMARK H PARENT 10 19 12 21 4 23 21 25 18 27
REMARK Flexibility Score: inf
ROOT
ATOM      1  C   UNL     1     -19.678  32.064  -7.840  1.00  0.00     0.180 A 
ATOM      2  C   UNL     1     -18.431  32.141  -8.484  1.00  0.00     0.208 A 
ATOM      3  C   UNL     1     -18.069  31.131  -9.390  1.00  0.00     0.238 A 
ATOM      4  O   UNL     1     -16.976  31.234 -10.004  1.00  0.00    -0.285 OA
ATOM      5  C   UNL     1     -18.950  30.049  -9.628  1.00  0.00     0.111 A 
ATOM      6  C   UNL     1     -18.668  28.950 -10.494  1.00  0.00     0.134 A 
ATOM      7  C   UNL     1     -19.665  28.003 -10.754  1.00  0.00     0.093 A 
ATOM      8  C   UNL     1     -20.912  28.079 -10.129  1.00  0.00     0.123 A 
ATOM      9  C   UNL     1     -21.176  29.114  -9.236  1.00  0.00     0.094 A 
ATOM     10  C   UNL     1     -20.213  30.095  -8.984  1.00  0.00     0.146 A 
ATOM     11  O   UNL     1     -20.510  31.070  -8.133  1.00  0.00    -0.452 OA
ENDROOT
BRANCH   1  12
ATOM     12  C   UNL     1     -20.120  33.076  -6.854  1.00  0.00     0.025 A 
ATOM     13  C   UNL     1     -20.688  34.296  -7.261  1.00  0.00     0.016 A 
ATOM     14  C   UNL     1     -21.075  35.247  -6.314  1.00  0.00     0.051 A 
ATOM     15  C   UNL     1     -20.889  35.000  -4.947  1.00  0.00     0.157 A 
ATOM     16  C   UNL     1     -19.916  32.842  -5.483  1.00  0.00     0.062 A 
ATOM     17  C   UNL     1     -20.303  33.792  -4.532  1.00  0.00     0.158 A 
BRANCH  15  18
ATOM     18  O   UNL     1     -21.278  35.949  -4.004  1.00  0.00    -0.504 OA
ATOM     19  H   UNL     1     -21.120  35.809  -3.012  1.00  0.00     0.293 HD
ENDBRANCH  15  18
BRANCH  17  20
ATOM     20  O   UNL     1     -20.098  33.518  -3.179  1.00  0.00    -0.504 OA
ATOM     21  H   UNL     1     -20.398  34.154  -2.450  1.00  0.00     0.293 HD
ENDBRANCH  17  20
ENDBRANCH   1  12
BRANCH   2  22
ATOM     22  O   UNL     1     -17.586  33.230  -8.251  1.00  0.00    -0.502 OA
ATOM     23  H   UNL     1     -17.910  34.189  -8.297  1.00  0.00     0.293 HD
ENDBRANCH   2  22
BRANCH   6  24
ATOM     24  O   UNL     1     -17.426  28.731 -11.097  1.00  0.00    -0.507 OA
ATOM     25  H   UNL     1     -17.226  27.986 -11.746  1.00  0.00     0.293 HD
ENDBRANCH   6  24
BRANCH   8  26
ATOM     26  O   UNL     1     -21.894  27.123 -10.381  1.00  0.00    -0.508 OA
ATOM     27  H   UNL     1     -22.480  26.758  -9.639  1.00  0.00     0.293 HD
ENDBRANCH   8  26
TORSDOF 6
ENDMDL
MODEL 4
REMARK VINA RESULT:    -6.598      3.395      5.518
REMARK INTER + INTRA:          -8.267
REMARK INTER:                  -8.256
REMARK INTRA:                  -0.012
REMARK UNBOUND:                -0.320
REMARK SMILES O=c1c(O)c(-c2ccc(O)c(O)c2)oc2cc(O)cc(O)c12
REMARK SMILES IDX 5 1 3 2 2 3 1 4 22 5 20 6 19 7 17 8 16 9 15 10 14 11 6 12
REMARK SMILES IDX 7 13 8 14 9 15 13 16 11 17 10 18 12 20 4 22 21 24 18 26
REMARK H PARENT 10 19 12 21 4 23 21 25 18 27
REMARK Flexibility Score: inf
ROOT
ATOM      1  C   UNL     1     -19.220  33.753  -7.188  1.00  0.00     0.180 A 
ATOM      2  C   UNL     1     -17.989  33.360  -7.743  1.00  0.00     0.208 A 
ATOM      3  C   UNL     1     -17.261  34.285  -8.507  1.00  0.00     0.238 A 
ATOM      4  O   UNL     1     -16.135  33.946  -8.955  1.00  0.00    -0.285 OA
ATOM      5  C   UNL     1     -17.779  35.586  -8.722  1.00  0.00     0.111 A 
ATOM      6  C   UNL     1     -17.145  36.590  -9.513  1.00  0.00     0.134 A 
ATOM      7  C   UNL     1     -17.683  37.882  -9.549  1.00  0.00     0.093 A 
ATOM      8  C   UNL     1     -18.867  38.189  -8.875  1.00  0.00     0.123 A 
ATOM      9  C   UNL     1     -19.526  37.199  -8.148  1.00  0.00     0.094 A 
ATOM     10  C   UNL     1     -18.994  35.910  -8.065  1.00  0.00     0.146 A 
ATOM     11  O   UNL     1     -19.648  34.999  -7.353  1.00  0.00    -0.452 OA
ENDROOT
BRANCH   1  12
ATOM     12  C   UNL     1     -20.057  32.826  -6.392  1.00  0.00     0.025 A 
ATOM     13  C   UNL     1     -21.413  32.618  -6.699  1.00  0.00     0.016 A 
ATOM     14  C   UNL     1     -22.190  31.757  -5.920  1.00  0.00     0.051 A 
ATOM     15  C   UNL     1     -21.628  31.103  -4.814  1.00  0.00     0.157 A 
ATOM     16  C   UNL     1     -19.505  32.185  -5.271  1.00  0.00     0.062 A 
ATOM     17  C   UNL     1     -20.280  31.323  -4.488  1.00  0.00     0.158 A 
BRANCH  15  18
ATOM     18  O   UNL     1     -22.405  30.244  -4.039  1.00  0.00    -0.504 OA
ATOM     19  H   UNL     1     -22.017  29.750  -3.243  1.00  0.00     0.293 HD
ENDBRANCH  15  18
BRANCH  17  20
ATOM     20  O   UNL     1     -19.692  30.693  -3.390  1.00  0.00    -0.504 OA
ATOM     21  H   UNL     1     -19.326  31.215  -2.603  1.00  0.00     0.293 HD
ENDBRANCH  17  20
ENDBRANCH   1  12
BRANCH   2  22
ATOM     22  O   UNL     1     -17.486  32.079  -7.500  1.00  0.00    -0.502 OA
ATOM     23  H   UNL     1     -16.631  31.741  -7.926  1.00  0.00     0.293 HD
ENDBRANCH   2  22
BRANCH   6  24
ATOM     24  O   UNL     1     -16.010  36.364 -10.297  1.00  0.00    -0.507 OA
ATOM     25  H   UNL     1     -15.533  35.480 -10.376  1.00  0.00     0.293 HD
ENDBRANCH   6  24
BRANCH   8  26
ATOM     26  O   UNL     1     -19.405  39.473  -8.929  1.00  0.00    -0.508 OA
ATOM     27  H   UNL     1     -19.924  39.796  -9.738  1.00  0.00     0.293 HD
ENDBRANCH   8  26
TORSDOF 6
ENDMDL
MODEL 5
REMARK VINA RESULT:    -6.574      3.047      4.809
REMARK INTER + INTRA:          -8.238
REMARK INTER:                  -8.035
REMARK INTRA:                  -0.203
REMARK UNBOUND:                -0.320
REMARK SMILES O=c1c(O)c(-c2ccc(O)c(O)c2)oc2cc(O)cc(O)c12
REMARK SMILES IDX 5 1 3 2 2 3 1 4 22 5 20 6 19 7 17 8 16 9 15 10 14 11 6 12
REMARK SMILES IDX 7 13 8 14 9 15 13 16 11 17 10 18 12 20 4 22 21 24 18 26
REMARK H PARENT 10 19 12 21 4 23 21 25 18 27
REMARK Flexibility Score: inf
ROOT
ATOM      1  C   UNL     1     -21.451  35.142  -5.574  1.00  0.00     0.180 A 
ATOM      2  C   UNL     1     -20.867  34.533  -4.449  1.00  0.00     0.208 A 
ATOM      3  C   UNL     1     -20.586  33.158  -4.489  1.00  0.00     0.238 A 
ATOM      4  O   UNL     1     -20.014  32.628  -3.501  1.00  0.00    -0.285 OA
ATOM      5  C   UNL     1     -20.908  32.406  -5.645  1.00  0.00     0.111 A 
ATOM      6  C   UNL     1     -20.704  30.999  -5.780  1.00  0.00     0.134 A 
ATOM      7  C   UNL     1     -20.938  30.384  -7.015  1.00  0.00     0.093 A 
ATOM      8  C   UNL     1     -21.429  31.111  -8.102  1.00  0.00     0.123 A 
ATOM      9  C   UNL     1     -21.687  32.473  -7.963  1.00  0.00     0.094 A 
ATOM     10  C   UNL     1     -21.430  33.122  -6.753  1.00  0.00     0.146 A 
ATOM     11  O   UNL     1     -21.680  34.424  -6.667  1.00  0.00    -0.452 OA
ENDROOT
BRANCH   1  12
ATOM     12  C   UNL     1     -21.799  36.581  -5.598  1.00  0.00     0.025 A 
ATOM     13  C   UNL     1     -22.796  37.107  -4.759  1.00  0.00     0.016 A 
ATOM     14  C   UNL     1     -23.125  38.464  -4.816  1.00  0.00     0.051 A 
ATOM     15  C   UNL     1     -22.472  39.313  -5.721  1.00  0.00     0.157 A 
ATOM     16  C   UNL     1     -21.162  37.432  -6.518  1.00  0.00     0.062 A 
ATOM     17  C   UNL     1     -21.489  38.791  -6.577  1.00  0.00     0.158 A 
BRANCH  15  18
ATOM     18  O   UNL     1     -22.801  40.666  -5.774  1.00  0.00    -0.504 OA
ATOM     19  H   UNL     1     -23.761  40.976  -5.873  1.00  0.00     0.293 HD
ENDBRANCH  15  18
BRANCH  17  20
ATOM     20  O   UNL     1     -20.825  39.607  -7.494  1.00  0.00    -0.504 OA
ATOM     21  H   UNL     1     -20.769  39.375  -8.478  1.00  0.00     0.293 HD
ENDBRANCH  17  20
ENDBRANCH   1  12
BRANCH   2  22
ATOM     22  O   UNL     1     -20.538  35.298  -3.327  1.00  0.00    -0.502 OA
ATOM     23  H   UNL     1     -20.134  36.225  -3.400  1.00  0.00     0.293 HD
ENDBRANCH   2  22
BRANCH   6  24
ATOM     24  O   UNL     1     -20.304  30.166  -4.732  1.00  0.00    -0.507 OA
ATOM     25  H   UNL     1     -19.347  30.012  -4.453  1.00  0.00     0.293 HD
ENDBRANCH   6  24
BRANCH   8  26
ATOM     26  O   UNL     1     -21.674  30.487  -9.324  1.00  0.00    -0.508 OA
ATOM     27  H   UNL     1     -21.044  29.786  -9.696  1.00  0.00     0.293 HD
ENDBRANCH   8  26
TORSDOF 6
ENDMDL
MODEL 6
REMARK VINA RESULT:    -6.288      1.283      2.991
REMARK INTER + INTRA:          -7.894
REMARK INTER:                  -7.571
REMARK INTRA:                  -0.323
REMARK UNBOUND:                -0.320
REMARK SMILES O=c1c(O)c(-c2ccc(O)c(O)c2)oc2cc(O)cc(O)c12
REMARK SMILES IDX 5 1 3 2 2 3 1 4 22 5 20 6 19 7 17 8 16 9 15 10 14 11 6 12
REMARK SMILES IDX 7 13 8 14 9 15 13 16 11 17 10 18 12 20 4 22 21 24 18 26
REMARK H PARENT 10 19 12 21 4 23 21 25 18 27
REMARK Flexibility Score: inf
ROOT
ATOM      1  C   UNL     1     -19.030  33.635  -7.683  1.00  0.00     0.180 A 
ATOM      2  C   UNL     1     -17.760  34.117  -8.045  1.00  0.00     0.208 A 
ATOM      3  C   UNL     1     -16.911  33.296  -8.806  1.00  0.00     0.238 A 
ATOM      4  O   UNL     1     -15.799  33.754  -9.174  1.00  0.00    -0.285 OA
ATOM      5  C   UNL     1     -17.336  31.998  -9.179  1.00  0.00     0.111 A 
ATOM      6  C   UNL     1     -16.543  31.067  -9.915  1.00  0.00     0.134 A 
ATOM      7  C   UNL     1     -17.112  29.861 -10.341  1.00  0.00     0.093 A 
ATOM      8  C   UNL     1     -18.426  29.525 -10.004  1.00  0.00     0.123 A 
ATOM      9  C   UNL     1     -19.189  30.402  -9.236  1.00  0.00     0.094 A 
ATOM     10  C   UNL     1     -18.659  31.628  -8.826  1.00  0.00     0.146 A 
ATOM     11  O   UNL     1     -19.424  32.439  -8.104  1.00  0.00    -0.452 OA
ENDROOT
BRANCH   1  12
ATOM     12  C   UNL     1     -19.970  34.432  -6.861  1.00  0.00     0.025 A 
ATOM     13  C   UNL     1     -20.910  35.292  -7.453  1.00  0.00     0.016 A 
ATOM     14  C   UNL     1     -21.772  36.052  -6.658  1.00  0.00     0.051 A 
ATOM     15  C   UNL     1     -21.697  35.975  -5.261  1.00  0.00     0.157 A 
ATOM     16  C   UNL     1     -19.885  34.373  -5.460  1.00  0.00     0.062 A 
ATOM     17  C   UNL     1     -20.746  35.133  -4.661  1.00  0.00     0.158 A 
BRANCH  15  18
ATOM     18  O   UNL     1     -22.559  36.733  -4.470  1.00  0.00    -0.504 OA
ATOM     19  H   UNL     1     -22.225  37.243  -3.660  1.00  0.00     0.293 HD
ENDBRANCH  15  18
BRANCH  17  20
ATOM     20  O   UNL     1     -20.642  35.038  -3.273  1.00  0.00    -0.504 OA
ATOM     21  H   UNL     1     -21.407  35.286  -2.657  1.00  0.00     0.293 HD
ENDBRANCH  17  20
ENDBRANCH   1  12
BRANCH   2  22
ATOM     22  O   UNL     1     -17.370  35.410  -7.684  1.00  0.00    -0.502 OA
ATOM     23  H   UNL     1     -17.985  36.210  -7.779  1.00  0.00     0.293 HD
ENDBRANCH   2  22
BRANCH   6  24
ATOM     24  O   UNL     1     -15.195  31.265 -10.225  1.00  0.00    -0.507 OA
ATOM     25  H   UNL     1     -14.786  32.153 -10.470  1.00  0.00     0.293 HD
ENDBRANCH   6  24
BRANCH   8  26
ATOM     26  O   UNL     1     -18.980  28.316 -10.419  1.00  0.00    -0.508 OA
ATOM     27  H   UNL     1     -18.890  27.993 -11.375  1.00  0.00     0.293 HD
ENDBRANCH   8  26
TORSDOF 6
ENDMDL
MODEL 7
REMARK VINA RESULT:    -6.246      3.379      5.035
REMARK INTER + INTRA:          -7.843
REMARK INTER:                  -7.564
REMARK INTRA:                  -0.279
REMARK UNBOUND:                -0.320
REMARK SMILES O=c1c(O)c(-c2ccc(O)c(O)c2)oc2cc(O)cc(O)c12
REMARK SMILES IDX 5 1 3 2 2 3 1 4 22 5 20 6 19 7 17 8 16 9 15 10 14 11 6 12
REMARK SMILES IDX 7 13 8 14 9 15 13 16 11 17 10 18 12 20 4 22 21 24 18 26
REMARK H PARENT 10 19 12 21 4 23 21 25 18 27
REMARK Flexibility Score: inf
ROOT
ATOM      1  C   UNL     1     -19.035  34.104  -8.525  1.00  0.00     0.180 A 
ATOM      2  C   UNL     1     -19.645  33.474  -9.624  1.00  0.00     0.208 A 
ATOM      3  C   UNL     1     -20.406  32.314  -9.407  1.00  0.00     0.238 A 
ATOM      4  O   UNL     1     -20.995  31.785 -10.385  1.00  0.00    -0.285 OA
ATOM      5  C   UNL     1     -20.533  31.789  -8.098  1.00  0.00     0.111 A 
ATOM      6  C   UNL     1     -21.246  30.597  -7.768  1.00  0.00     0.134 A 
ATOM      7  C   UNL     1     -21.416  30.244  -6.425  1.00  0.00     0.093 A 
ATOM      8  C   UNL     1     -20.843  31.003  -5.402  1.00  0.00     0.123 A 
ATOM      9  C   UNL     1     -20.095  32.136  -5.716  1.00  0.00     0.094 A 
ATOM     10  C   UNL     1     -19.939  32.534  -7.046  1.00  0.00     0.146 A 
ATOM     11  O   UNL     1     -19.226  33.625  -7.302  1.00  0.00    -0.452 OA
ENDROOT
BRANCH   1  12
ATOM     12  C   UNL     1     -18.197  35.316  -8.678  1.00  0.00     0.025 A 
ATOM     13  C   UNL     1     -18.700  36.595  -8.381  1.00  0.00     0.016 A 
ATOM     14  C   UNL     1     -17.899  37.727  -8.555  1.00  0.00     0.051 A 
ATOM     15  C   UNL     1     -16.590  37.600  -9.040  1.00  0.00     0.157 A 
ATOM     16  C   UNL     1     -16.892  35.196  -9.183  1.00  0.00     0.062 A 
ATOM     17  C   UNL     1     -16.087  36.327  -9.359  1.00  0.00     0.158 A 
BRANCH  15  18
ATOM     18  O   UNL     1     -15.794  38.730  -9.212  1.00  0.00    -0.504 OA
ATOM     19  H   UNL     1     -14.955  38.877  -8.660  1.00  0.00     0.293 HD
ENDBRANCH  15  18
BRANCH  17  20
ATOM     20  O   UNL     1     -14.792  36.167  -9.850  1.00  0.00    -0.504 OA
ATOM     21  H   UNL     1     -14.466  35.286 -10.230  1.00  0.00     0.293 HD
ENDBRANCH  17  20
ENDBRANCH   1  12
BRANCH   2  22
ATOM     22  O   UNL     1     -19.525  34.022 -10.904  1.00  0.00    -0.502 OA
ATOM     23  H   UNL     1     -18.846  34.741 -11.126  1.00  0.00     0.293 HD
ENDBRANCH   2  22
BRANCH   6  24
ATOM     24  O   UNL     1     -21.778  29.720  -8.717  1.00  0.00    -0.507 OA
ATOM     25  H   UNL     1     -21.895  28.727  -8.580  1.00  0.00     0.293 HD
ENDBRANCH   6  24
BRANCH   8  26
ATOM     26  O   UNL     1     -21.003  30.636  -4.067  1.00  0.00    -0.508 OA
ATOM     27  H   UNL     1     -20.851  29.682  -3.759  1.00  0.00     0.293 HD
ENDBRANCH   8  26
TORSDOF 6
ENDMDL
MODEL 8
REMARK VINA RESULT:    -5.946      1.678      7.041
REMARK INTER + INTRA:          -7.482
REMARK INTER:                  -7.159
REMARK INTRA:                  -0.323
REMARK UNBOUND:                -0.320
REMARK SMILES O=c1c(O)c(-c2ccc(O)c(O)c2)oc2cc(O)cc(O)c12
REMARK SMILES IDX 5 1 3 2 2 3 1 4 22 5 20 6 19 7 17 8 16 9 15 10 14 11 6 12
REMARK SMILES IDX 7 13 8 14 9 15 13 16 11 17 10 18 12 20 4 22 21 24 18 26
REMARK H PARENT 10 19 12 21 4 23 21 25 18 27
REMARK Flexibility Score: inf
ROOT
ATOM      1  C   UNL     1     -19.490  33.141  -7.587  1.00  0.00     0.180 A 
ATOM      2  C   UNL     1     -19.581  33.058  -6.187  1.00  0.00     0.208 A 
ATOM      3  C   UNL     1     -20.281  34.057  -5.490  1.00  0.00     0.238 A 
ATOM      4  O   UNL     1     -20.407  33.949  -4.243  1.00  0.00    -0.285 OA
ATOM      5  C   UNL     1     -20.865  35.134  -6.200  1.00  0.00     0.111 A 
ATOM      6  C   UNL     1     -21.561  36.222  -5.593  1.00  0.00     0.134 A 
ATOM      7  C   UNL     1     -22.210  37.163  -6.401  1.00  0.00     0.093 A 
ATOM      8  C   UNL     1     -22.134  37.092  -7.794  1.00  0.00     0.123 A 
ATOM      9  C   UNL     1     -21.406  36.068  -8.396  1.00  0.00     0.094 A 
ATOM     10  C   UNL     1     -20.778  35.093  -7.616  1.00  0.00     0.146 A 
ATOM     11  O   UNL     1     -20.104  34.128  -8.230  1.00  0.00    -0.452 OA
ENDROOT
BRANCH   1  12
ATOM     12  C   UNL     1     -18.749  32.140  -8.389  1.00  0.00     0.025 A 
ATOM     13  C   UNL     1     -19.371  30.968  -8.853  1.00  0.00     0.016 A 
ATOM     14  C   UNL     1     -18.646  30.026  -9.587  1.00  0.00     0.051 A 
ATOM     15  C   UNL     1     -17.286  30.234  -9.857  1.00  0.00     0.157 A 
ATOM     16  C   UNL     1     -17.381  32.334  -8.644  1.00  0.00     0.062 A 
ATOM     17  C   UNL     1     -16.652  31.392  -9.379  1.00  0.00     0.158 A 
BRANCH  15  18
ATOM     18  O   UNL     1     -16.566  29.293 -10.591  1.00  0.00    -0.504 OA
ATOM     19  H   UNL     1     -16.727  29.157 -11.582  1.00  0.00     0.293 HD
ENDBRANCH  15  18
BRANCH  17  20
ATOM     20  O   UNL     1     -15.298  31.626  -9.624  1.00  0.00    -0.504 OA
ATOM     21  H   UNL     1     -14.930  31.715 -10.563  1.00  0.00     0.293 HD
ENDBRANCH  17  20
ENDBRANCH   1  12
BRANCH   2  22
ATOM     22  O   UNL     1     -19.016  31.975  -5.508  1.00  0.00    -0.502 OA
ATOM     23  H   UNL     1     -18.086  32.009  -5.109  1.00  0.00     0.293 HD
ENDBRANCH   2  22
BRANCH   6  24
ATOM     24  O   UNL     1     -21.621  36.437  -4.213  1.00  0.00    -0.507 OA
ATOM     25  H   UNL     1     -22.447  36.315  -3.648  1.00  0.00     0.293 HD
ENDBRANCH   6  24
BRANCH   8  26
ATOM     26  O   UNL     1     -22.769  38.042  -8.591  1.00  0.00    -0.508 OA
ATOM     27  H   UNL     1     -22.917  38.991  -8.267  1.00  0.00     0.293 HD
ENDBRANCH   8  26
TORSDOF 6
ENDMDL
MODEL 9
REMARK VINA RESULT:    -5.866      1.601      6.917
REMARK INTER + INTRA:          -7.386
REMARK INTER:                  -7.093
REMARK INTRA:                  -0.292
REMARK UNBOUND:                -0.320
REMARK SMILES O=c1c(O)c(-c2ccc(O)c(O)c2)oc2cc(O)cc(O)c12
REMARK SMILES IDX 5 1 3 2 2 3 1 4 22 5 20 6 19 7 17 8 16 9 15 10 14 11 6 12
REMARK SMILES IDX 7 13 8 14 9 15 13 16 11 17 10 18 12 20 4 22 21 24 18 26
REMARK H PARENT 10 19 12 21 4 23 21 25 18 27
REMARK Flexibility Score: inf
ROOT
ATOM      1  C   UNL     1     -19.283  32.830  -8.385  1.00  0.00     0.180 A 
ATOM      2  C   UNL     1     -20.023  33.753  -9.146  1.00  0.00     0.208 A 
ATOM      3  C   UNL     1     -20.789  34.723  -8.480  1.00  0.00     0.238 A 
ATOM      4  O   UNL     1     -21.405  35.581  -9.164  1.00  0.00    -0.285 OA
ATOM      5  C   UNL     1     -20.820  34.748  -7.064  1.00  0.00     0.111 A 
ATOM      6  C   UNL     1     -21.593  35.662  -6.287  1.00  0.00     0.134 A 
ATOM      7  C   UNL     1     -21.446  35.680  -4.895  1.00  0.00     0.093 A 
ATOM      8  C   UNL     1     -20.601  34.775  -4.248  1.00  0.00     0.123 A 
ATOM      9  C   UNL     1     -19.887  33.840  -4.993  1.00  0.00     0.094 A 
ATOM     10  C   UNL     1     -19.987  33.821  -6.387  1.00  0.00     0.146 A 
ATOM     11  O   UNL     1     -19.281  32.920  -7.060  1.00  0.00    -0.452 OA
ENDROOT
BRANCH   1  12
ATOM     12  C   UNL     1     -18.472  31.762  -9.014  1.00  0.00     0.025 A 
ATOM     13  C   UNL     1     -19.069  30.606  -9.546  1.00  0.00     0.016 A 
ATOM     14  C   UNL     1     -18.282  29.601 -10.113  1.00  0.00     0.051 A 
ATOM     15  C   UNL     1     -16.886  29.729 -10.146  1.00  0.00     0.157 A 
ATOM     16  C   UNL     1     -17.072  31.876  -9.030  1.00  0.00     0.062 A 
ATOM     17  C   UNL     1     -16.280  30.871  -9.598  1.00  0.00     0.158 A 
BRANCH  15  18
ATOM     18  O   UNL     1     -16.103  28.725 -10.713  1.00  0.00    -0.504 OA
ATOM     19  H   UNL     1     -16.251  27.747 -10.492  1.00  0.00     0.293 HD
ENDBRANCH  15  18
BRANCH  17  20
ATOM     20  O   UNL     1     -14.894  31.027  -9.608  1.00  0.00    -0.504 OA
ATOM     21  H   UNL     1     -14.269  30.309  -9.260  1.00  0.00     0.293 HD
ENDBRANCH  17  20
ENDBRANCH   1  12
BRANCH   2  22
ATOM     22  O   UNL     1     -19.961  33.723 -10.541  1.00  0.00    -0.502 OA
ATOM     23  H   UNL     1     -20.574  34.281 -11.125  1.00  0.00     0.293 HD
ENDBRANCH   2  22
BRANCH   6  24
ATOM     24  O   UNL     1     -22.533  36.544  -6.827  1.00  0.00    -0.507 OA
ATOM     25  H   UNL     1     -23.125  36.341  -7.617  1.00  0.00     0.293 HD
ENDBRANCH   6  24
BRANCH   8  26
ATOM     26  O   UNL     1     -20.472  34.789  -2.860  1.00  0.00    -0.508 OA
ATOM     27  H   UNL     1     -19.581  34.611  -2.410  1.00  0.00     0.293 HD
ENDBRANCH   8  26
TORSDOF 6
ENDMDL
