MODEL 1
REMARK VINA RESULT:    -4.468      0.000      0.000
REMARK INTER + INTRA:          -6.265
REMARK INTER:                  -6.035
REMARK INTRA:                  -0.230
REMARK UNBOUND:                -0.230
REMARK SMILES CCCCCCCC(=O)[O-]
REMARK SMILES IDX 5 1 6 2 7 3 8 4 9 5 10 6 4 7 3 8 2 9 1 10
REMARK H PARENT
REMARK Flexibility Score: inf
ROOT
ATOM      1  C   UNL     1     -11.123  11.535   5.511  1.00  0.00     0.000 C 
ENDROOT
BRANCH   1   2
ATOM      2  C   UNL     1     -12.262  10.729   6.165  1.00  0.00     0.006 C 
BRANCH   2   3
ATOM      3  C   UNL     1     -12.052  10.430   7.658  1.00  0.00     0.053 C 
BRANCH   3   4
ATOM      4  C   UNL     1     -12.072  11.677   8.486  1.00  0.00     0.041 C 
ATOM      5  O   UNL     1     -11.023  12.075   9.059  1.00  0.00    -0.550 OA
ATOM      6  O   UNL     1     -13.241  12.419   8.598  1.00  0.00    -0.550 OA
ENDBRANCH   3   4
ENDBRANCH   2   3
ENDBRANCH   1   2
BRANCH   1   7
ATOM      7  C   UNL     1     -10.877  11.225   4.021  1.00  0.00     0.000 C 
BRANCH   7   8
ATOM      8  C   UNL     1      -9.974  12.233   3.283  1.00  0.00    -0.000 C 
BRANCH   8   9
ATOM      9  C   UNL     1      -9.168  13.171   4.198  1.00  0.00    -0.003 C 
ATOM     10  C   UNL     1      -7.684  13.223   3.838  1.00  0.00     0.004 C 
ENDBRANCH   8   9
ENDBRANCH   7   8
ENDBRANCH   1   7
TORSDOF 6
ENDMDL
MODEL 2
REMARK VINA RESULT:    -4.448      2.928      3.765
REMARK INTER + INTRA:          -6.238
REMARK INTER:                  -6.054
REMARK INTRA:                  -0.184
REMARK UNBOUND:                -0.230
REMARK SMILES CCCCCCCC(=O)[O-]
REMARK SMILES IDX 5 1 6 2 7 3 8 4 9 5 10 6 4 7 3 8 2 9 1 10
REMARK H PARENT
REMARK Flexibility Score: inf
ROOT
ATOM      1  C   UNL     1     -11.978  10.799   7.602  1.00  0.00     0.000 C 
ENDROOT
BRANCH   1   2
ATOM      2  C   UNL     1     -12.712   9.545   8.117  1.00  0.00     0.006 C 
BRANCH   2   3
ATOM      3  C   UNL     1     -13.250   8.625   7.009  1.00  0.00     0.053 C 
BRANCH   3   4
ATOM      4  C   UNL     1     -14.113   7.533   7.560  1.00  0.00     0.041 C 
ATOM      5  O   UNL     1     -14.730   7.698   8.646  1.00  0.00    -0.550 OA
ATOM      6  O   UNL     1     -14.263   6.344   6.858  1.00  0.00    -0.550 OA
ENDBRANCH   3   4
ENDBRANCH   2   3
ENDBRANCH   1   2
BRANCH   1   7
ATOM      7  C   UNL     1     -12.196  11.116   6.109  1.00  0.00     0.000 C 
BRANCH   7   8
ATOM      8  C   UNL     1     -10.957  11.655   5.367  1.00  0.00    -0.000 C 
BRANCH   8   9
ATOM      9  C   UNL     1     -10.811  11.168   3.915  1.00  0.00    -0.003 C 
ATOM     10  C   UNL     1     -10.704  12.316   2.911  1.00  0.00     0.004 C 
ENDBRANCH   8   9
ENDBRANCH   7   8
ENDBRANCH   1   7
TORSDOF 6
ENDMDL
MODEL 3
REMARK VINA RESULT:    -4.409      2.047      3.069
REMARK INTER + INTRA:          -6.186
REMARK INTER:                  -5.917
REMARK INTRA:                  -0.269
REMARK UNBOUND:                -0.230
REMARK SMILES CCCCCCCC(=O)[O-]
REMARK SMILES IDX 5 1 6 2 7 3 8 4 9 5 10 6 4 7 3 8 2 9 1 10
REMARK H PARENT
REMARK Flexibility Score: inf
ROOT
ATOM      1  C   UNL     1     -12.933  11.769   7.575  1.00  0.00     0.000 C 
ENDROOT
BRANCH   1   2
ATOM      2  C   UNL     1     -12.407  12.633   8.738  1.00  0.00     0.006 C 
BRANCH   2   3
ATOM      3  C   UNL     1     -10.879  12.615   8.901  1.00  0.00     0.053 C 
BRANCH   3   4
ATOM      4  C   UNL     1     -10.369  13.875   9.530  1.00  0.00     0.041 C 
ATOM      5  O   UNL     1      -9.297  13.865  10.191  1.00  0.00    -0.550 OA
ATOM      6  O   UNL     1     -11.061  15.066   9.358  1.00  0.00    -0.550 OA
ENDBRANCH   3   4
ENDBRANCH   2   3
ENDBRANCH   1   2
BRANCH   1   7
ATOM      7  C   UNL     1     -11.953  10.694   7.066  1.00  0.00     0.000 C 
BRANCH   7   8
ATOM      8  C   UNL     1     -11.863  10.563   5.532  1.00  0.00    -0.000 C 
BRANCH   8   9
ATOM      9  C   UNL     1     -11.026  11.651   4.838  1.00  0.00    -0.003 C 
ATOM     10  C   UNL     1     -10.410  11.178   3.522  1.00  0.00     0.004 C 
ENDBRANCH   8   9
ENDBRANCH   7   8
ENDBRANCH   1   7
TORSDOF 6
ENDMDL
MODEL 4
REMARK VINA RESULT:    -4.405      2.930      5.109
REMARK INTER + INTRA:          -6.181
REMARK INTER:                  -5.941
REMARK INTRA:                  -0.240
REMARK UNBOUND:                -0.230
REMARK SMILES CCCCCCCC(=O)[O-]
REMARK SMILES IDX 5 1 6 2 7 3 8 4 9 5 10 6 4 7 3 8 2 9 1 10
REMARK H PARENT
REMARK Flexibility Score: inf
ROOT
ATOM      1  C   UNL     1     -11.038  11.494   5.214  1.00  0.00     0.000 C 
ENDROOT
BRANCH   1   2
ATOM      2  C   UNL     1     -10.830  11.238   3.708  1.00  0.00     0.006 C 
BRANCH   2   3
ATOM      3  C   UNL     1      -9.406  11.526   3.205  1.00  0.00     0.053 C 
BRANCH   3   4
ATOM      4  C   UNL     1      -9.004  12.947   3.450  1.00  0.00     0.041 C 
ATOM      5  O   UNL     1      -7.957  13.208   4.100  1.00  0.00    -0.550 OA
ATOM      6  O   UNL     1      -9.768  13.985   2.933  1.00  0.00    -0.550 OA
ENDBRANCH   3   4
ENDBRANCH   2   3
ENDBRANCH   1   2
BRANCH   1   7
ATOM      7  C   UNL     1     -12.150  10.652   5.871  1.00  0.00     0.000 C 
BRANCH   7   8
ATOM      8  C   UNL     1     -11.970  10.391   7.379  1.00  0.00    -0.000 C 
BRANCH   8   9
ATOM      9  C   UNL     1     -11.741  11.653   8.230  1.00  0.00    -0.003 C 
ATOM     10  C   UNL     1     -13.038  12.393   8.555  1.00  0.00     0.004 C 
ENDBRANCH   8   9
ENDBRANCH   7   8
ENDBRANCH   1   7
TORSDOF 6
ENDMDL
MODEL 5
REMARK VINA RESULT:    -4.380      3.505      5.510
REMARK INTER + INTRA:          -6.146
REMARK INTER:                  -5.940
REMARK INTRA:                  -0.206
REMARK UNBOUND:                -0.230
REMARK SMILES CCCCCCCC(=O)[O-]
REMARK SMILES IDX 5 1 6 2 7 3 8 4 9 5 10 6 4 7 3 8 2 9 1 10
REMARK H PARENT
REMARK Flexibility Score: inf
ROOT
ATOM      1  C   UNL     1     -10.853  11.139   3.805  1.00  0.00     0.000 C 
ENDROOT
BRANCH   1   2
ATOM      2  C   UNL     1      -9.474  11.646   3.336  1.00  0.00     0.006 C 
BRANCH   2   3
ATOM      3  C   UNL     1      -9.111  13.053   3.837  1.00  0.00     0.053 C 
BRANCH   3   4
ATOM      4  C   UNL     1      -8.923  14.016   2.706  1.00  0.00     0.041 C 
ATOM      5  O   UNL     1      -9.752  14.946   2.519  1.00  0.00    -0.550 OA
ATOM      6  O   UNL     1      -7.814  13.908   1.877  1.00  0.00    -0.550 OA
ENDBRANCH   3   4
ENDBRANCH   2   3
ENDBRANCH   1   2
BRANCH   1   7
ATOM      7  C   UNL     1     -11.215  11.487   5.262  1.00  0.00     0.000 C 
BRANCH   7   8
ATOM      8  C   UNL     1     -12.025  10.411   6.011  1.00  0.00    -0.000 C 
BRANCH   8   9
ATOM      9  C   UNL     1     -12.078  10.587   7.539  1.00  0.00    -0.003 C 
ATOM     10  C   UNL     1     -11.266  11.786   8.027  1.00  0.00     0.004 C 
ENDBRANCH   8   9
ENDBRANCH   7   8
ENDBRANCH   1   7
TORSDOF 6
ENDMDL
MODEL 6
REMARK VINA RESULT:    -4.364      2.009      2.291
REMARK INTER + INTRA:          -6.125
REMARK INTER:                  -5.955
REMARK INTRA:                  -0.170
REMARK UNBOUND:                -0.230
REMARK SMILES CCCCCCCC(=O)[O-]
REMARK SMILES IDX 5 1 6 2 7 3 8 4 9 5 10 6 4 7 3 8 2 9 1 10
REMARK H PARENT
REMARK Flexibility Score: inf
ROOT
ATOM      1  C   UNL     1     -11.225  11.388   5.640  1.00  0.00     0.000 C 
ENDROOT
BRANCH   1   2
ATOM      2  C   UNL     1     -12.449  10.647   6.213  1.00  0.00     0.006 C 
BRANCH   2   3
ATOM      3  C   UNL     1     -12.277  10.162   7.662  1.00  0.00     0.053 C 
BRANCH   3   4
ATOM      4  C   UNL     1     -13.046   8.905   7.926  1.00  0.00     0.041 C 
ATOM      5  O   UNL     1     -13.834   8.448   7.055  1.00  0.00    -0.550 OA
ATOM      6  O   UNL     1     -12.870   8.220   9.121  1.00  0.00    -0.550 OA
ENDBRANCH   3   4
ENDBRANCH   2   3
ENDBRANCH   1   2
BRANCH   1   7
ATOM      7  C   UNL     1     -10.942  11.123   4.148  1.00  0.00     0.000 C 
BRANCH   7   8
ATOM      8  C   UNL     1     -10.014  12.147   3.465  1.00  0.00    -0.000 C 
BRANCH   8   9
ATOM      9  C   UNL     1      -9.277  13.094   4.428  1.00  0.00    -0.003 C 
ATOM     10  C   UNL     1      -7.811  13.305   4.048  1.00  0.00     0.004 C 
ENDBRANCH   8   9
ENDBRANCH   7   8
ENDBRANCH   1   7
TORSDOF 6
ENDMDL
MODEL 7
REMARK VINA RESULT:    -4.319      0.744      1.359
REMARK INTER + INTRA:          -6.065
REMARK INTER:                  -5.861
REMARK INTRA:                  -0.204
REMARK UNBOUND:                -0.230
REMARK SMILES CCCCCCCC(=O)[O-]
REMARK SMILES IDX 5 1 6 2 7 3 8 4 9 5 10 6 4 7 3 8 2 9 1 10
REMARK H PARENT
REMARK Flexibility Score: inf
ROOT
ATOM      1  C   UNL     1     -10.973  11.578   5.679  1.00  0.00     0.000 C 
ENDROOT
BRANCH   1   2
ATOM      2  C   UNL     1     -12.064  10.694   6.316  1.00  0.00     0.006 C 
BRANCH   2   3
ATOM      3  C   UNL     1     -11.978  10.584   7.846  1.00  0.00     0.053 C 
BRANCH   3   4
ATOM      4  C   UNL     1     -12.057  11.925   8.508  1.00  0.00     0.041 C 
ATOM      5  O   UNL     1     -13.155  12.540   8.567  1.00  0.00    -0.550 OA
ATOM      6  O   UNL     1     -10.925  12.482   9.088  1.00  0.00    -0.550 OA
ENDBRANCH   3   4
ENDBRANCH   2   3
ENDBRANCH   1   2
BRANCH   1   7
ATOM      7  C   UNL     1     -10.969  11.601   4.137  1.00  0.00     0.000 C 
BRANCH   7   8
ATOM      8  C   UNL     1      -9.615  11.954   3.491  1.00  0.00    -0.000 C 
BRANCH   8   9
ATOM      9  C   UNL     1      -9.176  13.418   3.667  1.00  0.00    -0.003 C 
ATOM     10  C   UNL     1      -9.673  14.326   2.543  1.00  0.00     0.004 C 
ENDBRANCH   8   9
ENDBRANCH   7   8
ENDBRANCH   1   7
TORSDOF 6
ENDMDL
MODEL 8
REMARK VINA RESULT:    -4.286      4.336      5.529
REMARK INTER + INTRA:          -6.019
REMARK INTER:                  -5.869
REMARK INTRA:                  -0.151
REMARK UNBOUND:                -0.230
REMARK SMILES CCCCCCCC(=O)[O-]
REMARK SMILES IDX 5 1 6 2 7 3 8 4 9 5 10 6 4 7 3 8 2 9 1 10
REMARK H PARENT
REMARK Flexibility Score: inf
ROOT
ATOM      1  C   UNL     1     -12.994   9.009   7.567  1.00  0.00     0.000 C 
ENDROOT
BRANCH   1   2
ATOM      2  C   UNL     1     -13.795   7.794   7.058  1.00  0.00     0.006 C 
BRANCH   2   3
ATOM      3  C   UNL     1     -13.686   6.544   7.946  1.00  0.00     0.053 C 
BRANCH   3   4
ATOM      4  C   UNL     1     -14.941   5.727   7.917  1.00  0.00     0.041 C 
ATOM      5  O   UNL     1     -15.874   5.968   8.728  1.00  0.00    -0.550 OA
ATOM      6  O   UNL     1     -15.093   4.720   6.972  1.00  0.00    -0.550 OA
ENDBRANCH   3   4
ENDBRANCH   2   3
ENDBRANCH   1   2
BRANCH   1   7
ATOM      7  C   UNL     1     -12.549  10.001   6.475  1.00  0.00     0.000 C 
BRANCH   7   8
ATOM      8  C   UNL     1     -11.624  11.136   6.958  1.00  0.00    -0.000 C 
BRANCH   8   9
ATOM      9  C   UNL     1     -12.047  11.794   8.283  1.00  0.00    -0.003 C 
ATOM     10  C   UNL     1     -10.903  12.540   8.968  1.00  0.00     0.004 C 
ENDBRANCH   8   9
ENDBRANCH   7   8
ENDBRANCH   1   7
TORSDOF 6
ENDMDL
MODEL 9
REMARK VINA RESULT:    -4.279      1.783      2.730
REMARK INTER + INTRA:          -6.010
REMARK INTER:                  -5.753
REMARK INTRA:                  -0.256
REMARK UNBOUND:                -0.230
REMARK SMILES CCCCCCCC(=O)[O-]
REMARK SMILES IDX 5 1 6 2 7 3 8 4 9 5 10 6 4 7 3 8 2 9 1 10
REMARK H PARENT
REMARK Flexibility Score: inf
ROOT
ATOM      1  C   UNL     1     -10.207  12.317   3.602  1.00  0.00     0.000 C 
ENDROOT
BRANCH   1   2
ATOM      2  C   UNL     1     -10.961  11.168   4.302  1.00  0.00     0.006 C 
BRANCH   2   3
ATOM      3  C   UNL     1     -11.237  11.407   5.795  1.00  0.00     0.053 C 
BRANCH   3   4
ATOM      4  C   UNL     1     -12.135  10.357   6.371  1.00  0.00     0.041 C 
ATOM      5  O   UNL     1     -12.892   9.687   5.620  1.00  0.00    -0.550 OA
ATOM      6  O   UNL     1     -12.114  10.096   7.736  1.00  0.00    -0.550 OA
ENDBRANCH   3   4
ENDBRANCH   2   3
ENDBRANCH   1   2
BRANCH   1   7
ATOM      7  C   UNL     1      -9.191  13.066   4.488  1.00  0.00     0.000 C 
BRANCH   7   8
ATOM      8  C   UNL     1      -7.818  13.322   3.836  1.00  0.00    -0.000 C 
BRANCH   8   9
ATOM      9  C   UNL     1      -7.328  12.204   2.900  1.00  0.00    -0.003 C 
ATOM     10  C   UNL     1      -6.011  11.579   3.360  1.00  0.00     0.004 C 
ENDBRANCH   8   9
ENDBRANCH   7   8
ENDBRANCH   1   7
TORSDOF 6
ENDMDL
