MODEL 1
REMARK VINA RESULT:    -1.601      0.000      0.000
REMARK INTER + INTRA:          -1.966
REMARK INTER:                  -1.742
REMARK INTRA:                  -0.225
REMARK UNBOUND:                -0.225
REMARK SMILES O=C([O-])c1ccccc1O
REMARK SMILES IDX 4 1 9 2 5 3 8 4 6 5 7 6 2 7 1 8 3 9 10 10
REMARK H PARENT 10 11
REMARK Flexibility Score: inf
ROOT
ATOM      1  C   UNL     1      11.700   8.992  17.928  1.00  0.00     0.039 A 
ATOM      2  C   UNL     1      12.683   8.034  17.568  1.00  0.00     0.124 A 
ATOM      3  C   UNL     1      10.613   9.210  17.062  1.00  0.00     0.014 A 
ATOM      4  C   UNL     1      12.586   7.372  16.337  1.00  0.00     0.047 A 
ATOM      5  C   UNL     1      10.521   8.526  15.847  1.00  0.00     0.001 A 
ATOM      6  C   UNL     1      11.512   7.616  15.481  1.00  0.00     0.004 A 
ENDROOT
BRANCH   1   7
ATOM      7  C   UNL     1      11.796   9.799  19.164  1.00  0.00     0.075 C 
ATOM      8  O   UNL     1      12.818  10.502  19.384  1.00  0.00    -0.545 OA
ATOM      9  O   UNL     1      10.798   9.742  20.130  1.00  0.00    -0.545 OA
ENDBRANCH   1   7
BRANCH   2  10
ATOM     10  O   UNL     1      13.739   7.686  18.412  1.00  0.00    -0.507 OA
ATOM     11  H   UNL     1      13.816   6.786  18.865  1.00  0.00     0.293 HD
ENDBRANCH   2  10
TORSDOF 2
ENDMDL
MODEL 2
REMARK VINA RESULT:    -1.491      2.251      3.942
REMARK INTER + INTRA:          -1.847
REMARK INTER:                  -1.618
REMARK INTRA:                  -0.229
REMARK UNBOUND:                -0.225
REMARK SMILES O=C([O-])c1ccccc1O
REMARK SMILES IDX 4 1 9 2 5 3 8 4 6 5 7 6 2 7 1 8 3 9 10 10
REMARK H PARENT 10 11
REMARK Flexibility Score: inf
ROOT
ATOM      1  C   UNL     1      12.021   7.797  17.323  1.00  0.00     0.039 A 
ATOM      2  C   UNL     1      11.290   9.012  17.346  1.00  0.00     0.124 A 
ATOM      3  C   UNL     1      13.325   7.777  17.853  1.00  0.00     0.014 A 
ATOM      4  C   UNL     1      11.896  10.176  17.835  1.00  0.00     0.047 A 
ATOM      5  C   UNL     1      13.907   8.943  18.356  1.00  0.00     0.001 A 
ATOM      6  C   UNL     1      13.198  10.143  18.338  1.00  0.00     0.004 A 
ENDROOT
BRANCH   1   7
ATOM      7  C   UNL     1      11.479   6.556  16.728  1.00  0.00     0.075 C 
ATOM      8  O   UNL     1      11.066   6.553  15.538  1.00  0.00    -0.545 OA
ATOM      9  O   UNL     1      11.351   5.399  17.488  1.00  0.00    -0.545 OA
ENDBRANCH   1   7
BRANCH   2  10
ATOM     10  O   UNL     1       9.959   9.097  16.932  1.00  0.00    -0.507 OA
ATOM     11  H   UNL     1       9.198   8.635  17.409  1.00  0.00     0.293 HD
ENDBRANCH   2  10
TORSDOF 2
ENDMDL
MODEL 3
REMARK VINA RESULT:    -0.632      1.754      3.218
REMARK INTER + INTRA:          -0.912
REMARK INTER:                  -0.695
REMARK INTRA:                  -0.217
REMARK UNBOUND:                -0.225
REMARK SMILES O=C([O-])c1ccccc1O
REMARK SMILES IDX 4 1 9 2 5 3 8 4 6 5 7 6 2 7 1 8 3 9 10 10
REMARK H PARENT 10 11
REMARK Flexibility Score: inf
ROOT
ATOM      1  C   UNL     1      12.248   7.067  17.582  1.00  0.00     0.039 A 
ATOM      2  C   UNL     1      12.909   8.248  18.008  1.00  0.00     0.124 A 
ATOM      3  C   UNL     1      11.205   7.172  16.643  1.00  0.00     0.014 A 
ATOM      4  C   UNL     1      12.473   9.493  17.539  1.00  0.00     0.047 A 
ATOM      5  C   UNL     1      10.796   8.421  16.169  1.00  0.00     0.001 A 
ATOM      6  C   UNL     1      11.423   9.580  16.624  1.00  0.00     0.004 A 
ENDROOT
BRANCH   1   7
ATOM      7  C   UNL     1      12.589   5.730  18.116  1.00  0.00     0.075 C 
ATOM      8  O   UNL     1      11.766   4.781  18.019  1.00  0.00    -0.545 OA
ATOM      9  O   UNL     1      13.785   5.517  18.791  1.00  0.00    -0.545 OA
ENDBRANCH   1   7
BRANCH   2  10
ATOM     10  O   UNL     1      14.015   8.224  18.861  1.00  0.00    -0.507 OA
ATOM     11  H   UNL     1      13.978   7.880  19.810  1.00  0.00     0.293 HD
ENDBRANCH   2  10
TORSDOF 2
ENDMDL
MODEL 4
REMARK VINA RESULT:    -0.610      2.262      3.393
REMARK INTER + INTRA:          -0.888
REMARK INTER:                  -0.636
REMARK INTRA:                  -0.252
REMARK UNBOUND:                -0.225
REMARK SMILES O=C([O-])c1ccccc1O
REMARK SMILES IDX 4 1 9 2 5 3 8 4 6 5 7 6 2 7 1 8 3 9 10 10
REMARK H PARENT 10 11
REMARK Flexibility Score: inf
ROOT
ATOM      1  C   UNL     1      12.089   7.907  17.139  1.00  0.00     0.039 A 
ATOM      2  C   UNL     1      13.119   7.791  18.109  1.00  0.00     0.124 A 
ATOM      3  C   UNL     1      11.672   9.190  16.740  1.00  0.00     0.014 A 
ATOM      4  C   UNL     1      13.653   8.946  18.693  1.00  0.00     0.047 A 
ATOM      5  C   UNL     1      12.230  10.333  17.319  1.00  0.00     0.001 A 
ATOM      6  C   UNL     1      13.212  10.211  18.301  1.00  0.00     0.004 A 
ENDROOT
BRANCH   1   7
ATOM      7  C   UNL     1      11.411   6.728  16.557  1.00  0.00     0.075 C 
ATOM      8  O   UNL     1      10.979   6.766  15.375  1.00  0.00    -0.545 OA
ATOM      9  O   UNL     1      11.178   5.592  17.323  1.00  0.00    -0.545 OA
ENDBRANCH   1   7
BRANCH   2  10
ATOM     10  O   UNL     1      13.659   6.561  18.488  1.00  0.00    -0.507 OA
ATOM     11  H   UNL     1      14.476   6.155  18.054  1.00  0.00     0.293 HD
ENDBRANCH   2  10
TORSDOF 2
ENDMDL
MODEL 5
REMARK VINA RESULT:    -0.607      1.034      2.127
REMARK INTER + INTRA:          -0.885
REMARK INTER:                  -0.633
REMARK INTRA:                  -0.252
REMARK UNBOUND:                -0.225
REMARK SMILES O=C([O-])c1ccccc1O
REMARK SMILES IDX 4 1 9 2 5 3 8 4 6 5 7 6 2 7 1 8 3 9 10 10
REMARK H PARENT 10 11
REMARK Flexibility Score: inf
ROOT
ATOM      1  C   UNL     1      11.840   9.133  17.798  1.00  0.00     0.039 A 
ATOM      2  C   UNL     1      10.539   8.943  17.265  1.00  0.00     0.124 A 
ATOM      3  C   UNL     1      12.945   8.618  17.095  1.00  0.00     0.014 A 
ATOM      4  C   UNL     1      10.374   8.199  16.091  1.00  0.00     0.047 A 
ATOM      5  C   UNL     1      12.764   7.895  15.913  1.00  0.00     0.001 A 
ATOM      6  C   UNL     1      11.479   7.677  15.417  1.00  0.00     0.004 A 
ENDROOT
BRANCH   1   7
ATOM      7  C   UNL     1      12.077   9.820  19.087  1.00  0.00     0.075 C 
ATOM      8  O   UNL     1      13.139  10.472  19.270  1.00  0.00    -0.545 OA
ATOM      9  O   UNL     1      11.171   9.701  20.134  1.00  0.00    -0.545 OA
ENDBRANCH   1   7
BRANCH   2  10
ATOM     10  O   UNL     1       9.399   9.504  17.846  1.00  0.00    -0.507 OA
ATOM     11  H   UNL     1       8.784   8.995  18.466  1.00  0.00     0.293 HD
ENDBRANCH   2  10
TORSDOF 2
ENDMDL
MODEL 6
REMARK VINA RESULT:    -0.342      1.929      2.712
REMARK INTER + INTRA:          -0.597
REMARK INTER:                  -0.371
REMARK INTRA:                  -0.226
REMARK UNBOUND:                -0.225
REMARK SMILES O=C([O-])c1ccccc1O
REMARK SMILES IDX 4 1 9 2 5 3 8 4 6 5 7 6 2 7 1 8 3 9 10 10
REMARK H PARENT 10 11
REMARK Flexibility Score: inf
ROOT
ATOM      1  C   UNL     1      11.103   9.299  18.355  1.00  0.00     0.039 A 
ATOM      2  C   UNL     1      11.003   8.641  17.101  1.00  0.00     0.124 A 
ATOM      3  C   UNL     1      12.378   9.524  18.905  1.00  0.00     0.014 A 
ATOM      4  C   UNL     1      12.162   8.176  16.469  1.00  0.00     0.047 A 
ATOM      5  C   UNL     1      13.527   9.072  18.250  1.00  0.00     0.001 A 
ATOM      6  C   UNL     1      13.418   8.389  17.039  1.00  0.00     0.004 A 
ENDROOT
BRANCH   1   7
ATOM      7  C   UNL     1       9.913   9.724  19.125  1.00  0.00     0.075 C 
ATOM      8  O   UNL     1       9.983   9.854  20.376  1.00  0.00    -0.545 OA
ATOM      9  O   UNL     1       8.690   9.918  18.494  1.00  0.00    -0.545 OA
ENDBRANCH   1   7
BRANCH   2  10
ATOM     10  O   UNL     1       9.785   8.465  16.440  1.00  0.00    -0.507 OA
ATOM     11  H   UNL     1       8.888   8.640  16.870  1.00  0.00     0.293 HD
ENDBRANCH   2  10
TORSDOF 2
ENDMDL
MODEL 7
REMARK VINA RESULT:     0.364      2.134      2.893
REMARK INTER + INTRA:           0.171
REMARK INTER:                   0.377
REMARK INTRA:                  -0.206
REMARK UNBOUND:                -0.225
REMARK SMILES O=C([O-])c1ccccc1O
REMARK SMILES IDX 4 1 9 2 5 3 8 4 6 5 7 6 2 7 1 8 3 9 10 10
REMARK H PARENT 10 11
REMARK Flexibility Score: inf
ROOT
ATOM      1  C   UNL     1      12.525   8.058  17.619  1.00  0.00     0.039 A 
ATOM      2  C   UNL     1      11.395   7.613  16.886  1.00  0.00     0.124 A 
ATOM      3  C   UNL     1      13.297   7.113  18.320  1.00  0.00     0.014 A 
ATOM      4  C   UNL     1      11.034   6.260  16.923  1.00  0.00     0.047 A 
ATOM      5  C   UNL     1      12.935   5.763  18.330  1.00  0.00     0.001 A 
ATOM      6  C   UNL     1      11.799   5.339  17.641  1.00  0.00     0.004 A 
ENDROOT
BRANCH   1   7
ATOM      7  C   UNL     1      12.902   9.486  17.706  1.00  0.00     0.075 C 
ATOM      8  O   UNL     1      13.931   9.831  18.346  1.00  0.00    -0.545 OA
ATOM      9  O   UNL     1      12.096  10.470  17.147  1.00  0.00    -0.545 OA
ENDBRANCH   1   7
BRANCH   2  10
ATOM     10  O   UNL     1      10.634   8.467  16.086  1.00  0.00    -0.507 OA
ATOM     11  H   UNL     1       9.760   8.195  15.656  1.00  0.00     0.293 HD
ENDBRANCH   2  10
TORSDOF 2
ENDMDL
MODEL 8
REMARK VINA RESULT:     0.406      2.442      3.231
REMARK INTER + INTRA:           0.217
REMARK INTER:                   0.462
REMARK INTRA:                  -0.246
REMARK UNBOUND:                -0.225
REMARK SMILES O=C([O-])c1ccccc1O
REMARK SMILES IDX 4 1 9 2 5 3 8 4 6 5 7 6 2 7 1 8 3 9 10 10
REMARK H PARENT 10 11
REMARK Flexibility Score: inf
ROOT
ATOM      1  C   UNL     1      11.899   7.245  17.318  1.00  0.00     0.039 A 
ATOM      2  C   UNL     1      13.138   7.376  17.996  1.00  0.00     0.124 A 
ATOM      3  C   UNL     1      11.251   5.995  17.321  1.00  0.00     0.014 A 
ATOM      4  C   UNL     1      13.721   6.254  18.597  1.00  0.00     0.047 A 
ATOM      5  C   UNL     1      11.837   4.891  17.944  1.00  0.00     0.001 A 
ATOM      6  C   UNL     1      13.075   5.017  18.572  1.00  0.00     0.004 A 
ENDROOT
BRANCH   1   7
ATOM      7  C   UNL     1      11.278   8.364  16.575  1.00  0.00     0.075 C 
ATOM      8  O   UNL     1      10.967   8.223  15.362  1.00  0.00    -0.545 OA
ATOM      9  O   UNL     1      11.093   9.602  17.178  1.00  0.00    -0.545 OA
ENDBRANCH   1   7
BRANCH   2  10
ATOM     10  O   UNL     1      13.798   8.600  18.125  1.00  0.00    -0.507 OA
ATOM     11  H   UNL     1      13.370   9.489  17.906  1.00  0.00     0.293 HD
ENDBRANCH   2  10
TORSDOF 2
ENDMDL
MODEL 9
REMARK VINA RESULT:     0.483      1.853      3.383
REMARK INTER + INTRA:           0.301
REMARK INTER:                   0.549
REMARK INTRA:                  -0.248
REMARK UNBOUND:                -0.225
REMARK SMILES O=C([O-])c1ccccc1O
REMARK SMILES IDX 4 1 9 2 5 3 8 4 6 5 7 6 2 7 1 8 3 9 10 10
REMARK H PARENT 10 11
REMARK Flexibility Score: inf
ROOT
ATOM      1  C   UNL     1      11.573   8.745  17.369  1.00  0.00     0.039 A 
ATOM      2  C   UNL     1      12.513   9.032  18.392  1.00  0.00     0.124 A 
ATOM      3  C   UNL     1      10.223   9.091  17.570  1.00  0.00     0.014 A 
ATOM      4  C   UNL     1      12.076   9.592  19.598  1.00  0.00     0.047 A 
ATOM      5  C   UNL     1       9.807   9.668  18.772  1.00  0.00     0.001 A 
ATOM      6  C   UNL     1      10.730   9.909  19.788  1.00  0.00     0.004 A 
ENDROOT
BRANCH   1   7
ATOM      7  C   UNL     1      11.950   8.061  16.113  1.00  0.00     0.075 C 
ATOM      8  O   UNL     1      13.006   8.387  15.508  1.00  0.00    -0.545 OA
ATOM      9  O   UNL     1      11.117   7.105  15.545  1.00  0.00    -0.545 OA
ENDBRANCH   1   7
BRANCH   2  10
ATOM     10  O   UNL     1      13.884   8.811  18.236  1.00  0.00    -0.507 OA
ATOM     11  H   UNL     1      14.266   8.044  17.701  1.00  0.00     0.293 HD
ENDBRANCH   2  10
TORSDOF 2
ENDMDL
