MODEL 1
REMARK VINA RESULT:    -5.921      0.000      0.000
REMARK INTER + INTRA:         -10.823
REMARK INTER:                 -10.076
REMARK INTRA:                  -0.747
REMARK UNBOUND:                -0.747
REMARK SMILES CCCCCCCCCCCCCC(=O)[O-]
REMARK SMILES IDX 8 1 9 2 10 3 11 4 12 5 13 6 14 7 15 8 16 9 7 10 6 11 5 12
REMARK SMILES IDX 4 13 3 14 2 15 1 16
REMARK H PARENT
REMARK Flexibility Score: inf
ROOT
ATOM      1  C   UNL     1     -24.362 -31.491  24.903  1.00  0.00     0.000 C 
ENDROOT
BRANCH   1   2
ATOM      2  C   UNL     1     -24.427 -32.750  25.787  1.00  0.00     0.000 C 
BRANCH   2   3
ATOM      3  C   UNL     1     -25.870 -33.205  26.060  1.00  0.00     0.000 C 
BRANCH   3   4
ATOM      4  C   UNL     1     -26.866 -32.037  26.091  1.00  0.00     0.000 C 
BRANCH   4   5
ATOM      5  C   UNL     1     -27.943 -32.205  25.009  1.00  0.00     0.006 C 
BRANCH   5   6
ATOM      6  C   UNL     1     -27.517 -33.193  23.915  1.00  0.00     0.053 C 
BRANCH   6   7
ATOM      7  C   UNL     1     -27.480 -32.543  22.566  1.00  0.00     0.041 C 
ATOM      8  O   UNL     1     -26.397 -32.095  22.107  1.00  0.00    -0.550 OA
ATOM      9  O   UNL     1     -28.649 -32.405  21.827  1.00  0.00    -0.550 OA
ENDBRANCH   6   7
ENDBRANCH   5   6
ENDBRANCH   4   5
ENDBRANCH   3   4
ENDBRANCH   2   3
ENDBRANCH   1   2
BRANCH   1  10
ATOM     10  C   UNL     1     -22.927 -30.971  24.719  1.00  0.00     0.000 C 
BRANCH  10  11
ATOM     11  C   UNL     1     -22.245 -31.550  23.468  1.00  0.00    -0.000 C 
BRANCH  11  12
ATOM     12  C   UNL     1     -20.709 -31.459  23.530  1.00  0.00    -0.000 C 
BRANCH  12  13
ATOM     13  C   UNL     1     -20.159 -30.306  24.392  1.00  0.00    -0.000 C 
BRANCH  13  14
ATOM     14  C   UNL     1     -18.629 -30.132  24.298  1.00  0.00    -0.000 C 
BRANCH  14  15
ATOM     15  C   UNL     1     -17.965 -31.247  23.476  1.00  0.00    -0.003 C 
ATOM     16  C   UNL     1     -16.491 -30.945  23.226  1.00  0.00     0.004 C 
ENDBRANCH  14  15
ENDBRANCH  13  14
ENDBRANCH  12  13
ENDBRANCH  11  12
ENDBRANCH  10  11
ENDBRANCH   1  10
TORSDOF 12
ENDMDL
MODEL 2
REMARK VINA RESULT:    -5.690      0.967      1.559
REMARK INTER + INTRA:         -10.429
REMARK INTER:                  -9.658
REMARK INTRA:                  -0.771
REMARK UNBOUND:                -0.747
REMARK SMILES CCCCCCCCCCCCCC(=O)[O-]
REMARK SMILES IDX 8 1 9 2 10 3 11 4 12 5 13 6 14 7 15 8 16 9 7 10 6 11 5 12
REMARK SMILES IDX 4 13 3 14 2 15 1 16
REMARK H PARENT
REMARK Flexibility Score: inf
ROOT
ATOM      1  C   UNL     1     -23.701 -31.763  24.345  1.00  0.00     0.000 C 
ENDROOT
BRANCH   1   2
ATOM      2  C   UNL     1     -24.499 -30.505  24.735  1.00  0.00     0.000 C 
BRANCH   2   3
ATOM      3  C   UNL     1     -25.803 -30.839  25.476  1.00  0.00     0.000 C 
BRANCH   3   4
ATOM      4  C   UNL     1     -26.076 -32.349  25.548  1.00  0.00     0.000 C 
BRANCH   4   5
ATOM      5  C   UNL     1     -27.382 -32.706  24.823  1.00  0.00     0.006 C 
BRANCH   5   6
ATOM      6  C   UNL     1     -27.147 -33.075  23.352  1.00  0.00     0.053 C 
BRANCH   6   7
ATOM      7  C   UNL     1     -27.744 -32.061  22.425  1.00  0.00     0.041 C 
ATOM      8  O   UNL     1     -28.800 -32.325  21.792  1.00  0.00    -0.550 OA
ATOM      9  O   UNL     1     -27.117 -30.835  22.237  1.00  0.00    -0.550 OA
ENDBRANCH   6   7
ENDBRANCH   5   6
ENDBRANCH   4   5
ENDBRANCH   3   4
ENDBRANCH   2   3
ENDBRANCH   1   2
BRANCH   1  10
ATOM     10  C   UNL     1     -23.030 -31.634  22.968  1.00  0.00     0.000 C 
BRANCH  10  11
ATOM     11  C   UNL     1     -21.621 -32.249  22.937  1.00  0.00    -0.000 C 
BRANCH  11  12
ATOM     12  C   UNL     1     -20.573 -31.374  23.649  1.00  0.00    -0.000 C 
BRANCH  12  13
ATOM     13  C   UNL     1     -19.112 -31.646  23.243  1.00  0.00    -0.000 C 
BRANCH  13  14
ATOM     14  C   UNL     1     -18.098 -30.660  23.861  1.00  0.00    -0.000 C 
BRANCH  14  15
ATOM     15  C   UNL     1     -16.644 -31.083  23.604  1.00  0.00    -0.003 C 
ATOM     16  C   UNL     1     -16.176 -30.637  22.221  1.00  0.00     0.004 C 
ENDBRANCH  14  15
ENDBRANCH  13  14
ENDBRANCH  12  13
ENDBRANCH  11  12
ENDBRANCH  10  11
ENDBRANCH   1  10
TORSDOF 12
ENDMDL
MODEL 3
REMARK VINA RESULT:    -5.679      1.588      2.431
REMARK INTER + INTRA:         -10.410
REMARK INTER:                  -9.687
REMARK INTRA:                  -0.723
REMARK UNBOUND:                -0.747
REMARK SMILES CCCCCCCCCCCCCC(=O)[O-]
REMARK SMILES IDX 8 1 9 2 10 3 11 4 12 5 13 6 14 7 15 8 16 9 7 10 6 11 5 12
REMARK SMILES IDX 4 13 3 14 2 15 1 16
REMARK H PARENT
REMARK Flexibility Score: inf
ROOT
ATOM      1  C   UNL     1     -22.646 -31.110  23.534  1.00  0.00     0.000 C 
ENDROOT
BRANCH   1   2
ATOM      2  C   UNL     1     -23.249 -31.441  24.911  1.00  0.00     0.000 C 
BRANCH   2   3
ATOM      3  C   UNL     1     -24.643 -32.082  24.806  1.00  0.00     0.000 C 
BRANCH   3   4
ATOM      4  C   UNL     1     -24.985 -32.963  26.017  1.00  0.00     0.000 C 
BRANCH   4   5
ATOM      5  C   UNL     1     -26.485 -32.900  26.335  1.00  0.00     0.006 C 
BRANCH   5   6
ATOM      6  C   UNL     1     -27.007 -31.458  26.399  1.00  0.00     0.053 C 
BRANCH   6   7
ATOM      7  C   UNL     1     -28.174 -31.250  25.484  1.00  0.00     0.041 C 
ATOM      8  O   UNL     1     -28.288 -31.935  24.435  1.00  0.00    -0.550 OA
ATOM      9  O   UNL     1     -29.122 -30.277  25.777  1.00  0.00    -0.550 OA
ENDBRANCH   6   7
ENDBRANCH   5   6
ENDBRANCH   4   5
ENDBRANCH   3   4
ENDBRANCH   2   3
ENDBRANCH   1   2
BRANCH   1  10
ATOM     10  C   UNL     1     -21.721 -32.222  23.011  1.00  0.00     0.000 C 
BRANCH  10  11
ATOM     11  C   UNL     1     -20.233 -31.911  23.244  1.00  0.00    -0.000 C 
BRANCH  11  12
ATOM     12  C   UNL     1     -19.976 -30.427  23.559  1.00  0.00    -0.000 C 
BRANCH  12  13
ATOM     13  C   UNL     1     -18.700 -30.146  24.377  1.00  0.00    -0.000 C 
BRANCH  13  14
ATOM     14  C   UNL     1     -17.427 -30.792  23.791  1.00  0.00    -0.000 C 
BRANCH  14  15
ATOM     15  C   UNL     1     -16.841 -29.975  22.630  1.00  0.00    -0.003 C 
ATOM     16  C   UNL     1     -16.687 -30.831  21.377  1.00  0.00     0.004 C 
ENDBRANCH  14  15
ENDBRANCH  13  14
ENDBRANCH  12  13
ENDBRANCH  11  12
ENDBRANCH  10  11
ENDBRANCH   1  10
TORSDOF 12
ENDMDL
MODEL 4
REMARK VINA RESULT:    -5.633      2.112      3.638
REMARK INTER + INTRA:         -10.332
REMARK INTER:                  -9.622
REMARK INTRA:                  -0.710
REMARK UNBOUND:                -0.747
REMARK SMILES CCCCCCCCCCCCCC(=O)[O-]
REMARK SMILES IDX 8 1 9 2 10 3 11 4 12 5 13 6 14 7 15 8 16 9 7 10 6 11 5 12
REMARK SMILES IDX 4 13 3 14 2 15 1 16
REMARK H PARENT
REMARK Flexibility Score: inf
ROOT
ATOM      1  C   UNL     1     -20.872 -31.408  23.555  1.00  0.00     0.000 C 
ENDROOT
BRANCH   1   2
ATOM      2  C   UNL     1     -22.407 -31.505  23.609  1.00  0.00     0.000 C 
BRANCH   2   3
ATOM      3  C   UNL     1     -23.045 -30.342  24.385  1.00  0.00     0.000 C 
BRANCH   3   4
ATOM      4  C   UNL     1     -24.409 -30.709  24.991  1.00  0.00     0.000 C 
BRANCH   4   5
ATOM      5  C   UNL     1     -24.483 -32.210  25.307  1.00  0.00     0.006 C 
BRANCH   5   6
ATOM      6  C   UNL     1     -25.889 -32.782  25.081  1.00  0.00     0.053 C 
BRANCH   6   7
ATOM      7  C   UNL     1     -26.770 -32.574  26.274  1.00  0.00     0.041 C 
ATOM      8  O   UNL     1     -27.525 -31.568  26.337  1.00  0.00    -0.550 OA
ATOM      9  O   UNL     1     -26.735 -33.476  27.330  1.00  0.00    -0.550 OA
ENDBRANCH   6   7
ENDBRANCH   5   6
ENDBRANCH   4   5
ENDBRANCH   3   4
ENDBRANCH   2   3
ENDBRANCH   1   2
BRANCH   1  10
ATOM     10  C   UNL     1     -20.319 -30.281  24.441  1.00  0.00     0.000 C 
BRANCH  10  11
ATOM     11  C   UNL     1     -18.800 -30.095  24.283  1.00  0.00    -0.000 C 
BRANCH  11  12
ATOM     12  C   UNL     1     -18.129 -31.271  23.552  1.00  0.00    -0.000 C 
BRANCH  12  13
ATOM     13  C   UNL     1     -16.590 -31.205  23.486  1.00  0.00    -0.000 C 
BRANCH  13  14
ATOM     14  C   UNL     1     -16.052 -30.326  22.337  1.00  0.00    -0.000 C 
BRANCH  14  15
ATOM     15  C   UNL     1     -16.697 -30.675  20.986  1.00  0.00    -0.003 C 
ATOM     16  C   UNL     1     -16.251 -29.705  19.896  1.00  0.00     0.004 C 
ENDBRANCH  14  15
ENDBRANCH  13  14
ENDBRANCH  12  13
ENDBRANCH  11  12
ENDBRANCH  10  11
ENDBRANCH   1  10
TORSDOF 12
ENDMDL
MODEL 5
REMARK VINA RESULT:    -5.606      4.030      7.839
REMARK INTER + INTRA:         -10.287
REMARK INTER:                  -9.188
REMARK INTRA:                  -1.099
REMARK UNBOUND:                -0.747
REMARK SMILES CCCCCCCCCCCCCC(=O)[O-]
REMARK SMILES IDX 8 1 9 2 10 3 11 4 12 5 13 6 14 7 15 8 16 9 7 10 6 11 5 12
REMARK SMILES IDX 4 13 3 14 2 15 1 16
REMARK H PARENT
REMARK Flexibility Score: inf
ROOT
ATOM      1  C   UNL     1     -22.477 -31.572  23.098  1.00  0.00     0.000 C 
ENDROOT
BRANCH   1   2
ATOM      2  C   UNL     1     -22.476 -30.609  24.299  1.00  0.00     0.000 C 
BRANCH   2   3
ATOM      3  C   UNL     1     -21.058 -30.295  24.803  1.00  0.00     0.000 C 
BRANCH   3   4
ATOM      4  C   UNL     1     -19.963 -30.909  23.918  1.00  0.00     0.000 C 
BRANCH   4   5
ATOM      5  C   UNL     1     -18.599 -30.267  24.209  1.00  0.00     0.006 C 
BRANCH   5   6
ATOM      6  C   UNL     1     -17.438 -31.070  23.606  1.00  0.00     0.053 C 
BRANCH   6   7
ATOM      7  C   UNL     1     -16.752 -30.314  22.511  1.00  0.00     0.041 C 
ATOM      8  O   UNL     1     -15.891 -30.883  21.790  1.00  0.00    -0.550 OA
ATOM      9  O   UNL     1     -17.041 -28.970  22.306  1.00  0.00    -0.550 OA
ENDBRANCH   6   7
ENDBRANCH   5   6
ENDBRANCH   4   5
ENDBRANCH   3   4
ENDBRANCH   2   3
ENDBRANCH   1   2
BRANCH   1  10
ATOM     10  C   UNL     1     -23.285 -31.032  21.907  1.00  0.00     0.000 C 
BRANCH  10  11
ATOM     11  C   UNL     1     -24.729 -30.664  22.291  1.00  0.00    -0.000 C 
BRANCH  11  12
ATOM     12  C   UNL     1     -25.686 -31.868  22.233  1.00  0.00    -0.000 C 
BRANCH  12  13
ATOM     13  C   UNL     1     -26.758 -31.903  23.340  1.00  0.00    -0.000 C 
BRANCH  13  14
ATOM     14  C   UNL     1     -26.457 -32.911  24.469  1.00  0.00    -0.000 C 
BRANCH  14  15
ATOM     15  C   UNL     1     -25.619 -32.288  25.597  1.00  0.00    -0.003 C 
ATOM     16  C   UNL     1     -24.564 -33.267  26.104  1.00  0.00     0.004 C 
ENDBRANCH  14  15
ENDBRANCH  13  14
ENDBRANCH  12  13
ENDBRANCH  11  12
ENDBRANCH  10  11
ENDBRANCH   1  10
TORSDOF 12
ENDMDL
MODEL 6
REMARK VINA RESULT:    -5.591      3.947      8.204
REMARK INTER + INTRA:         -10.261
REMARK INTER:                  -9.356
REMARK INTRA:                  -0.905
REMARK UNBOUND:                -0.747
REMARK SMILES CCCCCCCCCCCCCC(=O)[O-]
REMARK SMILES IDX 8 1 9 2 10 3 11 4 12 5 13 6 14 7 15 8 16 9 7 10 6 11 5 12
REMARK SMILES IDX 4 13 3 14 2 15 1 16
REMARK H PARENT
REMARK Flexibility Score: inf
ROOT
ATOM      1  C   UNL     1     -22.698 -31.119  22.878  1.00  0.00     0.000 C 
ENDROOT
BRANCH   1   2
ATOM      2  C   UNL     1     -21.678 -32.242  23.141  1.00  0.00     0.000 C 
BRANCH   2   3
ATOM      3  C   UNL     1     -20.246 -31.710  23.314  1.00  0.00     0.000 C 
BRANCH   3   4
ATOM      4  C   UNL     1     -20.162 -30.539  24.303  1.00  0.00     0.000 C 
BRANCH   4   5
ATOM      5  C   UNL     1     -18.739 -29.964  24.354  1.00  0.00     0.006 C 
BRANCH   5   6
ATOM      6  C   UNL     1     -17.709 -30.904  23.713  1.00  0.00     0.053 C 
BRANCH   6   7
ATOM      7  C   UNL     1     -16.893 -30.204  22.671  1.00  0.00     0.041 C 
ATOM      8  O   UNL     1     -17.117 -28.996  22.396  1.00  0.00    -0.550 OA
ATOM      9  O   UNL     1     -15.904 -30.894  21.981  1.00  0.00    -0.550 OA
ENDBRANCH   6   7
ENDBRANCH   5   6
ENDBRANCH   4   5
ENDBRANCH   3   4
ENDBRANCH   2   3
ENDBRANCH   1   2
BRANCH   1  10
ATOM     10  C   UNL     1     -24.066 -31.399  23.521  1.00  0.00     0.000 C 
BRANCH  10  11
ATOM     11  C   UNL     1     -23.944 -31.943  24.955  1.00  0.00    -0.000 C 
BRANCH  11  12
ATOM     12  C   UNL     1     -25.272 -32.504  25.495  1.00  0.00    -0.000 C 
BRANCH  12  13
ATOM     13  C   UNL     1     -26.456 -31.517  25.466  1.00  0.00    -0.000 C 
BRANCH  13  14
ATOM     14  C   UNL     1     -27.699 -32.055  24.725  1.00  0.00    -0.000 C 
BRANCH  14  15
ATOM     15  C   UNL     1     -27.367 -33.259  23.831  1.00  0.00    -0.003 C 
ATOM     16  C   UNL     1     -28.036 -33.132  22.465  1.00  0.00     0.004 C 
ENDBRANCH  14  15
ENDBRANCH  13  14
ENDBRANCH  12  13
ENDBRANCH  11  12
ENDBRANCH  10  11
ENDBRANCH   1  10
TORSDOF 12
ENDMDL
MODEL 7
REMARK VINA RESULT:    -5.543      4.206      8.895
REMARK INTER + INTRA:         -10.178
REMARK INTER:                  -9.726
REMARK INTRA:                  -0.453
REMARK UNBOUND:                -0.747
REMARK SMILES CCCCCCCCCCCCCC(=O)[O-]
REMARK SMILES IDX 8 1 9 2 10 3 11 4 12 5 13 6 14 7 15 8 16 9 7 10 6 11 5 12
REMARK SMILES IDX 4 13 3 14 2 15 1 16
REMARK H PARENT
REMARK Flexibility Score: inf
ROOT
ATOM      1  C   UNL     1     -20.817 -30.847  23.728  1.00  0.00     0.000 C 
ENDROOT
BRANCH   1   2
ATOM      2  C   UNL     1     -19.413 -31.466  23.605  1.00  0.00     0.000 C 
BRANCH   2   3
ATOM      3  C   UNL     1     -18.293 -30.439  23.837  1.00  0.00     0.000 C 
BRANCH   3   4
ATOM      4  C   UNL     1     -16.890 -31.043  23.676  1.00  0.00     0.000 C 
BRANCH   4   5
ATOM      5  C   UNL     1     -16.173 -30.447  22.456  1.00  0.00     0.006 C 
BRANCH   5   6
ATOM      6  C   UNL     1     -16.885 -29.200  21.915  1.00  0.00     0.053 C 
BRANCH   6   7
ATOM      7  C   UNL     1     -16.469 -28.891  20.509  1.00  0.00     0.041 C 
ATOM      8  O   UNL     1     -16.071 -27.736  20.205  1.00  0.00    -0.550 OA
ATOM      9  O   UNL     1     -16.550 -29.872  19.528  1.00  0.00    -0.550 OA
ENDBRANCH   6   7
ENDBRANCH   5   6
ENDBRANCH   4   5
ENDBRANCH   3   4
ENDBRANCH   2   3
ENDBRANCH   1   2
BRANCH   1  10
ATOM     10  C   UNL     1     -21.922 -31.779  23.204  1.00  0.00     0.000 C 
BRANCH  10  11
ATOM     11  C   UNL     1     -23.330 -31.316  23.616  1.00  0.00    -0.000 C 
BRANCH  11  12
ATOM     12  C   UNL     1     -23.769 -31.883  24.978  1.00  0.00    -0.000 C 
BRANCH  12  13
ATOM     13  C   UNL     1     -25.293 -32.017  25.168  1.00  0.00    -0.000 C 
BRANCH  13  14
ATOM     14  C   UNL     1     -26.070 -32.226  23.852  1.00  0.00    -0.000 C 
BRANCH  14  15
ATOM     15  C   UNL     1     -27.282 -33.152  24.032  1.00  0.00    -0.003 C 
ATOM     16  C   UNL     1     -28.027 -33.348  22.714  1.00  0.00     0.004 C 
ENDBRANCH  14  15
ENDBRANCH  13  14
ENDBRANCH  12  13
ENDBRANCH  11  12
ENDBRANCH  10  11
ENDBRANCH   1  10
TORSDOF 12
ENDMDL
MODEL 8
REMARK VINA RESULT:    -5.484      3.203      7.052
REMARK INTER + INTRA:         -10.079
REMARK INTER:                  -8.287
REMARK INTRA:                  -1.792
REMARK UNBOUND:                -0.747
REMARK SMILES CCCCCCCCCCCCCC(=O)[O-]
REMARK SMILES IDX 8 1 9 2 10 3 11 4 12 5 13 6 14 7 15 8 16 9 7 10 6 11 5 12
REMARK SMILES IDX 4 13 3 14 2 15 1 16
REMARK H PARENT
REMARK Flexibility Score: inf
ROOT
ATOM      1  C   UNL     1     -26.393 -32.687  26.261  1.00  0.00     0.000 C 
ENDROOT
BRANCH   1   2
ATOM      2  C   UNL     1     -25.027 -32.890  25.581  1.00  0.00     0.000 C 
BRANCH   2   3
ATOM      3  C   UNL     1     -24.380 -31.564  25.149  1.00  0.00     0.000 C 
BRANCH   3   4
ATOM      4  C   UNL     1     -23.948 -31.566  23.675  1.00  0.00     0.000 C 
BRANCH   4   5
ATOM      5  C   UNL     1     -22.447 -31.860  23.543  1.00  0.00     0.006 C 
BRANCH   5   6
ATOM      6  C   UNL     1     -21.627 -30.592  23.268  1.00  0.00     0.053 C 
BRANCH   6   7
ATOM      7  C   UNL     1     -20.689 -30.284  24.394  1.00  0.00     0.041 C 
ATOM      8  O   UNL     1     -21.113 -29.724  25.439  1.00  0.00    -0.550 OA
ATOM      9  O   UNL     1     -19.338 -30.589  24.277  1.00  0.00    -0.550 OA
ENDBRANCH   6   7
ENDBRANCH   5   6
ENDBRANCH   4   5
ENDBRANCH   3   4
ENDBRANCH   2   3
ENDBRANCH   1   2
BRANCH   1  10
ATOM     10  C   UNL     1     -26.842 -31.217  26.259  1.00  0.00     0.000 C 
BRANCH  10  11
ATOM     11  C   UNL     1     -28.264 -31.034  25.703  1.00  0.00    -0.000 C 
BRANCH  11  12
ATOM     12  C   UNL     1     -28.339 -29.964  24.599  1.00  0.00    -0.000 C 
BRANCH  12  13
ATOM     13  C   UNL     1     -27.446 -30.231  23.371  1.00  0.00    -0.000 C 
BRANCH  13  14
ATOM     14  C   UNL     1     -28.010 -31.298  22.410  1.00  0.00    -0.000 C 
BRANCH  14  15
ATOM     15  C   UNL     1     -27.217 -32.612  22.470  1.00  0.00    -0.003 C 
ATOM     16  C   UNL     1     -28.060 -33.738  23.062  1.00  0.00     0.004 C 
ENDBRANCH  14  15
ENDBRANCH  13  14
ENDBRANCH  12  13
ENDBRANCH  11  12
ENDBRANCH  10  11
ENDBRANCH   1  10
TORSDOF 12
ENDMDL
MODEL 9
REMARK VINA RESULT:    -5.447      1.841      2.696
REMARK INTER + INTRA:         -10.015
REMARK INTER:                  -9.323
REMARK INTRA:                  -0.692
REMARK UNBOUND:                -0.747
REMARK SMILES CCCCCCCCCCCCCC(=O)[O-]
REMARK SMILES IDX 8 1 9 2 10 3 11 4 12 5 13 6 14 7 15 8 16 9 7 10 6 11 5 12
REMARK SMILES IDX 4 13 3 14 2 15 1 16
REMARK H PARENT
REMARK Flexibility Score: inf
ROOT
ATOM      1  C   UNL     1     -22.415 -31.870  23.537  1.00  0.00     0.000 C 
ENDROOT
BRANCH   1   2
ATOM      2  C   UNL     1     -23.201 -30.768  24.270  1.00  0.00     0.000 C 
BRANCH   2   3
ATOM      3  C   UNL     1     -24.700 -30.784  23.927  1.00  0.00     0.000 C 
BRANCH   3   4
ATOM      4  C   UNL     1     -25.041 -31.767  22.797  1.00  0.00     0.000 C 
BRANCH   4   5
ATOM      5  C   UNL     1     -26.216 -31.250  21.956  1.00  0.00     0.006 C 
BRANCH   5   6
ATOM      6  C   UNL     1     -27.457 -32.146  22.077  1.00  0.00     0.053 C 
BRANCH   6   7
ATOM      7  C   UNL     1     -28.472 -31.563  23.011  1.00  0.00     0.041 C 
ATOM      8  O   UNL     1     -29.495 -30.987  22.557  1.00  0.00    -0.550 OA
ATOM      9  O   UNL     1     -28.273 -31.629  24.385  1.00  0.00    -0.550 OA
ENDBRANCH   6   7
ENDBRANCH   5   6
ENDBRANCH   4   5
ENDBRANCH   3   4
ENDBRANCH   2   3
ENDBRANCH   1   2
BRANCH   1  10
ATOM     10  C   UNL     1     -20.927 -31.524  23.371  1.00  0.00     0.000 C 
BRANCH  10  11
ATOM     11  C   UNL     1     -20.489 -30.354  24.268  1.00  0.00    -0.000 C 
BRANCH  11  12
ATOM     12  C   UNL     1     -18.959 -30.221  24.370  1.00  0.00    -0.000 C 
BRANCH  12  13
ATOM     13  C   UNL     1     -18.158 -31.254  23.552  1.00  0.00    -0.000 C 
BRANCH  13  14
ATOM     14  C   UNL     1     -16.646 -30.954  23.477  1.00  0.00    -0.000 C 
BRANCH  14  15
ATOM     15  C   UNL     1     -16.200 -30.565  22.060  1.00  0.00    -0.003 C 
ATOM     16  C   UNL     1     -16.428 -29.079  21.798  1.00  0.00     0.004 C 
ENDBRANCH  14  15
ENDBRANCH  13  14
ENDBRANCH  12  13
ENDBRANCH  11  12
ENDBRANCH  10  11
ENDBRANCH   1  10
TORSDOF 12
ENDMDL
