MODEL 1
REMARK VINA RESULT:    -4.694      0.000      0.000
REMARK INTER + INTRA:          -4.694
REMARK INTER:                  -4.694
REMARK INTRA:                   0.000
REMARK UNBOUND:                 0.000
REMARK SMILES CC(C)=C1CC[C@H](C)CC1=O
REMARK SMILES IDX 8 1 7 2 6 3 5 4 4 5 2 6 1 7 3 8 10 9 11 10 9 11
REMARK H PARENT
REMARK Flexibility Score: inf
ROOT
ATOM      1  C   UNL     1      -3.918 -12.660  20.411  1.00  0.00     0.008 C 
ATOM      2  C   UNL     1      -4.620 -12.193  19.132  1.00  0.00    -0.006 C 
ATOM      3  C   UNL     1      -4.275 -10.726  18.830  1.00  0.00     0.008 C 
ATOM      4  C   UNL     1      -5.049 -10.210  17.610  1.00  0.00     0.039 C 
ATOM      5  C   UNL     1      -4.889 -11.110  16.393  1.00  0.00    -0.006 C 
ATOM      6  C   UNL     1      -4.908 -10.602  15.126  1.00  0.00    -0.070 C 
ATOM      7  C   UNL     1      -5.107  -9.125  14.878  1.00  0.00     0.039 C 
ATOM      8  C   UNL     1      -4.694 -11.478  13.913  1.00  0.00     0.039 C 
ATOM      9  C   UNL     1      -4.829 -12.578  16.666  1.00  0.00     0.159 C 
ATOM     10  O   UNL     1      -5.286 -13.417  15.844  1.00  0.00    -0.295 OA
ATOM     11  C   UNL     1      -4.222 -13.081  17.944  1.00  0.00     0.084 C 
ENDROOT
TORSDOF 0
ENDMDL
MODEL 2
REMARK VINA RESULT:    -4.684      1.319      3.896
REMARK INTER + INTRA:          -4.684
REMARK INTER:                  -4.684
REMARK INTRA:                   0.000
REMARK UNBOUND:                 0.000
REMARK SMILES CC(C)=C1CC[C@H](C)CC1=O
REMARK SMILES IDX 8 1 7 2 6 3 5 4 4 5 2 6 1 7 3 8 10 9 11 10 9 11
REMARK H PARENT
REMARK Flexibility Score: inf
ROOT
ATOM      1  C   UNL     1      -4.373  -8.340  14.503  1.00  0.00     0.008 C 
ATOM      2  C   UNL     1      -4.244  -9.591  15.377  1.00  0.00    -0.006 C 
ATOM      3  C   UNL     1      -5.104  -9.457  16.644  1.00  0.00     0.008 C 
ATOM      4  C   UNL     1      -4.909 -10.657  17.581  1.00  0.00     0.039 C 
ATOM      5  C   UNL     1      -5.115 -11.989  16.874  1.00  0.00    -0.006 C 
ATOM      6  C   UNL     1      -5.615 -13.073  17.535  1.00  0.00    -0.070 C 
ATOM      7  C   UNL     1      -5.970 -13.002  19.003  1.00  0.00     0.039 C 
ATOM      8  C   UNL     1      -5.877 -14.385  16.830  1.00  0.00     0.039 C 
ATOM      9  C   UNL     1      -4.631 -12.065  15.463  1.00  0.00     0.159 C 
ATOM     10  O   UNL     1      -4.185 -13.139  14.980  1.00  0.00    -0.295 OA
ATOM     11  C   UNL     1      -4.662 -10.843  14.590  1.00  0.00     0.084 C 
ENDROOT
TORSDOF 0
ENDMDL
MODEL 3
REMARK VINA RESULT:    -4.610     17.518     18.795
REMARK INTER + INTRA:          -4.610
REMARK INTER:                  -4.610
REMARK INTRA:                   0.000
REMARK UNBOUND:                 0.000
REMARK SMILES CC(C)=C1CC[C@H](C)CC1=O
REMARK SMILES IDX 8 1 7 2 6 3 5 4 4 5 2 6 1 7 3 8 10 9 11 10 9 11
REMARK H PARENT
REMARK Flexibility Score: inf
ROOT
ATOM      1  C   UNL     1     -18.505  -4.623   8.016  1.00  0.00     0.008 C 
ATOM      2  C   UNL     1     -18.612  -3.743   9.265  1.00  0.00    -0.006 C 
ATOM      3  C   UNL     1     -17.387  -2.822   9.384  1.00  0.00     0.008 C 
ATOM      4  C   UNL     1     -17.427  -2.006  10.683  1.00  0.00     0.039 C 
ATOM      5  C   UNL     1     -18.740  -1.257  10.861  1.00  0.00    -0.006 C 
ATOM      6  C   UNL     1     -18.790  -0.056  11.508  1.00  0.00    -0.070 C 
ATOM      7  C   UNL     1     -17.545   0.573  12.091  1.00  0.00     0.039 C 
ATOM      8  C   UNL     1     -20.079   0.724  11.643  1.00  0.00     0.039 C 
ATOM      9  C   UNL     1     -19.969  -1.966  10.395  1.00  0.00     0.159 C 
ATOM     10  O   UNL     1     -21.078  -1.803  10.969  1.00  0.00    -0.295 OA
ATOM     11  C   UNL     1     -19.897  -2.903   9.223  1.00  0.00     0.084 C 
ENDROOT
TORSDOF 0
ENDMDL
MODEL 4
REMARK VINA RESULT:    -4.544     17.244     18.417
REMARK INTER + INTRA:          -4.544
REMARK INTER:                  -4.544
REMARK INTRA:                   0.000
REMARK UNBOUND:                 0.000
REMARK SMILES CC(C)=C1CC[C@H](C)CC1=O
REMARK SMILES IDX 8 1 7 2 6 3 5 4 4 5 2 6 1 7 3 8 10 9 11 10 9 11
REMARK H PARENT
REMARK Flexibility Score: inf
ROOT
ATOM      1  C   UNL     1     -17.128  -0.265  12.369  1.00  0.00     0.008 C 
ATOM      2  C   UNL     1     -17.851  -0.937  11.198  1.00  0.00    -0.006 C 
ATOM      3  C   UNL     1     -17.015  -2.101  10.642  1.00  0.00     0.008 C 
ATOM      4  C   UNL     1     -17.676  -2.722   9.404  1.00  0.00     0.039 C 
ATOM      5  C   UNL     1     -19.127  -3.111   9.650  1.00  0.00    -0.006 C 
ATOM      6  C   UNL     1     -19.693  -4.179   9.016  1.00  0.00    -0.070 C 
ATOM      7  C   UNL     1     -18.908  -5.010   8.028  1.00  0.00     0.039 C 
ATOM      8  C   UNL     1     -21.116  -4.608   9.294  1.00  0.00     0.039 C 
ATOM      9  C   UNL     1     -19.913  -2.191  10.527  1.00  0.00     0.159 C 
ATOM     10  O   UNL     1     -21.149  -2.016  10.352  1.00  0.00    -0.295 OA
ATOM     11  C   UNL     1     -19.232  -1.447  11.639  1.00  0.00     0.084 C 
ENDROOT
TORSDOF 0
ENDMDL
MODEL 5
REMARK VINA RESULT:    -4.470      1.512      2.413
REMARK INTER + INTRA:          -4.470
REMARK INTER:                  -4.470
REMARK INTRA:                   0.000
REMARK UNBOUND:                 0.000
REMARK SMILES CC(C)=C1CC[C@H](C)CC1=O
REMARK SMILES IDX 8 1 7 2 6 3 5 4 4 5 2 6 1 7 3 8 10 9 11 10 9 11
REMARK H PARENT
REMARK Flexibility Score: inf
ROOT
ATOM      1  C   UNL     1      -5.050 -13.451  20.002  1.00  0.00     0.008 C 
ATOM      2  C   UNL     1      -4.545 -12.788  18.717  1.00  0.00    -0.006 C 
ATOM      3  C   UNL     1      -4.959 -13.610  17.485  1.00  0.00     0.008 C 
ATOM      4  C   UNL     1      -4.375 -13.017  16.196  1.00  0.00     0.039 C 
ATOM      5  C   UNL     1      -4.687 -11.535  16.041  1.00  0.00    -0.006 C 
ATOM      6  C   UNL     1      -4.857 -10.971  14.810  1.00  0.00    -0.070 C 
ATOM      7  C   UNL     1      -4.725 -11.790  13.547  1.00  0.00     0.039 C 
ATOM      8  C   UNL     1      -5.223  -9.512  14.646  1.00  0.00     0.039 C 
ATOM      9  C   UNL     1      -4.678 -10.728  17.298  1.00  0.00     0.159 C 
ATOM     10  O   UNL     1      -4.325  -9.519  17.298  1.00  0.00    -0.295 OA
ATOM     11  C   UNL     1      -5.089 -11.357  18.599  1.00  0.00     0.084 C 
ENDROOT
TORSDOF 0
ENDMDL
MODEL 6
REMARK VINA RESULT:    -4.266     10.264     11.470
REMARK INTER + INTRA:          -4.266
REMARK INTER:                  -4.266
REMARK INTRA:                   0.000
REMARK UNBOUND:                 0.000
REMARK SMILES CC(C)=C1CC[C@H](C)CC1=O
REMARK SMILES IDX 8 1 7 2 6 3 5 4 4 5 2 6 1 7 3 8 10 9 11 10 9 11
REMARK H PARENT
REMARK Flexibility Score: inf
ROOT
ATOM      1  C   UNL     1      -6.481  -0.869  14.014  1.00  0.00     0.008 C 
ATOM      2  C   UNL     1      -6.752  -1.291  12.567  1.00  0.00    -0.006 C 
ATOM      3  C   UNL     1      -5.838  -0.522  11.599  1.00  0.00     0.008 C 
ATOM      4  C   UNL     1      -6.166  -0.857  10.137  1.00  0.00     0.039 C 
ATOM      5  C   UNL     1      -6.172  -2.355   9.869  1.00  0.00    -0.006 C 
ATOM      6  C   UNL     1      -5.804  -2.860   8.655  1.00  0.00    -0.070 C 
ATOM      7  C   UNL     1      -5.393  -1.951   7.520  1.00  0.00     0.039 C 
ATOM      8  C   UNL     1      -5.752  -4.349   8.394  1.00  0.00     0.039 C 
ATOM      9  C   UNL     1      -6.710  -3.216  10.964  1.00  0.00     0.159 C 
ATOM     10  O   UNL     1      -7.318  -4.291  10.714  1.00  0.00    -0.295 OA
ATOM     11  C   UNL     1      -6.540  -2.803  12.398  1.00  0.00     0.084 C 
ENDROOT
TORSDOF 0
ENDMDL
MODEL 7
REMARK VINA RESULT:    -4.249     17.350     18.486
REMARK INTER + INTRA:          -4.249
REMARK INTER:                  -4.249
REMARK INTRA:                   0.000
REMARK UNBOUND:                 0.000
REMARK SMILES CC(C)=C1CC[C@H](C)CC1=O
REMARK SMILES IDX 8 1 7 2 6 3 5 4 4 5 2 6 1 7 3 8 10 9 11 10 9 11
REMARK H PARENT
REMARK Flexibility Score: inf
ROOT
ATOM      1  C   UNL     1     -16.999  -0.411  12.137  1.00  0.00     0.008 C 
ATOM      2  C   UNL     1     -17.785  -1.572  11.521  1.00  0.00    -0.006 C 
ATOM      3  C   UNL     1     -19.295  -1.285  11.562  1.00  0.00     0.008 C 
ATOM      4  C   UNL     1     -20.104  -2.480  11.041  1.00  0.00     0.039 C 
ATOM      5  C   UNL     1     -19.636  -2.951   9.671  1.00  0.00    -0.006 C 
ATOM      6  C   UNL     1     -20.507  -3.494   8.772  1.00  0.00    -0.070 C 
ATOM      7  C   UNL     1     -21.971  -3.668   9.105  1.00  0.00     0.039 C 
ATOM      8  C   UNL     1     -20.065  -3.913   7.388  1.00  0.00     0.039 C 
ATOM      9  C   UNL     1     -18.164  -2.890   9.424  1.00  0.00     0.159 C 
ATOM     10  O   UNL     1     -17.589  -3.729   8.682  1.00  0.00    -0.295 OA
ATOM     11  C   UNL     1     -17.337  -1.816  10.072  1.00  0.00     0.084 C 
ENDROOT
TORSDOF 0
ENDMDL
MODEL 8
REMARK VINA RESULT:    -4.241     17.279     18.772
REMARK INTER + INTRA:          -4.241
REMARK INTER:                  -4.241
REMARK INTRA:                   0.000
REMARK UNBOUND:                 0.000
REMARK SMILES CC(C)=C1CC[C@H](C)CC1=O
REMARK SMILES IDX 8 1 7 2 6 3 5 4 4 5 2 6 1 7 3 8 10 9 11 10 9 11
REMARK H PARENT
REMARK Flexibility Score: inf
ROOT
ATOM      1  C   UNL     1     -19.261  -5.104   8.676  1.00  0.00     0.008 C 
ATOM      2  C   UNL     1     -19.112  -3.605   8.952  1.00  0.00    -0.006 C 
ATOM      3  C   UNL     1     -20.374  -3.053   9.634  1.00  0.00     0.008 C 
ATOM      4  C   UNL     1     -20.285  -1.533   9.827  1.00  0.00     0.039 C 
ATOM      5  C   UNL     1     -19.006  -1.107  10.533  1.00  0.00    -0.006 C 
ATOM      6  C   UNL     1     -18.975  -0.013  11.348  1.00  0.00    -0.070 C 
ATOM      7  C   UNL     1     -20.207   0.833  11.570  1.00  0.00     0.039 C 
ATOM      8  C   UNL     1     -17.725   0.387  12.099  1.00  0.00     0.039 C 
ATOM      9  C   UNL     1     -17.777  -1.883  10.188  1.00  0.00     0.159 C 
ATOM     10  O   UNL     1     -16.639  -1.341  10.182  1.00  0.00    -0.295 OA
ATOM     11  C   UNL     1     -17.881  -3.338   9.831  1.00  0.00     0.084 C 
ENDROOT
TORSDOF 0
ENDMDL
MODEL 9
REMARK VINA RESULT:    -4.209     17.442     18.818
REMARK INTER + INTRA:          -4.209
REMARK INTER:                  -4.209
REMARK INTRA:                   0.000
REMARK UNBOUND:                 0.000
REMARK SMILES CC(C)=C1CC[C@H](C)CC1=O
REMARK SMILES IDX 8 1 7 2 6 3 5 4 4 5 2 6 1 7 3 8 10 9 11 10 9 11
REMARK H PARENT
REMARK Flexibility Score: inf
ROOT
ATOM      1  C   UNL     1     -20.698  -5.919   7.511  1.00  0.00     0.008 C 
ATOM      2  C   UNL     1     -20.137  -5.122   8.692  1.00  0.00    -0.006 C 
ATOM      3  C   UNL     1     -18.736  -4.581   8.364  1.00  0.00     0.008 C 
ATOM      4  C   UNL     1     -18.116  -3.866   9.572  1.00  0.00     0.039 C 
ATOM      5  C   UNL     1     -19.033  -2.798  10.152  1.00  0.00    -0.006 C 
ATOM      6  C   UNL     1     -18.530  -1.672  10.736  1.00  0.00    -0.070 C 
ATOM      7  C   UNL     1     -17.040  -1.445  10.847  1.00  0.00     0.039 C 
ATOM      8  C   UNL     1     -19.430  -0.578  11.265  1.00  0.00     0.039 C 
ATOM      9  C   UNL     1     -20.493  -3.114  10.147  1.00  0.00     0.159 C 
ATOM     10  O   UNL     1     -21.259  -2.688  11.053  1.00  0.00    -0.295 OA
ATOM     11  C   UNL     1     -21.076  -3.960   9.052  1.00  0.00     0.084 C 
ENDROOT
TORSDOF 0
ENDMDL
