MODEL 1
REMARK VINA RESULT:    -3.786      0.000      0.000
REMARK INTER + INTRA:          -8.540
REMARK INTER:                  -7.327
REMARK INTRA:                  -1.213
REMARK UNBOUND:                -1.213
REMARK SMILES CCCCCCCCCCCCCCCCCC(=O)[O-]
REMARK SMILES IDX 10 1 11 2 12 3 13 4 14 5 15 6 16 7 17 8 18 9 19 10 20 11
REMARK SMILES IDX 9 12 8 13 7 14 6 15 5 16 4 17 3 18 2 19 1 20
REMARK H PARENT
REMARK Flexibility Score: inf
ROOT
ATOM      1  C   UNL     1     112.874  53.926 230.170  1.00  0.00     0.000 C 
ENDROOT
BRANCH   1   2
ATOM      2  C   UNL     1     113.453  54.797 231.299  1.00  0.00     0.000 C 
BRANCH   2   3
ATOM      3  C   UNL     1     114.125  53.966 232.403  1.00  0.00     0.000 C 
BRANCH   3   4
ATOM      4  C   UNL     1     113.700  54.404 233.813  1.00  0.00     0.000 C 
BRANCH   4   5
ATOM      5  C   UNL     1     112.745  53.378 234.442  1.00  0.00     0.000 C 
BRANCH   5   6
ATOM      6  C   UNL     1     111.295  53.888 234.535  1.00  0.00     0.000 C 
BRANCH   6   7
ATOM      7  C   UNL     1     110.488  53.809 233.223  1.00  0.00     0.006 C 
BRANCH   7   8
ATOM      8  C   UNL     1     110.576  52.457 232.499  1.00  0.00     0.053 C 
BRANCH   8   9
ATOM      9  C   UNL     1     109.369  51.605 232.754  1.00  0.00     0.041 C 
ATOM     10  O   UNL     1     108.357  52.094 233.319  1.00  0.00    -0.550 OA
ATOM     11  O   UNL     1     109.378  50.263 232.397  1.00  0.00    -0.550 OA
ENDBRANCH   8   9
ENDBRANCH   7   8
ENDBRANCH   6   7
ENDBRANCH   5   6
ENDBRANCH   4   5
ENDBRANCH   3   4
ENDBRANCH   2   3
ENDBRANCH   1   2
BRANCH   1  12
ATOM     12  C   UNL     1     113.094  54.535 228.776  1.00  0.00     0.000 C 
BRANCH  12  13
ATOM     13  C   UNL     1     113.049  53.480 227.657  1.00  0.00    -0.000 C 
BRANCH  13  14
ATOM     14  C   UNL     1     112.566  54.061 226.319  1.00  0.00    -0.000 C 
BRANCH  14  15
ATOM     15  C   UNL     1     111.382  53.281 225.726  1.00  0.00    -0.000 C 
BRANCH  15  16
ATOM     16  C   UNL     1     110.161  54.194 225.537  1.00  0.00    -0.000 C 
BRANCH  16  17
ATOM     17  C   UNL     1     109.001  53.476 224.815  1.00  0.00    -0.000 C 
BRANCH  17  18
ATOM     18  C   UNL     1     109.375  52.082 224.282  1.00  0.00    -0.000 C 
BRANCH  18  19
ATOM     19  C   UNL     1     108.664  51.735 222.968  1.00  0.00    -0.003 C 
ATOM     20  C   UNL     1     107.969  52.959 222.378  1.00  0.00     0.004 C 
ENDBRANCH  18  19
ENDBRANCH  17  18
ENDBRANCH  16  17
ENDBRANCH  15  16
ENDBRANCH  14  15
ENDBRANCH  13  14
ENDBRANCH  12  13
ENDBRANCH   1  12
TORSDOF 16
ENDMDL
MODEL 2
REMARK VINA RESULT:    -3.774      2.978      7.575
REMARK INTER + INTRA:          -8.518
REMARK INTER:                  -6.436
REMARK INTRA:                  -2.081
REMARK UNBOUND:                -1.213
REMARK SMILES CCCCCCCCCCCCCCCCCC(=O)[O-]
REMARK SMILES IDX 10 1 11 2 12 3 13 4 14 5 15 6 16 7 17 8 18 9 19 10 20 11
REMARK SMILES IDX 9 12 8 13 7 14 6 15 5 16 4 17 3 18 2 19 1 20
REMARK H PARENT
REMARK Flexibility Score: inf
ROOT
ATOM      1  C   UNL     1     111.746  57.013 230.583  1.00  0.00     0.000 C 
ENDROOT
BRANCH   1   2
ATOM      2  C   UNL     1     113.101  56.841 229.875  1.00  0.00     0.000 C 
BRANCH   2   3
ATOM      3  C   UNL     1     113.480  55.365 229.673  1.00  0.00     0.000 C 
BRANCH   3   4
ATOM      4  C   UNL     1     113.620  54.989 228.190  1.00  0.00     0.000 C 
BRANCH   4   5
ATOM      5  C   UNL     1     113.126  53.556 227.939  1.00  0.00     0.000 C 
BRANCH   5   6
ATOM      6  C   UNL     1     112.426  53.393 226.578  1.00  0.00     0.000 C 
BRANCH   6   7
ATOM      7  C   UNL     1     111.622  54.622 226.105  1.00  0.00     0.006 C 
BRANCH   7   8
ATOM      8  C   UNL     1     110.117  54.369 225.923  1.00  0.00     0.053 C 
BRANCH   8   9
ATOM      9  C   UNL     1     109.850  53.179 225.052  1.00  0.00     0.041 C 
ATOM     10  O   UNL     1     109.947  53.275 223.801  1.00  0.00    -0.550 OA
ATOM     11  O   UNL     1     109.459  51.974 225.622  1.00  0.00    -0.550 OA
ENDBRANCH   8   9
ENDBRANCH   7   8
ENDBRANCH   6   7
ENDBRANCH   5   6
ENDBRANCH   4   5
ENDBRANCH   3   4
ENDBRANCH   2   3
ENDBRANCH   1   2
BRANCH   1  12
ATOM     12  C   UNL     1     110.763  55.872 230.272  1.00  0.00     0.000 C 
BRANCH  12  13
ATOM     13  C   UNL     1     109.701  55.691 231.370  1.00  0.00    -0.000 C 
BRANCH  13  14
ATOM     14  C   UNL     1     110.241  54.932 232.592  1.00  0.00    -0.000 C 
BRANCH  14  15
ATOM     15  C   UNL     1     109.896  53.434 232.560  1.00  0.00    -0.000 C 
BRANCH  15  16
ATOM     16  C   UNL     1     111.131  52.578 232.877  1.00  0.00    -0.000 C 
BRANCH  16  17
ATOM     17  C   UNL     1     112.343  52.953 231.997  1.00  0.00    -0.000 C 
BRANCH  17  18
ATOM     18  C   UNL     1     113.670  53.023 232.772  1.00  0.00    -0.000 C 
BRANCH  18  19
ATOM     19  C   UNL     1     114.036  54.450 233.204  1.00  0.00    -0.003 C 
ATOM     20  C   UNL     1     113.849  54.634 234.707  1.00  0.00     0.004 C 
ENDBRANCH  18  19
ENDBRANCH  17  18
ENDBRANCH  16  17
ENDBRANCH  15  16
ENDBRANCH  14  15
ENDBRANCH  13  14
ENDBRANCH  12  13
ENDBRANCH   1  12
TORSDOF 16
ENDMDL
MODEL 3
REMARK VINA RESULT:    -3.731      2.999      7.183
REMARK INTER + INTRA:          -8.433
REMARK INTER:                  -5.676
REMARK INTRA:                  -2.757
REMARK UNBOUND:                -1.213
REMARK SMILES CCCCCCCCCCCCCCCCCC(=O)[O-]
REMARK SMILES IDX 10 1 11 2 12 3 13 4 14 5 15 6 16 7 17 8 18 9 19 10 20 11
REMARK SMILES IDX 9 12 8 13 7 14 6 15 5 16 4 17 3 18 2 19 1 20
REMARK H PARENT
REMARK Flexibility Score: inf
ROOT
ATOM      1  C   UNL     1     110.448  56.531 230.175  1.00  0.00     0.000 C 
ENDROOT
BRANCH   1   2
ATOM      2  C   UNL     1     111.357  57.448 229.337  1.00  0.00     0.000 C 
BRANCH   2   3
ATOM      3  C   UNL     1     111.968  56.727 228.125  1.00  0.00     0.000 C 
BRANCH   3   4
ATOM      4  C   UNL     1     113.485  56.523 228.263  1.00  0.00     0.000 C 
BRANCH   4   5
ATOM      5  C   UNL     1     113.807  55.092 228.718  1.00  0.00     0.000 C 
BRANCH   5   6
ATOM      6  C   UNL     1     112.726  54.075 228.308  1.00  0.00     0.000 C 
BRANCH   6   7
ATOM      7  C   UNL     1     113.026  53.286 227.016  1.00  0.00     0.006 C 
BRANCH   7   8
ATOM      8  C   UNL     1     112.326  53.828 225.760  1.00  0.00     0.053 C 
BRANCH   8   9
ATOM      9  C   UNL     1     110.841  53.640 225.820  1.00  0.00     0.041 C 
ATOM     10  O   UNL     1     110.087  54.621 226.049  1.00  0.00    -0.550 OA
ATOM     11  O   UNL     1     110.293  52.373 225.659  1.00  0.00    -0.550 OA
ENDBRANCH   8   9
ENDBRANCH   7   8
ENDBRANCH   6   7
ENDBRANCH   5   6
ENDBRANCH   4   5
ENDBRANCH   3   4
ENDBRANCH   2   3
ENDBRANCH   1   2
BRANCH   1  12
ATOM     12  C   UNL     1     110.849  56.490 231.658  1.00  0.00     0.000 C 
BRANCH  12  13
ATOM     13  C   UNL     1     112.374  56.548 231.858  1.00  0.00    -0.000 C 
BRANCH  13  14
ATOM     14  C   UNL     1     112.869  55.541 232.908  1.00  0.00    -0.000 C 
BRANCH  14  15
ATOM     15  C   UNL     1     113.785  54.462 232.310  1.00  0.00    -0.000 C 
BRANCH  15  16
ATOM     16  C   UNL     1     113.162  53.066 232.462  1.00  0.00    -0.000 C 
BRANCH  16  17
ATOM     17  C   UNL     1     111.799  52.955 231.746  1.00  0.00    -0.000 C 
BRANCH  17  18
ATOM     18  C   UNL     1     110.697  52.324 232.614  1.00  0.00    -0.000 C 
BRANCH  18  19
ATOM     19  C   UNL     1     109.830  53.367 233.331  1.00  0.00    -0.003 C 
ATOM     20  C   UNL     1     110.261  53.534 234.785  1.00  0.00     0.004 C 
ENDBRANCH  18  19
ENDBRANCH  17  18
ENDBRANCH  16  17
ENDBRANCH  15  16
ENDBRANCH  14  15
ENDBRANCH  13  14
ENDBRANCH  12  13
ENDBRANCH   1  12
TORSDOF 16
ENDMDL
MODEL 4
REMARK VINA RESULT:    -3.707      3.079      7.694
REMARK INTER + INTRA:          -8.388
REMARK INTER:                  -6.188
REMARK INTRA:                  -2.200
REMARK UNBOUND:                -1.213
REMARK SMILES CCCCCCCCCCCCCCCCCC(=O)[O-]
REMARK SMILES IDX 10 1 11 2 12 3 13 4 14 5 15 6 16 7 17 8 18 9 19 10 20 11
REMARK SMILES IDX 9 12 8 13 7 14 6 15 5 16 4 17 3 18 2 19 1 20
REMARK H PARENT
REMARK Flexibility Score: inf
ROOT
ATOM      1  C   UNL     1     110.154  56.076 231.044  1.00  0.00     0.000 C 
ENDROOT
BRANCH   1   2
ATOM      2  C   UNL     1     111.034  56.743 229.972  1.00  0.00     0.000 C 
BRANCH   2   3
ATOM      3  C   UNL     1     111.480  55.761 228.877  1.00  0.00     0.000 C 
BRANCH   3   4
ATOM      4  C   UNL     1     112.867  55.160 229.150  1.00  0.00     0.000 C 
BRANCH   4   5
ATOM      5  C   UNL     1     113.170  54.013 228.175  1.00  0.00     0.000 C 
BRANCH   5   6
ATOM      6  C   UNL     1     112.826  54.361 226.716  1.00  0.00     0.000 C 
BRANCH   6   7
ATOM      7  C   UNL     1     111.975  53.308 225.975  1.00  0.00     0.006 C 
BRANCH   7   8
ATOM      8  C   UNL     1     110.535  53.749 225.672  1.00  0.00     0.053 C 
BRANCH   8   9
ATOM      9  C   UNL     1     109.760  52.682 224.960  1.00  0.00     0.041 C 
ATOM     10  O   UNL     1     109.403  51.642 225.573  1.00  0.00    -0.550 OA
ATOM     11  O   UNL     1     109.462  52.822 223.611  1.00  0.00    -0.550 OA
ENDBRANCH   8   9
ENDBRANCH   7   8
ENDBRANCH   6   7
ENDBRANCH   5   6
ENDBRANCH   4   5
ENDBRANCH   3   4
ENDBRANCH   2   3
ENDBRANCH   1   2
BRANCH   1  12
ATOM     12  C   UNL     1     110.630  56.376 232.475  1.00  0.00     0.000 C 
BRANCH  12  13
ATOM     13  C   UNL     1     112.138  56.675 232.545  1.00  0.00    -0.000 C 
BRANCH  13  14
ATOM     14  C   UNL     1     112.659  56.737 233.989  1.00  0.00    -0.000 C 
BRANCH  14  15
ATOM     15  C   UNL     1     112.459  55.416 234.749  1.00  0.00    -0.000 C 
BRANCH  15  16
ATOM     16  C   UNL     1     113.675  54.493 234.576  1.00  0.00    -0.000 C 
BRANCH  16  17
ATOM     17  C   UNL     1     113.285  53.116 233.999  1.00  0.00    -0.000 C 
BRANCH  17  18
ATOM     18  C   UNL     1     113.359  53.046 232.465  1.00  0.00    -0.000 C 
BRANCH  18  19
ATOM     19  C   UNL     1     111.976  52.992 231.801  1.00  0.00    -0.003 C 
ATOM     20  C   UNL     1     110.894  52.628 232.815  1.00  0.00     0.004 C 
ENDBRANCH  18  19
ENDBRANCH  17  18
ENDBRANCH  16  17
ENDBRANCH  15  16
ENDBRANCH  14  15
ENDBRANCH  13  14
ENDBRANCH  12  13
ENDBRANCH   1  12
TORSDOF 16
ENDMDL
MODEL 5
REMARK VINA RESULT:    -3.703      3.634      7.579
REMARK INTER + INTRA:          -8.379
REMARK INTER:                  -5.535
REMARK INTRA:                  -2.845
REMARK UNBOUND:                -1.213
REMARK SMILES CCCCCCCCCCCCCCCCCC(=O)[O-]
REMARK SMILES IDX 10 1 11 2 12 3 13 4 14 5 15 6 16 7 17 8 18 9 19 10 20 11
REMARK SMILES IDX 9 12 8 13 7 14 6 15 5 16 4 17 3 18 2 19 1 20
REMARK H PARENT
REMARK Flexibility Score: inf
ROOT
ATOM      1  C   UNL     1     111.199  56.002 229.061  1.00  0.00     0.000 C 
ENDROOT
BRANCH   1   2
ATOM      2  C   UNL     1     112.524  56.592 228.547  1.00  0.00     0.000 C 
BRANCH   2   3
ATOM      3  C   UNL     1     113.462  55.523 227.965  1.00  0.00     0.000 C 
BRANCH   3   4
ATOM      4  C   UNL     1     113.022  54.095 228.320  1.00  0.00     0.000 C 
BRANCH   4   5
ATOM      5  C   UNL     1     113.331  53.124 227.171  1.00  0.00     0.000 C 
BRANCH   5   6
ATOM      6  C   UNL     1     112.716  53.566 225.830  1.00  0.00     0.000 C 
BRANCH   6   7
ATOM      7  C   UNL     1     111.201  53.310 225.690  1.00  0.00     0.006 C 
BRANCH   7   8
ATOM      8  C   UNL     1     110.326  54.567 225.816  1.00  0.00     0.053 C 
BRANCH   8   9
ATOM      9  C   UNL     1     110.679  55.601 224.791  1.00  0.00     0.041 C 
ATOM     10  O   UNL     1     110.671  55.309 223.567  1.00  0.00    -0.550 OA
ATOM     11  O   UNL     1     111.051  56.879 225.190  1.00  0.00    -0.550 OA
ENDBRANCH   8   9
ENDBRANCH   7   8
ENDBRANCH   6   7
ENDBRANCH   5   6
ENDBRANCH   4   5
ENDBRANCH   3   4
ENDBRANCH   2   3
ENDBRANCH   1   2
BRANCH   1  12
ATOM     12  C   UNL     1     110.968  56.273 230.557  1.00  0.00     0.000 C 
BRANCH  12  13
ATOM     13  C   UNL     1     112.198  56.899 231.239  1.00  0.00    -0.000 C 
BRANCH  13  14
ATOM     14  C   UNL     1     112.780  56.000 232.341  1.00  0.00    -0.000 C 
BRANCH  14  15
ATOM     15  C   UNL     1     113.808  54.993 231.803  1.00  0.00    -0.000 C 
BRANCH  15  16
ATOM     16  C   UNL     1     113.493  53.571 232.292  1.00  0.00    -0.000 C 
BRANCH  16  17
ATOM     17  C   UNL     1     112.182  53.023 231.688  1.00  0.00    -0.000 C 
BRANCH  17  18
ATOM     18  C   UNL     1     111.137  52.623 232.743  1.00  0.00    -0.000 C 
BRANCH  18  19
ATOM     19  C   UNL     1     109.861  53.474 232.673  1.00  0.00    -0.003 C 
ATOM     20  C   UNL     1     109.780  54.440 233.852  1.00  0.00     0.004 C 
ENDBRANCH  18  19
ENDBRANCH  17  18
ENDBRANCH  16  17
ENDBRANCH  15  16
ENDBRANCH  14  15
ENDBRANCH  13  14
ENDBRANCH  12  13
ENDBRANCH   1  12
TORSDOF 16
ENDMDL
MODEL 6
REMARK VINA RESULT:    -3.664     15.426     17.873
REMARK INTER + INTRA:          -8.304
REMARK INTER:                  -5.153
REMARK INTRA:                  -3.150
REMARK UNBOUND:                -1.213
REMARK SMILES CCCCCCCCCCCCCCCCCC(=O)[O-]
REMARK SMILES IDX 10 1 11 2 12 3 13 4 14 5 15 6 16 7 17 8 18 9 19 10 20 11
REMARK SMILES IDX 9 12 8 13 7 14 6 15 5 16 4 17 3 18 2 19 1 20
REMARK H PARENT
REMARK Flexibility Score: inf
ROOT
ATOM      1  C   UNL     1      95.797  64.878 227.584  1.00  0.00     0.000 C 
ENDROOT
BRANCH   1   2
ATOM      2  C   UNL     1      97.063  64.814 228.456  1.00  0.00     0.000 C 
BRANCH   2   3
ATOM      3  C   UNL     1      97.866  63.521 228.239  1.00  0.00     0.000 C 
BRANCH   3   4
ATOM      4  C   UNL     1      97.126  62.508 227.353  1.00  0.00     0.000 C 
BRANCH   4   5
ATOM      5  C   UNL     1      98.114  61.547 226.676  1.00  0.00     0.000 C 
BRANCH   5   6
ATOM      6  C   UNL     1      99.571  62.042 226.740  1.00  0.00     0.000 C 
BRANCH   6   7
ATOM      7  C   UNL     1     100.387  61.842 225.445  1.00  0.00     0.006 C 
BRANCH   7   8
ATOM      8  C   UNL     1     101.909  61.938 225.630  1.00  0.00     0.053 C 
BRANCH   8   9
ATOM      9  C   UNL     1     102.520  62.971 224.734  1.00  0.00     0.041 C 
ATOM     10  O   UNL     1     101.788  63.681 223.995  1.00  0.00    -0.550 OA
ATOM     11  O   UNL     1     103.899  63.126 224.689  1.00  0.00    -0.550 OA
ENDBRANCH   8   9
ENDBRANCH   7   8
ENDBRANCH   6   7
ENDBRANCH   5   6
ENDBRANCH   4   5
ENDBRANCH   3   4
ENDBRANCH   2   3
ENDBRANCH   1   2
BRANCH   1  12
ATOM     12  C   UNL     1      95.652  66.219 226.846  1.00  0.00     0.000 C 
BRANCH  12  13
ATOM     13  C   UNL     1      94.920  66.075 225.500  1.00  0.00    -0.000 C 
BRANCH  13  14
ATOM     14  C   UNL     1      95.289  64.777 224.765  1.00  0.00    -0.000 C 
BRANCH  14  15
ATOM     15  C   UNL     1      96.432  64.971 223.756  1.00  0.00    -0.000 C 
BRANCH  15  16
ATOM     16  C   UNL     1      97.722  64.301 224.250  1.00  0.00    -0.000 C 
BRANCH  16  17
ATOM     17  C   UNL     1      98.908  65.288 224.308  1.00  0.00    -0.000 C 
BRANCH  17  18
ATOM     18  C   UNL     1      99.034  66.022 225.653  1.00  0.00    -0.000 C 
BRANCH  18  19
ATOM     19  C   UNL     1     100.491  66.295 226.051  1.00  0.00    -0.003 C 
ATOM     20  C   UNL     1     100.944  65.351 227.161  1.00  0.00     0.004 C 
ENDBRANCH  18  19
ENDBRANCH  17  18
ENDBRANCH  16  17
ENDBRANCH  15  16
ENDBRANCH  14  15
ENDBRANCH  13  14
ENDBRANCH  12  13
ENDBRANCH   1  12
TORSDOF 16
ENDMDL
MODEL 7
REMARK VINA RESULT:    -3.616      2.011      3.268
REMARK INTER + INTRA:          -8.211
REMARK INTER:                  -5.623
REMARK INTRA:                  -2.588
REMARK UNBOUND:                -1.213
REMARK SMILES CCCCCCCCCCCCCCCCCC(=O)[O-]
REMARK SMILES IDX 10 1 11 2 12 3 13 4 14 5 15 6 16 7 17 8 18 9 19 10 20 11
REMARK SMILES IDX 9 12 8 13 7 14 6 15 5 16 4 17 3 18 2 19 1 20
REMARK H PARENT
REMARK Flexibility Score: inf
ROOT
ATOM      1  C   UNL     1     112.507  57.792 227.787  1.00  0.00     0.000 C 
ENDROOT
BRANCH   1   2
ATOM      2  C   UNL     1     111.997  57.720 229.237  1.00  0.00     0.000 C 
BRANCH   2   3
ATOM      3  C   UNL     1     111.912  56.279 229.764  1.00  0.00     0.000 C 
BRANCH   3   4
ATOM      4  C   UNL     1     112.687  56.083 231.076  1.00  0.00     0.000 C 
BRANCH   4   5
ATOM      5  C   UNL     1     113.518  54.792 231.036  1.00  0.00     0.000 C 
BRANCH   5   6
ATOM      6  C   UNL     1     112.655  53.529 230.862  1.00  0.00     0.000 C 
BRANCH   6   7
ATOM      7  C   UNL     1     111.962  53.028 232.147  1.00  0.00     0.006 C 
BRANCH   7   8
ATOM      8  C   UNL     1     110.446  53.272 232.191  1.00  0.00     0.053 C 
BRANCH   8   9
ATOM      9  C   UNL     1     109.742  52.274 233.059  1.00  0.00     0.041 C 
ATOM     10  O   UNL     1     109.378  51.167 232.585  1.00  0.00    -0.550 OA
ATOM     11  O   UNL     1     109.458  52.583 234.384  1.00  0.00    -0.550 OA
ENDBRANCH   8   9
ENDBRANCH   7   8
ENDBRANCH   6   7
ENDBRANCH   5   6
ENDBRANCH   4   5
ENDBRANCH   3   4
ENDBRANCH   2   3
ENDBRANCH   1   2
BRANCH   1  12
ATOM     12  C   UNL     1     113.847  57.065 227.592  1.00  0.00     0.000 C 
BRANCH  12  13
ATOM     13  C   UNL     1     113.751  55.911 226.578  1.00  0.00    -0.000 C 
BRANCH  13  14
ATOM     14  C   UNL     1     113.950  54.535 227.233  1.00  0.00    -0.000 C 
BRANCH  14  15
ATOM     15  C   UNL     1     112.657  53.705 227.274  1.00  0.00    -0.000 C 
BRANCH  15  16
ATOM     16  C   UNL     1     112.110  53.468 225.858  1.00  0.00    -0.000 C 
BRANCH  16  17
ATOM     17  C   UNL     1     110.625  53.870 225.731  1.00  0.00    -0.000 C 
BRANCH  17  18
ATOM     18  C   UNL     1     110.233  55.068 226.613  1.00  0.00    -0.000 C 
BRANCH  18  19
ATOM     19  C   UNL     1     109.585  56.209 225.818  1.00  0.00    -0.003 C 
ATOM     20  C   UNL     1     110.562  56.795 224.802  1.00  0.00     0.004 C 
ENDBRANCH  18  19
ENDBRANCH  17  18
ENDBRANCH  16  17
ENDBRANCH  15  16
ENDBRANCH  14  15
ENDBRANCH  13  14
ENDBRANCH  12  13
ENDBRANCH   1  12
TORSDOF 16
ENDMDL
MODEL 8
REMARK VINA RESULT:    -3.612      2.142      4.928
REMARK INTER + INTRA:          -8.204
REMARK INTER:                  -5.634
REMARK INTRA:                  -2.570
REMARK UNBOUND:                -1.213
REMARK SMILES CCCCCCCCCCCCCCCCCC(=O)[O-]
REMARK SMILES IDX 10 1 11 2 12 3 13 4 14 5 15 6 16 7 17 8 18 9 19 10 20 11
REMARK SMILES IDX 9 12 8 13 7 14 6 15 5 16 4 17 3 18 2 19 1 20
REMARK H PARENT
REMARK Flexibility Score: inf
ROOT
ATOM      1  C   UNL     1     112.530  53.377 225.919  1.00  0.00     0.000 C 
ENDROOT
BRANCH   1   2
ATOM      2  C   UNL     1     113.258  53.486 227.270  1.00  0.00     0.000 C 
BRANCH   2   3
ATOM      3  C   UNL     1     113.563  54.941 227.663  1.00  0.00     0.000 C 
BRANCH   3   4
ATOM      4  C   UNL     1     113.709  55.125 229.181  1.00  0.00     0.000 C 
BRANCH   4   5
ATOM      5  C   UNL     1     112.876  54.084 229.943  1.00  0.00     0.000 C 
BRANCH   5   6
ATOM      6  C   UNL     1     113.246  53.996 231.435  1.00  0.00     0.000 C 
BRANCH   6   7
ATOM      7  C   UNL     1     112.712  52.748 232.169  1.00  0.00     0.006 C 
BRANCH   7   8
ATOM      8  C   UNL     1     111.690  53.046 233.277  1.00  0.00     0.053 C 
BRANCH   8   9
ATOM      9  C   UNL     1     110.286  52.770 232.834  1.00  0.00     0.041 C 
ATOM     10  O   UNL     1     109.863  51.586 232.770  1.00  0.00    -0.550 OA
ATOM     11  O   UNL     1     109.456  53.819 232.459  1.00  0.00    -0.550 OA
ENDBRANCH   8   9
ENDBRANCH   7   8
ENDBRANCH   6   7
ENDBRANCH   5   6
ENDBRANCH   4   5
ENDBRANCH   3   4
ENDBRANCH   2   3
ENDBRANCH   1   2
BRANCH   1  12
ATOM     12  C   UNL     1     111.008  53.557 226.048  1.00  0.00     0.000 C 
BRANCH  12  13
ATOM     13  C   UNL     1     110.430  54.488 224.968  1.00  0.00    -0.000 C 
BRANCH  13  14
ATOM     14  C   UNL     1     109.844  55.780 225.558  1.00  0.00    -0.000 C 
BRANCH  14  15
ATOM     15  C   UNL     1     110.927  56.751 226.053  1.00  0.00    -0.000 C 
BRANCH  15  16
ATOM     16  C   UNL     1     110.606  57.258 227.467  1.00  0.00    -0.000 C 
BRANCH  16  17
ATOM     17  C   UNL     1     109.856  56.203 228.309  1.00  0.00    -0.000 C 
BRANCH  17  18
ATOM     18  C   UNL     1     110.030  56.388 229.826  1.00  0.00    -0.000 C 
BRANCH  18  19
ATOM     19  C   UNL     1     110.973  57.544 230.183  1.00  0.00    -0.003 C 
ATOM     20  C   UNL     1     111.601  57.337 231.559  1.00  0.00     0.004 C 
ENDBRANCH  18  19
ENDBRANCH  17  18
ENDBRANCH  16  17
ENDBRANCH  15  16
ENDBRANCH  14  15
ENDBRANCH  13  14
ENDBRANCH  12  13
ENDBRANCH   1  12
TORSDOF 16
ENDMDL
MODEL 9
REMARK VINA RESULT:    -3.590      3.266      7.694
REMARK INTER + INTRA:          -8.160
REMARK INTER:                  -6.452
REMARK INTRA:                  -1.708
REMARK UNBOUND:                -1.213
REMARK SMILES CCCCCCCCCCCCCCCCCC(=O)[O-]
REMARK SMILES IDX 10 1 11 2 12 3 13 4 14 5 15 6 16 7 17 8 18 9 19 10 20 11
REMARK SMILES IDX 9 12 8 13 7 14 6 15 5 16 4 17 3 18 2 19 1 20
REMARK H PARENT
REMARK Flexibility Score: inf
ROOT
ATOM      1  C   UNL     1     112.711  54.348 229.614  1.00  0.00     0.000 C 
ENDROOT
BRANCH   1   2
ATOM      2  C   UNL     1     113.449  55.316 228.672  1.00  0.00     0.000 C 
BRANCH   2   3
ATOM      3  C   UNL     1     113.759  54.689 227.303  1.00  0.00     0.000 C 
BRANCH   3   4
ATOM      4  C   UNL     1     113.059  53.336 227.101  1.00  0.00     0.000 C 
BRANCH   4   5
ATOM      5  C   UNL     1     112.170  53.361 225.849  1.00  0.00     0.000 C 
BRANCH   5   6
ATOM      6  C   UNL     1     111.034  54.396 225.941  1.00  0.00     0.000 C 
BRANCH   6   7
ATOM      7  C   UNL     1     109.646  53.886 225.498  1.00  0.00     0.006 C 
BRANCH   7   8
ATOM      8  C   UNL     1     109.633  52.440 224.978  1.00  0.00     0.053 C 
BRANCH   8   9
ATOM      9  C   UNL     1     108.859  52.309 223.703  1.00  0.00     0.041 C 
ATOM     10  O   UNL     1     107.777  52.934 223.551  1.00  0.00    -0.550 OA
ATOM     11  O   UNL     1     109.315  51.468 222.695  1.00  0.00    -0.550 OA
ENDBRANCH   8   9
ENDBRANCH   7   8
ENDBRANCH   6   7
ENDBRANCH   5   6
ENDBRANCH   4   5
ENDBRANCH   3   4
ENDBRANCH   2   3
ENDBRANCH   1   2
BRANCH   1  12
ATOM     12  C   UNL     1     113.260  54.383 231.049  1.00  0.00     0.000 C 
BRANCH  12  13
ATOM     13  C   UNL     1     112.997  53.073 231.814  1.00  0.00    -0.000 C 
BRANCH  13  14
ATOM     14  C   UNL     1     112.972  53.275 233.336  1.00  0.00    -0.000 C 
BRANCH  14  15
ATOM     15  C   UNL     1     111.551  53.221 233.919  1.00  0.00    -0.000 C 
BRANCH  15  16
ATOM     16  C   UNL     1     110.609  52.431 232.997  1.00  0.00    -0.000 C 
BRANCH  16  17
ATOM     17  C   UNL     1     109.191  53.039 232.951  1.00  0.00    -0.000 C 
BRANCH  17  18
ATOM     18  C   UNL     1     109.152  54.539 233.288  1.00  0.00    -0.000 C 
BRANCH  18  19
ATOM     19  C   UNL     1     109.256  55.434 232.046  1.00  0.00    -0.003 C 
ATOM     20  C   UNL     1     110.460  56.368 232.140  1.00  0.00     0.004 C 
ENDBRANCH  18  19
ENDBRANCH  17  18
ENDBRANCH  16  17
ENDBRANCH  15  16
ENDBRANCH  14  15
ENDBRANCH  13  14
ENDBRANCH  12  13
ENDBRANCH   1  12
TORSDOF 16
ENDMDL
