MODEL 1
REMARK VINA RESULT:    -6.239      0.000      0.000
REMARK INTER + INTRA:          -9.594
REMARK INTER:                  -8.245
REMARK INTRA:                  -1.350
REMARK UNBOUND:                -1.350
REMARK SMILES CC(C)=CCC[C@H](C(=O)[O-])[C@@H]1CC[C@]2(C)C3=C(CC[C@]12C)[C@]1(C)CC[C@@H](O)C(C)(C)[C@@H]1CC3
REMARK SMILES IDX 6 1 7 2 8 3 9 4 10 5 11 6 12 7 20 8 13 9 14 10 19 11 21 12
REMARK SMILES IDX 15 13 16 14 18 15 17 16 33 17 22 18 32 19 31 20 24 21 23 22
REMARK SMILES IDX 28 23 25 24 26 25 29 26 30 27 27 28 5 30 4 31 2 32 1 33 3 34
REMARK H PARENT 27 29
REMARK Flexibility Score: inf
ROOT
ATOM      1  C   UNL     1     130.308 146.267 119.866  1.00  0.00     0.014 C 
ENDROOT
BRANCH   1   2
ATOM      2  C   UNL     1     130.468 144.924 120.635  1.00  0.00     0.039 C 
BRANCH   2   3
ATOM      3  C   UNL     1     130.429 143.780 119.652  1.00  0.00     0.045 C 
ATOM      4  O   UNL     1     129.351 143.475 119.075  1.00  0.00    -0.550 OA
ATOM      5  O   UNL     1     131.587 143.072 119.349  1.00  0.00    -0.550 OA
ENDBRANCH   2   3
BRANCH   2   6
ATOM      6  C   UNL     1     129.425 144.663 121.782  1.00  0.00     0.004 C 
ATOM      7  C   UNL     1     128.313 145.701 121.936  1.00  0.00     0.006 C 
ATOM      8  C   UNL     1     129.968 144.414 123.221  1.00  0.00    -0.020 C 
ATOM      9  C   UNL     1     127.779 145.547 123.361  1.00  0.00     0.012 C 
ATOM     10  C   UNL     1     128.676 144.524 124.118  1.00  0.00    -0.006 C 
ATOM     11  C   UNL     1     130.967 145.513 123.646  1.00  0.00     0.012 C 
ATOM     12  C   UNL     1     130.676 143.025 123.293  1.00  0.00     0.012 C 
ATOM     13  C   UNL     1     127.932 143.152 124.186  1.00  0.00     0.017 C 
ATOM     14  C   UNL     1     128.921 145.036 125.566  1.00  0.00    -0.064 C 
ATOM     15  C   UNL     1     131.354 145.365 125.109  1.00  0.00     0.032 C 
ATOM     16  C   UNL     1     130.146 145.425 126.037  1.00  0.00    -0.064 C 
ATOM     17  C   UNL     1     127.713 145.277 126.435  1.00  0.00     0.032 C 
ATOM     18  C   UNL     1     130.407 145.757 127.547  1.00  0.00    -0.008 C 
ATOM     19  C   UNL     1     128.004 144.907 127.873  1.00  0.00     0.009 C 
ATOM     20  C   UNL     1     129.083 145.857 128.439  1.00  0.00     0.007 C 
ATOM     21  C   UNL     1     131.330 144.618 128.070  1.00  0.00     0.014 C 
ATOM     22  C   UNL     1     131.149 147.125 127.581  1.00  0.00     0.016 C 
ATOM     23  C   UNL     1     129.278 145.695 130.026  1.00  0.00    -0.006 C 
ATOM     24  C   UNL     1     131.581 144.647 129.572  1.00  0.00     0.033 C 
ATOM     25  C   UNL     1     130.261 144.528 130.341  1.00  0.00     0.120 C 
ATOM     26  C   UNL     1     129.770 147.026 130.675  1.00  0.00     0.014 C 
ATOM     27  C   UNL     1     127.930 145.375 130.738  1.00  0.00     0.014 C 
BRANCH  25  28
ATOM     28  O   UNL     1     130.496 144.399 131.724  1.00  0.00    -0.393 OA
ATOM     29  H   UNL     1     131.394 143.997 131.853  1.00  0.00     0.210 HD
ENDBRANCH  25  28
ENDBRANCH   2   6
ENDBRANCH   1   2
BRANCH   1  30
ATOM     30  C   UNL     1     131.635 147.032 119.698  1.00  0.00     0.028 C 
BRANCH  30  31
ATOM     31  C   UNL     1     132.657 146.651 120.746  1.00  0.00    -0.028 C 
ATOM     32  C   UNL     1     133.939 146.349 120.455  1.00  0.00    -0.080 C 
ATOM     33  C   UNL     1     134.869 145.985 121.582  1.00  0.00     0.039 C 
ATOM     34  C   UNL     1     134.456 146.380 119.035  1.00  0.00     0.039 C 
ENDBRANCH  30  31
ENDBRANCH   1  30
TORSDOF 6
ENDMDL
MODEL 2
REMARK VINA RESULT:    -6.176      4.165      7.884
REMARK INTER + INTRA:          -9.512
REMARK INTER:                  -8.491
REMARK INTRA:                  -1.021
REMARK UNBOUND:                -1.350
REMARK SMILES CC(C)=CCC[C@H](C(=O)[O-])[C@@H]1CC[C@]2(C)C3=C(CC[C@]12C)[C@]1(C)CC[C@@H](O)C(C)(C)[C@@H]1CC3
REMARK SMILES IDX 6 1 7 2 8 3 9 4 10 5 11 6 12 7 20 8 13 9 14 10 19 11 21 12
REMARK SMILES IDX 15 13 16 14 18 15 17 16 33 17 22 18 32 19 31 20 24 21 23 22
REMARK SMILES IDX 28 23 25 24 26 25 29 26 30 27 27 28 5 30 4 31 2 32 1 33 3 34
REMARK H PARENT 27 29
REMARK Flexibility Score: inf
ROOT
ATOM      1  C   UNL     1     138.942 146.496 122.232  1.00  0.00     0.014 C 
ENDROOT
BRANCH   1   2
ATOM      2  C   UNL     1     138.432 145.231 121.484  1.00  0.00     0.039 C 
BRANCH   2   3
ATOM      3  C   UNL     1     139.571 144.621 120.703  1.00  0.00     0.045 C 
ATOM      4  O   UNL     1     140.759 144.969 120.939  1.00  0.00    -0.550 OA
ATOM      5  O   UNL     1     139.324 143.649 119.740  1.00  0.00    -0.550 OA
ENDBRANCH   2   3
BRANCH   2   6
ATOM      6  C   UNL     1     137.201 145.448 120.529  1.00  0.00     0.004 C 
ATOM      7  C   UNL     1     136.906 146.892 120.124  1.00  0.00     0.006 C 
ATOM      8  C   UNL     1     135.831 144.842 120.955  1.00  0.00    -0.020 C 
ATOM      9  C   UNL     1     135.443 146.918 119.677  1.00  0.00     0.012 C 
ATOM     10  C   UNL     1     134.812 145.524 119.963  1.00  0.00    -0.006 C 
ATOM     11  C   UNL     1     135.463 145.239 122.401  1.00  0.00     0.012 C 
ATOM     12  C   UNL     1     135.877 143.286 120.848  1.00  0.00     0.012 C 
ATOM     13  C   UNL     1     134.724 144.724 118.624  1.00  0.00     0.017 C 
ATOM     14  C   UNL     1     133.376 145.721 120.526  1.00  0.00    -0.064 C 
ATOM     15  C   UNL     1     134.049 144.798 122.746  1.00  0.00     0.032 C 
ATOM     16  C   UNL     1     133.009 145.392 121.803  1.00  0.00    -0.064 C 
ATOM     17  C   UNL     1     132.389 146.475 119.672  1.00  0.00     0.032 C 
ATOM     18  C   UNL     1     131.519 145.421 122.291  1.00  0.00    -0.008 C 
ATOM     19  C   UNL     1     130.998 145.895 119.820  1.00  0.00     0.009 C 
ATOM     20  C   UNL     1     130.503 146.112 121.267  1.00  0.00     0.007 C 
ATOM     21  C   UNL     1     131.128 143.933 122.525  1.00  0.00     0.014 C 
ATOM     22  C   UNL     1     131.506 146.211 123.633  1.00  0.00     0.016 C 
ATOM     23  C   UNL     1     128.949 145.746 121.449  1.00  0.00    -0.006 C 
ATOM     24  C   UNL     1     129.657 143.709 122.849  1.00  0.00     0.033 C 
ATOM     25  C   UNL     1     128.771 144.220 121.706  1.00  0.00     0.120 C 
ATOM     26  C   UNL     1     128.300 146.583 122.596  1.00  0.00     0.014 C 
ATOM     27  C   UNL     1     128.124 146.104 120.176  1.00  0.00     0.014 C 
BRANCH  25  28
ATOM     28  O   UNL     1     127.422 143.880 121.927  1.00  0.00    -0.393 OA
ATOM     29  H   UNL     1     127.348 142.890 121.946  1.00  0.00     0.210 HD
ENDBRANCH  25  28
ENDBRANCH   2   6
ENDBRANCH   1   2
BRANCH   1  30
ATOM     30  C   UNL     1     138.508 146.543 123.709  1.00  0.00     0.028 C 
BRANCH  30  31
ATOM     31  C   UNL     1     139.583 147.112 124.609  1.00  0.00    -0.028 C 
ATOM     32  C   UNL     1     140.384 146.348 125.380  1.00  0.00    -0.080 C 
ATOM     33  C   UNL     1     141.422 147.025 126.236  1.00  0.00     0.039 C 
ATOM     34  C   UNL     1     140.266 144.842 125.394  1.00  0.00     0.039 C 
ENDBRANCH  30  31
ENDBRANCH   1  30
TORSDOF 6
ENDMDL
MODEL 3
REMARK VINA RESULT:    -6.159      5.501      8.252
REMARK INTER + INTRA:          -9.489
REMARK INTER:                  -7.836
REMARK INTRA:                  -1.652
REMARK UNBOUND:                -1.350
REMARK SMILES CC(C)=CCC[C@H](C(=O)[O-])[C@@H]1CC[C@]2(C)C3=C(CC[C@]12C)[C@]1(C)CC[C@@H](O)C(C)(C)[C@@H]1CC3
REMARK SMILES IDX 6 1 7 2 8 3 9 4 10 5 11 6 12 7 20 8 13 9 14 10 19 11 21 12
REMARK SMILES IDX 15 13 16 14 18 15 17 16 33 17 22 18 32 19 31 20 24 21 23 22
REMARK SMILES IDX 28 23 25 24 26 25 29 26 30 27 27 28 5 30 4 31 2 32 1 33 3 34
REMARK H PARENT 27 29
REMARK Flexibility Score: inf
ROOT
ATOM      1  C   UNL     1     130.498 136.257 117.973  1.00  0.00     0.014 C 
ENDROOT
BRANCH   1   2
ATOM      2  C   UNL     1     129.987 136.082 119.432  1.00  0.00     0.039 C 
BRANCH   2   3
ATOM      3  C   UNL     1     129.457 134.680 119.609  1.00  0.00     0.045 C 
ATOM      4  O   UNL     1     128.609 134.431 120.507  1.00  0.00    -0.550 OA
ATOM      5  O   UNL     1     129.875 133.658 118.764  1.00  0.00    -0.550 OA
ENDBRANCH   2   3
BRANCH   2   6
ATOM      6  C   UNL     1     128.901 137.115 119.907  1.00  0.00     0.004 C 
ATOM      7  C   UNL     1     127.877 137.550 118.859  1.00  0.00     0.006 C 
ATOM      8  C   UNL     1     129.390 138.429 120.587  1.00  0.00    -0.020 C 
ATOM      9  C   UNL     1     127.301 138.879 119.351  1.00  0.00     0.012 C 
ATOM     10  C   UNL     1     128.091 139.324 120.616  1.00  0.00    -0.006 C 
ATOM     11  C   UNL     1     130.467 139.137 119.738  1.00  0.00     0.012 C 
ATOM     12  C   UNL     1     129.976 138.114 121.998  1.00  0.00     0.012 C 
ATOM     13  C   UNL     1     127.234 139.012 121.884  1.00  0.00     0.017 C 
ATOM     14  C   UNL     1     128.346 140.856 120.545  1.00  0.00    -0.064 C 
ATOM     15  C   UNL     1     130.808 140.503 120.314  1.00  0.00     0.032 C 
ATOM     16  C   UNL     1     129.589 141.413 120.407  1.00  0.00    -0.064 C 
ATOM     17  C   UNL     1     127.144 141.760 120.447  1.00  0.00     0.032 C 
ATOM     18  C   UNL     1     129.843 142.956 120.526  1.00  0.00    -0.008 C 
ATOM     19  C   UNL     1     127.371 143.040 121.222  1.00  0.00     0.009 C 
ATOM     20  C   UNL     1     128.513 143.844 120.560  1.00  0.00     0.007 C 
ATOM     21  C   UNL     1     130.656 143.144 121.841  1.00  0.00     0.014 C 
ATOM     22  C   UNL     1     130.697 143.364 119.290  1.00  0.00     0.016 C 
ATOM     23  C   UNL     1     128.659 145.324 121.168  1.00  0.00    -0.006 C 
ATOM     24  C   UNL     1     130.876 144.595 122.247  1.00  0.00     0.033 C 
ATOM     25  C   UNL     1     129.533 145.304 122.457  1.00  0.00     0.120 C 
ATOM     26  C   UNL     1     129.246 146.314 120.114  1.00  0.00     0.014 C 
ATOM     27  C   UNL     1     127.273 145.924 121.553  1.00  0.00     0.014 C 
BRANCH  25  28
ATOM     28  O   UNL     1     129.726 146.598 122.980  1.00  0.00    -0.393 OA
ATOM     29  H   UNL     1     129.027 147.195 122.604  1.00  0.00     0.210 HD
ENDBRANCH  25  28
ENDBRANCH   2   6
ENDBRANCH   1   2
BRANCH   1  30
ATOM     30  C   UNL     1     132.024 136.447 117.883  1.00  0.00     0.028 C 
BRANCH  30  31
ATOM     31  C   UNL     1     132.707 136.271 119.221  1.00  0.00    -0.028 C 
ATOM     32  C   UNL     1     133.604 137.148 119.717  1.00  0.00    -0.080 C 
ATOM     33  C   UNL     1     134.221 136.869 121.062  1.00  0.00     0.039 C 
ATOM     34  C   UNL     1     133.989 138.397 118.959  1.00  0.00     0.039 C 
ENDBRANCH  30  31
ENDBRANCH   1  30
TORSDOF 6
ENDMDL
MODEL 4
REMARK VINA RESULT:    -6.002      4.057      7.684
REMARK INTER + INTRA:          -9.281
REMARK INTER:                  -8.707
REMARK INTRA:                  -0.574
REMARK UNBOUND:                -1.350
REMARK SMILES CC(C)=CCC[C@H](C(=O)[O-])[C@@H]1CC[C@]2(C)C3=C(CC[C@]12C)[C@]1(C)CC[C@@H](O)C(C)(C)[C@@H]1CC3
REMARK SMILES IDX 6 1 7 2 8 3 9 4 10 5 11 6 12 7 20 8 13 9 14 10 19 11 21 12
REMARK SMILES IDX 15 13 16 14 18 15 17 16 33 17 22 18 32 19 31 20 24 21 23 22
REMARK SMILES IDX 28 23 25 24 26 25 29 26 30 27 27 28 5 30 4 31 2 32 1 33 3 34
REMARK H PARENT 27 29
REMARK Flexibility Score: inf
ROOT
ATOM      1  C   UNL     1     139.393 146.383 120.952  1.00  0.00     0.014 C 
ENDROOT
BRANCH   1   2
ATOM      2  C   UNL     1     138.324 145.278 121.190  1.00  0.00     0.039 C 
BRANCH   2   3
ATOM      3  C   UNL     1     138.951 143.923 120.963  1.00  0.00     0.045 C 
ATOM      4  O   UNL     1     139.595 143.359 121.887  1.00  0.00    -0.550 OA
ATOM      5  O   UNL     1     138.796 143.272 119.744  1.00  0.00    -0.550 OA
ENDBRANCH   2   3
BRANCH   2   6
ATOM      6  C   UNL     1     137.011 145.397 120.333  1.00  0.00     0.004 C 
ATOM      7  C   UNL     1     136.672 146.790 119.804  1.00  0.00     0.006 C 
ATOM      8  C   UNL     1     135.688 144.846 120.944  1.00  0.00    -0.020 C 
ATOM      9  C   UNL     1     135.176 146.776 119.492  1.00  0.00     0.012 C 
ATOM     10  C   UNL     1     134.580 145.423 119.981  1.00  0.00    -0.006 C 
ATOM     11  C   UNL     1     135.450 145.397 122.367  1.00  0.00     0.012 C 
ATOM     12  C   UNL     1     135.733 143.287 120.999  1.00  0.00     0.012 C 
ATOM     13  C   UNL     1     134.376 144.485 118.748  1.00  0.00     0.017 C 
ATOM     14  C   UNL     1     133.200 145.685 120.647  1.00  0.00    -0.064 C 
ATOM     15  C   UNL     1     134.076 145.001 122.884  1.00  0.00     0.032 C 
ATOM     16  C   UNL     1     132.952 145.495 121.980  1.00  0.00    -0.064 C 
ATOM     17  C   UNL     1     132.136 146.348 119.811  1.00  0.00     0.032 C 
ATOM     18  C   UNL     1     131.512 145.584 122.595  1.00  0.00    -0.008 C 
ATOM     19  C   UNL     1     130.768 145.792 120.145  1.00  0.00     0.009 C 
ATOM     20  C   UNL     1     130.404 146.165 121.600  1.00  0.00     0.007 C 
ATOM     21  C   UNL     1     131.152 144.130 123.021  1.00  0.00     0.014 C 
ATOM     22  C   UNL     1     131.616 146.512 123.841  1.00  0.00     0.016 C 
ATOM     23  C   UNL     1     128.874 145.828 121.959  1.00  0.00    -0.006 C 
ATOM     24  C   UNL     1     129.717 143.949 123.499  1.00  0.00     0.033 C 
ATOM     25  C   UNL     1     128.729 144.339 122.393  1.00  0.00     0.120 C 
ATOM     26  C   UNL     1     128.328 146.785 123.065  1.00  0.00     0.014 C 
ATOM     27  C   UNL     1     127.936 146.051 120.736  1.00  0.00     0.014 C 
BRANCH  25  28
ATOM     28  O   UNL     1     127.407 144.030 122.771  1.00  0.00    -0.393 OA
ATOM     29  H   UNL     1     126.825 144.797 122.529  1.00  0.00     0.210 HD
ENDBRANCH  25  28
ENDBRANCH   2   6
ENDBRANCH   1   2
BRANCH   1  30
ATOM     30  C   UNL     1     140.249 146.139 119.695  1.00  0.00     0.028 C 
BRANCH  30  31
ATOM     31  C   UNL     1     141.712 146.445 119.924  1.00  0.00    -0.028 C 
ATOM     32  C   UNL     1     142.675 145.501 119.929  1.00  0.00    -0.080 C 
ATOM     33  C   UNL     1     144.100 145.923 120.168  1.00  0.00     0.039 C 
ATOM     34  C   UNL     1     142.353 144.043 119.692  1.00  0.00     0.039 C 
ENDBRANCH  30  31
ENDBRANCH   1  30
TORSDOF 6
ENDMDL
MODEL 5
REMARK VINA RESULT:    -5.993      1.753      3.004
REMARK INTER + INTRA:          -9.269
REMARK INTER:                  -7.737
REMARK INTRA:                  -1.532
REMARK UNBOUND:                -1.350
REMARK SMILES CC(C)=CCC[C@H](C(=O)[O-])[C@@H]1CC[C@]2(C)C3=C(CC[C@]12C)[C@]1(C)CC[C@@H](O)C(C)(C)[C@@H]1CC3
REMARK SMILES IDX 6 1 7 2 8 3 9 4 10 5 11 6 12 7 20 8 13 9 14 10 19 11 21 12
REMARK SMILES IDX 15 13 16 14 18 15 17 16 33 17 22 18 32 19 31 20 24 21 23 22
REMARK SMILES IDX 28 23 25 24 26 25 29 26 30 27 27 28 5 30 4 31 2 32 1 33 3 34
REMARK H PARENT 27 29
REMARK Flexibility Score: inf
ROOT
ATOM      1  C   UNL     1     134.318 146.326 118.961  1.00  0.00     0.014 C 
ENDROOT
BRANCH   1   2
ATOM      2  C   UNL     1     133.891 144.958 119.569  1.00  0.00     0.039 C 
BRANCH   2   3
ATOM      3  C   UNL     1     134.046 143.880 118.524  1.00  0.00     0.045 C 
ATOM      4  O   UNL     1     135.134 143.750 117.903  1.00  0.00    -0.550 OA
ATOM      5  O   UNL     1     133.001 143.001 118.260  1.00  0.00    -0.550 OA
ENDBRANCH   2   3
BRANCH   2   6
ATOM      6  C   UNL     1     132.440 144.898 120.171  1.00  0.00     0.004 C 
ATOM      7  C   UNL     1     131.612 146.179 120.071  1.00  0.00     0.006 C 
ATOM      8  C   UNL     1     132.280 144.408 121.642  1.00  0.00    -0.020 C 
ATOM      9  C   UNL     1     130.522 146.067 121.138  1.00  0.00     0.012 C 
ATOM     10  C   UNL     1     130.789 144.789 121.987  1.00  0.00    -0.006 C 
ATOM     11  C   UNL     1     133.225 145.169 122.597  1.00  0.00     0.012 C 
ATOM     12  C   UNL     1     132.582 142.880 121.732  1.00  0.00     0.012 C 
ATOM     13  C   UNL     1     129.809 143.663 121.528  1.00  0.00     0.017 C 
ATOM     14  C   UNL     1     130.521 145.109 123.486  1.00  0.00    -0.064 C 
ATOM     15  C   UNL     1     132.937 144.815 124.048  1.00  0.00     0.032 C 
ATOM     16  C   UNL     1     131.498 145.124 124.445  1.00  0.00    -0.064 C 
ATOM     17  C   UNL     1     129.145 145.597 123.860  1.00  0.00     0.032 C 
ATOM     18  C   UNL     1     131.181 145.262 125.974  1.00  0.00    -0.008 C 
ATOM     19  C   UNL     1     128.735 145.057 125.214  1.00  0.00     0.009 C 
ATOM     20  C   UNL     1     129.662 145.643 126.302  1.00  0.00     0.007 C 
ATOM     21  C   UNL     1     131.543 143.883 126.600  1.00  0.00     0.014 C 
ATOM     22  C   UNL     1     132.116 146.378 126.524  1.00  0.00     0.016 C 
ATOM     23  C   UNL     1     129.150 145.317 127.790  1.00  0.00    -0.006 C 
ATOM     24  C   UNL     1     131.156 143.733 128.066  1.00  0.00     0.033 C 
ATOM     25  C   UNL     1     129.644 143.912 128.244  1.00  0.00     0.120 C 
ATOM     26  C   UNL     1     129.604 146.419 128.799  1.00  0.00     0.014 C 
ATOM     27  C   UNL     1     127.594 145.314 127.872  1.00  0.00     0.014 C 
BRANCH  25  28
ATOM     28  O   UNL     1     129.259 143.623 129.569  1.00  0.00    -0.393 OA
ATOM     29  H   UNL     1     128.275 143.740 129.640  1.00  0.00     0.210 HD
ENDBRANCH  25  28
ENDBRANCH   2   6
ENDBRANCH   1   2
BRANCH   1  30
ATOM     30  C   UNL     1     135.745 146.748 119.359  1.00  0.00     0.028 C 
BRANCH  30  31
ATOM     31  C   UNL     1     135.986 146.635 120.848  1.00  0.00    -0.028 C 
ATOM     32  C   UNL     1     136.798 145.710 121.399  1.00  0.00    -0.080 C 
ATOM     33  C   UNL     1     136.963 145.691 122.895  1.00  0.00     0.039 C 
ATOM     34  C   UNL     1     137.546 144.708 120.549  1.00  0.00     0.039 C 
ENDBRANCH  30  31
ENDBRANCH   1  30
TORSDOF 6
ENDMDL
MODEL 6
REMARK VINA RESULT:    -5.954      1.795      3.726
REMARK INTER + INTRA:          -9.218
REMARK INTER:                  -7.688
REMARK INTRA:                  -1.530
REMARK UNBOUND:                -1.350
REMARK SMILES CC(C)=CCC[C@H](C(=O)[O-])[C@@H]1CC[C@]2(C)C3=C(CC[C@]12C)[C@]1(C)CC[C@@H](O)C(C)(C)[C@@H]1CC3
REMARK SMILES IDX 6 1 7 2 8 3 9 4 10 5 11 6 12 7 20 8 13 9 14 10 19 11 21 12
REMARK SMILES IDX 15 13 16 14 18 15 17 16 33 17 22 18 32 19 31 20 24 21 23 22
REMARK SMILES IDX 28 23 25 24 26 25 29 26 30 27 27 28 5 30 4 31 2 32 1 33 3 34
REMARK H PARENT 27 29
REMARK Flexibility Score: inf
ROOT
ATOM      1  C   UNL     1     130.676 144.535 120.090  1.00  0.00     0.014 C 
ENDROOT
BRANCH   1   2
ATOM      2  C   UNL     1     131.381 145.427 121.152  1.00  0.00     0.039 C 
BRANCH   2   3
ATOM      3  C   UNL     1     132.541 146.146 120.506  1.00  0.00     0.045 C 
ATOM      4  O   UNL     1     132.332 147.125 119.740  1.00  0.00    -0.550 OA
ATOM      5  O   UNL     1     133.848 145.757 120.774  1.00  0.00    -0.550 OA
ENDBRANCH   2   3
BRANCH   2   6
ATOM      6  C   UNL     1     131.881 144.686 122.446  1.00  0.00     0.004 C 
ATOM      7  C   UNL     1     131.499 143.211 122.572  1.00  0.00     0.006 C 
ATOM      8  C   UNL     1     131.550 145.326 123.827  1.00  0.00    -0.020 C 
ATOM      9  C   UNL     1     131.608 142.869 124.059  1.00  0.00     0.012 C 
ATOM     10  C   UNL     1     131.903 144.177 124.849  1.00  0.00    -0.006 C 
ATOM     11  C   UNL     1     130.048 145.661 123.949  1.00  0.00     0.012 C 
ATOM     12  C   UNL     1     132.383 146.631 124.026  1.00  0.00     0.012 C 
ATOM     13  C   UNL     1     133.419 144.214 125.221  1.00  0.00     0.017 C 
ATOM     14  C   UNL     1     131.063 144.181 126.159  1.00  0.00    -0.064 C 
ATOM     15  C   UNL     1     129.701 146.115 125.359  1.00  0.00     0.032 C 
ATOM     16  C   UNL     1     130.049 145.066 126.408  1.00  0.00    -0.064 C 
ATOM     17  C   UNL     1     131.268 143.040 127.122  1.00  0.00     0.032 C 
ATOM     18  C   UNL     1     129.344 145.174 127.804  1.00  0.00    -0.008 C 
ATOM     19  C   UNL     1     131.162 143.520 128.553  1.00  0.00     0.009 C 
ATOM     20  C   UNL     1     129.720 144.003 128.827  1.00  0.00     0.007 C 
ATOM     21  C   UNL     1     129.771 146.556 128.380  1.00  0.00     0.014 C 
ATOM     22  C   UNL     1     127.811 145.142 127.533  1.00  0.00     0.016 C 
ATOM     23  C   UNL     1     129.454 144.302 130.383  1.00  0.00    -0.006 C 
ATOM     24  C   UNL     1     129.330 146.807 129.816  1.00  0.00     0.033 C 
ATOM     25  C   UNL     1     129.917 145.743 130.751  1.00  0.00     0.120 C 
ATOM     26  C   UNL     1     127.952 144.089 130.752  1.00  0.00     0.014 C 
ATOM     27  C   UNL     1     130.236 143.313 131.298  1.00  0.00     0.014 C 
BRANCH  25  28
ATOM     28  O   UNL     1     129.642 146.054 132.098  1.00  0.00    -0.393 OA
ATOM     29  H   UNL     1     130.315 145.598 132.668  1.00  0.00     0.210 HD
ENDBRANCH  25  28
ENDBRANCH   2   6
ENDBRANCH   1   2
BRANCH   1  30
ATOM     30  C   UNL     1     129.493 145.238 119.397  1.00  0.00     0.028 C 
BRANCH  30  31
ATOM     31  C   UNL     1     128.650 146.038 120.364  1.00  0.00    -0.028 C 
ATOM     32  C   UNL     1     127.649 145.503 121.092  1.00  0.00    -0.080 C 
ATOM     33  C   UNL     1     126.876 146.396 122.026  1.00  0.00     0.039 C 
ATOM     34  C   UNL     1     127.299 144.036 120.997  1.00  0.00     0.039 C 
ENDBRANCH  30  31
ENDBRANCH   1  30
TORSDOF 6
ENDMDL
MODEL 7
REMARK VINA RESULT:    -5.920      1.949      8.473
REMARK INTER + INTRA:          -9.173
REMARK INTER:                  -7.591
REMARK INTRA:                  -1.583
REMARK UNBOUND:                -1.350
REMARK SMILES CC(C)=CCC[C@H](C(=O)[O-])[C@@H]1CC[C@]2(C)C3=C(CC[C@]12C)[C@]1(C)CC[C@@H](O)C(C)(C)[C@@H]1CC3
REMARK SMILES IDX 6 1 7 2 8 3 9 4 10 5 11 6 12 7 20 8 13 9 14 10 19 11 21 12
REMARK SMILES IDX 15 13 16 14 18 15 17 16 33 17 22 18 32 19 31 20 24 21 23 22
REMARK SMILES IDX 28 23 25 24 26 25 29 26 30 27 27 28 5 30 4 31 2 32 1 33 3 34
REMARK H PARENT 27 29
REMARK Flexibility Score: inf
ROOT
ATOM      1  C   UNL     1     131.426 146.358 130.519  1.00  0.00     0.014 C 
ENDROOT
BRANCH   1   2
ATOM      2  C   UNL     1     131.555 145.093 129.623  1.00  0.00     0.039 C 
BRANCH   2   3
ATOM      3  C   UNL     1     132.432 144.079 130.317  1.00  0.00     0.045 C 
ATOM      4  O   UNL     1     131.939 143.000 130.743  1.00  0.00    -0.550 OA
ATOM      5  O   UNL     1     133.795 144.310 130.463  1.00  0.00    -0.550 OA
ENDBRANCH   2   3
BRANCH   2   6
ATOM      6  C   UNL     1     132.090 145.336 128.165  1.00  0.00     0.004 C 
ATOM      7  C   UNL     1     132.349 146.791 127.773  1.00  0.00     0.006 C 
ATOM      8  C   UNL     1     131.290 144.718 126.980  1.00  0.00    -0.020 C 
ATOM      9  C   UNL     1     132.336 146.830 126.244  1.00  0.00     0.012 C 
ATOM     10  C   UNL     1     131.913 145.428 125.716  1.00  0.00    -0.006 C 
ATOM     11  C   UNL     1     129.790 145.073 127.065  1.00  0.00     0.012 C 
ATOM     12  C   UNL     1     131.449 143.166 126.979  1.00  0.00     0.012 C 
ATOM     13  C   UNL     1     133.185 144.667 125.225  1.00  0.00     0.017 C 
ATOM     14  C   UNL     1     130.939 145.608 124.516  1.00  0.00    -0.064 C 
ATOM     15  C   UNL     1     129.049 144.622 125.816  1.00  0.00     0.032 C 
ATOM     16  C   UNL     1     129.621 145.242 124.547  1.00  0.00    -0.064 C 
ATOM     17  C   UNL     1     131.437 146.386 123.325  1.00  0.00     0.032 C 
ATOM     18  C   UNL     1     128.708 145.257 123.271  1.00  0.00    -0.008 C 
ATOM     19  C   UNL     1     130.896 145.801 122.038  1.00  0.00     0.009 C 
ATOM     20  C   UNL     1     129.361 145.976 122.001  1.00  0.00     0.007 C 
ATOM     21  C   UNL     1     128.409 143.762 122.956  1.00  0.00     0.014 C 
ATOM     22  C   UNL     1     127.403 146.008 123.667  1.00  0.00     0.016 C 
ATOM     23  C   UNL     1     128.732 145.605 120.569  1.00  0.00    -0.006 C 
ATOM     24  C   UNL     1     127.665 143.529 121.648  1.00  0.00     0.033 C 
ATOM     25  C   UNL     1     128.475 144.072 120.465  1.00  0.00     0.120 C 
ATOM     26  C   UNL     1     127.421 146.408 120.302  1.00  0.00     0.014 C 
ATOM     27  C   UNL     1     129.689 145.998 119.404  1.00  0.00     0.014 C 
BRANCH  25  28
ATOM     28  O   UNL     1     127.869 143.724 119.241  1.00  0.00    -0.393 OA
ATOM     29  H   UNL     1     127.003 143.280 119.435  1.00  0.00     0.210 HD
ENDBRANCH  25  28
ENDBRANCH   2   6
ENDBRANCH   1   2
BRANCH   1  30
ATOM     30  C   UNL     1     130.083 146.436 131.268  1.00  0.00     0.028 C 
BRANCH  30  31
ATOM     31  C   UNL     1     128.911 146.636 130.333  1.00  0.00    -0.028 C 
ATOM     32  C   UNL     1     128.003 145.675 130.068  1.00  0.00    -0.080 C 
ATOM     33  C   UNL     1     126.875 145.987 129.120  1.00  0.00     0.039 C 
ATOM     34  C   UNL     1     128.088 144.308 130.707  1.00  0.00     0.039 C 
ENDBRANCH  30  31
ENDBRANCH   1  30
TORSDOF 6
ENDMDL
MODEL 8
REMARK VINA RESULT:    -5.830      4.574      8.183
REMARK INTER + INTRA:          -9.054
REMARK INTER:                  -7.401
REMARK INTRA:                  -1.653
REMARK UNBOUND:                -1.350
REMARK SMILES CC(C)=CCC[C@H](C(=O)[O-])[C@@H]1CC[C@]2(C)C3=C(CC[C@]12C)[C@]1(C)CC[C@@H](O)C(C)(C)[C@@H]1CC3
REMARK SMILES IDX 6 1 7 2 8 3 9 4 10 5 11 6 12 7 20 8 13 9 14 10 19 11 21 12
REMARK SMILES IDX 15 13 16 14 18 15 17 16 33 17 22 18 32 19 31 20 24 21 23 22
REMARK SMILES IDX 28 23 25 24 26 25 29 26 30 27 27 28 5 30 4 31 2 32 1 33 3 34
REMARK H PARENT 27 29
REMARK Flexibility Score: inf
ROOT
ATOM      1  C   UNL     1     138.541 144.418 122.681  1.00  0.00     0.014 C 
ENDROOT
BRANCH   1   2
ATOM      2  C   UNL     1     138.043 144.199 121.223  1.00  0.00     0.039 C 
BRANCH   2   3
ATOM      3  C   UNL     1     139.222 144.253 120.282  1.00  0.00     0.045 C 
ATOM      4  O   UNL     1     139.545 143.236 119.611  1.00  0.00    -0.550 OA
ATOM      5  O   UNL     1     139.941 145.431 120.122  1.00  0.00    -0.550 OA
ENDBRANCH   2   3
BRANCH   2   6
ATOM      6  C   UNL     1     136.929 145.188 120.723  1.00  0.00     0.004 C 
ATOM      7  C   UNL     1     136.582 146.347 121.658  1.00  0.00     0.006 C 
ATOM      8  C   UNL     1     135.563 144.586 120.277  1.00  0.00    -0.020 C 
ATOM      9  C   UNL     1     135.189 146.825 121.247  1.00  0.00     0.012 C 
ATOM     10  C   UNL     1     134.629 145.852 120.168  1.00  0.00    -0.006 C 
ATOM     11  C   UNL     1     134.990 143.632 121.349  1.00  0.00     0.012 C 
ATOM     12  C   UNL     1     135.734 143.805 118.937  1.00  0.00     0.012 C 
ATOM     13  C   UNL     1     134.767 146.521 118.764  1.00  0.00     0.017 C 
ATOM     14  C   UNL     1     133.123 145.587 120.454  1.00  0.00    -0.064 C 
ATOM     15  C   UNL     1     133.579 143.191 120.990  1.00  0.00     0.032 C 
ATOM     16  C   UNL     1     132.626 144.369 120.832  1.00  0.00    -0.064 C 
ATOM     17  C   UNL     1     132.199 146.777 120.484  1.00  0.00     0.032 C 
ATOM     18  C   UNL     1     131.088 144.076 120.931  1.00  0.00    -0.008 C 
ATOM     19  C   UNL     1     130.846 146.420 119.905  1.00  0.00     0.009 C 
ATOM     20  C   UNL     1     130.160 145.373 120.812  1.00  0.00     0.007 C 
ATOM     21  C   UNL     1     130.779 143.079 119.777  1.00  0.00     0.014 C 
ATOM     22  C   UNL     1     130.851 143.406 122.316  1.00  0.00     0.016 C 
ATOM     23  C   UNL     1     128.626 145.118 120.408  1.00  0.00    -0.006 C 
ATOM     24  C   UNL     1     129.299 142.780 119.579  1.00  0.00     0.033 C 
ATOM     25  C   UNL     1     128.528 144.067 119.263  1.00  0.00     0.120 C 
ATOM     26  C   UNL     1     127.781 144.675 121.644  1.00  0.00     0.014 C 
ATOM     27  C   UNL     1     127.942 146.424 119.902  1.00  0.00     0.014 C 
BRANCH  25  28
ATOM     28  O   UNL     1     127.189 143.780 118.928  1.00  0.00    -0.393 OA
ATOM     29  H   UNL     1     126.806 143.203 119.639  1.00  0.00     0.210 HD
ENDBRANCH  25  28
ENDBRANCH   2   6
ENDBRANCH   1   2
BRANCH   1  30
ATOM     30  C   UNL     1     137.851 143.495 123.703  1.00  0.00     0.028 C 
BRANCH  30  31
ATOM     31  C   UNL     1     136.851 144.234 124.565  1.00  0.00    -0.028 C 
ATOM     32  C   UNL     1     135.717 143.672 125.031  1.00  0.00    -0.080 C 
ATOM     33  C   UNL     1     134.795 144.504 125.883  1.00  0.00     0.039 C 
ATOM     34  C   UNL     1     135.363 142.235 124.726  1.00  0.00     0.039 C 
ENDBRANCH  30  31
ENDBRANCH   1  30
TORSDOF 6
ENDMDL
MODEL 9
REMARK VINA RESULT:    -4.880      6.820     11.879
REMARK INTER + INTRA:          -7.799
REMARK INTER:                  -6.219
REMARK INTRA:                  -1.580
REMARK UNBOUND:                -1.350
REMARK SMILES CC(C)=CCC[C@H](C(=O)[O-])[C@@H]1CC[C@]2(C)C3=C(CC[C@]12C)[C@]1(C)CC[C@@H](O)C(C)(C)[C@@H]1CC3
REMARK SMILES IDX 6 1 7 2 8 3 9 4 10 5 11 6 12 7 20 8 13 9 14 10 19 11 21 12
REMARK SMILES IDX 15 13 16 14 18 15 17 16 33 17 22 18 32 19 31 20 24 21 23 22
REMARK SMILES IDX 28 23 25 24 26 25 29 26 30 27 27 28 5 30 4 31 2 32 1 33 3 34
REMARK H PARENT 27 29
REMARK Flexibility Score: inf
ROOT
ATOM      1  C   UNL     1     144.127 145.130 123.867  1.00  0.00     0.014 C 
ENDROOT
BRANCH   1   2
ATOM      2  C   UNL     1     143.676 144.590 122.479  1.00  0.00     0.039 C 
BRANCH   2   3
ATOM      3  C   UNL     1     144.893 144.356 121.617  1.00  0.00     0.045 C 
ATOM      4  O   UNL     1     145.267 145.236 120.796  1.00  0.00    -0.550 OA
ATOM      5  O   UNL     1     145.629 143.183 121.741  1.00  0.00    -0.550 OA
ENDBRANCH   2   3
BRANCH   2   6
ATOM      6  C   UNL     1     142.646 145.484 121.697  1.00  0.00     0.004 C 
ATOM      7  C   UNL     1     142.150 146.736 122.421  1.00  0.00     0.006 C 
ATOM      8  C   UNL     1     141.370 144.797 121.124  1.00  0.00    -0.020 C 
ATOM      9  C   UNL     1     140.833 147.125 121.747  1.00  0.00     0.012 C 
ATOM     10  C   UNL     1     140.455 146.017 120.721  1.00  0.00    -0.006 C 
ATOM     11  C   UNL     1     140.645 143.963 122.203  1.00  0.00     0.012 C 
ATOM     12  C   UNL     1     141.753 143.868 119.931  1.00  0.00     0.012 C 
ATOM     13  C   UNL     1     140.804 146.518 119.283  1.00  0.00     0.017 C 
ATOM     14  C   UNL     1     138.925 145.748 120.803  1.00  0.00    -0.064 C 
ATOM     15  C   UNL     1     139.310 143.445 121.688  1.00  0.00     0.032 C 
ATOM     16  C   UNL     1     138.384 144.571 121.244  1.00  0.00    -0.064 C 
ATOM     17  C   UNL     1     137.998 146.908 120.546  1.00  0.00     0.032 C 
ATOM     18  C   UNL     1     136.852 144.252 121.141  1.00  0.00    -0.008 C 
ATOM     19  C   UNL     1     136.755 146.450 119.814  1.00  0.00     0.009 C 
ATOM     20  C   UNL     1     135.944 145.501 120.725  1.00  0.00     0.007 C 
ATOM     21  C   UNL     1     136.733 143.117 120.083  1.00  0.00     0.014 C 
ATOM     22  C   UNL     1     136.408 143.744 122.544  1.00  0.00     0.016 C 
ATOM     23  C   UNL     1     134.493 145.160 120.125  1.00  0.00    -0.006 C 
ATOM     24  C   UNL     1     135.304 142.758 119.699  1.00  0.00     0.033 C 
ATOM     25  C   UNL     1     134.582 143.978 119.115  1.00  0.00     0.120 C 
ATOM     26  C   UNL     1     133.470 144.845 121.261  1.00  0.00     0.014 C 
ATOM     27  C   UNL     1     133.887 146.378 119.366  1.00  0.00     0.014 C 
BRANCH  25  28
ATOM     28  O   UNL     1     133.314 143.618 118.616  1.00  0.00    -0.393 OA
ATOM     29  H   UNL     1     133.153 144.124 117.777  1.00  0.00     0.210 HD
ENDBRANCH  25  28
ENDBRANCH   2   6
ENDBRANCH   1   2
BRANCH   1  30
ATOM     30  C   UNL     1     143.302 144.562 125.036  1.00  0.00     0.028 C 
BRANCH  30  31
ATOM     31  C   UNL     1     142.969 145.613 126.072  1.00  0.00    -0.028 C 
ATOM     32  C   UNL     1     141.719 146.070 126.288  1.00  0.00    -0.080 C 
ATOM     33  C   UNL     1     141.506 147.118 127.348  1.00  0.00     0.039 C 
ATOM     34  C   UNL     1     140.539 145.548 125.502  1.00  0.00     0.039 C 
ENDBRANCH  30  31
ENDBRANCH   1  30
TORSDOF 6
ENDMDL
