MODEL 1
REMARK VINA RESULT:    -4.934      0.000      0.000
REMARK INTER + INTRA:          -5.351
REMARK INTER:                  -5.222
REMARK INTRA:                  -0.129
REMARK UNBOUND:                -0.129
REMARK SMILES C=C(C)[C@H]1CC=C(C)CC1
REMARK SMILES IDX 8 1 7 2 6 3 5 4 4 5 10 6 9 7 2 8 1 9 3 10
REMARK H PARENT
REMARK Flexibility Score: inf
ROOT
ATOM      1  C   UNL     1       4.525  -3.765  25.118  1.00  0.00     0.039 C 
ATOM      2  C   UNL     1       5.112  -3.461  26.469  1.00  0.00    -0.077 C 
ATOM      3  C   UNL     1       4.565  -4.030  27.564  1.00  0.00    -0.027 C 
ATOM      4  C   UNL     1       5.047  -3.747  28.967  1.00  0.00     0.035 C 
ATOM      5  C   UNL     1       6.495  -3.227  28.990  1.00  0.00     0.018 C 
ATOM      6  C   UNL     1       6.662  -2.101  27.958  1.00  0.00     0.013 C 
ATOM      7  C   UNL     1       6.378  -2.630  26.547  1.00  0.00     0.031 C 
ENDROOT
BRANCH   5   8
ATOM      8  C   UNL     1       6.898  -2.772  30.386  1.00  0.00    -0.077 C 
ATOM      9  C   UNL     1       7.124  -1.471  30.630  1.00  0.00     0.008 C 
ATOM     10  C   UNL     1       7.062  -3.757  31.517  1.00  0.00     0.039 C 
ENDBRANCH   5   8
TORSDOF 1
ENDMDL
MODEL 2
REMARK VINA RESULT:    -4.737      0.974      4.248
REMARK INTER + INTRA:          -5.143
REMARK INTER:                  -5.014
REMARK INTRA:                  -0.129
REMARK UNBOUND:                -0.129
REMARK SMILES C=C(C)[C@H]1CC=C(C)CC1
REMARK SMILES IDX 8 1 7 2 6 3 5 4 4 5 10 6 9 7 2 8 1 9 3 10
REMARK H PARENT
REMARK Flexibility Score: inf
ROOT
ATOM      1  C   UNL     1       6.228  -2.697  31.813  1.00  0.00     0.039 C 
ATOM      2  C   UNL     1       6.118  -2.821  30.318  1.00  0.00    -0.077 C 
ATOM      3  C   UNL     1       5.212  -3.676  29.796  1.00  0.00    -0.027 C 
ATOM      4  C   UNL     1       5.062  -3.911  28.313  1.00  0.00     0.035 C 
ATOM      5  C   UNL     1       5.609  -2.739  27.480  1.00  0.00     0.018 C 
ATOM      6  C   UNL     1       7.008  -2.349  27.982  1.00  0.00     0.013 C 
ATOM      7  C   UNL     1       6.936  -1.890  29.444  1.00  0.00     0.031 C 
ENDROOT
BRANCH   5   8
ATOM      8  C   UNL     1       5.620  -3.072  25.994  1.00  0.00    -0.077 C 
ATOM      9  C   UNL     1       6.654  -2.690  25.227  1.00  0.00     0.008 C 
ATOM     10  C   UNL     1       4.482  -3.822  25.347  1.00  0.00     0.039 C 
ENDBRANCH   5   8
TORSDOF 1
ENDMDL
MODEL 3
REMARK VINA RESULT:    -4.685      8.207      9.159
REMARK INTER + INTRA:          -5.088
REMARK INTER:                  -4.967
REMARK INTRA:                  -0.120
REMARK UNBOUND:                -0.129
REMARK SMILES C=C(C)[C@H]1CC=C(C)CC1
REMARK SMILES IDX 8 1 7 2 6 3 5 4 4 5 10 6 9 7 2 8 1 9 3 10
REMARK H PARENT
REMARK Flexibility Score: inf
ROOT
ATOM      1  C   UNL     1       5.265   3.165  26.724  1.00  0.00     0.039 C 
ATOM      2  C   UNL     1       4.236   3.880  27.556  1.00  0.00    -0.077 C 
ATOM      3  C   UNL     1       4.340   5.216  27.722  1.00  0.00    -0.027 C 
ATOM      4  C   UNL     1       3.389   6.015  28.580  1.00  0.00     0.035 C 
ATOM      5  C   UNL     1       2.040   5.300  28.774  1.00  0.00     0.018 C 
ATOM      6  C   UNL     1       2.278   3.838  29.179  1.00  0.00     0.013 C 
ATOM      7  C   UNL     1       3.042   3.100  28.073  1.00  0.00     0.031 C 
ENDROOT
BRANCH   5   8
ATOM      8  C   UNL     1       1.169   6.028  29.788  1.00  0.00    -0.077 C 
ATOM      9  C   UNL     1       0.369   7.031  29.391  1.00  0.00     0.008 C 
ATOM     10  C   UNL     1       1.186   5.657  31.251  1.00  0.00     0.039 C 
ENDBRANCH   5   8
TORSDOF 1
ENDMDL
MODEL 4
REMARK VINA RESULT:    -4.592      9.680     10.789
REMARK INTER + INTRA:          -4.989
REMARK INTER:                  -4.860
REMARK INTRA:                  -0.129
REMARK UNBOUND:                -0.129
REMARK SMILES C=C(C)[C@H]1CC=C(C)CC1
REMARK SMILES IDX 8 1 7 2 6 3 5 4 4 5 10 6 9 7 2 8 1 9 3 10
REMARK H PARENT
REMARK Flexibility Score: inf
ROOT
ATOM      1  C   UNL     1       2.781   3.423  28.485  1.00  0.00     0.039 C 
ATOM      2  C   UNL     1       2.252   4.490  29.403  1.00  0.00    -0.077 C 
ATOM      3  C   UNL     1       1.690   5.595  28.868  1.00  0.00    -0.027 C 
ATOM      4  C   UNL     1       1.178   6.745  29.703  1.00  0.00     0.035 C 
ATOM      5  C   UNL     1       0.858   6.318  31.146  1.00  0.00     0.018 C 
ATOM      6  C   UNL     1       2.028   5.509  31.723  1.00  0.00     0.013 C 
ATOM      7  C   UNL     1       2.249   4.235  30.898  1.00  0.00     0.031 C 
ENDROOT
BRANCH   5   8
ATOM      8  C   UNL     1       0.524   7.521  32.018  1.00  0.00    -0.077 C 
ATOM      9  C   UNL     1       0.341   7.364  33.339  1.00  0.00     0.008 C 
ATOM     10  C   UNL     1       0.380   8.903  31.430  1.00  0.00     0.039 C 
ENDBRANCH   5   8
TORSDOF 1
ENDMDL
MODEL 5
REMARK VINA RESULT:    -4.487      7.443      8.811
REMARK INTER + INTRA:          -4.878
REMARK INTER:                  -4.746
REMARK INTRA:                  -0.132
REMARK UNBOUND:                -0.129
REMARK SMILES C=C(C)[C@H]1CC=C(C)CC1
REMARK SMILES IDX 8 1 7 2 6 3 5 4 4 5 10 6 9 7 2 8 1 9 3 10
REMARK H PARENT
REMARK Flexibility Score: inf
ROOT
ATOM      1  C   UNL     1       0.703   6.106  31.491  1.00  0.00     0.039 C 
ATOM      2  C   UNL     1       1.702   5.386  30.628  1.00  0.00    -0.077 C 
ATOM      3  C   UNL     1       2.359   4.320  31.135  1.00  0.00    -0.027 C 
ATOM      4  C   UNL     1       3.416   3.564  30.368  1.00  0.00     0.035 C 
ATOM      5  C   UNL     1       3.278   3.752  28.847  1.00  0.00     0.018 C 
ATOM      6  C   UNL     1       3.117   5.244  28.518  1.00  0.00     0.013 C 
ATOM      7  C   UNL     1       1.845   5.796  29.174  1.00  0.00     0.031 C 
ENDROOT
BRANCH   5   8
ATOM      8  C   UNL     1       4.457   3.139  28.104  1.00  0.00    -0.077 C 
ATOM      9  C   UNL     1       5.484   2.612  28.790  1.00  0.00     0.008 C 
ATOM     10  C   UNL     1       4.511   3.116  26.596  1.00  0.00     0.039 C 
ENDBRANCH   5   8
TORSDOF 1
ENDMDL
MODEL 6
REMARK VINA RESULT:    -4.467      8.264      9.133
REMARK INTER + INTRA:          -4.857
REMARK INTER:                  -4.730
REMARK INTRA:                  -0.128
REMARK UNBOUND:                -0.129
REMARK SMILES C=C(C)[C@H]1CC=C(C)CC1
REMARK SMILES IDX 8 1 7 2 6 3 5 4 4 5 10 6 9 7 2 8 1 9 3 10
REMARK H PARENT
REMARK Flexibility Score: inf
ROOT
ATOM      1  C   UNL     1       5.382   3.364  26.886  1.00  0.00     0.039 C 
ATOM      2  C   UNL     1       4.308   4.066  27.671  1.00  0.00    -0.077 C 
ATOM      3  C   UNL     1       3.257   3.351  28.128  1.00  0.00    -0.027 C 
ATOM      4  C   UNL     1       2.104   3.972  28.879  1.00  0.00     0.035 C 
ATOM      5  C   UNL     1       2.488   5.311  29.532  1.00  0.00     0.018 C 
ATOM      6  C   UNL     1       3.211   6.202  28.510  1.00  0.00     0.013 C 
ATOM      7  C   UNL     1       4.503   5.525  28.038  1.00  0.00     0.031 C 
ENDROOT
BRANCH   5   8
ATOM      8  C   UNL     1       1.271   6.009  30.123  1.00  0.00    -0.077 C 
ATOM      9  C   UNL     1       0.447   6.710  29.328  1.00  0.00     0.008 C 
ATOM     10  C   UNL     1       0.965   5.943  31.599  1.00  0.00     0.039 C 
ENDBRANCH   5   8
TORSDOF 1
ENDMDL
MODEL 7
REMARK VINA RESULT:    -4.439     15.983     17.722
REMARK INTER + INTRA:          -4.827
REMARK INTER:                  -4.706
REMARK INTRA:                  -0.121
REMARK UNBOUND:                -0.129
REMARK SMILES C=C(C)[C@H]1CC=C(C)CC1
REMARK SMILES IDX 8 1 7 2 6 3 5 4 4 5 10 6 9 7 2 8 1 9 3 10
REMARK H PARENT
REMARK Flexibility Score: inf
ROOT
ATOM      1  C   UNL     1      -8.757  -6.808  16.395  1.00  0.00     0.039 C 
ATOM      2  C   UNL     1      -8.937  -6.193  17.755  1.00  0.00    -0.077 C 
ATOM      3  C   UNL     1      -7.884  -6.153  18.601  1.00  0.00    -0.027 C 
ATOM      4  C   UNL     1      -7.977  -5.605  20.005  1.00  0.00     0.035 C 
ATOM      5  C   UNL     1      -9.160  -4.636  20.174  1.00  0.00     0.018 C 
ATOM      6  C   UNL     1     -10.435  -5.261  19.588  1.00  0.00     0.013 C 
ATOM      7  C   UNL     1     -10.255  -5.520  18.087  1.00  0.00     0.031 C 
ENDROOT
BRANCH   5   8
ATOM      8  C   UNL     1      -9.348  -4.242  21.633  1.00  0.00    -0.077 C 
ATOM      9  C   UNL     1      -8.546  -3.320  22.189  1.00  0.00     0.008 C 
ATOM     10  C   UNL     1     -10.420  -4.874  22.486  1.00  0.00     0.039 C 
ENDBRANCH   5   8
TORSDOF 1
ENDMDL
MODEL 8
REMARK VINA RESULT:    -4.334      9.885     11.240
REMARK INTER + INTRA:          -4.717
REMARK INTER:                  -4.587
REMARK INTRA:                  -0.130
REMARK UNBOUND:                -0.129
REMARK SMILES C=C(C)[C@H]1CC=C(C)CC1
REMARK SMILES IDX 8 1 7 2 6 3 5 4 4 5 10 6 9 7 2 8 1 9 3 10
REMARK H PARENT
REMARK Flexibility Score: inf
ROOT
ATOM      1  C   UNL     1      -0.012   9.520  31.397  1.00  0.00     0.039 C 
ATOM      2  C   UNL     1       0.514   8.141  31.105  1.00  0.00    -0.077 C 
ATOM      3  C   UNL     1       0.482   7.683  29.835  1.00  0.00    -0.027 C 
ATOM      4  C   UNL     1       0.936   6.296  29.449  1.00  0.00     0.035 C 
ATOM      5  C   UNL     1       1.908   5.695  30.479  1.00  0.00     0.018 C 
ATOM      6  C   UNL     1       1.343   5.870  31.896  1.00  0.00     0.013 C 
ATOM      7  C   UNL     1       1.182   7.360  32.221  1.00  0.00     0.031 C 
ENDROOT
BRANCH   5   8
ATOM      8  C   UNL     1       2.207   4.233  30.172  1.00  0.00    -0.077 C 
ATOM      9  C   UNL     1       2.170   3.319  31.154  1.00  0.00     0.008 C 
ATOM     10  C   UNL     1       2.559   3.779  28.777  1.00  0.00     0.039 C 
ENDBRANCH   5   8
TORSDOF 1
ENDMDL
MODEL 9
REMARK VINA RESULT:    -4.311      7.979      9.276
REMARK INTER + INTRA:          -4.692
REMARK INTER:                  -4.563
REMARK INTRA:                  -0.129
REMARK UNBOUND:                -0.129
REMARK SMILES C=C(C)[C@H]1CC=C(C)CC1
REMARK SMILES IDX 8 1 7 2 6 3 5 4 4 5 10 6 9 7 2 8 1 9 3 10
REMARK H PARENT
REMARK Flexibility Score: inf
ROOT
ATOM      1  C   UNL     1       5.489   2.476  29.264  1.00  0.00     0.039 C 
ATOM      2  C   UNL     1       4.360   3.415  29.587  1.00  0.00    -0.077 C 
ATOM      3  C   UNL     1       3.496   3.761  28.609  1.00  0.00    -0.027 C 
ATOM      4  C   UNL     1       2.363   4.737  28.819  1.00  0.00     0.035 C 
ATOM      5  C   UNL     1       1.963   4.854  30.300  1.00  0.00     0.018 C 
ATOM      6  C   UNL     1       3.217   5.050  31.166  1.00  0.00     0.013 C 
ATOM      7  C   UNL     1       4.150   3.840  31.028  1.00  0.00     0.031 C 
ENDROOT
BRANCH   5   8
ATOM      8  C   UNL     1       0.954   5.973  30.515  1.00  0.00    -0.077 C 
ATOM      9  C   UNL     1       0.590   6.320  31.760  1.00  0.00     0.008 C 
ATOM     10  C   UNL     1       0.333   6.707  29.352  1.00  0.00     0.039 C 
ENDBRANCH   5   8
TORSDOF 1
ENDMDL
