MODEL 1
REMARK VINA RESULT:    -3.616      0.000      0.000
REMARK INTER + INTRA:          -6.570
REMARK INTER:                  -5.518
REMARK INTRA:                  -1.052
REMARK UNBOUND:                -1.052
REMARK SMILES CCCCCCCCCC=CC(=O)[O-]
REMARK SMILES IDX 7 1 8 2 9 3 10 4 11 5 12 6 13 7 14 8 6 9 5 10 4 11 3 12 2 13
REMARK SMILES IDX 1 14
REMARK H PARENT
REMARK Flexibility Score: inf
ROOT
ATOM      1  C   UNL     1      60.529  31.304  59.939  1.00  0.00     0.000 C 
ENDROOT
BRANCH   1   2
ATOM      2  C   UNL     1      60.892  31.146  61.424  1.00  0.00     0.004 C 
BRANCH   2   3
ATOM      3  C   UNL     1      61.832  29.958  61.682  1.00  0.00     0.027 C 
BRANCH   3   4
ATOM      4  C   UNL     1      63.254  30.313  61.355  1.00  0.00    -0.025 C 
ATOM      5  C   UNL     1      63.842  29.884  60.233  1.00  0.00     0.020 C 
BRANCH   5   6
ATOM      6  C   UNL     1      65.237  30.211  59.899  1.00  0.00     0.064 C 
ATOM      7  O   UNL     1      66.196  29.582  60.420  1.00  0.00    -0.545 OA
ATOM      8  O   UNL     1      65.501  31.230  58.993  1.00  0.00    -0.545 OA
ENDBRANCH   5   6
ENDBRANCH   3   4
ENDBRANCH   2   3
ENDBRANCH   1   2
BRANCH   1   9
ATOM      9  C   UNL     1      61.012  32.615  59.288  1.00  0.00     0.000 C 
BRANCH   9  10
ATOM     10  C   UNL     1      61.646  33.607  60.287  1.00  0.00     0.000 C 
BRANCH  10  11
ATOM     11  C   UNL     1      63.065  34.029  59.866  1.00  0.00    -0.000 C 
BRANCH  11  12
ATOM     12  C   UNL     1      64.080  33.916  61.015  1.00  0.00    -0.000 C 
BRANCH  12  13
ATOM     13  C   UNL     1      64.606  35.285  61.471  1.00  0.00    -0.003 C 
ATOM     14  C   UNL     1      63.535  36.362  61.324  1.00  0.00     0.004 C 
ENDBRANCH  12  13
ENDBRANCH  11  12
ENDBRANCH  10  11
ENDBRANCH   9  10
ENDBRANCH   1   9
TORSDOF 9
ENDMDL
MODEL 2
REMARK VINA RESULT:    -3.499      1.718      2.799
REMARK INTER + INTRA:          -6.391
REMARK INTER:                  -5.705
REMARK INTRA:                  -0.686
REMARK UNBOUND:                -1.052
REMARK SMILES CCCCCCCCCC=CC(=O)[O-]
REMARK SMILES IDX 7 1 8 2 9 3 10 4 11 5 12 6 13 7 14 8 6 9 5 10 4 11 3 12 2 13
REMARK SMILES IDX 1 14
REMARK H PARENT
REMARK Flexibility Score: inf
ROOT
ATOM      1  C   UNL     1      62.023  29.833  61.548  1.00  0.00     0.000 C 
ENDROOT
BRANCH   1   2
ATOM      2  C   UNL     1      63.507  30.157  61.304  1.00  0.00     0.004 C 
BRANCH   2   3
ATOM      3  C   UNL     1      64.161  29.213  60.283  1.00  0.00     0.027 C 
BRANCH   3   4
ATOM      4  C   UNL     1      65.364  28.533  60.871  1.00  0.00    -0.025 C 
ATOM      5  C   UNL     1      66.607  28.918  60.562  1.00  0.00     0.020 C 
BRANCH   5   6
ATOM      6  C   UNL     1      67.799  28.257  61.117  1.00  0.00     0.064 C 
ATOM      7  O   UNL     1      68.587  28.872  61.882  1.00  0.00    -0.545 OA
ATOM      8  O   UNL     1      68.057  26.932  60.791  1.00  0.00    -0.545 OA
ENDBRANCH   5   6
ENDBRANCH   3   4
ENDBRANCH   2   3
ENDBRANCH   1   2
BRANCH   1   9
ATOM      9  C   UNL     1      61.094  31.061  61.618  1.00  0.00     0.000 C 
BRANCH   9  10
ATOM     10  C   UNL     1      60.975  31.826  60.282  1.00  0.00     0.000 C 
BRANCH  10  11
ATOM     11  C   UNL     1      61.509  33.266  60.388  1.00  0.00    -0.000 C 
BRANCH  11  12
ATOM     12  C   UNL     1      62.912  33.421  59.780  1.00  0.00    -0.000 C 
BRANCH  12  13
ATOM     13  C   UNL     1      63.958  33.853  60.819  1.00  0.00    -0.003 C 
ATOM     14  C   UNL     1      63.809  35.330  61.166  1.00  0.00     0.004 C 
ENDBRANCH  12  13
ENDBRANCH  11  12
ENDBRANCH  10  11
ENDBRANCH   9  10
ENDBRANCH   1   9
TORSDOF 9
ENDMDL
MODEL 3
REMARK VINA RESULT:    -3.481      2.299      4.650
REMARK INTER + INTRA:          -6.364
REMARK INTER:                  -5.137
REMARK INTRA:                  -1.227
REMARK UNBOUND:                -1.052
REMARK SMILES CCCCCCCCCC=CC(=O)[O-]
REMARK SMILES IDX 7 1 8 2 9 3 10 4 11 5 12 6 13 7 14 8 6 9 5 10 4 11 3 12 2 13
REMARK SMILES IDX 1 14
REMARK H PARENT
REMARK Flexibility Score: inf
ROOT
ATOM      1  C   UNL     1      61.035  31.443  59.488  1.00  0.00     0.000 C 
ENDROOT
BRANCH   1   2
ATOM      2  C   UNL     1      61.501  32.848  59.073  1.00  0.00     0.004 C 
BRANCH   2   3
ATOM      3  C   UNL     1      61.463  33.854  60.234  1.00  0.00     0.027 C 
BRANCH   3   4
ATOM      4  C   UNL     1      62.846  34.310  60.599  1.00  0.00    -0.025 C 
ATOM      5  C   UNL     1      63.081  35.549  61.043  1.00  0.00     0.020 C 
BRANCH   5   6
ATOM      6  C   UNL     1      64.430  36.018  61.395  1.00  0.00     0.064 C 
ATOM      7  O   UNL     1      64.677  36.496  62.534  1.00  0.00    -0.545 OA
ATOM      8  O   UNL     1      65.449  35.932  60.456  1.00  0.00    -0.545 OA
ENDBRANCH   5   6
ENDBRANCH   3   4
ENDBRANCH   2   3
ENDBRANCH   1   2
BRANCH   1   9
ATOM      9  C   UNL     1      60.677  31.293  60.980  1.00  0.00     0.000 C 
BRANCH   9  10
ATOM     10  C   UNL     1      61.664  30.405  61.769  1.00  0.00     0.000 C 
BRANCH  10  11
ATOM     11  C   UNL     1      62.509  29.512  60.844  1.00  0.00    -0.000 C 
BRANCH  11  12
ATOM     12  C   UNL     1      64.020  29.711  61.050  1.00  0.00    -0.000 C 
BRANCH  12  13
ATOM     13  C   UNL     1      64.503  31.083  60.557  1.00  0.00    -0.003 C 
ATOM     14  C   UNL     1      64.950  31.018  59.101  1.00  0.00     0.004 C 
ENDBRANCH  12  13
ENDBRANCH  11  12
ENDBRANCH  10  11
ENDBRANCH   9  10
ENDBRANCH   1   9
TORSDOF 9
ENDMDL
MODEL 4
REMARK VINA RESULT:    -3.480     11.666     13.363
REMARK INTER + INTRA:          -6.363
REMARK INTER:                  -5.488
REMARK INTRA:                  -0.875
REMARK UNBOUND:                -1.052
REMARK SMILES CCCCCCCCCC=CC(=O)[O-]
REMARK SMILES IDX 7 1 8 2 9 3 10 4 11 5 12 6 13 7 14 8 6 9 5 10 4 11 3 12 2 13
REMARK SMILES IDX 1 14
REMARK H PARENT
REMARK Flexibility Score: inf
ROOT
ATOM      1  C   UNL     1      58.756  29.310  49.449  1.00  0.00     0.000 C 
ENDROOT
BRANCH   1   2
ATOM      2  C   UNL     1      59.435  27.993  49.038  1.00  0.00     0.004 C 
BRANCH   2   3
ATOM      3  C   UNL     1      60.776  27.767  49.754  1.00  0.00     0.027 C 
BRANCH   3   4
ATOM      4  C   UNL     1      60.994  26.310  50.045  1.00  0.00    -0.025 C 
ATOM      5  C   UNL     1      60.003  25.418  49.935  1.00  0.00     0.020 C 
BRANCH   5   6
ATOM      6  C   UNL     1      60.193  23.989  50.228  1.00  0.00     0.064 C 
ATOM      7  O   UNL     1      60.867  23.251  49.461  1.00  0.00    -0.545 OA
ATOM      8  O   UNL     1      59.620  23.445  51.370  1.00  0.00    -0.545 OA
ENDBRANCH   5   6
ENDBRANCH   3   4
ENDBRANCH   2   3
ENDBRANCH   1   2
BRANCH   1   9
ATOM      9  C   UNL     1      58.229  29.343  50.897  1.00  0.00     0.000 C 
BRANCH   9  10
ATOM     10  C   UNL     1      57.464  28.067  51.310  1.00  0.00     0.000 C 
BRANCH  10  11
ATOM     11  C   UNL     1      56.227  27.820  50.428  1.00  0.00    -0.000 C 
BRANCH  11  12
ATOM     12  C   UNL     1      56.115  26.359  49.964  1.00  0.00    -0.000 C 
BRANCH  12  13
ATOM     13  C   UNL     1      54.730  26.031  49.386  1.00  0.00    -0.003 C 
ATOM     14  C   UNL     1      53.713  27.107  49.753  1.00  0.00     0.004 C 
ENDBRANCH  12  13
ENDBRANCH  11  12
ENDBRANCH  10  11
ENDBRANCH   9  10
ENDBRANCH   1   9
TORSDOF 9
ENDMDL
MODEL 5
REMARK VINA RESULT:    -3.430     12.395     13.724
REMARK INTER + INTRA:          -6.287
REMARK INTER:                  -5.724
REMARK INTRA:                  -0.563
REMARK UNBOUND:                -1.052
REMARK SMILES CCCCCCCCCC=CC(=O)[O-]
REMARK SMILES IDX 7 1 8 2 9 3 10 4 11 5 12 6 13 7 14 8 6 9 5 10 4 11 3 12 2 13
REMARK SMILES IDX 1 14
REMARK H PARENT
REMARK Flexibility Score: inf
ROOT
ATOM      1  C   UNL     1      59.220  28.184  49.560  1.00  0.00     0.000 C 
ENDROOT
BRANCH   1   2
ATOM      2  C   UNL     1      59.081  26.653  49.571  1.00  0.00     0.004 C 
BRANCH   2   3
ATOM      3  C   UNL     1      60.218  25.958  50.336  1.00  0.00     0.027 C 
BRANCH   3   4
ATOM      4  C   UNL     1      60.381  24.535  49.887  1.00  0.00    -0.025 C 
ATOM      5  C   UNL     1      61.376  23.766  50.342  1.00  0.00     0.020 C 
BRANCH   5   6
ATOM      6  C   UNL     1      61.560  22.373  49.905  1.00  0.00     0.064 C 
ATOM      7  O   UNL     1      62.567  21.706  50.263  1.00  0.00    -0.545 OA
ATOM      8  O   UNL     1      60.606  21.784  49.086  1.00  0.00    -0.545 OA
ENDBRANCH   5   6
ENDBRANCH   3   4
ENDBRANCH   2   3
ENDBRANCH   1   2
BRANCH   1   9
ATOM      9  C   UNL     1      58.016  28.950  50.142  1.00  0.00     0.000 C 
BRANCH   9  10
ATOM     10  C   UNL     1      56.930  28.033  50.745  1.00  0.00     0.000 C 
BRANCH  10  11
ATOM     11  C   UNL     1      55.535  28.683  50.707  1.00  0.00    -0.000 C 
BRANCH  11  12
ATOM     12  C   UNL     1      54.496  27.808  49.987  1.00  0.00    -0.000 C 
BRANCH  12  13
ATOM     13  C   UNL     1      55.035  26.408  49.656  1.00  0.00    -0.003 C 
ATOM     14  C   UNL     1      53.934  25.358  49.758  1.00  0.00     0.004 C 
ENDBRANCH  12  13
ENDBRANCH  11  12
ENDBRANCH  10  11
ENDBRANCH   9  10
ENDBRANCH   1   9
TORSDOF 9
ENDMDL
MODEL 6
REMARK VINA RESULT:    -3.429     11.602     13.528
REMARK INTER + INTRA:          -6.285
REMARK INTER:                  -4.869
REMARK INTRA:                  -1.416
REMARK UNBOUND:                -1.052
REMARK SMILES CCCCCCCCCC=CC(=O)[O-]
REMARK SMILES IDX 7 1 8 2 9 3 10 4 11 5 12 6 13 7 14 8 6 9 5 10 4 11 3 12 2 13
REMARK SMILES IDX 1 14
REMARK H PARENT
REMARK Flexibility Score: inf
ROOT
ATOM      1  C   UNL     1      59.186  28.995  50.368  1.00  0.00     0.000 C 
ENDROOT
BRANCH   1   2
ATOM      2  C   UNL     1      57.724  29.431  50.178  1.00  0.00     0.004 C 
BRANCH   2   3
ATOM      3  C   UNL     1      56.798  28.903  51.285  1.00  0.00     0.027 C 
BRANCH   3   4
ATOM      4  C   UNL     1      55.495  28.421  50.715  1.00  0.00    -0.025 C 
ATOM      5  C   UNL     1      55.385  27.222  50.134  1.00  0.00     0.020 C 
BRANCH   5   6
ATOM      6  C   UNL     1      54.121  26.736  49.558  1.00  0.00     0.064 C 
ATOM      7  O   UNL     1      53.146  27.513  49.380  1.00  0.00    -0.545 OA
ATOM      8  O   UNL     1      54.002  25.399  49.206  1.00  0.00    -0.545 OA
ENDBRANCH   5   6
ENDBRANCH   3   4
ENDBRANCH   2   3
ENDBRANCH   1   2
BRANCH   1   9
ATOM      9  C   UNL     1      59.725  28.041  49.285  1.00  0.00     0.000 C 
BRANCH   9  10
ATOM     10  C   UNL     1      59.975  26.604  49.792  1.00  0.00     0.000 C 
BRANCH  10  11
ATOM     11  C   UNL     1      58.663  25.833  50.023  1.00  0.00    -0.000 C 
BRANCH  11  12
ATOM     12  C   UNL     1      58.497  25.376  51.481  1.00  0.00    -0.000 C 
BRANCH  12  13
ATOM     13  C   UNL     1      59.606  25.917  52.397  1.00  0.00    -0.003 C 
ATOM     14  C   UNL     1      59.036  26.863  53.449  1.00  0.00     0.004 C 
ENDBRANCH  12  13
ENDBRANCH  11  12
ENDBRANCH  10  11
ENDBRANCH   9  10
ENDBRANCH   1   9
TORSDOF 9
ENDMDL
MODEL 7
REMARK VINA RESULT:    -3.420     11.731     13.245
REMARK INTER + INTRA:          -6.271
REMARK INTER:                  -4.863
REMARK INTRA:                  -1.408
REMARK UNBOUND:                -1.052
REMARK SMILES CCCCCCCCCC=CC(=O)[O-]
REMARK SMILES IDX 7 1 8 2 9 3 10 4 11 5 12 6 13 7 14 8 6 9 5 10 4 11 3 12 2 13
REMARK SMILES IDX 1 14
REMARK H PARENT
REMARK Flexibility Score: inf
ROOT
ATOM      1  C   UNL     1      60.005  25.791  51.030  1.00  0.00     0.000 C 
ENDROOT
BRANCH   1   2
ATOM      2  C   UNL     1      58.536  25.501  50.682  1.00  0.00     0.004 C 
BRANCH   2   3
ATOM      3  C   UNL     1      57.575  25.843  51.831  1.00  0.00     0.027 C 
BRANCH   3   4
ATOM      4  C   UNL     1      56.175  26.041  51.324  1.00  0.00    -0.025 C 
ATOM      5  C   UNL     1      55.925  26.273  50.031  1.00  0.00     0.020 C 
BRANCH   5   6
ATOM      6  C   UNL     1      54.563  26.481  49.516  1.00  0.00     0.064 C 
ATOM      7  O   UNL     1      53.941  25.557  48.927  1.00  0.00    -0.545 OA
ATOM      8  O   UNL     1      53.952  27.717  49.683  1.00  0.00    -0.545 OA
ENDBRANCH   5   6
ENDBRANCH   3   4
ENDBRANCH   2   3
ENDBRANCH   1   2
BRANCH   1   9
ATOM      9  C   UNL     1      60.785  26.572  49.954  1.00  0.00     0.000 C 
BRANCH   9  10
ATOM     10  C   UNL     1      60.550  28.097  50.002  1.00  0.00     0.000 C 
BRANCH  10  11
ATOM     11  C   UNL     1      59.415  28.540  49.061  1.00  0.00    -0.000 C 
BRANCH  11  12
ATOM     12  C   UNL     1      58.371  29.418  49.769  1.00  0.00    -0.000 C 
BRANCH  12  13
ATOM     13  C   UNL     1      58.605  29.503  51.285  1.00  0.00    -0.003 C 
ATOM     14  C   UNL     1      57.282  29.526  52.044  1.00  0.00     0.004 C 
ENDBRANCH  12  13
ENDBRANCH  11  12
ENDBRANCH  10  11
ENDBRANCH   9  10
ENDBRANCH   1   9
TORSDOF 9
ENDMDL
MODEL 8
REMARK VINA RESULT:    -3.391      1.366      2.077
REMARK INTER + INTRA:          -6.227
REMARK INTER:                  -5.218
REMARK INTRA:                  -1.009
REMARK UNBOUND:                -1.052
REMARK SMILES CCCCCCCCCC=CC(=O)[O-]
REMARK SMILES IDX 7 1 8 2 9 3 10 4 11 5 12 6 13 7 14 8 6 9 5 10 4 11 3 12 2 13
REMARK SMILES IDX 1 14
REMARK H PARENT
REMARK Flexibility Score: inf
ROOT
ATOM      1  C   UNL     1      62.030  32.137  59.422  1.00  0.00     0.000 C 
ENDROOT
BRANCH   1   2
ATOM      2  C   UNL     1      61.271  32.148  60.758  1.00  0.00     0.004 C 
BRANCH   2   3
ATOM      3  C   UNL     1      61.350  30.803  61.498  1.00  0.00     0.027 C 
BRANCH   3   4
ATOM      4  C   UNL     1      62.304  29.866  60.815  1.00  0.00    -0.025 C 
ATOM      5  C   UNL     1      63.557  29.700  61.254  1.00  0.00     0.020 C 
BRANCH   5   6
ATOM      6  C   UNL     1      64.511  28.796  60.592  1.00  0.00     0.064 C 
ATOM      7  O   UNL     1      64.126  27.957  59.736  1.00  0.00    -0.545 OA
ATOM      8  O   UNL     1      65.859  28.871  60.918  1.00  0.00    -0.545 OA
ENDBRANCH   5   6
ENDBRANCH   3   4
ENDBRANCH   2   3
ENDBRANCH   1   2
BRANCH   1   9
ATOM      9  C   UNL     1      63.107  33.230  59.278  1.00  0.00     0.000 C 
BRANCH   9  10
ATOM     10  C   UNL     1      64.127  33.254  60.436  1.00  0.00     0.000 C 
BRANCH  10  11
ATOM     11  C   UNL     1      64.119  34.596  61.190  1.00  0.00    -0.000 C 
BRANCH  11  12
ATOM     12  C   UNL     1      63.514  35.737  60.356  1.00  0.00    -0.000 C 
BRANCH  12  13
ATOM     13  C   UNL     1      62.334  36.420  61.065  1.00  0.00    -0.003 C 
ATOM     14  C   UNL     1      61.008  36.042  60.414  1.00  0.00     0.004 C 
ENDBRANCH  12  13
ENDBRANCH  11  12
ENDBRANCH  10  11
ENDBRANCH   9  10
ENDBRANCH   1   9
TORSDOF 9
ENDMDL
MODEL 9
REMARK VINA RESULT:    -3.347     11.760     13.484
REMARK INTER + INTRA:          -6.160
REMARK INTER:                  -5.376
REMARK INTRA:                  -0.784
REMARK UNBOUND:                -1.052
REMARK SMILES CCCCCCCCCC=CC(=O)[O-]
REMARK SMILES IDX 7 1 8 2 9 3 10 4 11 5 12 6 13 7 14 8 6 9 5 10 4 11 3 12 2 13
REMARK SMILES IDX 1 14
REMARK H PARENT
REMARK Flexibility Score: inf
ROOT
ATOM      1  C   UNL     1      56.845  28.143  50.415  1.00  0.00     0.000 C 
ENDROOT
BRANCH   1   2
ATOM      2  C   UNL     1      57.779  29.364  50.423  1.00  0.00     0.004 C 
BRANCH   2   3
ATOM      3  C   UNL     1      58.842  29.307  49.316  1.00  0.00     0.027 C 
BRANCH   3   4
ATOM      4  C   UNL     1      59.537  27.975  49.302  1.00  0.00    -0.025 C 
ATOM      5  C   UNL     1      60.599  27.731  50.077  1.00  0.00     0.020 C 
BRANCH   5   6
ATOM      6  C   UNL     1      61.300  26.438  50.070  1.00  0.00     0.064 C 
ATOM      7  O   UNL     1      62.557  26.379  50.122  1.00  0.00    -0.545 OA
ATOM      8  O   UNL     1      60.563  25.263  50.006  1.00  0.00    -0.545 OA
ENDBRANCH   5   6
ENDBRANCH   3   4
ENDBRANCH   2   3
ENDBRANCH   1   2
BRANCH   1   9
ATOM      9  C   UNL     1      55.934  28.014  51.651  1.00  0.00     0.000 C 
BRANCH   9  10
ATOM     10  C   UNL     1      54.552  28.680  51.477  1.00  0.00     0.000 C 
BRANCH  10  11
ATOM     11  C   UNL     1      54.074  28.653  50.014  1.00  0.00    -0.000 C 
BRANCH  11  12
ATOM     12  C   UNL     1      53.061  27.529  49.745  1.00  0.00    -0.000 C 
BRANCH  12  13
ATOM     13  C   UNL     1      53.720  26.273  49.153  1.00  0.00    -0.003 C 
ATOM     14  C   UNL     1      53.631  25.098  50.121  1.00  0.00     0.004 C 
ENDBRANCH  12  13
ENDBRANCH  11  12
ENDBRANCH  10  11
ENDBRANCH   9  10
ENDBRANCH   1   9
TORSDOF 9
ENDMDL
