MODEL 1
REMARK VINA RESULT:    -4.128      0.000      0.000
REMARK INTER + INTRA:          -4.249
REMARK INTER:                  -4.249
REMARK INTRA:                   0.000
REMARK UNBOUND:                 0.000
REMARK SMILES Nc1ncnc2nc[nH]c12
REMARK SMILES IDX 8 1 7 2 6 3 5 4 4 5 3 6 2 7 10 8 9 9 1 11
REMARK H PARENT 9 10 1 12 1 13
REMARK Flexibility Score: inf
ROOT
ATOM      1  C   UNL     1      -5.688  -1.424  41.727  1.00  0.00     0.199 A 
ATOM      2  N   UNL     1      -4.473  -1.909  41.348  1.00  0.00    -0.217 NA
ATOM      3  C   UNL     1      -4.809  -3.021  40.674  1.00  0.00     0.182 A 
ATOM      4  N   UNL     1      -3.959  -3.891  40.077  1.00  0.00    -0.215 NA
ATOM      5  C   UNL     1      -4.491  -4.973  39.432  1.00  0.00     0.226 A 
ATOM      6  N   UNL     1      -5.849  -5.165  39.399  1.00  0.00    -0.217 NA
ATOM      7  C   UNL     1      -6.707  -4.289  40.000  1.00  0.00     0.152 A 
ATOM      8  C   UNL     1      -6.150  -3.191  40.651  1.00  0.00     0.127 A 
ATOM      9  N   UNL     1      -6.733  -2.187  41.317  1.00  0.00    -0.340 N 
ATOM     10  H   UNL     1      -7.748  -2.017  41.486  1.00  0.00     0.168 HD
ENDROOT
BRANCH   7  11
ATOM     11  N   UNL     1      -8.118  -4.509  39.951  1.00  0.00    -0.382 N 
ATOM     12  H   UNL     1      -8.516  -5.424  39.645  1.00  0.00     0.158 HD
ATOM     13  H   UNL     1      -8.776  -3.745  40.224  1.00  0.00     0.158 HD
ENDBRANCH   7  11
TORSDOF 1
ENDMDL
MODEL 2
REMARK VINA RESULT:    -4.128     11.823     13.360
REMARK INTER + INTRA:          -4.249
REMARK INTER:                  -4.249
REMARK INTRA:                   0.000
REMARK UNBOUND:                 0.000
REMARK SMILES Nc1ncnc2nc[nH]c12
REMARK SMILES IDX 8 1 7 2 6 3 5 4 4 5 3 6 2 7 10 8 9 9 1 11
REMARK H PARENT 9 10 1 12 1 13
REMARK Flexibility Score: inf
ROOT
ATOM      1  C   UNL     1      -7.923 -10.222  30.712  1.00  0.00     0.199 A 
ATOM      2  N   UNL     1      -7.097  -9.151  30.866  1.00  0.00    -0.217 NA
ATOM      3  C   UNL     1      -6.353  -9.202  29.749  1.00  0.00     0.182 A 
ATOM      4  N   UNL     1      -5.362  -8.348  29.399  1.00  0.00    -0.215 NA
ATOM      5  C   UNL     1      -4.714  -8.562  28.214  1.00  0.00     0.226 A 
ATOM      6  N   UNL     1      -5.064  -9.616  27.409  1.00  0.00    -0.217 NA
ATOM      7  C   UNL     1      -6.064 -10.478  27.760  1.00  0.00     0.152 A 
ATOM      8  C   UNL     1      -6.715 -10.246  28.970  1.00  0.00     0.127 A 
ATOM      9  N   UNL     1      -7.713 -10.912  29.563  1.00  0.00    -0.340 N 
ATOM     10  H   UNL     1      -8.220 -11.762  29.230  1.00  0.00     0.168 HD
ENDROOT
BRANCH   7  11
ATOM     11  N   UNL     1      -6.412 -11.569  26.906  1.00  0.00    -0.382 N 
ATOM     12  H   UNL     1      -7.381 -11.957  26.886  1.00  0.00     0.158 HD
ATOM     13  H   UNL     1      -5.691 -11.997  26.284  1.00  0.00     0.158 HD
ENDBRANCH   7  11
TORSDOF 1
ENDMDL
MODEL 3
REMARK VINA RESULT:    -4.120     11.195     12.965
REMARK INTER + INTRA:          -4.241
REMARK INTER:                  -4.241
REMARK INTRA:                   0.000
REMARK UNBOUND:                 0.000
REMARK SMILES Nc1ncnc2nc[nH]c12
REMARK SMILES IDX 8 1 7 2 6 3 5 4 4 5 3 6 2 7 10 8 9 9 1 11
REMARK H PARENT 9 10 1 12 1 13
REMARK Flexibility Score: inf
ROOT
ATOM      1  C   UNL     1      -5.767 -11.043  27.933  1.00  0.00     0.199 A 
ATOM      2  N   UNL     1      -6.256  -9.869  27.445  1.00  0.00    -0.217 NA
ATOM      3  C   UNL     1      -6.662  -9.244  28.562  1.00  0.00     0.182 A 
ATOM      4  N   UNL     1      -7.234  -8.018  28.639  1.00  0.00    -0.215 NA
ATOM      5  C   UNL     1      -7.581  -7.544  29.874  1.00  0.00     0.226 A 
ATOM      6  N   UNL     1      -7.353  -8.297  30.998  1.00  0.00    -0.217 NA
ATOM      7  C   UNL     1      -6.776  -9.533  30.922  1.00  0.00     0.152 A 
ATOM      8  C   UNL     1      -6.427 -10.001  29.657  1.00  0.00     0.127 A 
ATOM      9  N   UNL     1      -5.858 -11.153  29.282  1.00  0.00    -0.340 N 
ATOM     10  H   UNL     1      -5.551 -11.954  29.877  1.00  0.00     0.168 HD
ENDROOT
BRANCH   7  11
ATOM     11  N   UNL     1      -6.547 -10.299  32.106  1.00  0.00    -0.382 N 
ATOM     12  H   UNL     1      -5.723 -10.933  32.194  1.00  0.00     0.158 HD
ATOM     13  H   UNL     1      -7.213 -10.232  32.908  1.00  0.00     0.158 HD
ENDBRANCH   7  11
TORSDOF 1
ENDMDL
MODEL 4
REMARK VINA RESULT:    -4.014     10.247     11.900
REMARK INTER + INTRA:          -4.131
REMARK INTER:                  -4.131
REMARK INTRA:                   0.000
REMARK UNBOUND:                 0.000
REMARK SMILES Nc1ncnc2nc[nH]c12
REMARK SMILES IDX 8 1 7 2 6 3 5 4 4 5 3 6 2 7 10 8 9 9 1 11
REMARK H PARENT 9 10 1 12 1 13
REMARK Flexibility Score: inf
ROOT
ATOM      1  C   UNL     1      -7.123  -9.465  32.854  1.00  0.00     0.199 A 
ATOM      2  N   UNL     1      -7.713  -8.368  32.305  1.00  0.00    -0.217 NA
ATOM      3  C   UNL     1      -7.466  -8.537  30.996  1.00  0.00     0.182 A 
ATOM      4  N   UNL     1      -7.844  -7.712  29.990  1.00  0.00    -0.215 NA
ATOM      5  C   UNL     1      -7.500  -8.054  28.711  1.00  0.00     0.226 A 
ATOM      6  N   UNL     1      -6.789  -9.201  28.465  1.00  0.00    -0.217 NA
ATOM      7  C   UNL     1      -6.408 -10.034  29.478  1.00  0.00     0.152 A 
ATOM      8  C   UNL     1      -6.767  -9.673  30.774  1.00  0.00     0.127 A 
ATOM      9  N   UNL     1      -6.535 -10.282  31.943  1.00  0.00    -0.340 N 
ATOM     10  H   UNL     1      -6.026 -11.174  32.126  1.00  0.00     0.168 HD
ENDROOT
BRANCH   7  11
ATOM     11  N   UNL     1      -5.669 -11.225  29.197  1.00  0.00    -0.382 N 
ATOM     12  H   UNL     1      -5.036 -11.653  29.908  1.00  0.00     0.158 HD
ATOM     13  H   UNL     1      -5.754 -11.685  28.264  1.00  0.00     0.158 HD
ENDBRANCH   7  11
TORSDOF 1
ENDMDL
MODEL 5
REMARK VINA RESULT:    -4.004     11.768     13.093
REMARK INTER + INTRA:          -4.121
REMARK INTER:                  -4.121
REMARK INTRA:                   0.000
REMARK UNBOUND:                 0.000
REMARK SMILES Nc1ncnc2nc[nH]c12
REMARK SMILES IDX 8 1 7 2 6 3 5 4 4 5 3 6 2 7 10 8 9 9 1 11
REMARK H PARENT 9 10 1 12 1 13
REMARK Flexibility Score: inf
ROOT
ATOM      1  C   UNL     1      -4.416  -7.801  28.480  1.00  0.00     0.199 A 
ATOM      2  N   UNL     1      -4.930  -7.748  29.740  1.00  0.00    -0.217 NA
ATOM      3  C   UNL     1      -5.680  -8.861  29.789  1.00  0.00     0.182 A 
ATOM      4  N   UNL     1      -6.418  -9.292  30.839  1.00  0.00    -0.215 NA
ATOM      5  C   UNL     1      -7.119 -10.458  30.700  1.00  0.00     0.226 A 
ATOM      6  N   UNL     1      -7.071 -11.164  29.525  1.00  0.00    -0.217 NA
ATOM      7  C   UNL     1      -6.326 -10.731  28.465  1.00  0.00     0.152 A 
ATOM      8  C   UNL     1      -5.617  -9.542  28.622  1.00  0.00     0.127 A 
ATOM      9  N   UNL     1      -4.819  -8.886  27.772  1.00  0.00    -0.340 N 
ATOM     10  H   UNL     1      -4.558  -9.139  26.793  1.00  0.00     0.168 HD
ENDROOT
BRANCH   7  11
ATOM     11  N   UNL     1      -6.290 -11.483  27.250  1.00  0.00    -0.382 N 
ATOM     12  H   UNL     1      -5.714 -11.175  26.437  1.00  0.00     0.158 HD
ATOM     13  H   UNL     1      -6.848 -12.361  27.163  1.00  0.00     0.158 HD
ENDBRANCH   7  11
TORSDOF 1
ENDMDL
MODEL 6
REMARK VINA RESULT:    -3.986     12.793     14.387
REMARK INTER + INTRA:          -4.102
REMARK INTER:                  -4.102
REMARK INTRA:                   0.000
REMARK UNBOUND:                 0.000
REMARK SMILES Nc1ncnc2nc[nH]c12
REMARK SMILES IDX 8 1 7 2 6 3 5 4 4 5 3 6 2 7 10 8 9 9 1 11
REMARK H PARENT 9 10 1 12 1 13
REMARK Flexibility Score: inf
ROOT
ATOM      1  C   UNL     1      -5.337  -7.690  25.865  1.00  0.00     0.199 A 
ATOM      2  N   UNL     1      -5.279  -7.273  27.159  1.00  0.00    -0.217 NA
ATOM      3  C   UNL     1      -5.592  -8.391  27.834  1.00  0.00     0.182 A 
ATOM      4  N   UNL     1      -5.678  -8.525  29.179  1.00  0.00    -0.215 NA
ATOM      5  C   UNL     1      -6.012  -9.751  29.685  1.00  0.00     0.226 A 
ATOM      6  N   UNL     1      -6.254 -10.808  28.845  1.00  0.00    -0.217 NA
ATOM      7  C   UNL     1      -6.168 -10.675  27.489  1.00  0.00     0.152 A 
ATOM      8  C   UNL     1      -5.825  -9.421  26.989  1.00  0.00     0.127 A 
ATOM      9  N   UNL     1      -5.670  -8.999  25.728  1.00  0.00    -0.340 N 
ATOM     10  H   UNL     1      -5.775  -9.539  24.841  1.00  0.00     0.168 HD
ENDROOT
BRANCH   7  11
ATOM     11  N   UNL     1      -6.423 -11.791  26.634  1.00  0.00    -0.382 N 
ATOM     12  H   UNL     1      -6.168 -12.762  26.916  1.00  0.00     0.158 HD
ATOM     13  H   UNL     1      -6.873 -11.643  25.703  1.00  0.00     0.158 HD
ENDBRANCH   7  11
TORSDOF 1
ENDMDL
MODEL 7
REMARK VINA RESULT:    -3.950     16.217     17.889
REMARK INTER + INTRA:          -4.065
REMARK INTER:                  -4.065
REMARK INTRA:                   0.000
REMARK UNBOUND:                 0.000
REMARK SMILES Nc1ncnc2nc[nH]c12
REMARK SMILES IDX 8 1 7 2 6 3 5 4 4 5 3 6 2 7 10 8 9 9 1 11
REMARK H PARENT 9 10 1 12 1 13
REMARK Flexibility Score: inf
ROOT
ATOM      1  C   UNL     1     -15.070  -9.465  25.244  1.00  0.00     0.199 A 
ATOM      2  N   UNL     1     -15.085  -8.394  24.403  1.00  0.00    -0.217 NA
ATOM      3  C   UNL     1     -15.227  -7.365  25.255  1.00  0.00     0.182 A 
ATOM      4  N   UNL     1     -15.300  -6.052  24.931  1.00  0.00    -0.215 NA
ATOM      5  C   UNL     1     -15.444  -5.144  25.944  1.00  0.00     0.226 A 
ATOM      6  N   UNL     1     -15.515  -5.562  27.249  1.00  0.00    -0.217 NA
ATOM      7  C   UNL     1     -15.441  -6.886  27.577  1.00  0.00     0.152 A 
ATOM      8  C   UNL     1     -15.293  -7.798  26.535  1.00  0.00     0.127 A 
ATOM      9  N   UNL     1     -15.196  -9.133  26.553  1.00  0.00    -0.340 N 
ATOM     10  H   UNL     1     -15.210  -9.778  27.374  1.00  0.00     0.168 HD
ENDROOT
BRANCH   7  11
ATOM     11  N   UNL     1     -15.515  -7.298  28.943  1.00  0.00    -0.382 N 
ATOM     12  H   UNL     1     -15.805  -6.636  29.696  1.00  0.00     0.158 HD
ATOM     13  H   UNL     1     -15.276  -8.280  29.207  1.00  0.00     0.158 HD
ENDBRANCH   7  11
TORSDOF 1
ENDMDL
MODEL 8
REMARK VINA RESULT:    -3.885      9.701     11.644
REMARK INTER + INTRA:          -3.998
REMARK INTER:                  -3.998
REMARK INTRA:                   0.000
REMARK UNBOUND:                 0.000
REMARK SMILES Nc1ncnc2nc[nH]c12
REMARK SMILES IDX 8 1 7 2 6 3 5 4 4 5 3 6 2 7 10 8 9 9 1 11
REMARK H PARENT 9 10 1 12 1 13
REMARK Flexibility Score: inf
ROOT
ATOM      1  C   UNL     1      -6.935 -10.754  29.253  1.00  0.00     0.199 A 
ATOM      2  N   UNL     1      -7.661  -9.603  29.218  1.00  0.00    -0.217 NA
ATOM      3  C   UNL     1      -7.625  -9.204  30.500  1.00  0.00     0.182 A 
ATOM      4  N   UNL     1      -8.202  -8.093  31.018  1.00  0.00    -0.215 NA
ATOM      5  C   UNL     1      -8.053  -7.853  32.356  1.00  0.00     0.226 A 
ATOM      6  N   UNL     1      -7.339  -8.719  33.144  1.00  0.00    -0.217 NA
ATOM      7  C   UNL     1      -6.756  -9.839  32.624  1.00  0.00     0.152 A 
ATOM      8  C   UNL     1      -6.915 -10.070  31.260  1.00  0.00     0.127 A 
ATOM      9  N   UNL     1      -6.467 -11.067  30.487  1.00  0.00    -0.340 N 
ATOM     10  H   UNL     1      -5.890 -11.894  30.757  1.00  0.00     0.168 HD
ENDROOT
BRANCH   7  11
ATOM     11  N   UNL     1      -6.016 -10.727  33.464  1.00  0.00    -0.382 N 
ATOM     12  H   UNL     1      -5.280 -11.357  33.076  1.00  0.00     0.158 HD
ATOM     13  H   UNL     1      -6.206 -10.755  34.490  1.00  0.00     0.158 HD
ENDBRANCH   7  11
TORSDOF 1
ENDMDL
MODEL 9
REMARK VINA RESULT:    -3.765      2.564      3.401
REMARK INTER + INTRA:          -3.875
REMARK INTER:                  -3.875
REMARK INTRA:                   0.000
REMARK UNBOUND:                 0.000
REMARK SMILES Nc1ncnc2nc[nH]c12
REMARK SMILES IDX 8 1 7 2 6 3 5 4 4 5 3 6 2 7 10 8 9 9 1 11
REMARK H PARENT 9 10 1 12 1 13
REMARK Flexibility Score: inf
ROOT
ATOM      1  C   UNL     1      -5.298  -2.329  42.745  1.00  0.00     0.199 A 
ATOM      2  N   UNL     1      -4.568  -2.748  41.674  1.00  0.00    -0.217 NA
ATOM      3  C   UNL     1      -4.902  -1.850  40.733  1.00  0.00     0.182 A 
ATOM      4  N   UNL     1      -4.448  -1.810  39.457  1.00  0.00    -0.215 NA
ATOM      5  C   UNL     1      -4.904  -0.812  38.641  1.00  0.00     0.226 A 
ATOM      6  N   UNL     1      -5.799   0.116  39.109  1.00  0.00    -0.217 NA
ATOM      7  C   UNL     1      -6.257   0.078  40.395  1.00  0.00     0.152 A 
ATOM      8  C   UNL     1      -5.782  -0.943  41.214  1.00  0.00     0.127 A 
ATOM      9  N   UNL     1      -6.051  -1.228  42.495  1.00  0.00    -0.340 N 
ATOM     10  H   UNL     1      -6.686  -0.728  43.156  1.00  0.00     0.168 HD
ENDROOT
BRANCH   7  11
ATOM     11  N   UNL     1      -7.188   1.057  40.861  1.00  0.00    -0.382 N 
ATOM     12  H   UNL     1      -7.034   1.572  41.755  1.00  0.00     0.158 HD
ATOM     13  H   UNL     1      -8.045   1.269  40.304  1.00  0.00     0.158 HD
ENDBRANCH   7  11
TORSDOF 1
ENDMDL
