MODEL 1
REMARK VINA RESULT:    -4.950      0.000      0.000
REMARK INTER + INTRA:         -14.981
REMARK INTER:                 -13.052
REMARK INTRA:                  -1.929
REMARK UNBOUND:                -1.929
REMARK SMILES CCCCCCCCCCCCCCCCCCCCCCCCCCCCCC(=O)[O-]
REMARK SMILES IDX 16 1 17 2 18 3 19 4 20 5 21 6 22 7 23 8 24 9 25 10 26 11
REMARK SMILES IDX 27 12 28 13 29 14 30 15 31 16 32 17 15 18 14 19 13 20 12 21
REMARK SMILES IDX 11 22 10 23 9 24 8 25 7 26 6 27 5 28 4 29 3 30 2 31 1 32
REMARK H PARENT
REMARK Flexibility Score: inf
ROOT
ATOM      1  C   UNL     1       7.727   9.167   5.423  1.00  0.00     0.000 C 
ENDROOT
BRANCH   1   2
ATOM      2  C   UNL     1       8.131   8.270   4.240  1.00  0.00     0.000 C 
BRANCH   2   3
ATOM      3  C   UNL     1       7.628   8.810   2.892  1.00  0.00     0.000 C 
BRANCH   3   4
ATOM      4  C   UNL     1       8.670   8.656   1.771  1.00  0.00     0.000 C 
BRANCH   4   5
ATOM      5  C   UNL     1       8.055   8.168   0.447  1.00  0.00     0.000 C 
BRANCH   5   6
ATOM      6  C   UNL     1       7.595   6.696   0.449  1.00  0.00     0.000 C 
BRANCH   6   7
ATOM      7  C   UNL     1       8.673   5.676   0.867  1.00  0.00     0.000 C 
BRANCH   7   8
ATOM      8  C   UNL     1       8.142   4.267   1.203  1.00  0.00     0.000 C 
BRANCH   8   9
ATOM      9  C   UNL     1       7.974   3.334  -0.010  1.00  0.00     0.000 C 
BRANCH   9  10
ATOM     10  C   UNL     1       6.501   3.018  -0.319  1.00  0.00     0.000 C 
BRANCH  10  11
ATOM     11  C   UNL     1       6.121   1.564   0.014  1.00  0.00     0.000 C 
BRANCH  11  12
ATOM     12  C   UNL     1       6.483   0.532  -1.073  1.00  0.00     0.000 C 
BRANCH  12  13
ATOM     13  C   UNL     1       6.198   0.978  -2.521  1.00  0.00     0.006 C 
BRANCH  13  14
ATOM     14  C   UNL     1       7.443   1.052  -3.418  1.00  0.00     0.053 C 
BRANCH  14  15
ATOM     15  C   UNL     1       8.061  -0.295  -3.629  1.00  0.00     0.041 C 
ATOM     16  O   UNL     1       7.660  -1.037  -4.563  1.00  0.00    -0.550 OA
ATOM     17  O   UNL     1       9.053  -0.747  -2.767  1.00  0.00    -0.550 OA
ENDBRANCH  14  15
ENDBRANCH  13  14
ENDBRANCH  12  13
ENDBRANCH  11  12
ENDBRANCH  10  11
ENDBRANCH   9  10
ENDBRANCH   8   9
ENDBRANCH   7   8
ENDBRANCH   6   7
ENDBRANCH   5   6
ENDBRANCH   4   5
ENDBRANCH   3   4
ENDBRANCH   2   3
ENDBRANCH   1   2
BRANCH   1  18
ATOM     18  C   UNL     1       6.277   9.669   5.321  1.00  0.00     0.000 C 
BRANCH  18  19
ATOM     19  C   UNL     1       6.050  10.975   6.103  1.00  0.00     0.000 C 
BRANCH  19  20
ATOM     20  C   UNL     1       5.819  10.727   7.603  1.00  0.00     0.000 C 
BRANCH  20  21
ATOM     21  C   UNL     1       4.732   9.670   7.866  1.00  0.00     0.000 C 
BRANCH  21  22
ATOM     22  C   UNL     1       4.415   9.503   9.363  1.00  0.00     0.000 C 
BRANCH  22  23
ATOM     23  C   UNL     1       2.929   9.678   9.735  1.00  0.00     0.000 C 
BRANCH  23  24
ATOM     24  C   UNL     1       1.934   9.463   8.576  1.00  0.00    -0.000 C 
BRANCH  24  25
ATOM     25  C   UNL     1       1.109   8.166   8.660  1.00  0.00    -0.000 C 
BRANCH  25  26
ATOM     26  C   UNL     1       0.894   7.686  10.103  1.00  0.00    -0.000 C 
BRANCH  26  27
ATOM     27  C   UNL     1       1.141   6.174  10.217  1.00  0.00    -0.000 C 
BRANCH  27  28
ATOM     28  C   UNL     1       2.520   5.755   9.682  1.00  0.00    -0.000 C 
BRANCH  28  29
ATOM     29  C   UNL     1       2.880   4.307  10.054  1.00  0.00    -0.000 C 
BRANCH  29  30
ATOM     30  C   UNL     1       1.976   3.730  11.160  1.00  0.00    -0.000 C 
BRANCH  30  31
ATOM     31  C   UNL     1       1.089   2.549  10.726  1.00  0.00    -0.003 C 
ATOM     32  C   UNL     1       0.227   1.998  11.861  1.00  0.00     0.004 C 
ENDBRANCH  30  31
ENDBRANCH  29  30
ENDBRANCH  28  29
ENDBRANCH  27  28
ENDBRANCH  26  27
ENDBRANCH  25  26
ENDBRANCH  24  25
ENDBRANCH  23  24
ENDBRANCH  22  23
ENDBRANCH  21  22
ENDBRANCH  20  21
ENDBRANCH  19  20
ENDBRANCH  18  19
ENDBRANCH   1  18
TORSDOF 28
ENDMDL
MODEL 2
REMARK VINA RESULT:    -4.878      1.145      2.230
REMARK INTER + INTRA:         -14.792
REMARK INTER:                 -12.345
REMARK INTRA:                  -2.447
REMARK UNBOUND:                -1.929
REMARK SMILES CCCCCCCCCCCCCCCCCCCCCCCCCCCCCC(=O)[O-]
REMARK SMILES IDX 16 1 17 2 18 3 19 4 20 5 21 6 22 7 23 8 24 9 25 10 26 11
REMARK SMILES IDX 27 12 28 13 29 14 30 15 31 16 32 17 15 18 14 19 13 20 12 21
REMARK SMILES IDX 11 22 10 23 9 24 8 25 7 26 6 27 5 28 4 29 3 30 2 31 1 32
REMARK H PARENT
REMARK Flexibility Score: inf
ROOT
ATOM      1  C   UNL     1       7.704   9.348   7.592  1.00  0.00     0.000 C 
ENDROOT
BRANCH   1   2
ATOM      2  C   UNL     1       7.655   9.001   6.094  1.00  0.00     0.000 C 
BRANCH   2   3
ATOM      3  C   UNL     1       6.419   9.588   5.394  1.00  0.00     0.000 C 
BRANCH   3   4
ATOM      4  C   UNL     1       6.401   9.290   3.884  1.00  0.00     0.000 C 
BRANCH   4   5
ATOM      5  C   UNL     1       7.572   9.946   3.133  1.00  0.00     0.000 C 
BRANCH   5   6
ATOM      6  C   UNL     1       8.302   9.021   2.137  1.00  0.00     0.000 C 
BRANCH   6   7
ATOM      7  C   UNL     1       7.778   7.572   2.086  1.00  0.00     0.000 C 
BRANCH   7   8
ATOM      8  C   UNL     1       8.083   6.814   0.778  1.00  0.00     0.000 C 
BRANCH   8   9
ATOM      9  C   UNL     1       7.112   5.665   0.456  1.00  0.00     0.000 C 
BRANCH   9  10
ATOM     10  C   UNL     1       7.685   4.282   0.813  1.00  0.00     0.000 C 
BRANCH  10  11
ATOM     11  C   UNL     1       7.361   3.213  -0.244  1.00  0.00     0.000 C 
BRANCH  11  12
ATOM     12  C   UNL     1       6.189   2.276   0.115  1.00  0.00     0.000 C 
BRANCH  12  13
ATOM     13  C   UNL     1       6.220   0.895  -0.570  1.00  0.00     0.006 C 
BRANCH  13  14
ATOM     14  C   UNL     1       7.517   0.597  -1.336  1.00  0.00     0.053 C 
BRANCH  14  15
ATOM     15  C   UNL     1       7.304   0.597  -2.818  1.00  0.00     0.041 C 
ATOM     16  O   UNL     1       8.200   0.160  -3.587  1.00  0.00    -0.550 OA
ATOM     17  O   UNL     1       6.130   1.116  -3.351  1.00  0.00    -0.550 OA
ENDBRANCH  14  15
ENDBRANCH  13  14
ENDBRANCH  12  13
ENDBRANCH  11  12
ENDBRANCH  10  11
ENDBRANCH   9  10
ENDBRANCH   8   9
ENDBRANCH   7   8
ENDBRANCH   6   7
ENDBRANCH   5   6
ENDBRANCH   4   5
ENDBRANCH   3   4
ENDBRANCH   2   3
ENDBRANCH   1   2
BRANCH   1  18
ATOM     18  C   UNL     1       6.569  10.291   8.022  1.00  0.00     0.000 C 
BRANCH  18  19
ATOM     19  C   UNL     1       6.046   9.978   9.435  1.00  0.00     0.000 C 
BRANCH  19  20
ATOM     20  C   UNL     1       4.787   9.097   9.413  1.00  0.00     0.000 C 
BRANCH  20  21
ATOM     21  C   UNL     1       3.887   9.384   8.197  1.00  0.00     0.000 C 
BRANCH  21  22
ATOM     22  C   UNL     1       2.657  10.236   8.556  1.00  0.00     0.000 C 
BRANCH  22  23
ATOM     23  C   UNL     1       1.806   9.689   9.720  1.00  0.00     0.000 C 
BRANCH  23  24
ATOM     24  C   UNL     1       0.849   8.540   9.348  1.00  0.00    -0.000 C 
BRANCH  24  25
ATOM     25  C   UNL     1       0.856   7.346  10.321  1.00  0.00    -0.000 C 
BRANCH  25  26
ATOM     26  C   UNL     1       1.308   6.037   9.657  1.00  0.00    -0.000 C 
BRANCH  26  27
ATOM     27  C   UNL     1       2.839   5.979   9.551  1.00  0.00    -0.000 C 
BRANCH  27  28
ATOM     28  C   UNL     1       3.396   4.562   9.755  1.00  0.00    -0.000 C 
BRANCH  28  29
ATOM     29  C   UNL     1       3.770   4.284  11.221  1.00  0.00    -0.000 C 
BRANCH  29  30
ATOM     30  C   UNL     1       3.007   3.087  11.818  1.00  0.00    -0.000 C 
BRANCH  30  31
ATOM     31  C   UNL     1       1.494   3.307  12.004  1.00  0.00    -0.003 C 
ATOM     32  C   UNL     1       0.648   2.178  11.419  1.00  0.00     0.004 C 
ENDBRANCH  30  31
ENDBRANCH  29  30
ENDBRANCH  28  29
ENDBRANCH  27  28
ENDBRANCH  26  27
ENDBRANCH  25  26
ENDBRANCH  24  25
ENDBRANCH  23  24
ENDBRANCH  22  23
ENDBRANCH  21  22
ENDBRANCH  20  21
ENDBRANCH  19  20
ENDBRANCH  18  19
ENDBRANCH   1  18
TORSDOF 28
ENDMDL
MODEL 3
REMARK VINA RESULT:    -4.436      4.384     11.509
REMARK INTER + INTRA:         -13.626
REMARK INTER:                  -9.914
REMARK INTRA:                  -3.712
REMARK UNBOUND:                -1.929
REMARK SMILES CCCCCCCCCCCCCCCCCCCCCCCCCCCCCC(=O)[O-]
REMARK SMILES IDX 16 1 17 2 18 3 19 4 20 5 21 6 22 7 23 8 24 9 25 10 26 11
REMARK SMILES IDX 27 12 28 13 29 14 30 15 31 16 32 17 15 18 14 19 13 20 12 21
REMARK SMILES IDX 11 22 10 23 9 24 8 25 7 26 6 27 5 28 4 29 3 30 2 31 1 32
REMARK H PARENT
REMARK Flexibility Score: inf
ROOT
ATOM      1  C   UNL     1       1.447   7.691   9.006  1.00  0.00     0.000 C 
ENDROOT
BRANCH   1   2
ATOM      2  C   UNL     1       0.503   8.890   9.198  1.00  0.00     0.000 C 
BRANCH   2   3
ATOM      3  C   UNL     1       0.115   9.105  10.669  1.00  0.00     0.000 C 
BRANCH   3   4
ATOM      4  C   UNL     1       0.677   8.010  11.592  1.00  0.00     0.000 C 
BRANCH   4   5
ATOM      5  C   UNL     1       1.584   8.571  12.701  1.00  0.00     0.000 C 
BRANCH   5   6
ATOM      6  C   UNL     1       2.359   9.849  12.319  1.00  0.00     0.000 C 
BRANCH   6   7
ATOM      7  C   UNL     1       3.826   9.622  11.903  1.00  0.00     0.000 C 
BRANCH   7   8
ATOM      8  C   UNL     1       4.704   8.922  12.961  1.00  0.00     0.000 C 
BRANCH   8   9
ATOM      9  C   UNL     1       5.009   7.441  12.669  1.00  0.00     0.000 C 
BRANCH   9  10
ATOM     10  C   UNL     1       4.897   7.093  11.175  1.00  0.00     0.000 C 
BRANCH  10  11
ATOM     11  C   UNL     1       4.015   5.859  10.917  1.00  0.00     0.000 C 
BRANCH  11  12
ATOM     12  C   UNL     1       3.407   5.217  12.181  1.00  0.00     0.000 C 
BRANCH  12  13
ATOM     13  C   UNL     1       1.938   4.769  12.046  1.00  0.00     0.006 C 
BRANCH  13  14
ATOM     14  C   UNL     1       1.587   4.148  10.685  1.00  0.00     0.053 C 
BRANCH  14  15
ATOM     15  C   UNL     1       1.096   2.741  10.823  1.00  0.00     0.041 C 
ATOM     16  O   UNL     1       0.531   2.367  11.885  1.00  0.00    -0.550 OA
ATOM     17  O   UNL     1       1.297   1.830   9.793  1.00  0.00    -0.550 OA
ENDBRANCH  14  15
ENDBRANCH  13  14
ENDBRANCH  12  13
ENDBRANCH  11  12
ENDBRANCH  10  11
ENDBRANCH   9  10
ENDBRANCH   8   9
ENDBRANCH   7   8
ENDBRANCH   6   7
ENDBRANCH   5   6
ENDBRANCH   4   5
ENDBRANCH   3   4
ENDBRANCH   2   3
ENDBRANCH   1   2
BRANCH   1  18
ATOM     18  C   UNL     1       2.733   8.060   8.249  1.00  0.00     0.000 C 
BRANCH  18  19
ATOM     19  C   UNL     1       3.051   9.564   8.328  1.00  0.00     0.000 C 
BRANCH  19  20
ATOM     20  C   UNL     1       4.560   9.849   8.247  1.00  0.00     0.000 C 
BRANCH  20  21
ATOM     21  C   UNL     1       4.896  10.971   7.249  1.00  0.00     0.000 C 
BRANCH  21  22
ATOM     22  C   UNL     1       6.199  10.708   6.473  1.00  0.00     0.000 C 
BRANCH  22  23
ATOM     23  C   UNL     1       6.103   9.603   5.402  1.00  0.00     0.000 C 
BRANCH  23  24
ATOM     24  C   UNL     1       6.069  10.104   3.944  1.00  0.00    -0.000 C 
BRANCH  24  25
ATOM     25  C   UNL     1       7.445  10.222   3.264  1.00  0.00    -0.000 C 
BRANCH  25  26
ATOM     26  C   UNL     1       8.191   8.881   3.189  1.00  0.00    -0.000 C 
BRANCH  26  27
ATOM     27  C   UNL     1       7.952   8.199   1.834  1.00  0.00    -0.000 C 
BRANCH  27  28
ATOM     28  C   UNL     1       8.055   6.668   1.913  1.00  0.00    -0.000 C 
BRANCH  28  29
ATOM     29  C   UNL     1       7.439   5.974   0.686  1.00  0.00    -0.000 C 
BRANCH  29  30
ATOM     30  C   UNL     1       7.838   4.490   0.574  1.00  0.00    -0.000 C 
BRANCH  30  31
ATOM     31  C   UNL     1       6.720   3.551   0.084  1.00  0.00    -0.003 C 
ATOM     32  C   UNL     1       7.251   2.273  -0.562  1.00  0.00     0.004 C 
ENDBRANCH  30  31
ENDBRANCH  29  30
ENDBRANCH  28  29
ENDBRANCH  27  28
ENDBRANCH  26  27
ENDBRANCH  25  26
ENDBRANCH  24  25
ENDBRANCH  23  24
ENDBRANCH  22  23
ENDBRANCH  21  22
ENDBRANCH  20  21
ENDBRANCH  19  20
ENDBRANCH  18  19
ENDBRANCH   1  18
TORSDOF 28
ENDMDL
MODEL 4
REMARK VINA RESULT:    -4.394      7.272      9.991
REMARK INTER + INTRA:         -13.516
REMARK INTER:                  -8.779
REMARK INTRA:                  -4.737
REMARK UNBOUND:                -1.929
REMARK SMILES CCCCCCCCCCCCCCCCCCCCCCCCCCCCCC(=O)[O-]
REMARK SMILES IDX 16 1 17 2 18 3 19 4 20 5 21 6 22 7 23 8 24 9 25 10 26 11
REMARK SMILES IDX 27 12 28 13 29 14 30 15 31 16 32 17 15 18 14 19 13 20 12 21
REMARK SMILES IDX 11 22 10 23 9 24 8 25 7 26 6 27 5 28 4 29 3 30 2 31 1 32
REMARK H PARENT
REMARK Flexibility Score: inf
ROOT
ATOM      1  C   UNL     1       2.269   4.608  10.192  1.00  0.00     0.000 C 
ENDROOT
BRANCH   1   2
ATOM      2  C   UNL     1       1.249   3.534  10.607  1.00  0.00     0.000 C 
BRANCH   2   3
ATOM      3  C   UNL     1       1.814   2.109  10.494  1.00  0.00     0.000 C 
BRANCH   3   4
ATOM      4  C   UNL     1       2.104   1.480  11.868  1.00  0.00     0.000 C 
BRANCH   4   5
ATOM      5  C   UNL     1       3.604   1.455  12.208  1.00  0.00     0.000 C 
BRANCH   5   6
ATOM      6  C   UNL     1       4.181   2.798  12.699  1.00  0.00     0.000 C 
BRANCH   6   7
ATOM      7  C   UNL     1       5.720   2.868  12.753  1.00  0.00     0.000 C 
BRANCH   7   8
ATOM      8  C   UNL     1       6.350   4.014  11.935  1.00  0.00     0.000 C 
BRANCH   8   9
ATOM      9  C   UNL     1       5.434   5.231  11.717  1.00  0.00     0.000 C 
BRANCH   9  10
ATOM     10  C   UNL     1       5.785   6.019  10.443  1.00  0.00     0.000 C 
BRANCH  10  11
ATOM     11  C   UNL     1       6.731   7.202  10.716  1.00  0.00     0.000 C 
BRANCH  11  12
ATOM     12  C   UNL     1       7.356   7.839   9.458  1.00  0.00     0.000 C 
BRANCH  12  13
ATOM     13  C   UNL     1       6.462   8.860   8.727  1.00  0.00     0.006 C 
BRANCH  13  14
ATOM     14  C   UNL     1       7.113   9.504   7.494  1.00  0.00     0.053 C 
BRANCH  14  15
ATOM     15  C   UNL     1       6.110   9.802   6.423  1.00  0.00     0.041 C 
ATOM     16  O   UNL     1       4.927   9.385   6.529  1.00  0.00    -0.550 OA
ATOM     17  O   UNL     1       6.494  10.507   5.288  1.00  0.00    -0.550 OA
ENDBRANCH  14  15
ENDBRANCH  13  14
ENDBRANCH  12  13
ENDBRANCH  11  12
ENDBRANCH  10  11
ENDBRANCH   9  10
ENDBRANCH   8   9
ENDBRANCH   7   8
ENDBRANCH   6   7
ENDBRANCH   5   6
ENDBRANCH   4   5
ENDBRANCH   3   4
ENDBRANCH   2   3
ENDBRANCH   1   2
BRANCH   1  18
ATOM     18  C   UNL     1       1.603   5.894   9.677  1.00  0.00     0.000 C 
BRANCH  18  19
ATOM     19  C   UNL     1       2.614   6.873   9.055  1.00  0.00     0.000 C 
BRANCH  19  20
ATOM     20  C   UNL     1       1.985   7.748   7.959  1.00  0.00     0.000 C 
BRANCH  20  21
ATOM     21  C   UNL     1       1.342   9.028   8.522  1.00  0.00     0.000 C 
BRANCH  21  22
ATOM     22  C   UNL     1       2.361  10.159   8.742  1.00  0.00     0.000 C 
BRANCH  22  23
ATOM     23  C   UNL     1       2.043  11.099   9.922  1.00  0.00     0.000 C 
BRANCH  23  24
ATOM     24  C   UNL     1       2.972  10.955  11.144  1.00  0.00    -0.000 C 
BRANCH  24  25
ATOM     25  C   UNL     1       3.953   9.770  11.079  1.00  0.00    -0.000 C 
BRANCH  25  26
ATOM     26  C   UNL     1       3.640   8.677  12.112  1.00  0.00    -0.000 C 
BRANCH  26  27
ATOM     27  C   UNL     1       2.305   8.960  12.817  1.00  0.00    -0.000 C 
BRANCH  27  28
ATOM     28  C   UNL     1       1.247   7.879  12.542  1.00  0.00    -0.000 C 
BRANCH  28  29
ATOM     29  C   UNL     1       0.041   8.423  11.758  1.00  0.00    -0.000 C 
BRANCH  29  30
ATOM     30  C   UNL     1      -0.472   9.768  12.305  1.00  0.00    -0.000 C 
BRANCH  30  31
ATOM     31  C   UNL     1      -1.838  10.217  11.754  1.00  0.00    -0.003 C 
ATOM     32  C   UNL     1      -3.016   9.513  12.426  1.00  0.00     0.004 C 
ENDBRANCH  30  31
ENDBRANCH  29  30
ENDBRANCH  28  29
ENDBRANCH  27  28
ENDBRANCH  26  27
ENDBRANCH  25  26
ENDBRANCH  24  25
ENDBRANCH  23  24
ENDBRANCH  22  23
ENDBRANCH  21  22
ENDBRANCH  20  21
ENDBRANCH  19  20
ENDBRANCH  18  19
ENDBRANCH   1  18
TORSDOF 28
ENDMDL
MODEL 5
REMARK VINA RESULT:    -4.352      6.503      9.787
REMARK INTER + INTRA:         -13.404
REMARK INTER:                  -8.890
REMARK INTRA:                  -4.514
REMARK UNBOUND:                -1.929
REMARK SMILES CCCCCCCCCCCCCCCCCCCCCCCCCCCCCC(=O)[O-]
REMARK SMILES IDX 16 1 17 2 18 3 19 4 20 5 21 6 22 7 23 8 24 9 25 10 26 11
REMARK SMILES IDX 27 12 28 13 29 14 30 15 31 16 32 17 15 18 14 19 13 20 12 21
REMARK SMILES IDX 11 22 10 23 9 24 8 25 7 26 6 27 5 28 4 29 3 30 2 31 1 32
REMARK H PARENT
REMARK Flexibility Score: inf
ROOT
ATOM      1  C   UNL     1       2.717   1.375  10.984  1.00  0.00     0.000 C 
ENDROOT
BRANCH   1   2
ATOM      2  C   UNL     1       2.758   1.074  12.493  1.00  0.00     0.000 C 
BRANCH   2   3
ATOM      3  C   UNL     1       4.149   1.306  13.102  1.00  0.00     0.000 C 
BRANCH   3   4
ATOM      4  C   UNL     1       4.546   2.793  13.114  1.00  0.00     0.000 C 
BRANCH   4   5
ATOM      5  C   UNL     1       5.885   3.059  12.405  1.00  0.00     0.000 C 
BRANCH   5   6
ATOM      6  C   UNL     1       6.050   4.487  11.846  1.00  0.00     0.000 C 
BRANCH   6   7
ATOM      7  C   UNL     1       5.693   4.651  10.355  1.00  0.00     0.000 C 
BRANCH   7   8
ATOM      8  C   UNL     1       6.897   4.874   9.417  1.00  0.00     0.000 C 
BRANCH   8   9
ATOM      9  C   UNL     1       8.227   5.174  10.133  1.00  0.00     0.000 C 
BRANCH   9  10
ATOM     10  C   UNL     1       8.882   6.480   9.650  1.00  0.00     0.000 C 
BRANCH  10  11
ATOM     11  C   UNL     1       8.715   6.705   8.137  1.00  0.00     0.000 C 
BRANCH  11  12
ATOM     12  C   UNL     1       8.073   8.052   7.747  1.00  0.00     0.000 C 
BRANCH  12  13
ATOM     13  C   UNL     1       8.098   8.378   6.240  1.00  0.00     0.006 C 
BRANCH  13  14
ATOM     14  C   UNL     1       7.426   9.709   5.869  1.00  0.00     0.053 C 
BRANCH  14  15
ATOM     15  C   UNL     1       5.969   9.536   5.573  1.00  0.00     0.041 C 
ATOM     16  O   UNL     1       5.120   9.619   6.500  1.00  0.00    -0.550 OA
ATOM     17  O   UNL     1       5.552   9.244   4.280  1.00  0.00    -0.550 OA
ENDBRANCH  14  15
ENDBRANCH  13  14
ENDBRANCH  12  13
ENDBRANCH  11  12
ENDBRANCH  10  11
ENDBRANCH   9  10
ENDBRANCH   8   9
ENDBRANCH   7   8
ENDBRANCH   6   7
ENDBRANCH   5   6
ENDBRANCH   4   5
ENDBRANCH   3   4
ENDBRANCH   2   3
ENDBRANCH   1   2
BRANCH   1  18
ATOM     18  C   UNL     1       1.470   2.173  10.571  1.00  0.00     0.000 C 
BRANCH  18  19
ATOM     19  C   UNL     1       0.960   3.093  11.694  1.00  0.00     0.000 C 
BRANCH  19  20
ATOM     20  C   UNL     1       1.689   4.446  11.720  1.00  0.00     0.000 C 
BRANCH  20  21
ATOM     21  C   UNL     1       2.142   4.899  10.321  1.00  0.00     0.000 C 
BRANCH  21  22
ATOM     22  C   UNL     1       1.277   6.040   9.756  1.00  0.00     0.000 C 
BRANCH  22  23
ATOM     23  C   UNL     1       0.955   7.167  10.758  1.00  0.00     0.000 C 
BRANCH  23  24
ATOM     24  C   UNL     1       0.599   8.526  10.123  1.00  0.00    -0.000 C 
BRANCH  24  25
ATOM     25  C   UNL     1       0.938   8.654   8.626  1.00  0.00    -0.000 C 
BRANCH  25  26
ATOM     26  C   UNL     1       2.183   9.513   8.366  1.00  0.00    -0.000 C 
BRANCH  26  27
ATOM     27  C   UNL     1       2.529  10.361   9.600  1.00  0.00    -0.000 C 
BRANCH  27  28
ATOM     28  C   UNL     1       3.940  10.078  10.139  1.00  0.00    -0.000 C 
BRANCH  28  29
ATOM     29  C   UNL     1       4.434   8.666   9.782  1.00  0.00    -0.000 C 
BRANCH  29  30
ATOM     30  C   UNL     1       5.113   7.951  10.964  1.00  0.00    -0.000 C 
BRANCH  30  31
ATOM     31  C   UNL     1       6.123   8.807  11.750  1.00  0.00    -0.003 C 
ATOM     32  C   UNL     1       7.130   7.973  12.540  1.00  0.00     0.004 C 
ENDBRANCH  30  31
ENDBRANCH  29  30
ENDBRANCH  28  29
ENDBRANCH  27  28
ENDBRANCH  26  27
ENDBRANCH  25  26
ENDBRANCH  24  25
ENDBRANCH  23  24
ENDBRANCH  22  23
ENDBRANCH  21  22
ENDBRANCH  20  21
ENDBRANCH  19  20
ENDBRANCH  18  19
ENDBRANCH   1  18
TORSDOF 28
ENDMDL
MODEL 6
REMARK VINA RESULT:    -4.328      6.509      9.820
REMARK INTER + INTRA:         -13.340
REMARK INTER:                  -8.631
REMARK INTRA:                  -4.710
REMARK UNBOUND:                -1.929
REMARK SMILES CCCCCCCCCCCCCCCCCCCCCCCCCCCCCC(=O)[O-]
REMARK SMILES IDX 16 1 17 2 18 3 19 4 20 5 21 6 22 7 23 8 24 9 25 10 26 11
REMARK SMILES IDX 27 12 28 13 29 14 30 15 31 16 32 17 15 18 14 19 13 20 12 21
REMARK SMILES IDX 11 22 10 23 9 24 8 25 7 26 6 27 5 28 4 29 3 30 2 31 1 32
REMARK H PARENT
REMARK Flexibility Score: inf
ROOT
ATOM      1  C   UNL     1       2.204   1.583  13.016  1.00  0.00     0.000 C 
ENDROOT
BRANCH   1   2
ATOM      2  C   UNL     1       3.566   1.060  12.527  1.00  0.00     0.000 C 
BRANCH   2   3
ATOM      3  C   UNL     1       4.746   1.843  13.125  1.00  0.00     0.000 C 
BRANCH   3   4
ATOM      4  C   UNL     1       4.867   3.262  12.542  1.00  0.00     0.000 C 
BRANCH   4   5
ATOM      5  C   UNL     1       6.145   3.987  12.997  1.00  0.00     0.000 C 
BRANCH   5   6
ATOM      6  C   UNL     1       6.696   5.021  11.994  1.00  0.00     0.000 C 
BRANCH   6   7
ATOM      7  C   UNL     1       6.310   4.774  10.523  1.00  0.00     0.000 C 
BRANCH   7   8
ATOM      8  C   UNL     1       7.067   5.640   9.495  1.00  0.00     0.000 C 
BRANCH   8   9
ATOM      9  C   UNL     1       8.385   5.032   8.983  1.00  0.00     0.000 C 
BRANCH   9  10
ATOM     10  C   UNL     1       8.972   5.801   7.788  1.00  0.00     0.000 C 
BRANCH  10  11
ATOM     11  C   UNL     1       8.382   7.215   7.642  1.00  0.00     0.000 C 
BRANCH  11  12
ATOM     12  C   UNL     1       8.778   7.956   6.349  1.00  0.00     0.000 C 
BRANCH  12  13
ATOM     13  C   UNL     1       8.312   9.423   6.265  1.00  0.00     0.006 C 
BRANCH  13  14
ATOM     14  C   UNL     1       6.967   9.701   6.952  1.00  0.00     0.053 C 
BRANCH  14  15
ATOM     15  C   UNL     1       5.879   9.977   5.961  1.00  0.00     0.041 C 
ATOM     16  O   UNL     1       5.160  11.003   6.079  1.00  0.00    -0.550 OA
ATOM     17  O   UNL     1       5.635   9.078   4.930  1.00  0.00    -0.550 OA
ENDBRANCH  14  15
ENDBRANCH  13  14
ENDBRANCH  12  13
ENDBRANCH  11  12
ENDBRANCH  10  11
ENDBRANCH   9  10
ENDBRANCH   8   9
ENDBRANCH   7   8
ENDBRANCH   6   7
ENDBRANCH   5   6
ENDBRANCH   4   5
ENDBRANCH   3   4
ENDBRANCH   2   3
ENDBRANCH   1   2
BRANCH   1  18
ATOM     18  C   UNL     1       1.212   1.823  11.866  1.00  0.00     0.000 C 
BRANCH  18  19
ATOM     19  C   UNL     1       1.902   1.863  10.491  1.00  0.00     0.000 C 
BRANCH  19  20
ATOM     20  C   UNL     1       2.358   3.279  10.106  1.00  0.00     0.000 C 
BRANCH  20  21
ATOM     21  C   UNL     1       1.332   4.357  10.498  1.00  0.00     0.000 C 
BRANCH  21  22
ATOM     22  C   UNL     1       1.888   5.363  11.521  1.00  0.00     0.000 C 
BRANCH  22  23
ATOM     23  C   UNL     1       3.098   6.185  11.031  1.00  0.00     0.000 C 
BRANCH  23  24
ATOM     24  C   UNL     1       3.615   7.246  12.024  1.00  0.00    -0.000 C 
BRANCH  24  25
ATOM     25  C   UNL     1       4.230   8.499  11.375  1.00  0.00    -0.000 C 
BRANCH  25  26
ATOM     26  C   UNL     1       4.293   8.409   9.843  1.00  0.00    -0.000 C 
BRANCH  26  27
ATOM     27  C   UNL     1       4.139   9.800   9.208  1.00  0.00    -0.000 C 
BRANCH  27  28
ATOM     28  C   UNL     1       2.700  10.089   8.753  1.00  0.00    -0.000 C 
BRANCH  28  29
ATOM     29  C   UNL     1       1.935   8.809   8.374  1.00  0.00    -0.000 C 
BRANCH  29  30
ATOM     30  C   UNL     1       0.610   8.653   9.141  1.00  0.00    -0.000 C 
BRANCH  30  31
ATOM     31  C   UNL     1       0.565   9.353  10.512  1.00  0.00    -0.003 C 
ATOM     32  C   UNL     1       0.042   8.451  11.629  1.00  0.00     0.004 C 
ENDBRANCH  30  31
ENDBRANCH  29  30
ENDBRANCH  28  29
ENDBRANCH  27  28
ENDBRANCH  26  27
ENDBRANCH  25  26
ENDBRANCH  24  25
ENDBRANCH  23  24
ENDBRANCH  22  23
ENDBRANCH  21  22
ENDBRANCH  20  21
ENDBRANCH  19  20
ENDBRANCH  18  19
ENDBRANCH   1  18
TORSDOF 28
ENDMDL
MODEL 7
REMARK VINA RESULT:    -4.281      7.410     12.236
REMARK INTER + INTRA:         -13.216
REMARK INTER:                  -8.707
REMARK INTRA:                  -4.509
REMARK UNBOUND:                -1.929
REMARK SMILES CCCCCCCCCCCCCCCCCCCCCCCCCCCCCC(=O)[O-]
REMARK SMILES IDX 16 1 17 2 18 3 19 4 20 5 21 6 22 7 23 8 24 9 25 10 26 11
REMARK SMILES IDX 27 12 28 13 29 14 30 15 31 16 32 17 15 18 14 19 13 20 12 21
REMARK SMILES IDX 11 22 10 23 9 24 8 25 7 26 6 27 5 28 4 29 3 30 2 31 1 32
REMARK H PARENT
REMARK Flexibility Score: inf
ROOT
ATOM      1  C   UNL     1       3.571   1.133  12.948  1.00  0.00     0.000 C 
ENDROOT
BRANCH   1   2
ATOM      2  C   UNL     1       2.956   0.627  11.632  1.00  0.00     0.000 C 
BRANCH   2   3
ATOM      3  C   UNL     1       2.414   1.768  10.758  1.00  0.00     0.000 C 
BRANCH   3   4
ATOM      4  C   UNL     1       1.060   2.301  11.259  1.00  0.00     0.000 C 
BRANCH   4   5
ATOM      5  C   UNL     1       1.194   3.599  12.073  1.00  0.00     0.000 C 
BRANCH   5   6
ATOM      6  C   UNL     1       2.230   4.603  11.528  1.00  0.00     0.000 C 
BRANCH   6   7
ATOM      7  C   UNL     1       1.771   6.075  11.518  1.00  0.00     0.000 C 
BRANCH   7   8
ATOM      8  C   UNL     1       1.157   6.559  10.189  1.00  0.00     0.000 C 
BRANCH   8   9
ATOM      9  C   UNL     1       2.135   6.595   9.001  1.00  0.00     0.000 C 
BRANCH   9  10
ATOM     10  C   UNL     1       2.055   7.908   8.203  1.00  0.00     0.000 C 
BRANCH  10  11
ATOM     11  C   UNL     1       1.000   8.879   8.760  1.00  0.00     0.000 C 
BRANCH  11  12
ATOM     12  C   UNL     1       1.569  10.168   9.389  1.00  0.00     0.000 C 
BRANCH  12  13
ATOM     13  C   UNL     1       0.812  10.680  10.631  1.00  0.00     0.006 C 
BRANCH  13  14
ATOM     14  C   UNL     1      -0.713  10.752  10.459  1.00  0.00     0.053 C 
BRANCH  14  15
ATOM     15  C   UNL     1      -1.434  10.045  11.564  1.00  0.00     0.041 C 
ATOM     16  O   UNL     1      -2.368  10.621  12.182  1.00  0.00    -0.550 OA
ATOM     17  O   UNL     1      -1.048   8.764  11.937  1.00  0.00    -0.550 OA
ENDBRANCH  14  15
ENDBRANCH  13  14
ENDBRANCH  12  13
ENDBRANCH  11  12
ENDBRANCH  10  11
ENDBRANCH   9  10
ENDBRANCH   8   9
ENDBRANCH   7   8
ENDBRANCH   6   7
ENDBRANCH   5   6
ENDBRANCH   4   5
ENDBRANCH   3   4
ENDBRANCH   2   3
ENDBRANCH   1   2
BRANCH   1  18
ATOM     18  C   UNL     1       5.042   1.554  12.794  1.00  0.00     0.000 C 
BRANCH  18  19
ATOM     19  C   UNL     1       5.224   3.082  12.828  1.00  0.00     0.000 C 
BRANCH  19  20
ATOM     20  C   UNL     1       6.511   3.534  12.119  1.00  0.00     0.000 C 
BRANCH  20  21
ATOM     21  C   UNL     1       6.864   5.002  12.418  1.00  0.00     0.000 C 
BRANCH  21  22
ATOM     22  C   UNL     1       5.705   5.967  12.112  1.00  0.00     0.000 C 
BRANCH  22  23
ATOM     23  C   UNL     1       5.444   6.211  10.611  1.00  0.00     0.000 C 
BRANCH  23  24
ATOM     24  C   UNL     1       5.454   7.691  10.177  1.00  0.00    -0.000 C 
BRANCH  24  25
ATOM     25  C   UNL     1       4.590   8.628  11.040  1.00  0.00    -0.000 C 
BRANCH  25  26
ATOM     26  C   UNL     1       4.821  10.113  10.725  1.00  0.00    -0.000 C 
BRANCH  26  27
ATOM     27  C   UNL     1       5.685  10.275   9.464  1.00  0.00    -0.000 C 
BRANCH  27  28
ATOM     28  C   UNL     1       4.893  10.827   8.268  1.00  0.00    -0.000 C 
BRANCH  28  29
ATOM     29  C   UNL     1       5.234  10.105   6.954  1.00  0.00    -0.000 C 
BRANCH  29  30
ATOM     30  C   UNL     1       6.695   9.619   6.899  1.00  0.00    -0.000 C 
BRANCH  30  31
ATOM     31  C   UNL     1       7.211   9.266   5.492  1.00  0.00    -0.003 C 
ATOM     32  C   UNL     1       6.188   9.544   4.391  1.00  0.00     0.004 C 
ENDBRANCH  30  31
ENDBRANCH  29  30
ENDBRANCH  28  29
ENDBRANCH  27  28
ENDBRANCH  26  27
ENDBRANCH  25  26
ENDBRANCH  24  25
ENDBRANCH  23  24
ENDBRANCH  22  23
ENDBRANCH  21  22
ENDBRANCH  20  21
ENDBRANCH  19  20
ENDBRANCH  18  19
ENDBRANCH   1  18
TORSDOF 28
ENDMDL
MODEL 8
REMARK VINA RESULT:    -4.270      4.105     11.198
REMARK INTER + INTRA:         -13.187
REMARK INTER:                 -10.458
REMARK INTRA:                  -2.729
REMARK UNBOUND:                -1.929
REMARK SMILES CCCCCCCCCCCCCCCCCCCCCCCCCCCCCC(=O)[O-]
REMARK SMILES IDX 16 1 17 2 18 3 19 4 20 5 21 6 22 7 23 8 24 9 25 10 26 11
REMARK SMILES IDX 27 12 28 13 29 14 30 15 31 16 32 17 15 18 14 19 13 20 12 21
REMARK SMILES IDX 11 22 10 23 9 24 8 25 7 26 6 27 5 28 4 29 3 30 2 31 1 32
REMARK H PARENT
REMARK Flexibility Score: inf
ROOT
ATOM      1  C   UNL     1       7.753   8.224   7.925  1.00  0.00     0.000 C 
ENDROOT
BRANCH   1   2
ATOM      2  C   UNL     1       8.350   8.722   9.252  1.00  0.00     0.000 C 
BRANCH   2   3
ATOM      3  C   UNL     1       7.446   8.416  10.457  1.00  0.00     0.000 C 
BRANCH   3   4
ATOM      4  C   UNL     1       6.075   7.859  10.037  1.00  0.00     0.000 C 
BRANCH   4   5
ATOM      5  C   UNL     1       4.900   8.623  10.673  1.00  0.00     0.000 C 
BRANCH   5   6
ATOM      6  C   UNL     1       4.273   9.711   9.777  1.00  0.00     0.000 C 
BRANCH   6   7
ATOM      7  C   UNL     1       3.736   9.211   8.421  1.00  0.00     0.000 C 
BRANCH   7   8
ATOM      8  C   UNL     1       2.203   9.275   8.263  1.00  0.00     0.000 C 
BRANCH   8   9
ATOM      9  C   UNL     1       1.429   9.524   9.570  1.00  0.00     0.000 C 
BRANCH   9  10
ATOM     10  C   UNL     1       0.502   8.355   9.945  1.00  0.00     0.000 C 
BRANCH  10  11
ATOM     11  C   UNL     1       1.198   7.301  10.822  1.00  0.00     0.000 C 
BRANCH  11  12
ATOM     12  C   UNL     1       1.424   5.935  10.143  1.00  0.00     0.000 C 
BRANCH  12  13
ATOM     13  C   UNL     1       2.770   5.783   9.405  1.00  0.00     0.006 C 
BRANCH  13  14
ATOM     14  C   UNL     1       3.818   4.956  10.165  1.00  0.00     0.053 C 
BRANCH  14  15
ATOM     15  C   UNL     1       3.273   3.633  10.605  1.00  0.00     0.041 C 
ATOM     16  O   UNL     1       3.514   3.202  11.764  1.00  0.00    -0.550 OA
ATOM     17  O   UNL     1       2.534   2.856   9.721  1.00  0.00    -0.550 OA
ENDBRANCH  14  15
ENDBRANCH  13  14
ENDBRANCH  12  13
ENDBRANCH  11  12
ENDBRANCH  10  11
ENDBRANCH   9  10
ENDBRANCH   8   9
ENDBRANCH   7   8
ENDBRANCH   6   7
ENDBRANCH   5   6
ENDBRANCH   4   5
ENDBRANCH   3   4
ENDBRANCH   2   3
ENDBRANCH   1   2
BRANCH   1  18
ATOM     18  C   UNL     1       8.736   7.363   7.116  1.00  0.00     0.000 C 
BRANCH  18  19
ATOM     19  C   UNL     1       8.748   7.730   5.621  1.00  0.00     0.000 C 
BRANCH  19  20
ATOM     20  C   UNL     1       7.899   8.974   5.316  1.00  0.00     0.000 C 
BRANCH  20  21
ATOM     21  C   UNL     1       8.484   9.823   4.173  1.00  0.00     0.000 C 
BRANCH  21  22
ATOM     22  C   UNL     1       7.893   9.459   2.800  1.00  0.00     0.000 C 
BRANCH  22  23
ATOM     23  C   UNL     1       8.535   8.232   2.122  1.00  0.00     0.000 C 
BRANCH  23  24
ATOM     24  C   UNL     1       7.539   7.181   1.590  1.00  0.00    -0.000 C 
BRANCH  24  25
ATOM     25  C   UNL     1       8.065   5.734   1.577  1.00  0.00    -0.000 C 
BRANCH  25  26
ATOM     26  C   UNL     1       7.567   4.928   0.368  1.00  0.00    -0.000 C 
BRANCH  26  27
ATOM     27  C   UNL     1       7.330   3.460   0.752  1.00  0.00    -0.000 C 
BRANCH  27  28
ATOM     28  C   UNL     1       6.076   2.867   0.091  1.00  0.00    -0.000 C 
BRANCH  28  29
ATOM     29  C   UNL     1       6.071   1.330   0.111  1.00  0.00    -0.000 C 
BRANCH  29  30
ATOM     30  C   UNL     1       6.162   0.711  -1.296  1.00  0.00    -0.000 C 
BRANCH  30  31
ATOM     31  C   UNL     1       7.367   1.176  -2.135  1.00  0.00    -0.003 C 
ATOM     32  C   UNL     1       8.514   0.166  -2.147  1.00  0.00     0.004 C 
ENDBRANCH  30  31
ENDBRANCH  29  30
ENDBRANCH  28  29
ENDBRANCH  27  28
ENDBRANCH  26  27
ENDBRANCH  25  26
ENDBRANCH  24  25
ENDBRANCH  23  24
ENDBRANCH  22  23
ENDBRANCH  21  22
ENDBRANCH  20  21
ENDBRANCH  19  20
ENDBRANCH  18  19
ENDBRANCH   1  18
TORSDOF 28
ENDMDL
MODEL 9
REMARK VINA RESULT:    -4.252      7.292     10.366
REMARK INTER + INTRA:         -13.141
REMARK INTER:                  -8.330
REMARK INTRA:                  -4.811
REMARK UNBOUND:                -1.929
REMARK SMILES CCCCCCCCCCCCCCCCCCCCCCCCCCCCCC(=O)[O-]
REMARK SMILES IDX 16 1 17 2 18 3 19 4 20 5 21 6 22 7 23 8 24 9 25 10 26 11
REMARK SMILES IDX 27 12 28 13 29 14 30 15 31 16 32 17 15 18 14 19 13 20 12 21
REMARK SMILES IDX 11 22 10 23 9 24 8 25 7 26 6 27 5 28 4 29 3 30 2 31 1 32
REMARK H PARENT
REMARK Flexibility Score: inf
ROOT
ATOM      1  C   UNL     1       2.398   1.369  10.874  1.00  0.00     0.000 C 
ENDROOT
BRANCH   1   2
ATOM      2  C   UNL     1       2.929   1.041  12.281  1.00  0.00     0.000 C 
BRANCH   2   3
ATOM      3  C   UNL     1       4.002   2.035  12.751  1.00  0.00     0.000 C 
BRANCH   3   4
ATOM      4  C   UNL     1       5.370   1.364  12.969  1.00  0.00     0.000 C 
BRANCH   4   5
ATOM      5  C   UNL     1       6.549   2.327  12.749  1.00  0.00     0.000 C 
BRANCH   5   6
ATOM      6  C   UNL     1       6.172   3.677  12.105  1.00  0.00     0.000 C 
BRANCH   6   7
ATOM      7  C   UNL     1       7.287   4.336  11.270  1.00  0.00     0.000 C 
BRANCH   7   8
ATOM      8  C   UNL     1       6.976   4.483   9.766  1.00  0.00     0.000 C 
BRANCH   8   9
ATOM      9  C   UNL     1       7.882   5.473   9.013  1.00  0.00     0.000 C 
BRANCH   9  10
ATOM     10  C   UNL     1       8.103   6.785   9.785  1.00  0.00     0.000 C 
BRANCH  10  11
ATOM     11  C   UNL     1       7.811   8.033   8.935  1.00  0.00     0.000 C 
BRANCH  11  12
ATOM     12  C   UNL     1       7.442   9.297   9.739  1.00  0.00     0.000 C 
BRANCH  12  13
ATOM     13  C   UNL     1       6.288  10.134   9.152  1.00  0.00     0.006 C 
BRANCH  13  14
ATOM     14  C   UNL     1       6.517  10.605   7.708  1.00  0.00     0.053 C 
BRANCH  14  15
ATOM     15  C   UNL     1       5.350  10.289   6.826  1.00  0.00     0.041 C 
ATOM     16  O   UNL     1       5.385   9.290   6.060  1.00  0.00    -0.550 OA
ATOM     17  O   UNL     1       4.238  11.123   6.820  1.00  0.00    -0.550 OA
ENDBRANCH  14  15
ENDBRANCH  13  14
ENDBRANCH  12  13
ENDBRANCH  11  12
ENDBRANCH  10  11
ENDBRANCH   9  10
ENDBRANCH   8   9
ENDBRANCH   7   8
ENDBRANCH   6   7
ENDBRANCH   5   6
ENDBRANCH   4   5
ENDBRANCH   3   4
ENDBRANCH   2   3
ENDBRANCH   1   2
BRANCH   1  18
ATOM     18  C   UNL     1       1.077   2.156  10.905  1.00  0.00     0.000 C 
BRANCH  18  19
ATOM     19  C   UNL     1       1.004   3.137  12.089  1.00  0.00     0.000 C 
BRANCH  19  20
ATOM     20  C   UNL     1       1.623   4.504  11.756  1.00  0.00     0.000 C 
BRANCH  20  21
ATOM     21  C   UNL     1       1.818   4.711  10.244  1.00  0.00     0.000 C 
BRANCH  21  22
ATOM     22  C   UNL     1       3.272   5.055   9.873  1.00  0.00     0.000 C 
BRANCH  22  23
ATOM     23  C   UNL     1       3.557   6.560   9.695  1.00  0.00     0.000 C 
BRANCH  23  24
ATOM     24  C   UNL     1       4.637   7.137  10.633  1.00  0.00    -0.000 C 
BRANCH  24  25
ATOM     25  C   UNL     1       4.432   6.831  12.127  1.00  0.00    -0.000 C 
BRANCH  25  26
ATOM     26  C   UNL     1       4.310   8.098  12.986  1.00  0.00    -0.000 C 
BRANCH  26  27
ATOM     27  C   UNL     1       3.042   8.885  12.620  1.00  0.00    -0.000 C 
BRANCH  27  28
ATOM     28  C   UNL     1       1.762   8.044  12.750  1.00  0.00    -0.000 C 
BRANCH  28  29
ATOM     29  C   UNL     1       0.585   8.641  11.962  1.00  0.00    -0.000 C 
BRANCH  29  30
ATOM     30  C   UNL     1       0.481   8.089  10.528  1.00  0.00    -0.000 C 
BRANCH  30  31
ATOM     31  C   UNL     1       0.475   9.157   9.418  1.00  0.00    -0.003 C 
ATOM     32  C   UNL     1       1.874   9.650   9.052  1.00  0.00     0.004 C 
ENDBRANCH  30  31
ENDBRANCH  29  30
ENDBRANCH  28  29
ENDBRANCH  27  28
ENDBRANCH  26  27
ENDBRANCH  25  26
ENDBRANCH  24  25
ENDBRANCH  23  24
ENDBRANCH  22  23
ENDBRANCH  21  22
ENDBRANCH  20  21
ENDBRANCH  19  20
ENDBRANCH  18  19
ENDBRANCH   1  18
TORSDOF 28
ENDMDL
