MODEL 1
REMARK VINA RESULT:    -3.485      0.000      0.000
REMARK INTER + INTRA:          -3.689
REMARK INTER:                  -3.689
REMARK INTRA:                   0.000
REMARK UNBOUND:                 0.000
REMARK SMILES O=c1ccc2cc(O)c(O)cc2o1
REMARK SMILES IDX 4 1 3 2 2 3 1 4 13 5 12 6 11 7 9 8 7 9 6 10 5 11 8 12 10 14
REMARK H PARENT 8 13 10 15
REMARK Flexibility Score: inf
ROOT
ATOM      1  C   UNL     1      14.955  28.363  25.007  1.00  0.00     0.019 A 
ATOM      2  C   UNL     1      13.886  27.649  24.467  1.00  0.00     0.094 A 
ATOM      3  C   UNL     1      13.066  26.906  25.324  1.00  0.00     0.336 A 
ATOM      4  O   UNL     1      12.095  26.255  24.857  1.00  0.00    -0.246 OA
ATOM      5  O   UNL     1      13.305  26.881  26.632  1.00  0.00    -0.423 OA
ATOM      6  C   UNL     1      14.316  27.548  27.188  1.00  0.00     0.142 A 
ATOM      7  C   UNL     1      14.519  27.484  28.570  1.00  0.00     0.098 A 
ATOM      8  C   UNL     1      15.582  28.184  29.160  1.00  0.00     0.161 A 
ATOM      9  C   UNL     1      16.445  28.951  28.364  1.00  0.00     0.158 A 
ATOM     10  C   UNL     1      16.246  29.018  26.976  1.00  0.00     0.062 A 
ATOM     11  C   UNL     1      15.184  28.319  26.386  1.00  0.00     0.022 A 
ENDROOT
BRANCH   9  12
ATOM     12  O   UNL     1      17.499  29.643  28.958  1.00  0.00    -0.504 OA
ATOM     13  H   UNL     1      17.368  30.182  29.806  1.00  0.00     0.293 HD
ENDBRANCH   9  12
BRANCH   8  14
ATOM     14  O   UNL     1      15.786  28.123  30.537  1.00  0.00    -0.504 OA
ATOM     15  H   UNL     1      16.718  28.134  30.935  1.00  0.00     0.293 HD
ENDBRANCH   8  14
TORSDOF 2
ENDMDL
MODEL 2
REMARK VINA RESULT:    -3.302     18.717     19.948
REMARK INTER + INTRA:          -3.495
REMARK INTER:                  -3.495
REMARK INTRA:                   0.000
REMARK UNBOUND:                 0.000
REMARK SMILES O=c1ccc2cc(O)c(O)cc2o1
REMARK SMILES IDX 4 1 3 2 2 3 1 4 13 5 12 6 11 7 9 8 7 9 6 10 5 11 8 12 10 14
REMARK H PARENT 8 13 10 15
REMARK Flexibility Score: inf
ROOT
ATOM      1  C   UNL     1      18.671  10.186  16.381  1.00  0.00     0.019 A 
ATOM      2  C   UNL     1      17.423  10.500  16.917  1.00  0.00     0.094 A 
ATOM      3  C   UNL     1      17.335  11.504  17.887  1.00  0.00     0.336 A 
ATOM      4  O   UNL     1      16.218  11.803  18.383  1.00  0.00    -0.246 OA
ATOM      5  O   UNL     1      18.427  12.147  18.292  1.00  0.00    -0.423 OA
ATOM      6  C   UNL     1      19.637  11.878  17.807  1.00  0.00     0.142 A 
ATOM      7  C   UNL     1      20.750  12.587  18.271  1.00  0.00     0.098 A 
ATOM      8  C   UNL     1      22.027  12.308  17.763  1.00  0.00     0.161 A 
ATOM      9  C   UNL     1      22.192  11.314  16.786  1.00  0.00     0.158 A 
ATOM     10  C   UNL     1      21.080  10.599  16.318  1.00  0.00     0.062 A 
ATOM     11  C   UNL     1      19.803  10.878  16.825  1.00  0.00     0.022 A 
ENDROOT
BRANCH   9  12
ATOM     12  O   UNL     1      23.465  11.042  16.287  1.00  0.00    -0.504 OA
ATOM     13  H   UNL     1      23.687  10.151  15.859  1.00  0.00     0.293 HD
ENDBRANCH   9  12
BRANCH   8  14
ATOM     14  O   UNL     1      23.137  13.012  18.223  1.00  0.00    -0.504 OA
ATOM     15  H   UNL     1      23.386  13.030  19.205  1.00  0.00     0.293 HD
ENDBRANCH   8  14
TORSDOF 2
ENDMDL
MODEL 3
REMARK VINA RESULT:    -3.292      1.219      2.281
REMARK INTER + INTRA:          -3.484
REMARK INTER:                  -3.484
REMARK INTRA:                   0.000
REMARK UNBOUND:                 0.000
REMARK SMILES O=c1ccc2cc(O)c(O)cc2o1
REMARK SMILES IDX 4 1 3 2 2 3 1 4 13 5 12 6 11 7 9 8 7 9 6 10 5 11 8 12 10 14
REMARK H PARENT 8 13 10 15
REMARK Flexibility Score: inf
ROOT
ATOM      1  C   UNL     1      13.363  26.898  26.488  1.00  0.00     0.019 A 
ATOM      2  C   UNL     1      13.156  27.078  25.121  1.00  0.00     0.094 A 
ATOM      3  C   UNL     1      13.991  27.952  24.418  1.00  0.00     0.336 A 
ATOM      4  O   UNL     1      13.821  28.127  23.183  1.00  0.00    -0.246 OA
ATOM      5  O   UNL     1      14.968  28.601  25.045  1.00  0.00    -0.423 OA
ATOM      6  C   UNL     1      15.201  28.459  26.348  1.00  0.00     0.142 A 
ATOM      7  C   UNL     1      16.242  29.169  26.955  1.00  0.00     0.098 A 
ATOM      8  C   UNL     1      16.491  29.022  28.327  1.00  0.00     0.161 A 
ATOM      9  C   UNL     1      15.694  28.162  29.097  1.00  0.00     0.158 A 
ATOM     10  C   UNL     1      14.647  27.449  28.494  1.00  0.00     0.062 A 
ATOM     11  C   UNL     1      14.398  27.594  27.123  1.00  0.00     0.022 A 
ENDROOT
BRANCH   9  12
ATOM     12  O   UNL     1      15.947  28.023  30.460  1.00  0.00    -0.504 OA
ATOM     13  H   UNL     1      16.539  27.282  30.817  1.00  0.00     0.293 HD
ENDBRANCH   9  12
BRANCH   8  14
ATOM     14  O   UNL     1      17.528  29.727  28.933  1.00  0.00    -0.504 OA
ATOM     15  H   UNL     1      17.737  30.687  28.681  1.00  0.00     0.293 HD
ENDBRANCH   8  14
TORSDOF 2
ENDMDL
MODEL 4
REMARK VINA RESULT:    -3.187      1.679      2.306
REMARK INTER + INTRA:          -3.373
REMARK INTER:                  -3.373
REMARK INTRA:                   0.000
REMARK UNBOUND:                 0.000
REMARK SMILES O=c1ccc2cc(O)c(O)cc2o1
REMARK SMILES IDX 4 1 3 2 2 3 1 4 13 5 12 6 11 7 9 8 7 9 6 10 5 11 8 12 10 14
REMARK H PARENT 8 13 10 15
REMARK Flexibility Score: inf
ROOT
ATOM      1  C   UNL     1      14.558  24.597  26.926  1.00  0.00     0.019 A 
ATOM      2  C   UNL     1      13.450  24.644  26.079  1.00  0.00     0.094 A 
ATOM      3  C   UNL     1      12.844  25.878  25.824  1.00  0.00     0.336 A 
ATOM      4  O   UNL     1      11.844  25.941  25.063  1.00  0.00    -0.246 OA
ATOM      5  O   UNL     1      13.317  26.990  26.381  1.00  0.00    -0.423 OA
ATOM      6  C   UNL     1      14.371  26.990  27.195  1.00  0.00     0.142 A 
ATOM      7  C   UNL     1      14.824  28.190  27.752  1.00  0.00     0.098 A 
ATOM      8  C   UNL     1      15.934  28.195  28.610  1.00  0.00     0.161 A 
ATOM      9  C   UNL     1      16.594  26.994  28.911  1.00  0.00     0.158 A 
ATOM     10  C   UNL     1      16.143  25.788  28.355  1.00  0.00     0.062 A 
ATOM     11  C   UNL     1      15.034  25.781  27.498  1.00  0.00     0.022 A 
ENDROOT
BRANCH   9  12
ATOM     12  O   UNL     1      17.696  27.008  29.765  1.00  0.00    -0.504 OA
ATOM     13  H   UNL     1      18.639  27.112  29.411  1.00  0.00     0.293 HD
ENDBRANCH   9  12
BRANCH   8  14
ATOM     14  O   UNL     1      16.388  29.389  29.166  1.00  0.00    -0.504 OA
ATOM     15  H   UNL     1      15.966  30.279  28.928  1.00  0.00     0.293 HD
ENDBRANCH   8  14
TORSDOF 2
ENDMDL
MODEL 5
REMARK VINA RESULT:    -3.177      1.590      4.535
REMARK INTER + INTRA:          -3.363
REMARK INTER:                  -3.363
REMARK INTRA:                   0.000
REMARK UNBOUND:                 0.000
REMARK SMILES O=c1ccc2cc(O)c(O)cc2o1
REMARK SMILES IDX 4 1 3 2 2 3 1 4 13 5 12 6 11 7 9 8 7 9 6 10 5 11 8 12 10 14
REMARK H PARENT 8 13 10 15
REMARK Flexibility Score: inf
ROOT
ATOM      1  C   UNL     1      17.704  28.219  26.192  1.00  0.00     0.019 A 
ATOM      2  C   UNL     1      18.844  28.872  26.659  1.00  0.00     0.094 A 
ATOM      3  C   UNL     1      18.824  29.441  27.937  1.00  0.00     0.336 A 
ATOM      4  O   UNL     1      19.843  30.035  28.376  1.00  0.00    -0.246 OA
ATOM      5  O   UNL     1      17.733  29.360  28.693  1.00  0.00    -0.423 OA
ATOM      6  C   UNL     1      16.624  28.746  28.286  1.00  0.00     0.142 A 
ATOM      7  C   UNL     1      15.506  28.693  29.125  1.00  0.00     0.098 A 
ATOM      8  C   UNL     1      14.335  28.047  28.701  1.00  0.00     0.161 A 
ATOM      9  C   UNL     1      14.282  27.453  27.432  1.00  0.00     0.158 A 
ATOM     10  C   UNL     1      15.400  27.504  26.586  1.00  0.00     0.062 A 
ATOM     11  C   UNL     1      16.570  28.149  27.009  1.00  0.00     0.022 A 
ENDROOT
BRANCH   9  12
ATOM     12  O   UNL     1      13.115  26.814  27.017  1.00  0.00    -0.504 OA
ATOM     13  H   UNL     1      12.302  27.338  26.714  1.00  0.00     0.293 HD
ENDBRANCH   9  12
BRANCH   8  14
ATOM     14  O   UNL     1      13.221  27.992  29.535  1.00  0.00    -0.504 OA
ATOM     15  H   UNL     1      13.312  27.999  30.544  1.00  0.00     0.293 HD
ENDBRANCH   8  14
TORSDOF 2
ENDMDL
MODEL 6
REMARK VINA RESULT:    -3.141      2.371      2.880
REMARK INTER + INTRA:          -3.324
REMARK INTER:                  -3.324
REMARK INTRA:                   0.000
REMARK UNBOUND:                 0.000
REMARK SMILES O=c1ccc2cc(O)c(O)cc2o1
REMARK SMILES IDX 4 1 3 2 2 3 1 4 13 5 12 6 11 7 9 8 7 9 6 10 5 11 8 12 10 14
REMARK H PARENT 8 13 10 15
REMARK Flexibility Score: inf
ROOT
ATOM      1  C   UNL     1      16.623  24.780  27.902  1.00  0.00     0.019 A 
ATOM      2  C   UNL     1      15.720  23.840  27.408  1.00  0.00     0.094 A 
ATOM      3  C   UNL     1      14.449  24.266  27.009  1.00  0.00     0.336 A 
ATOM      4  O   UNL     1      13.619  23.433  26.559  1.00  0.00    -0.246 OA
ATOM      5  O   UNL     1      14.108  25.549  27.100  1.00  0.00    -0.423 OA
ATOM      6  C   UNL     1      14.940  26.478  27.566  1.00  0.00     0.142 A 
ATOM      7  C   UNL     1      14.526  27.812  27.641  1.00  0.00     0.098 A 
ATOM      8  C   UNL     1      15.398  28.795  28.131  1.00  0.00     0.161 A 
ATOM      9  C   UNL     1      16.690  28.442  28.549  1.00  0.00     0.158 A 
ATOM     10  C   UNL     1      17.109  27.105  28.478  1.00  0.00     0.062 A 
ATOM     11  C   UNL     1      16.239  26.122  27.988  1.00  0.00     0.022 A 
ENDROOT
BRANCH   9  12
ATOM     12  O   UNL     1      17.550  29.425  29.036  1.00  0.00    -0.504 OA
ATOM     13  H   UNL     1      18.547  29.392  28.859  1.00  0.00     0.293 HD
ENDBRANCH   9  12
BRANCH   8  14
ATOM     14  O   UNL     1      14.990  30.125  28.205  1.00  0.00    -0.504 OA
ATOM     15  H   UNL     1      15.631  30.888  28.021  1.00  0.00     0.293 HD
ENDBRANCH   8  14
TORSDOF 2
ENDMDL
MODEL 7
REMARK VINA RESULT:    -2.981      1.920      2.623
REMARK INTER + INTRA:          -3.155
REMARK INTER:                  -3.155
REMARK INTRA:                   0.000
REMARK UNBOUND:                 0.000
REMARK SMILES O=c1ccc2cc(O)c(O)cc2o1
REMARK SMILES IDX 4 1 3 2 2 3 1 4 13 5 12 6 11 7 9 8 7 9 6 10 5 11 8 12 10 14
REMARK H PARENT 8 13 10 15
REMARK Flexibility Score: inf
ROOT
ATOM      1  C   UNL     1      17.718  27.931  26.366  1.00  0.00     0.019 A 
ATOM      2  C   UNL     1      17.495  27.868  24.990  1.00  0.00     0.094 A 
ATOM      3  C   UNL     1      16.179  27.813  24.519  1.00  0.00     0.336 A 
ATOM      4  O   UNL     1      15.957  27.756  23.281  1.00  0.00    -0.246 OA
ATOM      5  O   UNL     1      15.157  27.821  25.371  1.00  0.00    -0.423 OA
ATOM      6  C   UNL     1      15.326  27.880  26.690  1.00  0.00     0.142 A 
ATOM      7  C   UNL     1      14.213  27.884  27.537  1.00  0.00     0.098 A 
ATOM      8  C   UNL     1      14.385  27.946  28.928  1.00  0.00     0.161 A 
ATOM      9  C   UNL     1      15.676  28.005  29.473  1.00  0.00     0.158 A 
ATOM     10  C   UNL     1      16.796  28.000  28.628  1.00  0.00     0.062 A 
ATOM     11  C   UNL     1      16.625  27.938  27.238  1.00  0.00     0.022 A 
ENDROOT
BRANCH   9  12
ATOM     12  O   UNL     1      15.838  28.066  30.856  1.00  0.00    -0.504 OA
ATOM     13  H   UNL     1      15.081  27.839  31.490  1.00  0.00     0.293 HD
ENDBRANCH   9  12
BRANCH   8  14
ATOM     14  O   UNL     1      13.279  27.952  29.774  1.00  0.00    -0.504 OA
ATOM     15  H   UNL     1      12.435  27.437  29.549  1.00  0.00     0.293 HD
ENDBRANCH   8  14
TORSDOF 2
ENDMDL
MODEL 8
REMARK VINA RESULT:    -2.964      1.900      2.220
REMARK INTER + INTRA:          -3.137
REMARK INTER:                  -3.137
REMARK INTRA:                   0.000
REMARK UNBOUND:                 0.000
REMARK SMILES O=c1ccc2cc(O)c(O)cc2o1
REMARK SMILES IDX 4 1 3 2 2 3 1 4 13 5 12 6 11 7 9 8 7 9 6 10 5 11 8 12 10 14
REMARK H PARENT 8 13 10 15
REMARK Flexibility Score: inf
ROOT
ATOM      1  C   UNL     1      13.161  26.745  26.101  1.00  0.00     0.019 A 
ATOM      2  C   UNL     1      12.819  25.443  25.736  1.00  0.00     0.094 A 
ATOM      3  C   UNL     1      13.555  24.376  26.262  1.00  0.00     0.336 A 
ATOM      4  O   UNL     1      13.262  23.194  25.946  1.00  0.00    -0.246 OA
ATOM      5  O   UNL     1      14.566  24.602  27.097  1.00  0.00    -0.423 OA
ATOM      6  C   UNL     1      14.926  25.828  27.470  1.00  0.00     0.142 A 
ATOM      7  C   UNL     1      15.999  26.004  28.350  1.00  0.00     0.098 A 
ATOM      8  C   UNL     1      16.382  27.294  28.747  1.00  0.00     0.161 A 
ATOM      9  C   UNL     1      15.689  28.413  28.260  1.00  0.00     0.158 A 
ATOM     10  C   UNL     1      14.613  28.242  27.376  1.00  0.00     0.062 A 
ATOM     11  C   UNL     1      14.229  26.953  26.980  1.00  0.00     0.022 A 
ENDROOT
BRANCH   9  12
ATOM     12  O   UNL     1      16.077  29.691  28.658  1.00  0.00    -0.504 OA
ATOM     13  H   UNL     1      16.267  30.422  27.983  1.00  0.00     0.293 HD
ENDBRANCH   9  12
BRANCH   8  14
ATOM     14  O   UNL     1      17.449  27.473  29.624  1.00  0.00    -0.504 OA
ATOM     15  H   UNL     1      18.393  27.199  29.374  1.00  0.00     0.293 HD
ENDBRANCH   8  14
TORSDOF 2
ENDMDL
MODEL 9
REMARK VINA RESULT:    -2.881      2.975      3.696
REMARK INTER + INTRA:          -3.050
REMARK INTER:                  -3.050
REMARK INTRA:                   0.000
REMARK UNBOUND:                 0.000
REMARK SMILES O=c1ccc2cc(O)c(O)cc2o1
REMARK SMILES IDX 4 1 3 2 2 3 1 4 13 5 12 6 11 7 9 8 7 9 6 10 5 11 8 12 10 14
REMARK H PARENT 8 13 10 15
REMARK Flexibility Score: inf
ROOT
ATOM      1  C   UNL     1      14.396  24.993  27.150  1.00  0.00     0.019 A 
ATOM      2  C   UNL     1      14.991  23.734  27.225  1.00  0.00     0.094 A 
ATOM      3  C   UNL     1      16.262  23.618  27.798  1.00  0.00     0.336 A 
ATOM      4  O   UNL     1      16.816  22.490  27.875  1.00  0.00    -0.246 OA
ATOM      5  O   UNL     1      16.892  24.693  28.264  1.00  0.00    -0.423 OA
ATOM      6  C   UNL     1      16.361  25.912  28.212  1.00  0.00     0.142 A 
ATOM      7  C   UNL     1      17.071  27.007  28.717  1.00  0.00     0.098 A 
ATOM      8  C   UNL     1      16.516  28.293  28.665  1.00  0.00     0.161 A 
ATOM      9  C   UNL     1      15.244  28.487  28.104  1.00  0.00     0.158 A 
ATOM     10  C   UNL     1      14.528  27.393  27.595  1.00  0.00     0.062 A 
ATOM     11  C   UNL     1      15.082  26.107  27.647  1.00  0.00     0.022 A 
ENDROOT
BRANCH   9  12
ATOM     12  O   UNL     1      14.700  29.769  28.056  1.00  0.00    -0.504 OA
ATOM     13  H   UNL     1      14.386  30.244  28.894  1.00  0.00     0.293 HD
ENDBRANCH   9  12
BRANCH   8  14
ATOM     14  O   UNL     1      17.220  29.385  29.167  1.00  0.00    -0.504 OA
ATOM     15  H   UNL     1      17.382  29.500  30.162  1.00  0.00     0.293 HD
ENDBRANCH   8  14
TORSDOF 2
ENDMDL
