MODEL 1
REMARK VINA RESULT:    -2.644      0.000      0.000
REMARK INTER + INTRA:          -2.644
REMARK INTER:                  -2.644
REMARK INTRA:                   0.000
REMARK UNBOUND:                 0.000
REMARK SMILES CC(=O)[O-]
REMARK SMILES IDX 1 1 2 2 3 3 4 4
REMARK H PARENT
REMARK Flexibility Score: inf
ROOT
ATOM      1  C   UNL     1       0.819   8.268  19.661  1.00  0.00     0.063 C 
ATOM      2  C   UNL     1       0.154   6.981  20.016  1.00  0.00     0.038 C 
ATOM      3  O   UNL     1      -0.251   6.781  21.190  1.00  0.00    -0.550 OA
ATOM      4  O   UNL     1      -0.067   6.020  19.038  1.00  0.00    -0.550 OA
ENDROOT
TORSDOF 0
ENDMDL
MODEL 2
REMARK VINA RESULT:    -2.582      2.670      2.899
REMARK INTER + INTRA:          -2.582
REMARK INTER:                  -2.582
REMARK INTRA:                   0.000
REMARK UNBOUND:                 0.000
REMARK SMILES CC(=O)[O-]
REMARK SMILES IDX 1 1 2 2 3 3 4 4
REMARK H PARENT
REMARK Flexibility Score: inf
ROOT
ATOM      1  C   UNL     1      -0.063   6.779  20.995  1.00  0.00     0.063 C 
ATOM      2  C   UNL     1       0.118   6.666  22.471  1.00  0.00     0.038 C 
ATOM      3  O   UNL     1      -0.884   6.658  23.233  1.00  0.00    -0.550 OA
ATOM      4  O   UNL     1       1.391   6.514  23.006  1.00  0.00    -0.550 OA
ENDROOT
TORSDOF 0
ENDMDL
MODEL 3
REMARK VINA RESULT:    -2.573      2.079      2.797
REMARK INTER + INTRA:          -2.573
REMARK INTER:                  -2.573
REMARK INTRA:                   0.000
REMARK UNBOUND:                 0.000
REMARK SMILES CC(=O)[O-]
REMARK SMILES IDX 1 1 2 2 3 3 4 4
REMARK H PARENT
REMARK Flexibility Score: inf
ROOT
ATOM      1  C   UNL     1      -0.532   6.616  22.940  1.00  0.00     0.063 C 
ATOM      2  C   UNL     1       0.378   6.739  21.766  1.00  0.00     0.038 C 
ATOM      3  O   UNL     1      -0.097   6.826  20.604  1.00  0.00    -0.550 OA
ATOM      4  O   UNL     1       1.752   6.814  21.956  1.00  0.00    -0.550 OA
ENDROOT
TORSDOF 0
ENDMDL
MODEL 4
REMARK VINA RESULT:    -2.538      1.385      2.028
REMARK INTER + INTRA:          -2.538
REMARK INTER:                  -2.538
REMARK INTRA:                   0.000
REMARK UNBOUND:                 0.000
REMARK SMILES CC(=O)[O-]
REMARK SMILES IDX 1 1 2 2 3 3 4 4
REMARK H PARENT
REMARK Flexibility Score: inf
ROOT
ATOM      1  C   UNL     1      -0.153   6.283  18.883  1.00  0.00     0.063 C 
ATOM      2  C   UNL     1       0.176   7.172  20.035  1.00  0.00     0.038 C 
ATOM      3  O   UNL     1       0.764   8.267  19.841  1.00  0.00    -0.550 OA
ATOM      4  O   UNL     1      -0.215   6.817  21.320  1.00  0.00    -0.550 OA
ENDROOT
TORSDOF 0
ENDMDL
MODEL 5
REMARK VINA RESULT:    -2.436      1.408      1.691
REMARK INTER + INTRA:          -2.436
REMARK INTER:                  -2.436
REMARK INTRA:                   0.000
REMARK UNBOUND:                 0.000
REMARK SMILES CC(=O)[O-]
REMARK SMILES IDX 1 1 2 2 3 3 4 4
REMARK H PARENT
REMARK Flexibility Score: inf
ROOT
ATOM      1  C   UNL     1       0.186   6.844  21.395  1.00  0.00     0.063 C 
ATOM      2  C   UNL     1       0.213   7.262  19.964  1.00  0.00     0.038 C 
ATOM      3  O   UNL     1       0.616   8.412  19.649  1.00  0.00    -0.550 OA
ATOM      4  O   UNL     1      -0.156   6.365  18.970  1.00  0.00    -0.550 OA
ENDROOT
TORSDOF 0
ENDMDL
MODEL 6
REMARK VINA RESULT:    -2.403      2.095      2.330
REMARK INTER + INTRA:          -2.403
REMARK INTER:                  -2.403
REMARK INTRA:                   0.000
REMARK UNBOUND:                 0.000
REMARK SMILES CC(=O)[O-]
REMARK SMILES IDX 1 1 2 2 3 3 4 4
REMARK H PARENT
REMARK Flexibility Score: inf
ROOT
ATOM      1  C   UNL     1       0.217   7.241  20.338  1.00  0.00     0.063 C 
ATOM      2  C   UNL     1       1.014   8.227  19.553  1.00  0.00     0.038 C 
ATOM      3  O   UNL     1       1.918   8.899  20.114  1.00  0.00    -0.550 OA
ATOM      4  O   UNL     1       0.796   8.368  18.189  1.00  0.00    -0.550 OA
ENDROOT
TORSDOF 0
ENDMDL
MODEL 7
REMARK VINA RESULT:    -2.378      2.001      2.388
REMARK INTER + INTRA:          -2.378
REMARK INTER:                  -2.378
REMARK INTRA:                   0.000
REMARK UNBOUND:                 0.000
REMARK SMILES CC(=O)[O-]
REMARK SMILES IDX 1 1 2 2 3 3 4 4
REMARK H PARENT
REMARK Flexibility Score: inf
ROOT
ATOM      1  C   UNL     1       1.102   8.509  18.094  1.00  0.00     0.063 C 
ATOM      2  C   UNL     1       1.117   8.375  19.580  1.00  0.00     0.038 C 
ATOM      3  O   UNL     1       0.206   7.735  20.166  1.00  0.00    -0.550 OA
ATOM      4  O   UNL     1       2.167   8.910  20.315  1.00  0.00    -0.550 OA
ENDROOT
TORSDOF 0
ENDMDL
MODEL 8
REMARK VINA RESULT:    -2.240      4.514      5.017
REMARK INTER + INTRA:          -2.240
REMARK INTER:                  -2.240
REMARK INTRA:                   0.000
REMARK UNBOUND:                 0.000
REMARK SMILES CC(=O)[O-]
REMARK SMILES IDX 1 1 2 2 3 3 4 4
REMARK H PARENT
REMARK Flexibility Score: inf
ROOT
ATOM      1  C   UNL     1      -0.486   5.006  17.304  1.00  0.00     0.063 C 
ATOM      2  C   UNL     1      -1.170   3.944  16.511  1.00  0.00     0.038 C 
ATOM      3  O   UNL     1      -1.544   4.178  15.332  1.00  0.00    -0.550 OA
ATOM      4  O   UNL     1      -1.348   2.677  17.051  1.00  0.00    -0.550 OA
ENDROOT
TORSDOF 0
ENDMDL
MODEL 9
REMARK VINA RESULT:    -2.222      4.657      5.074
REMARK INTER + INTRA:          -2.222
REMARK INTER:                  -2.222
REMARK INTRA:                   0.000
REMARK UNBOUND:                 0.000
REMARK SMILES CC(=O)[O-]
REMARK SMILES IDX 1 1 2 2 3 3 4 4
REMARK H PARENT
REMARK Flexibility Score: inf
ROOT
ATOM      1  C   UNL     1      -0.581   4.803  17.205  1.00  0.00     0.063 C 
ATOM      2  C   UNL     1      -1.298   3.681  16.532  1.00  0.00     0.038 C 
ATOM      3  O   UNL     1      -1.355   2.549  17.079  1.00  0.00    -0.550 OA
ATOM      4  O   UNL     1      -1.952   3.898  15.326  1.00  0.00    -0.550 OA
ENDROOT
TORSDOF 0
ENDMDL
