MODEL 1
REMARK VINA RESULT:    -4.011      0.000      0.000
REMARK INTER + INTRA:         -11.727
REMARK INTER:                  -8.702
REMARK INTRA:                  -3.025
REMARK UNBOUND:                -3.025
REMARK SMILES CCCCCCCCCCCCCCCCCCCCCC(=O)[O-]
REMARK SMILES IDX 12 1 11 2 10 3 9 4 8 5 7 6 6 7 5 8 4 9 3 10 2 11 1 12 13 13
REMARK SMILES IDX 14 14 15 15 16 16 17 17 18 18 19 19 20 20 21 21 22 22 23 23
REMARK SMILES IDX 24 24
REMARK H PARENT
REMARK Flexibility Score: inf
ROOT
ATOM      1  C   UNL     1      14.372 131.288  59.074  1.00  0.00     0.000 C 
ENDROOT
BRANCH   1   2
ATOM      2  C   UNL     1      15.274 131.961  58.016  1.00  0.00     0.000 C 
BRANCH   2   3
ATOM      3  C   UNL     1      16.643 131.276  57.889  1.00  0.00     0.000 C 
BRANCH   3   4
ATOM      4  C   UNL     1      16.842 130.708  56.476  1.00  0.00    -0.000 C 
BRANCH   4   5
ATOM      5  C   UNL     1      16.069 131.493  55.402  1.00  0.00    -0.000 C 
BRANCH   5   6
ATOM      6  C   UNL     1      16.950 132.299  54.427  1.00  0.00    -0.000 C 
BRANCH   6   7
ATOM      7  C   UNL     1      16.778 133.828  54.556  1.00  0.00    -0.000 C 
BRANCH   7   8
ATOM      8  C   UNL     1      17.316 134.360  55.895  1.00  0.00    -0.000 C 
BRANCH   8   9
ATOM      9  C   UNL     1      18.851 134.311  55.977  1.00  0.00    -0.000 C 
BRANCH   9  10
ATOM     10  C   UNL     1      19.352 134.230  57.431  1.00  0.00    -0.000 C 
BRANCH  10  11
ATOM     11  C   UNL     1      19.854 132.825  57.805  1.00  0.00    -0.003 C 
ATOM     12  C   UNL     1      20.551 132.113  56.643  1.00  0.00     0.004 C 
ENDBRANCH  10  11
ENDBRANCH   9  10
ENDBRANCH   8   9
ENDBRANCH   7   8
ENDBRANCH   6   7
ENDBRANCH   5   6
ENDBRANCH   4   5
ENDBRANCH   3   4
ENDBRANCH   2   3
ENDBRANCH   1   2
BRANCH   1  13
ATOM     13  C   UNL     1      14.958 131.311  60.498  1.00  0.00     0.000 C 
BRANCH  13  14
ATOM     14  C   UNL     1      15.044 132.704  61.153  1.00  0.00     0.000 C 
BRANCH  14  15
ATOM     15  C   UNL     1      16.403 133.036  61.801  1.00  0.00     0.000 C 
BRANCH  15  16
ATOM     16  C   UNL     1      17.504 133.321  60.764  1.00  0.00     0.000 C 
BRANCH  16  17
ATOM     17  C   UNL     1      18.917 133.122  61.335  1.00  0.00     0.000 C 
BRANCH  17  18
ATOM     18  C   UNL     1      18.929 133.004  62.869  1.00  0.00     0.000 C 
BRANCH  18  19
ATOM     19  C   UNL     1      19.652 131.738  63.355  1.00  0.00     0.000 C 
BRANCH  19  20
ATOM     20  C   UNL     1      18.958 131.092  64.569  1.00  0.00     0.006 C 
BRANCH  20  21
ATOM     21  C   UNL     1      17.760 130.224  64.157  1.00  0.00     0.053 C 
BRANCH  21  22
ATOM     22  C   UNL     1      18.082 128.763  64.237  1.00  0.00     0.041 C 
ATOM     23  O   UNL     1      19.281 128.376  64.283  1.00  0.00    -0.550 OA
ATOM     24  O   UNL     1      17.056 127.825  64.254  1.00  0.00    -0.550 OA
ENDBRANCH  21  22
ENDBRANCH  20  21
ENDBRANCH  19  20
ENDBRANCH  18  19
ENDBRANCH  17  18
ENDBRANCH  16  17
ENDBRANCH  15  16
ENDBRANCH  14  15
ENDBRANCH  13  14
ENDBRANCH   1  13
TORSDOF 20
ENDMDL
MODEL 2
REMARK VINA RESULT:    -3.977      1.836      3.695
REMARK INTER + INTRA:         -11.653
REMARK INTER:                  -8.425
REMARK INTRA:                  -3.228
REMARK UNBOUND:                -3.025
REMARK SMILES CCCCCCCCCCCCCCCCCCCCCC(=O)[O-]
REMARK SMILES IDX 12 1 11 2 10 3 9 4 8 5 7 6 6 7 5 8 4 9 3 10 2 11 1 12 13 13
REMARK SMILES IDX 14 14 15 15 16 16 17 17 18 18 19 19 20 20 21 21 22 22 23 23
REMARK SMILES IDX 24 24
REMARK H PARENT
REMARK Flexibility Score: inf
ROOT
ATOM      1  C   UNL     1      15.047 131.586  61.088  1.00  0.00     0.000 C 
ENDROOT
BRANCH   1   2
ATOM      2  C   UNL     1      14.067 132.766  61.266  1.00  0.00     0.000 C 
BRANCH   2   3
ATOM      3  C   UNL     1      13.685 133.421  59.929  1.00  0.00     0.000 C 
BRANCH   3   4
ATOM      4  C   UNL     1      14.758 134.426  59.486  1.00  0.00    -0.000 C 
BRANCH   4   5
ATOM      5  C   UNL     1      15.606 133.916  58.310  1.00  0.00    -0.000 C 
BRANCH   5   6
ATOM      6  C   UNL     1      17.118 133.808  58.597  1.00  0.00    -0.000 C 
BRANCH   6   7
ATOM      7  C   UNL     1      17.686 132.385  58.404  1.00  0.00    -0.000 C 
BRANCH   7   8
ATOM      8  C   UNL     1      16.622 131.404  57.882  1.00  0.00    -0.000 C 
BRANCH   8   9
ATOM      9  C   UNL     1      16.979 130.821  56.504  1.00  0.00    -0.000 C 
BRANCH   9  10
ATOM     10  C   UNL     1      16.700 131.817  55.364  1.00  0.00    -0.000 C 
BRANCH  10  11
ATOM     11  C   UNL     1      15.346 131.567  54.679  1.00  0.00    -0.003 C 
ATOM     12  C   UNL     1      14.296 132.623  55.031  1.00  0.00     0.004 C 
ENDBRANCH  10  11
ENDBRANCH   9  10
ENDBRANCH   8   9
ENDBRANCH   7   8
ENDBRANCH   6   7
ENDBRANCH   5   6
ENDBRANCH   4   5
ENDBRANCH   3   4
ENDBRANCH   2   3
ENDBRANCH   1   2
BRANCH   1  13
ATOM     13  C   UNL     1      16.234 131.610  62.070  1.00  0.00     0.000 C 
BRANCH  13  14
ATOM     14  C   UNL     1      16.861 132.996  62.315  1.00  0.00     0.000 C 
BRANCH  14  15
ATOM     15  C   UNL     1      18.368 133.095  62.007  1.00  0.00     0.000 C 
BRANCH  15  16
ATOM     16  C   UNL     1      19.233 132.295  62.997  1.00  0.00     0.000 C 
BRANCH  16  17
ATOM     17  C   UNL     1      18.798 132.497  64.457  1.00  0.00     0.000 C 
BRANCH  17  18
ATOM     18  C   UNL     1      18.714 131.178  65.243  1.00  0.00     0.000 C 
BRANCH  18  19
ATOM     19  C   UNL     1      18.830 129.944  64.333  1.00  0.00     0.000 C 
BRANCH  19  20
ATOM     20  C   UNL     1      17.563 129.069  64.362  1.00  0.00     0.006 C 
BRANCH  20  21
ATOM     21  C   UNL     1      16.458 129.680  65.236  1.00  0.00     0.053 C 
BRANCH  21  22
ATOM     22  C   UNL     1      15.644 128.623  65.920  1.00  0.00     0.041 C 
ATOM     23  O   UNL     1      14.906 128.921  66.897  1.00  0.00    -0.550 OA
ATOM     24  O   UNL     1      15.705 127.306  65.480  1.00  0.00    -0.550 OA
ENDBRANCH  21  22
ENDBRANCH  20  21
ENDBRANCH  19  20
ENDBRANCH  18  19
ENDBRANCH  17  18
ENDBRANCH  16  17
ENDBRANCH  15  16
ENDBRANCH  14  15
ENDBRANCH  13  14
ENDBRANCH   1  13
TORSDOF 20
ENDMDL
MODEL 3
REMARK VINA RESULT:    -3.937      1.341      3.833
REMARK INTER + INTRA:         -11.565
REMARK INTER:                  -8.803
REMARK INTRA:                  -2.762
REMARK UNBOUND:                -3.025
REMARK SMILES CCCCCCCCCCCCCCCCCCCCCC(=O)[O-]
REMARK SMILES IDX 12 1 11 2 10 3 9 4 8 5 7 6 6 7 5 8 4 9 3 10 2 11 1 12 13 13
REMARK SMILES IDX 14 14 15 15 16 16 17 17 18 18 19 19 20 20 21 21 22 22 23 23
REMARK SMILES IDX 24 24
REMARK H PARENT
REMARK Flexibility Score: inf
ROOT
ATOM      1  C   UNL     1      18.360 133.686  58.117  1.00  0.00     0.000 C 
ENDROOT
BRANCH   1   2
ATOM      2  C   UNL     1      19.692 133.270  57.456  1.00  0.00     0.000 C 
BRANCH   2   3
ATOM      3  C   UNL     1      19.523 132.097  56.479  1.00  0.00     0.000 C 
BRANCH   3   4
ATOM      4  C   UNL     1      18.222 132.239  55.674  1.00  0.00    -0.000 C 
BRANCH   4   5
ATOM      5  C   UNL     1      17.371 130.958  55.683  1.00  0.00    -0.000 C 
BRANCH   5   6
ATOM      6  C   UNL     1      16.286 130.907  56.778  1.00  0.00    -0.000 C 
BRANCH   6   7
ATOM      7  C   UNL     1      15.199 131.993  56.624  1.00  0.00    -0.000 C 
BRANCH   7   8
ATOM      8  C   UNL     1      14.662 132.471  57.985  1.00  0.00    -0.000 C 
BRANCH   8   9
ATOM      9  C   UNL     1      14.353 131.307  58.942  1.00  0.00    -0.000 C 
BRANCH   9  10
ATOM     10  C   UNL     1      15.036 131.485  60.310  1.00  0.00    -0.000 C 
BRANCH  10  11
ATOM     11  C   UNL     1      14.174 132.283  61.301  1.00  0.00    -0.003 C 
ATOM     12  C   UNL     1      14.473 133.784  61.276  1.00  0.00     0.004 C 
ENDBRANCH  10  11
ENDBRANCH   9  10
ENDBRANCH   8   9
ENDBRANCH   7   8
ENDBRANCH   6   7
ENDBRANCH   5   6
ENDBRANCH   4   5
ENDBRANCH   3   4
ENDBRANCH   2   3
ENDBRANCH   1   2
BRANCH   1  13
ATOM     13  C   UNL     1      18.201 133.186  59.566  1.00  0.00     0.000 C 
BRANCH  13  14
ATOM     14  C   UNL     1      19.363 133.535  60.515  1.00  0.00     0.000 C 
BRANCH  14  15
ATOM     15  C   UNL     1      19.301 132.856  61.898  1.00  0.00     0.000 C 
BRANCH  15  16
ATOM     16  C   UNL     1      17.862 132.573  62.360  1.00  0.00     0.000 C 
BRANCH  16  17
ATOM     17  C   UNL     1      17.400 133.529  63.471  1.00  0.00     0.000 C 
BRANCH  17  18
ATOM     18  C   UNL     1      17.233 132.829  64.830  1.00  0.00     0.000 C 
BRANCH  18  19
ATOM     19  C   UNL     1      18.575 132.374  65.426  1.00  0.00     0.000 C 
BRANCH  19  20
ATOM     20  C   UNL     1      18.547 130.905  65.887  1.00  0.00     0.006 C 
BRANCH  20  21
ATOM     21  C   UNL     1      18.877 129.933  64.745  1.00  0.00     0.053 C 
BRANCH  21  22
ATOM     22  C   UNL     1      17.757 128.968  64.497  1.00  0.00     0.041 C 
ATOM     23  O   UNL     1      16.646 129.122  65.072  1.00  0.00    -0.550 OA
ATOM     24  O   UNL     1      17.943 127.895  63.634  1.00  0.00    -0.550 OA
ENDBRANCH  21  22
ENDBRANCH  20  21
ENDBRANCH  19  20
ENDBRANCH  18  19
ENDBRANCH  17  18
ENDBRANCH  16  17
ENDBRANCH  15  16
ENDBRANCH  14  15
ENDBRANCH  13  14
ENDBRANCH   1  13
TORSDOF 20
ENDMDL
MODEL 4
REMARK VINA RESULT:    -3.902      2.765      6.909
REMARK INTER + INTRA:         -11.489
REMARK INTER:                  -8.404
REMARK INTRA:                  -3.085
REMARK UNBOUND:                -3.025
REMARK SMILES CCCCCCCCCCCCCCCCCCCCCC(=O)[O-]
REMARK SMILES IDX 12 1 11 2 10 3 9 4 8 5 7 6 6 7 5 8 4 9 3 10 2 11 1 12 13 13
REMARK SMILES IDX 14 14 15 15 16 16 17 17 18 18 19 19 20 20 21 21 22 22 23 23
REMARK SMILES IDX 24 24
REMARK H PARENT
REMARK Flexibility Score: inf
ROOT
ATOM      1  C   UNL     1      14.912 134.436  60.987  1.00  0.00     0.000 C 
ENDROOT
BRANCH   1   2
ATOM      2  C   UNL     1      15.898 135.113  61.964  1.00  0.00     0.000 C 
BRANCH   2   3
ATOM      3  C   UNL     1      17.298 135.293  61.355  1.00  0.00     0.000 C 
BRANCH   3   4
ATOM      4  C   UNL     1      17.492 134.365  60.147  1.00  0.00    -0.000 C 
BRANCH   4   5
ATOM      5  C   UNL     1      18.468 133.210  60.431  1.00  0.00    -0.000 C 
BRANCH   5   6
ATOM      6  C   UNL     1      19.454 133.464  61.589  1.00  0.00    -0.000 C 
BRANCH   6   7
ATOM      7  C   UNL     1      19.481 132.332  62.639  1.00  0.00    -0.000 C 
BRANCH   7   8
ATOM      8  C   UNL     1      18.494 132.588  63.792  1.00  0.00    -0.000 C 
BRANCH   8   9
ATOM      9  C   UNL     1      18.808 131.743  65.038  1.00  0.00    -0.000 C 
BRANCH   9  10
ATOM     10  C   UNL     1      18.883 130.239  64.716  1.00  0.00    -0.000 C 
BRANCH  10  11
ATOM     11  C   UNL     1      17.566 129.692  64.141  1.00  0.00    -0.003 C 
ATOM     12  C   UNL     1      17.508 128.162  64.138  1.00  0.00     0.004 C 
ENDBRANCH  10  11
ENDBRANCH   9  10
ENDBRANCH   8   9
ENDBRANCH   7   8
ENDBRANCH   6   7
ENDBRANCH   5   6
ENDBRANCH   4   5
ENDBRANCH   3   4
ENDBRANCH   2   3
ENDBRANCH   1   2
BRANCH   1  13
ATOM     13  C   UNL     1      14.174 133.223  61.587  1.00  0.00     0.000 C 
BRANCH  13  14
ATOM     14  C   UNL     1      15.050 131.983  61.852  1.00  0.00     0.000 C 
BRANCH  14  15
ATOM     15  C   UNL     1      15.463 131.196  60.593  1.00  0.00     0.000 C 
BRANCH  15  16
ATOM     16  C   UNL     1      14.431 131.304  59.457  1.00  0.00     0.000 C 
BRANCH  16  17
ATOM     17  C   UNL     1      15.060 131.761  58.131  1.00  0.00     0.000 C 
BRANCH  17  18
ATOM     18  C   UNL     1      16.571 131.485  58.060  1.00  0.00     0.000 C 
BRANCH  18  19
ATOM     19  C   UNL     1      16.989 130.835  56.731  1.00  0.00     0.000 C 
BRANCH  19  20
ATOM     20  C   UNL     1      18.284 131.441  56.160  1.00  0.00     0.006 C 
BRANCH  20  21
ATOM     21  C   UNL     1      18.422 132.933  56.493  1.00  0.00     0.053 C 
BRANCH  21  22
ATOM     22  C   UNL     1      19.801 133.270  56.970  1.00  0.00     0.041 C 
ATOM     23  O   UNL     1      20.294 134.408  56.741  1.00  0.00    -0.550 OA
ATOM     24  O   UNL     1      20.547 132.324  57.664  1.00  0.00    -0.550 OA
ENDBRANCH  21  22
ENDBRANCH  20  21
ENDBRANCH  19  20
ENDBRANCH  18  19
ENDBRANCH  17  18
ENDBRANCH  16  17
ENDBRANCH  15  16
ENDBRANCH  14  15
ENDBRANCH  13  14
ENDBRANCH   1  13
TORSDOF 20
ENDMDL
MODEL 5
REMARK VINA RESULT:    -3.837      3.992      7.848
REMARK INTER + INTRA:         -11.348
REMARK INTER:                  -8.742
REMARK INTRA:                  -2.606
REMARK UNBOUND:                -3.025
REMARK SMILES CCCCCCCCCCCCCCCCCCCCCC(=O)[O-]
REMARK SMILES IDX 12 1 11 2 10 3 9 4 8 5 7 6 6 7 5 8 4 9 3 10 2 11 1 12 13 13
REMARK SMILES IDX 14 14 15 15 16 16 17 17 18 18 19 19 20 20 21 21 22 22 23 23
REMARK SMILES IDX 24 24
REMARK H PARENT
REMARK Flexibility Score: inf
ROOT
ATOM      1  C   UNL     1      15.073 131.269  60.637  1.00  0.00     0.000 C 
ENDROOT
BRANCH   1   2
ATOM      2  C   UNL     1      14.493 132.011  61.862  1.00  0.00     0.000 C 
BRANCH   2   3
ATOM      3  C   UNL     1      15.587 132.580  62.778  1.00  0.00     0.000 C 
BRANCH   3   4
ATOM      4  C   UNL     1      16.513 133.528  62.000  1.00  0.00    -0.000 C 
BRANCH   4   5
ATOM      5  C   UNL     1      17.915 133.639  62.622  1.00  0.00    -0.000 C 
BRANCH   5   6
ATOM      6  C   UNL     1      18.914 132.556  62.167  1.00  0.00    -0.000 C 
BRANCH   6   7
ATOM      7  C   UNL     1      19.645 131.858  63.333  1.00  0.00    -0.000 C 
BRANCH   7   8
ATOM      8  C   UNL     1      18.860 131.959  64.652  1.00  0.00    -0.000 C 
BRANCH   8   9
ATOM      9  C   UNL     1      18.476 130.582  65.220  1.00  0.00    -0.000 C 
BRANCH   9  10
ATOM     10  C   UNL     1      17.573 129.789  64.258  1.00  0.00    -0.000 C 
BRANCH  10  11
ATOM     11  C   UNL     1      18.091 128.364  64.001  1.00  0.00    -0.003 C 
ATOM     12  C   UNL     1      19.571 128.197  64.353  1.00  0.00     0.004 C 
ENDBRANCH  10  11
ENDBRANCH   9  10
ENDBRANCH   8   9
ENDBRANCH   7   8
ENDBRANCH   6   7
ENDBRANCH   5   6
ENDBRANCH   4   5
ENDBRANCH   3   4
ENDBRANCH   2   3
ENDBRANCH   1   2
BRANCH   1  13
ATOM     13  C   UNL     1      14.536 131.781  59.287  1.00  0.00     0.000 C 
BRANCH  13  14
ATOM     14  C   UNL     1      15.414 131.458  58.062  1.00  0.00     0.000 C 
BRANCH  14  15
ATOM     15  C   UNL     1      16.902 131.830  58.211  1.00  0.00     0.000 C 
BRANCH  15  16
ATOM     16  C   UNL     1      17.132 133.349  58.291  1.00  0.00     0.000 C 
BRANCH  16  17
ATOM     17  C   UNL     1      18.522 133.707  58.842  1.00  0.00     0.000 C 
BRANCH  17  18
ATOM     18  C   UNL     1      19.667 133.094  58.018  1.00  0.00     0.000 C 
BRANCH  18  19
ATOM     19  C   UNL     1      20.106 134.002  56.857  1.00  0.00     0.000 C 
BRANCH  19  20
ATOM     20  C   UNL     1      19.864 135.494  57.151  1.00  0.00     0.006 C 
BRANCH  20  21
ATOM     21  C   UNL     1      19.431 136.268  55.898  1.00  0.00     0.053 C 
BRANCH  21  22
ATOM     22  C   UNL     1      19.403 137.746  56.142  1.00  0.00     0.041 C 
ATOM     23  O   UNL     1      20.088 138.251  57.073  1.00  0.00    -0.550 OA
ATOM     24  O   UNL     1      18.616 138.568  55.344  1.00  0.00    -0.550 OA
ENDBRANCH  21  22
ENDBRANCH  20  21
ENDBRANCH  19  20
ENDBRANCH  18  19
ENDBRANCH  17  18
ENDBRANCH  16  17
ENDBRANCH  15  16
ENDBRANCH  14  15
ENDBRANCH  13  14
ENDBRANCH   1  13
TORSDOF 20
ENDMDL
MODEL 6
REMARK VINA RESULT:    -3.794      1.946      3.836
REMARK INTER + INTRA:         -11.255
REMARK INTER:                  -6.960
REMARK INTRA:                  -4.295
REMARK UNBOUND:                -3.025
REMARK SMILES CCCCCCCCCCCCCCCCCCCCCC(=O)[O-]
REMARK SMILES IDX 12 1 11 2 10 3 9 4 8 5 7 6 6 7 5 8 4 9 3 10 2 11 1 12 13 13
REMARK SMILES IDX 14 14 15 15 16 16 17 17 18 18 19 19 20 20 21 21 22 22 23 23
REMARK SMILES IDX 24 24
REMARK H PARENT
REMARK Flexibility Score: inf
ROOT
ATOM      1  C   UNL     1      17.867 132.910  58.830  1.00  0.00     0.000 C 
ENDROOT
BRANCH   1   2
ATOM      2  C   UNL     1      18.862 132.730  57.662  1.00  0.00     0.000 C 
BRANCH   2   3
ATOM      3  C   UNL     1      18.271 131.906  56.508  1.00  0.00     0.000 C 
BRANCH   3   4
ATOM      4  C   UNL     1      16.996 131.174  56.956  1.00  0.00    -0.000 C 
BRANCH   4   5
ATOM      5  C   UNL     1      15.864 131.257  55.919  1.00  0.00    -0.000 C 
BRANCH   5   6
ATOM      6  C   UNL     1      16.331 131.337  54.452  1.00  0.00    -0.000 C 
BRANCH   6   7
ATOM      7  C   UNL     1      15.869 132.617  53.723  1.00  0.00    -0.000 C 
BRANCH   7   8
ATOM      8  C   UNL     1      15.286 133.657  54.694  1.00  0.00    -0.000 C 
BRANCH   8   9
ATOM      9  C   UNL     1      15.918 135.049  54.522  1.00  0.00    -0.000 C 
BRANCH   9  10
ATOM     10  C   UNL     1      17.119 135.260  55.462  1.00  0.00    -0.000 C 
BRANCH  10  11
ATOM     11  C   UNL     1      18.463 135.252  54.715  1.00  0.00    -0.003 C 
ATOM     12  C   UNL     1      18.304 135.431  53.203  1.00  0.00     0.004 C 
ENDBRANCH  10  11
ENDBRANCH   9  10
ENDBRANCH   8   9
ENDBRANCH   7   8
ENDBRANCH   6   7
ENDBRANCH   5   6
ENDBRANCH   4   5
ENDBRANCH   3   4
ENDBRANCH   2   3
ENDBRANCH   1   2
BRANCH   1  13
ATOM     13  C   UNL     1      17.637 134.379  59.232  1.00  0.00     0.000 C 
BRANCH  13  14
ATOM     14  C   UNL     1      16.162 134.816  59.320  1.00  0.00     0.000 C 
BRANCH  14  15
ATOM     15  C   UNL     1      15.224 134.155  58.290  1.00  0.00     0.000 C 
BRANCH  15  16
ATOM     16  C   UNL     1      13.892 133.695  58.906  1.00  0.00     0.000 C 
BRANCH  16  17
ATOM     17  C   UNL     1      13.637 132.193  58.705  1.00  0.00     0.000 C 
BRANCH  17  18
ATOM     18  C   UNL     1      14.475 131.314  59.648  1.00  0.00     0.000 C 
BRANCH  18  19
ATOM     19  C   UNL     1      14.652 131.946  61.038  1.00  0.00     0.000 C 
BRANCH  19  20
ATOM     20  C   UNL     1      15.965 131.518  61.718  1.00  0.00     0.006 C 
BRANCH  20  21
ATOM     21  C   UNL     1      16.609 132.665  62.509  1.00  0.00     0.053 C 
BRANCH  21  22
ATOM     22  C   UNL     1      18.057 132.401  62.790  1.00  0.00     0.041 C 
ATOM     23  O   UNL     1      18.949 133.128  62.273  1.00  0.00    -0.550 OA
ATOM     24  O   UNL     1      18.424 131.347  63.619  1.00  0.00    -0.550 OA
ENDBRANCH  21  22
ENDBRANCH  20  21
ENDBRANCH  19  20
ENDBRANCH  18  19
ENDBRANCH  17  18
ENDBRANCH  16  17
ENDBRANCH  15  16
ENDBRANCH  14  15
ENDBRANCH  13  14
ENDBRANCH   1  13
TORSDOF 20
ENDMDL
MODEL 7
REMARK VINA RESULT:    -3.791      3.590      7.445
REMARK INTER + INTRA:         -11.248
REMARK INTER:                  -8.100
REMARK INTRA:                  -3.148
REMARK UNBOUND:                -3.025
REMARK SMILES CCCCCCCCCCCCCCCCCCCCCC(=O)[O-]
REMARK SMILES IDX 12 1 11 2 10 3 9 4 8 5 7 6 6 7 5 8 4 9 3 10 2 11 1 12 13 13
REMARK SMILES IDX 14 14 15 15 16 16 17 17 18 18 19 19 20 20 21 21 22 22 23 23
REMARK SMILES IDX 24 24
REMARK H PARENT
REMARK Flexibility Score: inf
ROOT
ATOM      1  C   UNL     1      14.746 131.295  60.208  1.00  0.00     0.000 C 
ENDROOT
BRANCH   1   2
ATOM      2  C   UNL     1      15.988 131.631  61.061  1.00  0.00     0.000 C 
BRANCH   2   3
ATOM      3  C   UNL     1      16.022 133.103  61.497  1.00  0.00     0.000 C 
BRANCH   3   4
ATOM      4  C   UNL     1      17.308 133.789  61.008  1.00  0.00    -0.000 C 
BRANCH   4   5
ATOM      5  C   UNL     1      18.449 133.721  62.037  1.00  0.00    -0.000 C 
BRANCH   5   6
ATOM      6  C   UNL     1      19.618 132.794  61.649  1.00  0.00    -0.000 C 
BRANCH   6   7
ATOM      7  C   UNL     1      20.189 131.987  62.836  1.00  0.00    -0.000 C 
BRANCH   7   8
ATOM      8  C   UNL     1      19.080 131.318  63.667  1.00  0.00    -0.000 C 
BRANCH   8   9
ATOM      9  C   UNL     1      18.920 131.952  65.059  1.00  0.00    -0.000 C 
BRANCH   9  10
ATOM     10  C   UNL     1      17.441 132.111  65.457  1.00  0.00    -0.000 C 
BRANCH  10  11
ATOM     11  C   UNL     1      16.515 131.158  64.684  1.00  0.00    -0.003 C 
ATOM     12  C   UNL     1      15.039 131.551  64.785  1.00  0.00     0.004 C 
ENDBRANCH  10  11
ENDBRANCH   9  10
ENDBRANCH   8   9
ENDBRANCH   7   8
ENDBRANCH   6   7
ENDBRANCH   5   6
ENDBRANCH   4   5
ENDBRANCH   3   4
ENDBRANCH   2   3
ENDBRANCH   1   2
BRANCH   1  13
ATOM     13  C   UNL     1      14.012 132.535  59.662  1.00  0.00     0.000 C 
BRANCH  13  14
ATOM     14  C   UNL     1      13.779 132.547  58.139  1.00  0.00     0.000 C 
BRANCH  14  15
ATOM     15  C   UNL     1      15.041 132.792  57.288  1.00  0.00     0.000 C 
BRANCH  15  16
ATOM     16  C   UNL     1      15.471 131.551  56.487  1.00  0.00     0.000 C 
BRANCH  16  17
ATOM     17  C   UNL     1      16.853 131.027  56.907  1.00  0.00     0.000 C 
BRANCH  17  18
ATOM     18  C   UNL     1      17.584 131.978  57.870  1.00  0.00     0.000 C 
BRANCH  18  19
ATOM     19  C   UNL     1      18.964 132.404  57.340  1.00  0.00     0.000 C 
BRANCH  19  20
ATOM     20  C   UNL     1      19.279 133.881  57.637  1.00  0.00     0.006 C 
BRANCH  20  21
ATOM     21  C   UNL     1      19.300 134.737  56.362  1.00  0.00     0.053 C 
BRANCH  21  22
ATOM     22  C   UNL     1      20.242 135.895  56.487  1.00  0.00     0.041 C 
ATOM     23  O   UNL     1      21.489 135.703  56.501  1.00  0.00    -0.550 OA
ATOM     24  O   UNL     1      19.745 137.188  56.594  1.00  0.00    -0.550 OA
ENDBRANCH  21  22
ENDBRANCH  20  21
ENDBRANCH  19  20
ENDBRANCH  18  19
ENDBRANCH  17  18
ENDBRANCH  16  17
ENDBRANCH  15  16
ENDBRANCH  14  15
ENDBRANCH  13  14
ENDBRANCH   1  13
TORSDOF 20
ENDMDL
MODEL 8
REMARK VINA RESULT:    -3.787      3.322      6.804
REMARK INTER + INTRA:         -11.240
REMARK INTER:                  -7.335
REMARK INTRA:                  -3.905
REMARK UNBOUND:                -3.025
REMARK SMILES CCCCCCCCCCCCCCCCCCCCCC(=O)[O-]
REMARK SMILES IDX 12 1 11 2 10 3 9 4 8 5 7 6 6 7 5 8 4 9 3 10 2 11 1 12 13 13
REMARK SMILES IDX 14 14 15 15 16 16 17 17 18 18 19 19 20 20 21 21 22 22 23 23
REMARK SMILES IDX 24 24
REMARK H PARENT
REMARK Flexibility Score: inf
ROOT
ATOM      1  C   UNL     1      14.511 133.723  58.732  1.00  0.00     0.000 C 
ENDROOT
BRANCH   1   2
ATOM      2  C   UNL     1      13.616 132.522  59.110  1.00  0.00     0.000 C 
BRANCH   2   3
ATOM      3  C   UNL     1      14.430 131.265  59.452  1.00  0.00     0.000 C 
BRANCH   3   4
ATOM      4  C   UNL     1      15.419 131.548  60.594  1.00  0.00    -0.000 C 
BRANCH   4   5
ATOM      5  C   UNL     1      14.723 132.013  61.884  1.00  0.00    -0.000 C 
BRANCH   5   6
ATOM      6  C   UNL     1      15.662 132.216  63.090  1.00  0.00    -0.000 C 
BRANCH   6   7
ATOM      7  C   UNL     1      16.729 131.109  63.238  1.00  0.00    -0.000 C 
BRANCH   7   8
ATOM      8  C   UNL     1      18.103 131.678  63.631  1.00  0.00    -0.000 C 
BRANCH   8   9
ATOM      9  C   UNL     1      18.371 133.059  63.009  1.00  0.00    -0.000 C 
BRANCH   9  10
ATOM     10  C   UNL     1      19.058 132.954  61.635  1.00  0.00    -0.000 C 
BRANCH  10  11
ATOM     11  C   UNL     1      18.923 134.242  60.807  1.00  0.00    -0.003 C 
ATOM     12  C   UNL     1      17.471 134.700  60.651  1.00  0.00     0.004 C 
ENDBRANCH  10  11
ENDBRANCH   9  10
ENDBRANCH   8   9
ENDBRANCH   7   8
ENDBRANCH   6   7
ENDBRANCH   5   6
ENDBRANCH   4   5
ENDBRANCH   3   4
ENDBRANCH   2   3
ENDBRANCH   1   2
BRANCH   1  13
ATOM     13  C   UNL     1      14.446 134.103  57.240  1.00  0.00     0.000 C 
BRANCH  13  14
ATOM     14  C   UNL     1      13.496 133.246  56.382  1.00  0.00     0.000 C 
BRANCH  14  15
ATOM     15  C   UNL     1      14.182 132.422  55.275  1.00  0.00     0.000 C 
BRANCH  15  16
ATOM     16  C   UNL     1      15.689 132.233  55.519  1.00  0.00     0.000 C 
BRANCH  16  17
ATOM     17  C   UNL     1      16.018 130.869  56.147  1.00  0.00     0.000 C 
BRANCH  17  18
ATOM     18  C   UNL     1      17.373 130.859  56.875  1.00  0.00     0.000 C 
BRANCH  18  19
ATOM     19  C   UNL     1      17.589 132.117  57.733  1.00  0.00     0.000 C 
BRANCH  19  20
ATOM     20  C   UNL     1      18.878 132.871  57.359  1.00  0.00     0.006 C 
BRANCH  20  21
ATOM     21  C   UNL     1      18.597 134.314  56.914  1.00  0.00     0.053 C 
BRANCH  21  22
ATOM     22  C   UNL     1      19.789 135.198  57.117  1.00  0.00     0.041 C 
ATOM     23  O   UNL     1      20.865 134.969  56.500  1.00  0.00    -0.550 OA
ATOM     24  O   UNL     1      19.715 136.274  57.994  1.00  0.00    -0.550 OA
ENDBRANCH  21  22
ENDBRANCH  20  21
ENDBRANCH  19  20
ENDBRANCH  18  19
ENDBRANCH  17  18
ENDBRANCH  16  17
ENDBRANCH  15  16
ENDBRANCH  14  15
ENDBRANCH  13  14
ENDBRANCH   1  13
TORSDOF 20
ENDMDL
MODEL 9
REMARK VINA RESULT:    -3.782      1.541      2.531
REMARK INTER + INTRA:         -11.228
REMARK INTER:                  -7.675
REMARK INTRA:                  -3.553
REMARK UNBOUND:                -3.025
REMARK SMILES CCCCCCCCCCCCCCCCCCCCCC(=O)[O-]
REMARK SMILES IDX 12 1 11 2 10 3 9 4 8 5 7 6 6 7 5 8 4 9 3 10 2 11 1 12 13 13
REMARK SMILES IDX 14 14 15 15 16 16 17 17 18 18 19 19 20 20 21 21 22 22 23 23
REMARK SMILES IDX 24 24
REMARK H PARENT
REMARK Flexibility Score: inf
ROOT
ATOM      1  C   UNL     1      14.205 131.869  58.395  1.00  0.00     0.000 C 
ENDROOT
BRANCH   1   2
ATOM      2  C   UNL     1      14.696 132.466  57.058  1.00  0.00     0.000 C 
BRANCH   2   3
ATOM      3  C   UNL     1      15.866 131.675  56.454  1.00  0.00     0.000 C 
BRANCH   3   4
ATOM      4  C   UNL     1      16.929 131.371  57.522  1.00  0.00    -0.000 C 
BRANCH   4   5
ATOM      5  C   UNL     1      17.934 132.520  57.708  1.00  0.00    -0.000 C 
BRANCH   5   6
ATOM      6  C   UNL     1      18.195 132.923  59.174  1.00  0.00    -0.000 C 
BRANCH   6   7
ATOM      7  C   UNL     1      17.555 134.272  59.568  1.00  0.00    -0.000 C 
BRANCH   7   8
ATOM      8  C   UNL     1      16.879 134.964  58.372  1.00  0.00    -0.000 C 
BRANCH   8   9
ATOM      9  C   UNL     1      17.590 136.265  57.962  1.00  0.00    -0.000 C 
BRANCH   9  10
ATOM     10  C   UNL     1      18.401 136.100  56.664  1.00  0.00    -0.000 C 
BRANCH  10  11
ATOM     11  C   UNL     1      19.854 135.670  56.927  1.00  0.00    -0.003 C 
ATOM     12  C   UNL     1      20.751 136.835  57.356  1.00  0.00     0.004 C 
ENDBRANCH  10  11
ENDBRANCH   9  10
ENDBRANCH   8   9
ENDBRANCH   7   8
ENDBRANCH   6   7
ENDBRANCH   5   6
ENDBRANCH   4   5
ENDBRANCH   3   4
ENDBRANCH   2   3
ENDBRANCH   1   2
BRANCH   1  13
ATOM     13  C   UNL     1      13.760 132.926  59.423  1.00  0.00     0.000 C 
BRANCH  13  14
ATOM     14  C   UNL     1      14.375 132.779  60.829  1.00  0.00     0.000 C 
BRANCH  14  15
ATOM     15  C   UNL     1      15.338 131.587  60.998  1.00  0.00     0.000 C 
BRANCH  15  16
ATOM     16  C   UNL     1      15.986 131.538  62.392  1.00  0.00     0.000 C 
BRANCH  16  17
ATOM     17  C   UNL     1      16.223 132.937  62.983  1.00  0.00     0.000 C 
BRANCH  17  18
ATOM     18  C   UNL     1      17.715 133.289  63.102  1.00  0.00     0.000 C 
BRANCH  18  19
ATOM     19  C   UNL     1      18.623 132.057  62.964  1.00  0.00     0.000 C 
BRANCH  19  20
ATOM     20  C   UNL     1      19.236 131.622  64.307  1.00  0.00     0.006 C 
BRANCH  20  21
ATOM     21  C   UNL     1      18.443 130.485  64.966  1.00  0.00     0.053 C 
BRANCH  21  22
ATOM     22  C   UNL     1      18.613 129.191  64.229  1.00  0.00     0.041 C 
ATOM     23  O   UNL     1      19.766 128.779  63.924  1.00  0.00    -0.550 OA
ATOM     24  O   UNL     1      17.498 128.442  63.873  1.00  0.00    -0.550 OA
ENDBRANCH  21  22
ENDBRANCH  20  21
ENDBRANCH  19  20
ENDBRANCH  18  19
ENDBRANCH  17  18
ENDBRANCH  16  17
ENDBRANCH  15  16
ENDBRANCH  14  15
ENDBRANCH  13  14
ENDBRANCH   1  13
TORSDOF 20
ENDMDL
