MODEL 1
REMARK VINA RESULT:    -3.193      0.000      0.000
REMARK INTER + INTRA:          -4.159
REMARK INTER:                  -3.939
REMARK INTRA:                  -0.219
REMARK UNBOUND:                -0.219
REMARK SMILES C=CC[C@@H](C)C(=O)CC
REMARK SMILES IDX 4 1 5 2 6 3 7 4 8 5 9 6 3 7 2 8 1 9
REMARK H PARENT
REMARK Flexibility Score: inf
ROOT
ATOM      1  C   UNL     1     150.767 152.532 166.275  1.00  0.00     0.057 C 
ATOM      2  C   UNL     1     152.177 152.946 166.710  1.00  0.00     0.016 C 
ENDROOT
BRANCH   1   3
ATOM      3  C   UNL     1     149.867 152.402 167.487  1.00  0.00     0.135 C 
ATOM      4  O   UNL     1     148.868 153.101 167.580  1.00  0.00    -0.299 OA
BRANCH   3   5
ATOM      5  C   UNL     1     150.173 151.411 168.580  1.00  0.00     0.072 C 
ATOM      6  C   UNL     1     148.900 151.007 169.314  1.00  0.00     0.012 C 
ENDBRANCH   3   5
ENDBRANCH   1   3
BRANCH   1   7
ATOM      7  C   UNL     1     150.193 153.544 165.262  1.00  0.00     0.038 C 
BRANCH   7   8
ATOM      8  C   UNL     1     150.886 154.880 165.339  1.00  0.00    -0.034 C 
ATOM      9  C   UNL     1     150.202 156.026 165.402  1.00  0.00     0.004 C 
ENDBRANCH   7   8
ENDBRANCH   1   7
TORSDOF 4
ENDMDL
MODEL 2
REMARK VINA RESULT:    -3.103      1.379      4.552
REMARK INTER + INTRA:          -4.047
REMARK INTER:                  -3.860
REMARK INTRA:                  -0.188
REMARK UNBOUND:                -0.219
REMARK SMILES C=CC[C@@H](C)C(=O)CC
REMARK SMILES IDX 4 1 5 2 6 3 7 4 8 5 9 6 3 7 2 8 1 9
REMARK H PARENT
REMARK Flexibility Score: inf
ROOT
ATOM      1  C   UNL     1     149.257 152.500 166.774  1.00  0.00     0.057 C 
ATOM      2  C   UNL     1     148.182 153.555 167.059  1.00  0.00     0.016 C 
ENDROOT
BRANCH   1   3
ATOM      3  C   UNL     1     150.430 153.136 166.056  1.00  0.00     0.135 C 
ATOM      4  O   UNL     1     151.572 152.856 166.393  1.00  0.00    -0.299 OA
BRANCH   3   5
ATOM      5  C   UNL     1     150.217 154.101 164.920  1.00  0.00     0.072 C 
ATOM      6  C   UNL     1     150.906 155.431 165.203  1.00  0.00     0.012 C 
ENDBRANCH   3   5
ENDBRANCH   1   3
BRANCH   1   7
ATOM      7  C   UNL     1     149.708 151.817 168.081  1.00  0.00     0.038 C 
BRANCH   7   8
ATOM      8  C   UNL     1     148.546 151.496 168.984  1.00  0.00    -0.034 C 
ATOM      9  C   UNL     1     148.515 150.385 169.726  1.00  0.00     0.004 C 
ENDBRANCH   7   8
ENDBRANCH   1   7
TORSDOF 4
ENDMDL
MODEL 3
REMARK VINA RESULT:    -3.097      4.452      6.425
REMARK INTER + INTRA:          -4.040
REMARK INTER:                  -3.783
REMARK INTRA:                  -0.258
REMARK UNBOUND:                -0.219
REMARK SMILES C=CC[C@@H](C)C(=O)CC
REMARK SMILES IDX 4 1 5 2 6 3 7 4 8 5 9 6 3 7 2 8 1 9
REMARK H PARENT
REMARK Flexibility Score: inf
ROOT
ATOM      1  C   UNL     1     148.647 157.404 163.288  1.00  0.00     0.057 C 
ATOM      2  C   UNL     1     147.442 156.844 162.523  1.00  0.00     0.016 C 
ENDROOT
BRANCH   1   3
ATOM      3  C   UNL     1     149.893 156.617 162.940  1.00  0.00     0.135 C 
ATOM      4  O   UNL     1     150.416 156.762 161.844  1.00  0.00    -0.299 OA
BRANCH   3   5
ATOM      5  C   UNL     1     150.515 155.666 163.928  1.00  0.00     0.072 C 
ATOM      6  C   UNL     1     150.135 156.044 165.355  1.00  0.00     0.012 C 
ENDBRANCH   3   5
ENDBRANCH   1   3
BRANCH   1   7
ATOM      7  C   UNL     1     148.832 158.905 162.984  1.00  0.00     0.038 C 
BRANCH   7   8
ATOM      8  C   UNL     1     147.744 159.747 163.597  1.00  0.00    -0.034 C 
ATOM      9  C   UNL     1     146.952 160.525 162.855  1.00  0.00     0.004 C 
ENDBRANCH   7   8
ENDBRANCH   1   7
TORSDOF 4
ENDMDL
MODEL 4
REMARK VINA RESULT:    -3.029      1.363      2.649
REMARK INTER + INTRA:          -3.957
REMARK INTER:                  -3.555
REMARK INTRA:                  -0.402
REMARK UNBOUND:                -0.219
REMARK SMILES C=CC[C@@H](C)C(=O)CC
REMARK SMILES IDX 4 1 5 2 6 3 7 4 8 5 9 6 3 7 2 8 1 9
REMARK H PARENT
REMARK Flexibility Score: inf
ROOT
ATOM      1  C   UNL     1     148.795 153.626 167.116  1.00  0.00     0.057 C 
ATOM      2  C   UNL     1     147.349 153.294 167.501  1.00  0.00     0.016 C 
ENDROOT
BRANCH   1   3
ATOM      3  C   UNL     1     149.677 152.409 167.314  1.00  0.00     0.135 C 
ATOM      4  O   UNL     1     149.468 151.655 168.253  1.00  0.00    -0.299 OA
BRANCH   3   5
ATOM      5  C   UNL     1     150.802 152.101 166.361  1.00  0.00     0.072 C 
ATOM      6  C   UNL     1     152.104 152.733 166.839  1.00  0.00     0.012 C 
ENDBRANCH   3   5
ENDBRANCH   1   3
BRANCH   1   7
ATOM      7  C   UNL     1     148.866 154.135 165.662  1.00  0.00     0.038 C 
BRANCH   7   8
ATOM      8  C   UNL     1     149.486 155.505 165.569  1.00  0.00    -0.034 C 
ATOM      9  C   UNL     1     150.716 155.690 165.080  1.00  0.00     0.004 C 
ENDBRANCH   7   8
ENDBRANCH   1   7
TORSDOF 4
ENDMDL
MODEL 5
REMARK VINA RESULT:    -3.025      1.566      1.821
REMARK INTER + INTRA:          -3.952
REMARK INTER:                  -3.524
REMARK INTRA:                  -0.428
REMARK UNBOUND:                -0.219
REMARK SMILES C=CC[C@@H](C)C(=O)CC
REMARK SMILES IDX 4 1 5 2 6 3 7 4 8 5 9 6 3 7 2 8 1 9
REMARK H PARENT
REMARK Flexibility Score: inf
ROOT
ATOM      1  C   UNL     1     150.125 152.104 165.642  1.00  0.00     0.057 C 
ATOM      2  C   UNL     1     150.687 150.941 164.815  1.00  0.00     0.016 C 
ENDROOT
BRANCH   1   3
ATOM      3  C   UNL     1     151.003 152.352 166.851  1.00  0.00     0.135 C 
ATOM      4  O   UNL     1     152.108 152.855 166.706  1.00  0.00    -0.299 OA
BRANCH   3   5
ATOM      5  C   UNL     1     150.534 152.003 168.239  1.00  0.00     0.072 C 
ATOM      6  C   UNL     1     149.014 151.908 168.288  1.00  0.00     0.012 C 
ENDBRANCH   3   5
ENDBRANCH   1   3
BRANCH   1   7
ATOM      7  C   UNL     1     149.999 153.373 164.775  1.00  0.00     0.038 C 
BRANCH   7   8
ATOM      8  C   UNL     1     149.248 154.471 165.483  1.00  0.00    -0.034 C 
ATOM      9  C   UNL     1     149.715 155.721 165.540  1.00  0.00     0.004 C 
ENDBRANCH   7   8
ENDBRANCH   1   7
TORSDOF 4
ENDMDL
MODEL 6
REMARK VINA RESULT:    -3.025      2.076      4.017
REMARK INTER + INTRA:          -3.952
REMARK INTER:                  -3.691
REMARK INTRA:                  -0.261
REMARK UNBOUND:                -0.219
REMARK SMILES C=CC[C@@H](C)C(=O)CC
REMARK SMILES IDX 4 1 5 2 6 3 7 4 8 5 9 6 3 7 2 8 1 9
REMARK H PARENT
REMARK Flexibility Score: inf
ROOT
ATOM      1  C   UNL     1     150.485 152.701 166.135  1.00  0.00     0.057 C 
ATOM      2  C   UNL     1     151.879 152.594 166.764  1.00  0.00     0.016 C 
ENDROOT
BRANCH   1   3
ATOM      3  C   UNL     1     150.410 151.841 164.891  1.00  0.00     0.135 C 
ATOM      4  O   UNL     1     150.061 152.338 163.829  1.00  0.00    -0.299 OA
BRANCH   3   5
ATOM      5  C   UNL     1     150.772 150.379 164.932  1.00  0.00     0.072 C 
ATOM      6  C   UNL     1     151.865 150.065 163.918  1.00  0.00     0.012 C 
ENDBRANCH   3   5
ENDBRANCH   1   3
BRANCH   1   7
ATOM      7  C   UNL     1     149.399 152.303 167.155  1.00  0.00     0.038 C 
BRANCH   7   8
ATOM      8  C   UNL     1     149.957 151.485 168.290  1.00  0.00    -0.034 C 
ATOM      9  C   UNL     1     149.181 151.023 169.275  1.00  0.00     0.004 C 
ENDBRANCH   7   8
ENDBRANCH   1   7
TORSDOF 4
ENDMDL
MODEL 7
REMARK VINA RESULT:    -3.019      1.248      1.956
REMARK INTER + INTRA:          -3.944
REMARK INTER:                  -3.694
REMARK INTRA:                  -0.249
REMARK UNBOUND:                -0.219
REMARK SMILES C=CC[C@@H](C)C(=O)CC
REMARK SMILES IDX 4 1 5 2 6 3 7 4 8 5 9 6 3 7 2 8 1 9
REMARK H PARENT
REMARK Flexibility Score: inf
ROOT
ATOM      1  C   UNL     1     148.826 153.981 166.358  1.00  0.00     0.057 C 
ATOM      2  C   UNL     1     147.542 153.704 165.568  1.00  0.00     0.016 C 
ENDROOT
BRANCH   1   3
ATOM      3  C   UNL     1     148.901 153.066 167.563  1.00  0.00     0.135 C 
ATOM      4  O   UNL     1     148.033 153.123 168.424  1.00  0.00    -0.299 OA
BRANCH   3   5
ATOM      5  C   UNL     1     150.020 152.070 167.716  1.00  0.00     0.072 C 
ATOM      6  C   UNL     1     149.753 151.131 168.887  1.00  0.00     0.012 C 
ENDBRANCH   3   5
ENDBRANCH   1   3
BRANCH   1   7
ATOM      7  C   UNL     1     150.065 153.815 165.455  1.00  0.00     0.038 C 
BRANCH   7   8
ATOM      8  C   UNL     1     150.795 155.117 165.247  1.00  0.00    -0.034 C 
ATOM      9  C   UNL     1     150.174 156.296 165.339  1.00  0.00     0.004 C 
ENDBRANCH   7   8
ENDBRANCH   1   7
TORSDOF 4
ENDMDL
MODEL 8
REMARK VINA RESULT:    -2.995      1.858      3.893
REMARK INTER + INTRA:          -3.914
REMARK INTER:                  -3.507
REMARK INTRA:                  -0.407
REMARK UNBOUND:                -0.219
REMARK SMILES C=CC[C@@H](C)C(=O)CC
REMARK SMILES IDX 4 1 5 2 6 3 7 4 8 5 9 6 3 7 2 8 1 9
REMARK H PARENT
REMARK Flexibility Score: inf
ROOT
ATOM      1  C   UNL     1     150.076 152.508 167.378  1.00  0.00     0.057 C 
ATOM      2  C   UNL     1     151.337 152.615 166.513  1.00  0.00     0.016 C 
ENDROOT
BRANCH   1   3
ATOM      3  C   UNL     1     148.846 152.792 166.540  1.00  0.00     0.135 C 
ATOM      4  O   UNL     1     148.692 152.214 165.473  1.00  0.00    -0.299 OA
BRANCH   3   5
ATOM      5  C   UNL     1     147.795 153.766 167.004  1.00  0.00     0.072 C 
ATOM      6  C   UNL     1     146.573 153.030 167.537  1.00  0.00     0.012 C 
ENDBRANCH   3   5
ENDBRANCH   1   3
BRANCH   1   7
ATOM      7  C   UNL     1     149.989 151.119 168.041  1.00  0.00     0.038 C 
BRANCH   7   8
ATOM      8  C   UNL     1     149.298 151.170 169.379  1.00  0.00    -0.034 C 
ATOM      9  C   UNL     1     148.265 150.375 169.670  1.00  0.00     0.004 C 
ENDBRANCH   7   8
ENDBRANCH   1   7
TORSDOF 4
ENDMDL
MODEL 9
REMARK VINA RESULT:    -2.987      2.535      3.690
REMARK INTER + INTRA:          -3.905
REMARK INTER:                  -3.644
REMARK INTRA:                  -0.261
REMARK UNBOUND:                -0.219
REMARK SMILES C=CC[C@@H](C)C(=O)CC
REMARK SMILES IDX 4 1 5 2 6 3 7 4 8 5 9 6 3 7 2 8 1 9
REMARK H PARENT
REMARK Flexibility Score: inf
ROOT
ATOM      1  C   UNL     1     150.392 151.684 164.999  1.00  0.00     0.057 C 
ATOM      2  C   UNL     1     148.885 151.867 164.786  1.00  0.00     0.016 C 
ENDROOT
BRANCH   1   3
ATOM      3  C   UNL     1     150.794 152.230 166.354  1.00  0.00     0.135 C 
ATOM      4  O   UNL     1     151.952 152.571 166.552  1.00  0.00    -0.299 OA
BRANCH   3   5
ATOM      5  C   UNL     1     149.787 152.378 167.464  1.00  0.00     0.072 C 
ATOM      6  C   UNL     1     150.049 151.365 168.571  1.00  0.00     0.012 C 
ENDBRANCH   3   5
ENDBRANCH   1   3
BRANCH   1   7
ATOM      7  C   UNL     1     150.782 150.198 164.860  1.00  0.00     0.038 C 
BRANCH   7   8
ATOM      8  C   UNL     1     151.684 149.956 163.678  1.00  0.00    -0.034 C 
ATOM      9  C   UNL     1     153.014 149.926 163.800  1.00  0.00     0.004 C 
ENDBRANCH   7   8
ENDBRANCH   1   7
TORSDOF 4
ENDMDL
