MODEL 1
REMARK VINA RESULT:    -2.814      0.000      0.000
REMARK INTER + INTRA:          -3.764
REMARK INTER:                  -3.637
REMARK INTRA:                  -0.127
REMARK UNBOUND:                -0.127
REMARK SMILES C=CC(=O)CCCCC
REMARK SMILES IDX 6 1 7 2 8 3 9 4 5 5 3 6 4 7 2 8 1 9
REMARK H PARENT
REMARK Flexibility Score: inf
ROOT
ATOM      1  C   UNL     1      -9.709  -4.876  20.889  1.00  0.00     0.008 C 
ENDROOT
BRANCH   1   2
ATOM      2  C   UNL     1     -10.473  -4.913  22.224  1.00  0.00     0.000 C 
BRANCH   2   3
ATOM      3  C   UNL     1      -9.599  -5.401  23.389  1.00  0.00    -0.003 C 
ATOM      4  C   UNL     1     -10.422  -5.904  24.576  1.00  0.00     0.004 C 
ENDBRANCH   2   3
ENDBRANCH   1   2
BRANCH   1   5
ATOM      5  C   UNL     1     -10.637  -5.080  19.683  1.00  0.00     0.080 C 
BRANCH   5   6
ATOM      6  C   UNL     1      -9.987  -5.903  18.608  1.00  0.00     0.155 C 
ATOM      7  O   UNL     1     -10.499  -7.008  18.282  1.00  0.00    -0.295 OA
BRANCH   6   8
ATOM      8  C   UNL     1      -8.776  -5.407  17.922  1.00  0.00     0.039 C 
ATOM      9  C   UNL     1      -8.811  -4.898  16.692  1.00  0.00     0.012 C 
ENDBRANCH   6   8
ENDBRANCH   5   6
ENDBRANCH   1   5
TORSDOF 5
ENDMDL
MODEL 2
REMARK VINA RESULT:    -2.750     16.433     17.083
REMARK INTER + INTRA:          -3.680
REMARK INTER:                  -3.153
REMARK INTRA:                  -0.527
REMARK UNBOUND:                -0.127
REMARK SMILES C=CC(=O)CCCCC
REMARK SMILES IDX 6 1 7 2 8 3 9 4 5 5 3 6 4 7 2 8 1 9
REMARK H PARENT
REMARK Flexibility Score: inf
ROOT
ATOM      1  C   UNL     1     -10.943 -21.263  23.609  1.00  0.00     0.008 C 
ENDROOT
BRANCH   1   2
ATOM      2  C   UNL     1     -10.460 -21.899  24.923  1.00  0.00     0.000 C 
BRANCH   2   3
ATOM      3  C   UNL     1      -8.945 -22.157  24.930  1.00  0.00    -0.003 C 
ATOM      4  C   UNL     1      -8.598 -23.646  24.941  1.00  0.00     0.004 C 
ENDBRANCH   2   3
ENDBRANCH   1   2
BRANCH   1   5
ATOM      5  C   UNL     1     -11.125 -22.303  22.493  1.00  0.00     0.080 C 
BRANCH   5   6
ATOM      6  C   UNL     1     -10.289 -21.982  21.287  1.00  0.00     0.155 C 
ATOM      7  O   UNL     1     -10.815 -21.372  20.317  1.00  0.00    -0.295 OA
BRANCH   6   8
ATOM      8  C   UNL     1      -8.861 -22.355  21.252  1.00  0.00     0.039 C 
ATOM      9  C   UNL     1      -8.452 -23.621  21.301  1.00  0.00     0.012 C 
ENDBRANCH   6   8
ENDBRANCH   5   6
ENDBRANCH   1   5
TORSDOF 5
ENDMDL
MODEL 3
REMARK VINA RESULT:    -2.586     16.679     17.746
REMARK INTER + INTRA:          -3.469
REMARK INTER:                  -2.976
REMARK INTRA:                  -0.493
REMARK UNBOUND:                -0.127
REMARK SMILES C=CC(=O)CCCCC
REMARK SMILES IDX 6 1 7 2 8 3 9 4 5 5 3 6 4 7 2 8 1 9
REMARK H PARENT
REMARK Flexibility Score: inf
ROOT
ATOM      1  C   UNL     1     -11.125 -22.397  22.791  1.00  0.00     0.008 C 
ENDROOT
BRANCH   1   2
ATOM      2  C   UNL     1     -10.643 -21.757  21.479  1.00  0.00     0.000 C 
BRANCH   2   3
ATOM      3  C   UNL     1      -9.210 -22.171  21.113  1.00  0.00    -0.003 C 
ATOM      4  C   UNL     1      -8.973 -23.675  21.256  1.00  0.00     0.004 C 
ENDBRANCH   2   3
ENDBRANCH   1   2
BRANCH   1   5
ATOM      5  C   UNL     1     -11.121 -21.399  23.959  1.00  0.00     0.080 C 
BRANCH   5   6
ATOM      6  C   UNL     1     -10.272 -21.878  25.102  1.00  0.00     0.155 C 
ATOM      7  O   UNL     1     -10.760 -21.901  26.265  1.00  0.00    -0.295 OA
BRANCH   6   8
ATOM      8  C   UNL     1      -8.892 -22.343  24.860  1.00  0.00     0.039 C 
ATOM      9  C   UNL     1      -8.546 -23.626  24.944  1.00  0.00     0.012 C 
ENDBRANCH   6   8
ENDBRANCH   5   6
ENDBRANCH   1   5
TORSDOF 5
ENDMDL
MODEL 4
REMARK VINA RESULT:    -2.571     18.441     20.096
REMARK INTER + INTRA:          -3.449
REMARK INTER:                  -3.089
REMARK INTRA:                  -0.360
REMARK UNBOUND:                -0.127
REMARK SMILES C=CC(=O)CCCCC
REMARK SMILES IDX 6 1 7 2 8 3 9 4 5 5 3 6 4 7 2 8 1 9
REMARK H PARENT
REMARK Flexibility Score: inf
ROOT
ATOM      1  C   UNL     1     -11.036 -20.214   7.797  1.00  0.00     0.008 C 
ENDROOT
BRANCH   1   2
ATOM      2  C   UNL     1     -10.903 -18.990   6.876  1.00  0.00     0.000 C 
BRANCH   2   3
ATOM      3  C   UNL     1      -9.600 -18.211   7.115  1.00  0.00    -0.003 C 
ATOM      4  C   UNL     1      -8.872 -18.651   8.386  1.00  0.00     0.004 C 
ENDBRANCH   2   3
ENDBRANCH   1   2
BRANCH   1   5
ATOM      5  C   UNL     1     -10.788 -21.533   7.051  1.00  0.00     0.080 C 
BRANCH   5   6
ATOM      6  C   UNL     1     -10.010 -22.511   7.883  1.00  0.00     0.155 C 
ATOM      7  O   UNL     1      -9.645 -23.603   7.370  1.00  0.00    -0.295 OA
BRANCH   6   8
ATOM      8  C   UNL     1      -9.653 -22.181   9.278  1.00  0.00     0.039 C 
ATOM      9  C   UNL     1     -10.197 -22.806  10.320  1.00  0.00     0.012 C 
ENDBRANCH   6   8
ENDBRANCH   5   6
ENDBRANCH   1   5
TORSDOF 5
ENDMDL
MODEL 5
REMARK VINA RESULT:    -2.519     18.192     18.865
REMARK INTER + INTRA:          -3.382
REMARK INTER:                  -3.217
REMARK INTRA:                  -0.165
REMARK UNBOUND:                -0.127
REMARK SMILES C=CC(=O)CCCCC
REMARK SMILES IDX 6 1 7 2 8 3 9 4 5 5 3 6 4 7 2 8 1 9
REMARK H PARENT
REMARK Flexibility Score: inf
ROOT
ATOM      1  C   UNL     1      -7.503 -24.778  21.837  1.00  0.00     0.008 C 
ENDROOT
BRANCH   1   2
ATOM      2  C   UNL     1      -6.752 -25.036  20.520  1.00  0.00     0.000 C 
BRANCH   2   3
ATOM      3  C   UNL     1      -5.229 -24.913  20.677  1.00  0.00    -0.003 C 
ATOM      4  C   UNL     1      -4.511 -24.703  19.343  1.00  0.00     0.004 C 
ENDBRANCH   2   3
ENDBRANCH   1   2
BRANCH   1   5
ATOM      5  C   UNL     1      -8.955 -24.337  21.601  1.00  0.00     0.080 C 
BRANCH   5   6
ATOM      6  C   UNL     1      -9.266 -23.040  22.292  1.00  0.00     0.155 C 
ATOM      7  O   UNL     1      -8.788 -22.822  23.438  1.00  0.00    -0.295 OA
BRANCH   6   8
ATOM      8  C   UNL     1     -10.101 -22.023  21.623  1.00  0.00     0.039 C 
ATOM      9  C   UNL     1     -10.041 -21.800  20.311  1.00  0.00     0.012 C 
ENDBRANCH   6   8
ENDBRANCH   5   6
ENDBRANCH   1   5
TORSDOF 5
ENDMDL
MODEL 6
REMARK VINA RESULT:    -2.501     17.017     17.692
REMARK INTER + INTRA:          -3.359
REMARK INTER:                  -3.038
REMARK INTRA:                  -0.321
REMARK UNBOUND:                -0.127
REMARK SMILES C=CC(=O)CCCCC
REMARK SMILES IDX 6 1 7 2 8 3 9 4 5 5 3 6 4 7 2 8 1 9
REMARK H PARENT
REMARK Flexibility Score: inf
ROOT
ATOM      1  C   UNL     1      -8.700 -23.629  24.271  1.00  0.00     0.008 C 
ENDROOT
BRANCH   1   2
ATOM      2  C   UNL     1      -8.830 -22.173  24.749  1.00  0.00     0.000 C 
BRANCH   2   3
ATOM      3  C   UNL     1     -10.256 -21.826  25.201  1.00  0.00    -0.003 C 
ATOM      4  C   UNL     1     -10.707 -22.636  26.417  1.00  0.00     0.004 C 
ENDBRANCH   2   3
ENDBRANCH   1   2
BRANCH   1   5
ATOM      5  C   UNL     1      -9.458 -23.879  22.959  1.00  0.00     0.080 C 
BRANCH   5   6
ATOM      6  C   UNL     1      -8.687 -23.395  21.765  1.00  0.00     0.155 C 
ATOM      7  O   UNL     1      -7.738 -24.095  21.318  1.00  0.00    -0.295 OA
BRANCH   6   8
ATOM      8  C   UNL     1      -9.056 -22.125  21.106  1.00  0.00     0.039 C 
ATOM      9  C   UNL     1     -10.189 -21.978  20.423  1.00  0.00     0.012 C 
ENDBRANCH   6   8
ENDBRANCH   5   6
ENDBRANCH   1   5
TORSDOF 5
ENDMDL
MODEL 7
REMARK VINA RESULT:    -2.476     18.420     19.422
REMARK INTER + INTRA:          -3.327
REMARK INTER:                  -3.235
REMARK INTRA:                  -0.093
REMARK UNBOUND:                -0.127
REMARK SMILES C=CC(=O)CCCCC
REMARK SMILES IDX 6 1 7 2 8 3 9 4 5 5 3 6 4 7 2 8 1 9
REMARK H PARENT
REMARK Flexibility Score: inf
ROOT
ATOM      1  C   UNL     1      -7.733 -25.050  22.155  1.00  0.00     0.008 C 
ENDROOT
BRANCH   1   2
ATOM      2  C   UNL     1      -7.013 -24.837  20.814  1.00  0.00     0.000 C 
BRANCH   2   3
ATOM      3  C   UNL     1      -5.491 -25.016  20.927  1.00  0.00    -0.003 C 
ATOM      4  C   UNL     1      -4.766 -24.780  19.602  1.00  0.00     0.004 C 
ENDBRANCH   2   3
ENDBRANCH   1   2
BRANCH   1   5
ATOM      5  C   UNL     1      -8.591 -23.840  22.553  1.00  0.00     0.080 C 
BRANCH   5   6
ATOM      6  C   UNL     1      -8.591 -23.617  24.038  1.00  0.00     0.155 C 
ATOM      7  O   UNL     1      -8.426 -24.601  24.810  1.00  0.00    -0.295 OA
BRANCH   6   8
ATOM      8  C   UNL     1      -8.754 -22.255  24.586  1.00  0.00     0.039 C 
ATOM      9  C   UNL     1      -9.924 -21.800  25.030  1.00  0.00     0.012 C 
ENDBRANCH   6   8
ENDBRANCH   5   6
ENDBRANCH   1   5
TORSDOF 5
ENDMDL
MODEL 8
REMARK VINA RESULT:    -2.426     25.929     26.622
REMARK INTER + INTRA:          -3.261
REMARK INTER:                  -2.997
REMARK INTRA:                  -0.265
REMARK UNBOUND:                -0.127
REMARK SMILES C=CC(=O)CCCCC
REMARK SMILES IDX 6 1 7 2 8 3 9 4 5 5 3 6 4 7 2 8 1 9
REMARK H PARENT
REMARK Flexibility Score: inf
ROOT
ATOM      1  C   UNL     1       5.754 -24.480  10.238  1.00  0.00     0.008 C 
ENDROOT
BRANCH   1   2
ATOM      2  C   UNL     1       7.234 -24.497  10.658  1.00  0.00     0.000 C 
BRANCH   2   3
ATOM      3  C   UNL     1       7.413 -24.636  12.178  1.00  0.00    -0.003 C 
ATOM      4  C   UNL     1       8.081 -23.414  12.809  1.00  0.00     0.004 C 
ENDBRANCH   2   3
ENDBRANCH   1   2
BRANCH   1   5
ATOM      5  C   UNL     1       5.386 -23.205   9.464  1.00  0.00     0.080 C 
BRANCH   5   6
ATOM      6  C   UNL     1       5.012 -23.502   8.040  1.00  0.00     0.155 C 
ATOM      7  O   UNL     1       3.902 -24.048   7.795  1.00  0.00    -0.295 OA
BRANCH   6   8
ATOM      8  C   UNL     1       5.925 -23.132   6.940  1.00  0.00     0.039 C 
ATOM      9  C   UNL     1       6.961 -22.316   7.116  1.00  0.00     0.012 C 
ENDBRANCH   6   8
ENDBRANCH   5   6
ENDBRANCH   1   5
TORSDOF 5
ENDMDL
MODEL 9
REMARK VINA RESULT:    -2.382     17.698     18.717
REMARK INTER + INTRA:          -3.206
REMARK INTER:                  -2.657
REMARK INTRA:                  -0.549
REMARK UNBOUND:                -0.127
REMARK SMILES C=CC(=O)CCCCC
REMARK SMILES IDX 6 1 7 2 8 3 9 4 5 5 3 6 4 7 2 8 1 9
REMARK H PARENT
REMARK Flexibility Score: inf
ROOT
ATOM      1  C   UNL     1      -9.317 -24.274  22.481  1.00  0.00     0.008 C 
ENDROOT
BRANCH   1   2
ATOM      2  C   UNL     1      -8.574 -23.431  21.431  1.00  0.00     0.000 C 
BRANCH   2   3
ATOM      3  C   UNL     1      -9.312 -22.127  21.093  1.00  0.00    -0.003 C 
ATOM      4  C   UNL     1     -10.670 -22.017  21.788  1.00  0.00     0.004 C 
ENDBRANCH   2   3
ENDBRANCH   1   2
BRANCH   1   5
ATOM      5  C   UNL     1      -8.405 -24.686  23.646  1.00  0.00     0.080 C 
BRANCH   5   6
ATOM      6  C   UNL     1      -8.925 -24.194  24.966  1.00  0.00     0.155 C 
ATOM      7  O   UNL     1      -8.984 -24.991  25.941  1.00  0.00    -0.295 OA
BRANCH   6   8
ATOM      8  C   UNL     1      -9.334 -22.784  25.125  1.00  0.00     0.039 C 
ATOM      9  C   UNL     1      -8.470 -21.775  25.038  1.00  0.00     0.012 C 
ENDBRANCH   6   8
ENDBRANCH   5   6
ENDBRANCH   1   5
TORSDOF 5
ENDMDL
