MODEL 1
REMARK VINA RESULT:    -6.385      0.000      0.000
REMARK INTER + INTRA:          -9.724
REMARK INTER:                  -8.624
REMARK INTRA:                  -1.100
REMARK UNBOUND:                -1.100
REMARK SMILES O=c1c(-c2ccc(O)cc2)coc2c([C@H]3O[C@@H](CO)[C@@H](O)[C@@H](O)[C@@H]3O)c(O)ccc12
REMARK SMILES IDX 3 1 11 2 12 3 13 4 30 5 2 6 1 7 29 8 28 9 26 10 14 11 4 12
REMARK SMILES IDX 5 13 6 14 7 15 10 16 9 17 8 18 15 20 24 21 16 22 22 23 17 24
REMARK SMILES IDX 20 25 25 26 23 28 18 30 19 31 21 33 27 35
REMARK H PARENT 8 19 25 27 23 29 19 32 21 34 27 36
REMARK Flexibility Score: inf
ROOT
ATOM      1  C   UNL     1     210.683 200.459 209.123  1.00  0.00     0.065 A 
ATOM      2  C   UNL     1     211.440 201.358 208.361  1.00  0.00     0.208 A 
ATOM      3  O   UNL     1     210.869 202.403 207.775  1.00  0.00    -0.463 OA
ATOM      4  C   UNL     1     209.569 202.672 207.864  1.00  0.00     0.147 A 
ATOM      5  C   UNL     1     208.733 201.820 208.623  1.00  0.00     0.066 A 
ATOM      6  C   UNL     1     209.305 200.704 209.260  1.00  0.00     0.200 A 
ATOM      7  O   UNL     1     208.591 199.939 209.967  1.00  0.00    -0.288 OA
ATOM      8  C   UNL     1     207.367 202.109 208.732  1.00  0.00     0.020 A 
ATOM      9  C   UNL     1     206.836 203.234 208.111  1.00  0.00     0.047 A 
ATOM     10  C   UNL     1     207.646 204.094 207.363  1.00  0.00     0.125 A 
ATOM     11  C   UNL     1     209.031 203.808 207.206  1.00  0.00     0.069 A 
ENDROOT
BRANCH   1  12
ATOM     12  C   UNL     1     211.341 199.291 209.761  1.00  0.00    -0.011 A 
ATOM     13  C   UNL     1     212.004 198.332 208.974  1.00  0.00     0.013 A 
ATOM     14  C   UNL     1     212.617 197.226 209.572  1.00  0.00     0.047 A 
ATOM     15  C   UNL     1     212.572 197.062 210.959  1.00  0.00     0.115 A 
ATOM     16  C   UNL     1     211.294 199.115 211.156  1.00  0.00     0.013 A 
ATOM     17  C   UNL     1     211.908 198.008 211.750  1.00  0.00     0.047 A 
BRANCH  15  18
ATOM     18  O   UNL     1     213.187 195.956 211.541  1.00  0.00    -0.508 OA
ATOM     19  H   UNL     1     214.087 195.619 211.218  1.00  0.00     0.293 HD
ENDBRANCH  15  18
ENDBRANCH   1  12
BRANCH  11  20
ATOM     20  C   UNL     1     209.956 204.704 206.386  1.00  0.00     0.188 C 
ATOM     21  C   UNL     1     210.383 205.941 207.213  1.00  0.00     0.179 C 
ATOM     22  O   UNL     1     209.311 205.072 205.176  1.00  0.00    -0.362 OA
ATOM     23  C   UNL     1     211.250 206.876 206.346  1.00  0.00     0.177 C 
ATOM     24  C   UNL     1     210.184 205.810 204.338  1.00  0.00     0.176 C 
ATOM     25  C   UNL     1     210.556 207.155 205.002  1.00  0.00     0.177 C 
BRANCH  21  26
ATOM     26  O   UNL     1     211.120 205.516 208.332  1.00  0.00    -0.387 OA
ATOM     27  H   UNL     1     211.195 206.294 208.944  1.00  0.00     0.211 HD
ENDBRANCH  21  26
BRANCH  23  28
ATOM     28  O   UNL     1     211.482 208.088 207.016  1.00  0.00    -0.387 OA
ATOM     29  H   UNL     1     210.790 208.729 206.706  1.00  0.00     0.211 HD
ENDBRANCH  23  28
BRANCH  24  30
ATOM     30  C   UNL     1     209.495 206.021 202.981  1.00  0.00     0.191 C 
BRANCH  30  31
ATOM     31  O   UNL     1     209.869 207.246 202.410  1.00  0.00    -0.394 OA
ATOM     32  H   UNL     1     209.803 207.134 201.426  1.00  0.00     0.210 HD
ENDBRANCH  30  31
ENDBRANCH  24  30
BRANCH  25  33
ATOM     33  O   UNL     1     209.396 207.924 205.203  1.00  0.00    -0.388 OA
ATOM     34  H   UNL     1     209.536 208.788 204.734  1.00  0.00     0.211 HD
ENDBRANCH  25  33
ENDBRANCH  11  20
BRANCH  10  35
ATOM     35  O   UNL     1     207.027 205.218 206.806  1.00  0.00    -0.507 OA
ATOM     36  H   UNL     1     206.100 205.223 206.407  1.00  0.00     0.293 HD
ENDBRANCH  10  35
TORSDOF 9
ENDMDL
MODEL 2
REMARK VINA RESULT:    -5.945     10.839     14.863
REMARK INTER + INTRA:          -9.130
REMARK INTER:                  -8.263
REMARK INTRA:                  -0.868
REMARK UNBOUND:                -1.100
REMARK SMILES O=c1c(-c2ccc(O)cc2)coc2c([C@H]3O[C@@H](CO)[C@@H](O)[C@@H](O)[C@@H]3O)c(O)ccc12
REMARK SMILES IDX 3 1 11 2 12 3 13 4 30 5 2 6 1 7 29 8 28 9 26 10 14 11 4 12
REMARK SMILES IDX 5 13 6 14 7 15 10 16 9 17 8 18 15 20 24 21 16 22 22 23 17 24
REMARK SMILES IDX 20 25 25 26 23 28 18 30 19 31 21 33 27 35
REMARK H PARENT 8 19 25 27 23 29 19 32 21 34 27 36
REMARK Flexibility Score: inf
ROOT
ATOM      1  C   UNL     1     197.325 206.397 208.541  1.00  0.00     0.065 A 
ATOM      2  C   UNL     1     196.430 205.726 207.697  1.00  0.00     0.208 A 
ATOM      3  O   UNL     1     196.787 204.610 207.075  1.00  0.00    -0.463 OA
ATOM      4  C   UNL     1     197.990 204.054 207.202  1.00  0.00     0.147 A 
ATOM      5  C   UNL     1     198.952 204.662 208.043  1.00  0.00     0.066 A 
ATOM      6  C   UNL     1     198.606 205.846 208.720  1.00  0.00     0.200 A 
ATOM      7  O   UNL     1     199.432 206.398 209.499  1.00  0.00    -0.288 OA
ATOM      8  C   UNL     1     200.214 204.072 208.191  1.00  0.00     0.020 A 
ATOM      9  C   UNL     1     200.517 202.888 207.527  1.00  0.00     0.047 A 
ATOM     10  C   UNL     1     199.578 202.266 206.698  1.00  0.00     0.125 A 
ATOM     11  C   UNL     1     198.300 202.861 206.501  1.00  0.00     0.069 A 
ENDROOT
BRANCH   1  12
ATOM     12  C   UNL     1     196.906 207.650 209.219  1.00  0.00    -0.011 A 
ATOM     13  C   UNL     1     196.186 208.631 208.514  1.00  0.00     0.013 A 
ATOM     14  C   UNL     1     195.799 209.816 209.147  1.00  0.00     0.047 A 
ATOM     15  C   UNL     1     196.128 210.038 210.488  1.00  0.00     0.115 A 
ATOM     16  C   UNL     1     197.241 207.883 210.565  1.00  0.00     0.013 A 
ATOM     17  C   UNL     1     196.852 209.069 211.195  1.00  0.00     0.047 A 
BRANCH  15  18
ATOM     18  O   UNL     1     195.735 211.223 211.106  1.00  0.00    -0.508 OA
ATOM     19  H   UNL     1     195.339 211.228 212.039  1.00  0.00     0.293 HD
ENDBRANCH  15  18
ENDBRANCH   1  12
BRANCH  11  20
ATOM     20  C   UNL     1     197.246 202.233 205.593  1.00  0.00     0.188 C 
ATOM     21  C   UNL     1     196.555 201.044 206.307  1.00  0.00     0.179 C 
ATOM     22  O   UNL     1     197.846 201.838 204.369  1.00  0.00    -0.362 OA
ATOM     23  C   UNL     1     195.552 200.371 205.350  1.00  0.00     0.177 C 
ATOM     24  C   UNL     1     196.875 201.356 203.457  1.00  0.00     0.176 C 
ATOM     25  C   UNL     1     196.222 200.065 204.000  1.00  0.00     0.177 C 
BRANCH  21  26
ATOM     26  O   UNL     1     195.878 201.519 207.444  1.00  0.00    -0.387 OA
ATOM     27  H   UNL     1     196.428 201.276 208.233  1.00  0.00     0.211 HD
ENDBRANCH  21  26
BRANCH  23  28
ATOM     28  O   UNL     1     195.063 199.181 205.913  1.00  0.00    -0.387 OA
ATOM     29  H   UNL     1     194.101 199.326 206.109  1.00  0.00     0.211 HD
ENDBRANCH  23  28
BRANCH  24  30
ATOM     30  C   UNL     1     197.555 201.118 202.099  1.00  0.00     0.191 C 
BRANCH  30  31
ATOM     31  O   UNL     1     198.857 200.627 202.266  1.00  0.00    -0.394 OA
ATOM     32  H   UNL     1     199.023 199.999 201.516  1.00  0.00     0.210 HD
ENDBRANCH  30  31
ENDBRANCH  24  30
BRANCH  25  33
ATOM     33  O   UNL     1     197.201 199.067 204.157  1.00  0.00    -0.388 OA
ATOM     34  H   UNL     1     197.452 198.760 203.248  1.00  0.00     0.211 HD
ENDBRANCH  25  33
ENDBRANCH  11  20
BRANCH  10  35
ATOM     35  O   UNL     1     199.964 201.061 206.102  1.00  0.00    -0.507 OA
ATOM     36  H   UNL     1     200.317 200.974 205.161  1.00  0.00     0.293 HD
ENDBRANCH  10  35
TORSDOF 9
ENDMDL
MODEL 3
REMARK VINA RESULT:    -5.757      8.581     12.414
REMARK INTER + INTRA:          -8.877
REMARK INTER:                  -7.952
REMARK INTRA:                  -0.925
REMARK UNBOUND:                -1.100
REMARK SMILES O=c1c(-c2ccc(O)cc2)coc2c([C@H]3O[C@@H](CO)[C@@H](O)[C@@H](O)[C@@H]3O)c(O)ccc12
REMARK SMILES IDX 3 1 11 2 12 3 13 4 30 5 2 6 1 7 29 8 28 9 26 10 14 11 4 12
REMARK SMILES IDX 5 13 6 14 7 15 10 16 9 17 8 18 15 20 24 21 16 22 22 23 17 24
REMARK SMILES IDX 20 25 25 26 23 28 18 30 19 31 21 33 27 35
REMARK H PARENT 8 19 25 27 23 29 19 32 21 34 27 36
REMARK Flexibility Score: inf
ROOT
ATOM      1  C   UNL     1     202.198 203.901 206.178  1.00  0.00     0.065 A 
ATOM      2  C   UNL     1     201.891 202.806 205.360  1.00  0.00     0.208 A 
ATOM      3  O   UNL     1     200.695 202.232 205.411  1.00  0.00    -0.463 OA
ATOM      4  C   UNL     1     199.721 202.642 206.220  1.00  0.00     0.147 A 
ATOM      5  C   UNL     1     199.943 203.749 207.071  1.00  0.00     0.066 A 
ATOM      6  C   UNL     1     201.199 204.383 207.042  1.00  0.00     0.200 A 
ATOM      7  O   UNL     1     201.421 205.391 207.770  1.00  0.00    -0.288 OA
ATOM      8  C   UNL     1     198.915 204.194 207.912  1.00  0.00     0.020 A 
ATOM      9  C   UNL     1     197.676 203.560 207.901  1.00  0.00     0.047 A 
ATOM     10  C   UNL     1     197.432 202.470 207.060  1.00  0.00     0.125 A 
ATOM     11  C   UNL     1     198.469 201.975 206.220  1.00  0.00     0.069 A 
ENDROOT
BRANCH   1  12
ATOM     12  C   UNL     1     203.545 204.521 206.110  1.00  0.00    -0.011 A 
ATOM     13  C   UNL     1     203.690 205.861 205.708  1.00  0.00     0.013 A 
ATOM     14  C   UNL     1     204.958 206.445 205.634  1.00  0.00     0.047 A 
ATOM     15  C   UNL     1     206.096 205.700 205.956  1.00  0.00     0.115 A 
ATOM     16  C   UNL     1     204.695 203.775 206.425  1.00  0.00     0.013 A 
ATOM     17  C   UNL     1     205.962 204.362 206.350  1.00  0.00     0.047 A 
BRANCH  15  18
ATOM     18  O   UNL     1     207.353 206.295 205.879  1.00  0.00    -0.508 OA
ATOM     19  H   UNL     1     207.490 207.188 205.421  1.00  0.00     0.293 HD
ENDBRANCH  15  18
ENDBRANCH   1  12
BRANCH  11  20
ATOM     20  C   UNL     1     198.261 200.777 205.297  1.00  0.00     0.188 C 
ATOM     21  C   UNL     1     197.651 201.233 203.948  1.00  0.00     0.179 C 
ATOM     22  O   UNL     1     197.447 199.812 205.946  1.00  0.00    -0.362 OA
ATOM     23  C   UNL     1     197.372 200.005 203.059  1.00  0.00     0.177 C 
ATOM     24  C   UNL     1     197.328 198.636 205.163  1.00  0.00     0.176 C 
ATOM     25  C   UNL     1     196.584 198.943 203.845  1.00  0.00     0.177 C 
BRANCH  21  26
ATOM     26  O   UNL     1     198.556 202.091 203.299  1.00  0.00    -0.387 OA
ATOM     27  H   UNL     1     198.036 202.869 202.972  1.00  0.00     0.211 HD
ENDBRANCH  21  26
BRANCH  23  28
ATOM     28  O   UNL     1     196.644 200.383 201.919  1.00  0.00    -0.387 OA
ATOM     29  H   UNL     1     195.696 200.478 202.198  1.00  0.00     0.211 HD
ENDBRANCH  23  28
BRANCH  24  30
ATOM     30  C   UNL     1     196.594 197.570 205.992  1.00  0.00     0.191 C 
BRANCH  30  31
ATOM     31  O   UNL     1     197.351 197.190 207.109  1.00  0.00    -0.394 OA
ATOM     32  H   UNL     1     197.242 197.909 207.785  1.00  0.00     0.210 HD
ENDBRANCH  30  31
ENDBRANCH  24  30
BRANCH  25  33
ATOM     33  O   UNL     1     195.287 199.409 204.126  1.00  0.00    -0.388 OA
ATOM     34  H   UNL     1     195.070 200.094 203.442  1.00  0.00     0.211 HD
ENDBRANCH  25  33
ENDBRANCH  11  20
BRANCH  10  35
ATOM     35  O   UNL     1     196.146 201.924 207.094  1.00  0.00    -0.507 OA
ATOM     36  H   UNL     1     195.297 202.460 207.199  1.00  0.00     0.293 HD
ENDBRANCH  10  35
TORSDOF 9
ENDMDL
MODEL 4
REMARK VINA RESULT:    -5.741      3.834      6.692
REMARK INTER + INTRA:          -8.855
REMARK INTER:                  -7.800
REMARK INTRA:                  -1.056
REMARK UNBOUND:                -1.100
REMARK SMILES O=c1c(-c2ccc(O)cc2)coc2c([C@H]3O[C@@H](CO)[C@@H](O)[C@@H](O)[C@@H]3O)c(O)ccc12
REMARK SMILES IDX 3 1 11 2 12 3 13 4 30 5 2 6 1 7 29 8 28 9 26 10 14 11 4 12
REMARK SMILES IDX 5 13 6 14 7 15 10 16 9 17 8 18 15 20 24 21 16 22 22 23 17 24
REMARK SMILES IDX 20 25 25 26 23 28 18 30 19 31 21 33 27 35
REMARK H PARENT 8 19 25 27 23 29 19 32 21 34 27 36
REMARK Flexibility Score: inf
ROOT
ATOM      1  C   UNL     1     205.540 203.636 206.312  1.00  0.00     0.065 A 
ATOM      2  C   UNL     1     205.878 204.742 205.521  1.00  0.00     0.208 A 
ATOM      3  O   UNL     1     207.081 205.298 205.605  1.00  0.00    -0.463 OA
ATOM      4  C   UNL     1     208.034 204.858 206.422  1.00  0.00     0.147 A 
ATOM      5  C   UNL     1     207.780 203.738 207.248  1.00  0.00     0.066 A 
ATOM      6  C   UNL     1     206.517 203.123 207.184  1.00  0.00     0.200 A 
ATOM      7  O   UNL     1     206.267 202.105 207.888  1.00  0.00    -0.288 OA
ATOM      8  C   UNL     1     208.787 203.263 208.099  1.00  0.00     0.020 A 
ATOM      9  C   UNL     1     210.034 203.878 208.122  1.00  0.00     0.047 A 
ATOM     10  C   UNL     1     210.309 204.980 207.308  1.00  0.00     0.125 A 
ATOM     11  C   UNL     1     209.295 205.507 206.459  1.00  0.00     0.069 A 
ENDROOT
BRANCH   1  12
ATOM     12  C   UNL     1     204.186 203.037 206.208  1.00  0.00    -0.011 A 
ATOM     13  C   UNL     1     204.001 201.812 205.543  1.00  0.00     0.013 A 
ATOM     14  C   UNL     1     202.726 201.250 205.435  1.00  0.00     0.047 A 
ATOM     15  C   UNL     1     201.620 201.905 205.984  1.00  0.00     0.115 A 
ATOM     16  C   UNL     1     203.067 203.694 206.752  1.00  0.00     0.013 A 
ATOM     17  C   UNL     1     201.793 203.129 206.642  1.00  0.00     0.047 A 
BRANCH  15  18
ATOM     18  O   UNL     1     200.354 201.333 205.870  1.00  0.00    -0.508 OA
ATOM     19  H   UNL     1     199.593 201.818 205.408  1.00  0.00     0.293 HD
ENDBRANCH  15  18
ENDBRANCH   1  12
BRANCH  11  20
ATOM     20  C   UNL     1     209.537 206.719 205.563  1.00  0.00     0.188 C 
ATOM     21  C   UNL     1     210.150 206.278 204.210  1.00  0.00     0.179 C 
ATOM     22  O   UNL     1     210.365 207.653 206.240  1.00  0.00    -0.362 OA
ATOM     23  C   UNL     1     210.464 207.518 203.350  1.00  0.00     0.177 C 
ATOM     24  C   UNL     1     210.516 208.841 205.483  1.00  0.00     0.176 C 
ATOM     25  C   UNL     1     211.266 208.547 204.165  1.00  0.00     0.177 C 
BRANCH  21  26
ATOM     26  O   UNL     1     209.234 205.454 203.535  1.00  0.00    -0.387 OA
ATOM     27  H   UNL     1     209.745 204.684 203.174  1.00  0.00     0.211 HD
ENDBRANCH  21  26
BRANCH  23  28
ATOM     28  O   UNL     1     211.195 207.148 202.208  1.00  0.00    -0.387 OA
ATOM     29  H   UNL     1     211.946 206.578 202.517  1.00  0.00     0.211 HD
ENDBRANCH  23  28
BRANCH  24  30
ATOM     30  C   UNL     1     211.264 209.875 206.340  1.00  0.00     0.191 C 
BRANCH  30  31
ATOM     31  O   UNL     1     210.653 210.028 207.593  1.00  0.00    -0.394 OA
ATOM     32  H   UNL     1     209.811 209.503 207.565  1.00  0.00     0.210 HD
ENDBRANCH  30  31
ENDBRANCH  24  30
BRANCH  25  33
ATOM     33  O   UNL     1     212.550 208.048 204.449  1.00  0.00    -0.388 OA
ATOM     34  H   UNL     1     212.863 208.503 205.274  1.00  0.00     0.211 HD
ENDBRANCH  25  33
ENDBRANCH  11  20
BRANCH  10  35
ATOM     35  O   UNL     1     211.602 205.507 207.376  1.00  0.00    -0.507 OA
ATOM     36  H   UNL     1     211.889 206.379 206.956  1.00  0.00     0.293 HD
ENDBRANCH  10  35
TORSDOF 9
ENDMDL
MODEL 5
REMARK VINA RESULT:    -5.671      1.935      3.617
REMARK INTER + INTRA:          -8.761
REMARK INTER:                  -8.244
REMARK INTRA:                  -0.517
REMARK UNBOUND:                -1.100
REMARK SMILES O=c1c(-c2ccc(O)cc2)coc2c([C@H]3O[C@@H](CO)[C@@H](O)[C@@H](O)[C@@H]3O)c(O)ccc12
REMARK SMILES IDX 3 1 11 2 12 3 13 4 30 5 2 6 1 7 29 8 28 9 26 10 14 11 4 12
REMARK SMILES IDX 5 13 6 14 7 15 10 16 9 17 8 18 15 20 24 21 16 22 22 23 17 24
REMARK SMILES IDX 20 25 25 26 23 28 18 30 19 31 21 33 27 35
REMARK H PARENT 8 19 25 27 23 29 19 32 21 34 27 36
REMARK Flexibility Score: inf
ROOT
ATOM      1  C   UNL     1     212.016 199.529 208.514  1.00  0.00     0.065 A 
ATOM      2  C   UNL     1     211.262 200.611 208.987  1.00  0.00     0.208 A 
ATOM      3  O   UNL     1     211.047 201.676 208.226  1.00  0.00    -0.463 OA
ATOM      4  C   UNL     1     211.515 201.795 206.985  1.00  0.00     0.147 A 
ATOM      5  C   UNL     1     212.278 200.743 206.426  1.00  0.00     0.066 A 
ATOM      6  C   UNL     1     212.524 199.598 207.205  1.00  0.00     0.200 A 
ATOM      7  O   UNL     1     213.178 198.630 206.725  1.00  0.00    -0.288 OA
ATOM      8  C   UNL     1     212.760 200.859 205.116  1.00  0.00     0.020 A 
ATOM      9  C   UNL     1     212.479 201.994 204.362  1.00  0.00     0.047 A 
ATOM     10  C   UNL     1     211.720 203.041 204.893  1.00  0.00     0.125 A 
ATOM     11  C   UNL     1     211.247 202.967 206.233  1.00  0.00     0.069 A 
ENDROOT
BRANCH   1  12
ATOM     12  C   UNL     1     212.252 198.351 209.388  1.00  0.00    -0.011 A 
ATOM     13  C   UNL     1     211.678 198.294 210.671  1.00  0.00     0.013 A 
ATOM     14  C   UNL     1     211.906 197.191 211.500  1.00  0.00     0.047 A 
ATOM     15  C   UNL     1     212.711 196.136 211.061  1.00  0.00     0.115 A 
ATOM     16  C   UNL     1     213.067 197.290 208.956  1.00  0.00     0.013 A 
ATOM     17  C   UNL     1     213.293 196.188 209.788  1.00  0.00     0.047 A 
BRANCH  15  18
ATOM     18  O   UNL     1     212.929 195.043 211.897  1.00  0.00    -0.508 OA
ATOM     19  H   UNL     1     212.163 194.572 212.364  1.00  0.00     0.293 HD
ENDBRANCH  15  18
ENDBRANCH   1  12
BRANCH  11  20
ATOM     20  C   UNL     1     210.429 204.090 206.867  1.00  0.00     0.188 C 
ATOM     21  C   UNL     1     208.955 204.019 206.395  1.00  0.00     0.179 C 
ATOM     22  O   UNL     1     211.023 205.342 206.560  1.00  0.00    -0.362 OA
ATOM     23  C   UNL     1     208.162 205.204 206.978  1.00  0.00     0.177 C 
ATOM     24  C   UNL     1     210.356 206.400 207.228  1.00  0.00     0.176 C 
ATOM     25  C   UNL     1     208.904 206.526 206.716  1.00  0.00     0.177 C 
BRANCH  21  26
ATOM     26  O   UNL     1     208.388 202.809 206.833  1.00  0.00    -0.387 OA
ATOM     27  H   UNL     1     207.634 202.603 206.223  1.00  0.00     0.211 HD
ENDBRANCH  21  26
BRANCH  23  28
ATOM     28  O   UNL     1     206.880 205.263 206.407  1.00  0.00    -0.387 OA
ATOM     29  H   UNL     1     206.908 205.961 205.701  1.00  0.00     0.211 HD
ENDBRANCH  23  28
BRANCH  24  30
ATOM     30  C   UNL     1     211.150 207.696 207.004  1.00  0.00     0.191 C 
BRANCH  30  31
ATOM     31  O   UNL     1     210.303 208.814 207.012  1.00  0.00    -0.394 OA
ATOM     32  H   UNL     1     209.673 208.700 206.254  1.00  0.00     0.210 HD
ENDBRANCH  30  31
ENDBRANCH  24  30
BRANCH  25  33
ATOM     33  O   UNL     1     208.908 206.817 205.340  1.00  0.00    -0.388 OA
ATOM     34  H   UNL     1     209.051 207.795 205.250  1.00  0.00     0.211 HD
ENDBRANCH  25  33
ENDBRANCH  11  20
BRANCH  10  35
ATOM     35  O   UNL     1     211.461 204.124 204.047  1.00  0.00    -0.507 OA
ATOM     36  H   UNL     1     212.117 204.498 203.378  1.00  0.00     0.293 HD
ENDBRANCH  10  35
TORSDOF 9
ENDMDL
MODEL 6
REMARK VINA RESULT:    -5.647      1.770      8.377
REMARK INTER + INTRA:          -8.728
REMARK INTER:                  -7.920
REMARK INTRA:                  -0.808
REMARK UNBOUND:                -1.100
REMARK SMILES O=c1c(-c2ccc(O)cc2)coc2c([C@H]3O[C@@H](CO)[C@@H](O)[C@@H](O)[C@@H]3O)c(O)ccc12
REMARK SMILES IDX 3 1 11 2 12 3 13 4 30 5 2 6 1 7 29 8 28 9 26 10 14 11 4 12
REMARK SMILES IDX 5 13 6 14 7 15 10 16 9 17 8 18 15 20 24 21 16 22 22 23 17 24
REMARK SMILES IDX 20 25 25 26 23 28 18 30 19 31 21 33 27 35
REMARK H PARENT 8 19 25 27 23 29 19 32 21 34 27 36
REMARK Flexibility Score: inf
ROOT
ATOM      1  C   UNL     1     210.374 205.265 206.996  1.00  0.00     0.065 A 
ATOM      2  C   UNL     1     211.411 204.377 207.313  1.00  0.00     0.208 A 
ATOM      3  O   UNL     1     211.157 203.219 207.910  1.00  0.00    -0.463 OA
ATOM      4  C   UNL     1     209.931 202.820 208.242  1.00  0.00     0.147 A 
ATOM      5  C   UNL     1     208.826 203.652 207.947  1.00  0.00     0.066 A 
ATOM      6  C   UNL     1     209.058 204.886 207.314  1.00  0.00     0.200 A 
ATOM      7  O   UNL     1     208.090 205.639 207.013  1.00  0.00    -0.288 OA
ATOM      8  C   UNL     1     207.533 203.229 208.282  1.00  0.00     0.020 A 
ATOM      9  C   UNL     1     207.334 201.992 208.887  1.00  0.00     0.047 A 
ATOM     10  C   UNL     1     208.412 201.150 209.178  1.00  0.00     0.125 A 
ATOM     11  C   UNL     1     209.740 201.569 208.882  1.00  0.00     0.069 A 
ENDROOT
BRANCH   1  12
ATOM     12  C   UNL     1     210.683 206.559 206.337  1.00  0.00    -0.011 A 
ATOM     13  C   UNL     1     210.862 206.620 204.944  1.00  0.00     0.013 A 
ATOM     14  C   UNL     1     211.162 207.836 204.321  1.00  0.00     0.047 A 
ATOM     15  C   UNL     1     211.291 209.002 205.081  1.00  0.00     0.115 A 
ATOM     16  C   UNL     1     210.821 207.735 207.096  1.00  0.00     0.013 A 
ATOM     17  C   UNL     1     211.122 208.949 206.470  1.00  0.00     0.047 A 
BRANCH  15  18
ATOM     18  O   UNL     1     211.590 210.207 204.448  1.00  0.00    -0.508 OA
ATOM     19  H   UNL     1     210.895 210.707 203.906  1.00  0.00     0.293 HD
ENDBRANCH  15  18
ENDBRANCH   1  12
BRANCH  11  20
ATOM     20  C   UNL     1     210.953 200.697 209.195  1.00  0.00     0.188 C 
ATOM     21  C   UNL     1     211.373 199.885 207.945  1.00  0.00     0.179 C 
ATOM     22  O   UNL     1     210.661 199.854 210.299  1.00  0.00    -0.362 OA
ATOM     23  C   UNL     1     212.547 198.950 208.298  1.00  0.00     0.177 C 
ATOM     24  C   UNL     1     211.803 199.113 210.691  1.00  0.00     0.176 C 
ATOM     25  C   UNL     1     212.224 198.141 209.566  1.00  0.00     0.177 C 
BRANCH  21  26
ATOM     26  O   UNL     1     211.766 200.772 206.928  1.00  0.00    -0.387 OA
ATOM     27  H   UNL     1     211.379 201.659 207.151  1.00  0.00     0.211 HD
ENDBRANCH  21  26
BRANCH  23  28
ATOM     28  O   UNL     1     212.810 198.072 207.234  1.00  0.00    -0.387 OA
ATOM     29  H   UNL     1     213.226 197.259 207.625  1.00  0.00     0.211 HD
ENDBRANCH  23  28
BRANCH  24  30
ATOM     30  C   UNL     1     211.477 198.364 211.993  1.00  0.00     0.191 C 
BRANCH  30  31
ATOM     31  O   UNL     1     211.860 199.112 213.115  1.00  0.00    -0.394 OA
ATOM     32  H   UNL     1     212.693 198.698 213.462  1.00  0.00     0.210 HD
ENDBRANCH  30  31
ENDBRANCH  24  30
BRANCH  25  33
ATOM     33  O   UNL     1     211.183 197.230 209.310  1.00  0.00    -0.388 OA
ATOM     34  H   UNL     1     210.865 197.404 208.386  1.00  0.00     0.211 HD
ENDBRANCH  25  33
ENDBRANCH  11  20
BRANCH  10  35
ATOM     35  O   UNL     1     208.108 199.913 209.753  1.00  0.00    -0.507 OA
ATOM     36  H   UNL     1     208.304 199.019 209.327  1.00  0.00     0.293 HD
ENDBRANCH  10  35
TORSDOF 9
ENDMDL
MODEL 7
REMARK VINA RESULT:    -5.419      5.705      9.035
REMARK INTER + INTRA:          -8.420
REMARK INTER:                  -7.626
REMARK INTRA:                  -0.794
REMARK UNBOUND:                -1.100
REMARK SMILES O=c1c(-c2ccc(O)cc2)coc2c([C@H]3O[C@@H](CO)[C@@H](O)[C@@H](O)[C@@H]3O)c(O)ccc12
REMARK SMILES IDX 3 1 11 2 12 3 13 4 30 5 2 6 1 7 29 8 28 9 26 10 14 11 4 12
REMARK SMILES IDX 5 13 6 14 7 15 10 16 9 17 8 18 15 20 24 21 16 22 22 23 17 24
REMARK SMILES IDX 20 25 25 26 23 28 18 30 19 31 21 33 27 35
REMARK H PARENT 8 19 25 27 23 29 19 32 21 34 27 36
REMARK Flexibility Score: inf
ROOT
ATOM      1  C   UNL     1     206.295 203.566 206.461  1.00  0.00     0.065 A 
ATOM      2  C   UNL     1     205.261 202.877 207.109  1.00  0.00     0.208 A 
ATOM      3  O   UNL     1     203.991 203.108 206.799  1.00  0.00    -0.463 OA
ATOM      4  C   UNL     1     203.612 203.986 205.873  1.00  0.00     0.147 A 
ATOM      5  C   UNL     1     204.593 204.716 205.164  1.00  0.00     0.066 A 
ATOM      6  C   UNL     1     205.950 204.496 205.465  1.00  0.00     0.200 A 
ATOM      7  O   UNL     1     206.851 205.112 204.831  1.00  0.00    -0.288 OA
ATOM      8  C   UNL     1     204.198 205.630 204.178  1.00  0.00     0.020 A 
ATOM      9  C   UNL     1     202.850 205.808 203.887  1.00  0.00     0.047 A 
ATOM     10  C   UNL     1     201.864 205.090 204.570  1.00  0.00     0.125 A 
ATOM     11  C   UNL     1     202.233 204.180 205.600  1.00  0.00     0.069 A 
ENDROOT
BRANCH   1  12
ATOM     12  C   UNL     1     207.708 203.298 206.831  1.00  0.00    -0.011 A 
ATOM     13  C   UNL     1     208.710 203.289 205.844  1.00  0.00     0.013 A 
ATOM     14  C   UNL     1     210.040 203.028 206.186  1.00  0.00     0.047 A 
ATOM     15  C   UNL     1     210.386 202.769 207.516  1.00  0.00     0.115 A 
ATOM     16  C   UNL     1     208.062 203.029 208.165  1.00  0.00     0.013 A 
ATOM     17  C   UNL     1     209.393 202.768 208.505  1.00  0.00     0.047 A 
BRANCH  15  18
ATOM     18  O   UNL     1     211.715 202.511 207.844  1.00  0.00    -0.508 OA
ATOM     19  H   UNL     1     212.285 203.197 208.325  1.00  0.00     0.293 HD
ENDBRANCH  15  18
ENDBRANCH   1  12
BRANCH  11  20
ATOM     20  C   UNL     1     201.197 203.384 206.388  1.00  0.00     0.188 C 
ATOM     21  C   UNL     1     200.745 202.140 205.585  1.00  0.00     0.179 C 
ATOM     22  O   UNL     1     200.103 204.226 206.721  1.00  0.00    -0.362 OA
ATOM     23  C   UNL     1     199.640 201.391 206.357  1.00  0.00     0.177 C 
ATOM     24  C   UNL     1     199.174 203.550 207.551  1.00  0.00     0.176 C 
ATOM     25  C   UNL     1     198.533 202.368 206.790  1.00  0.00     0.177 C 
BRANCH  21  26
ATOM     26  O   UNL     1     201.847 201.289 205.394  1.00  0.00    -0.387 OA
ATOM     27  H   UNL     1     201.956 201.169 204.415  1.00  0.00     0.211 HD
ENDBRANCH  21  26
BRANCH  23  28
ATOM     28  O   UNL     1     199.086 200.377 205.558  1.00  0.00    -0.387 OA
ATOM     29  H   UNL     1     199.149 200.683 204.616  1.00  0.00     0.211 HD
ENDBRANCH  23  28
BRANCH  24  30
ATOM     30  C   UNL     1     198.115 204.560 208.022  1.00  0.00     0.191 C 
BRANCH  30  31
ATOM     31  O   UNL     1     196.885 203.929 208.256  1.00  0.00    -0.394 OA
ATOM     32  H   UNL     1     196.951 203.021 207.859  1.00  0.00     0.210 HD
ENDBRANCH  30  31
ENDBRANCH  24  30
BRANCH  25  33
ATOM     33  O   UNL     1     197.839 202.847 205.665  1.00  0.00    -0.388 OA
ATOM     34  H   UNL     1     198.333 203.642 205.335  1.00  0.00     0.211 HD
ENDBRANCH  25  33
ENDBRANCH  11  20
BRANCH  10  35
ATOM     35  O   UNL     1     200.539 205.312 204.181  1.00  0.00    -0.507 OA
ATOM     36  H   UNL     1     199.854 204.584 204.038  1.00  0.00     0.293 HD
ENDBRANCH  10  35
TORSDOF 9
ENDMDL
MODEL 8
REMARK VINA RESULT:    -5.364      5.162      8.935
REMARK INTER + INTRA:          -8.346
REMARK INTER:                  -7.126
REMARK INTRA:                  -1.220
REMARK UNBOUND:                -1.100
REMARK SMILES O=c1c(-c2ccc(O)cc2)coc2c([C@H]3O[C@@H](CO)[C@@H](O)[C@@H](O)[C@@H]3O)c(O)ccc12
REMARK SMILES IDX 3 1 11 2 12 3 13 4 30 5 2 6 1 7 29 8 28 9 26 10 14 11 4 12
REMARK SMILES IDX 5 13 6 14 7 15 10 16 9 17 8 18 15 20 24 21 16 22 22 23 17 24
REMARK SMILES IDX 20 25 25 26 23 28 18 30 19 31 21 33 27 35
REMARK H PARENT 8 19 25 27 23 29 19 32 21 34 27 36
REMARK Flexibility Score: inf
ROOT
ATOM      1  C   UNL     1     201.910 202.896 205.891  1.00  0.00     0.065 A 
ATOM      2  C   UNL     1     202.782 203.534 206.782  1.00  0.00     0.208 A 
ATOM      3  O   UNL     1     204.093 203.524 206.577  1.00  0.00    -0.463 OA
ATOM      4  C   UNL     1     204.666 202.924 205.536  1.00  0.00     0.147 A 
ATOM      5  C   UNL     1     203.857 202.264 204.582  1.00  0.00     0.066 A 
ATOM      6  C   UNL     1     202.462 202.257 204.767  1.00  0.00     0.200 A 
ATOM      7  O   UNL     1     201.710 201.700 203.919  1.00  0.00    -0.288 OA
ATOM      8  C   UNL     1     204.455 201.645 203.477  1.00  0.00     0.020 A 
ATOM      9  C   UNL     1     205.835 201.691 203.309  1.00  0.00     0.047 A 
ATOM     10  C   UNL     1     206.652 202.345 204.235  1.00  0.00     0.125 A 
ATOM     11  C   UNL     1     206.076 202.953 205.386  1.00  0.00     0.069 A 
ENDROOT
BRANCH   1  12
ATOM     12  C   UNL     1     200.447 202.912 206.146  1.00  0.00    -0.011 A 
ATOM     13  C   UNL     1     199.814 201.794 206.719  1.00  0.00     0.013 A 
ATOM     14  C   UNL     1     198.436 201.802 206.952  1.00  0.00     0.047 A 
ATOM     15  C   UNL     1     197.672 202.923 206.613  1.00  0.00     0.115 A 
ATOM     16  C   UNL     1     199.671 204.033 205.801  1.00  0.00     0.013 A 
ATOM     17  C   UNL     1     198.292 204.038 206.035  1.00  0.00     0.047 A 
BRANCH  15  18
ATOM     18  O   UNL     1     196.299 202.918 206.851  1.00  0.00    -0.508 OA
ATOM     19  H   UNL     1     195.925 202.868 207.791  1.00  0.00     0.293 HD
ENDBRANCH  15  18
ENDBRANCH   1  12
BRANCH  11  20
ATOM     20  C   UNL     1     206.924 203.665 206.436  1.00  0.00     0.188 C 
ATOM     21  C   UNL     1     207.390 205.046 205.911  1.00  0.00     0.179 C 
ATOM     22  O   UNL     1     208.021 202.841 206.801  1.00  0.00    -0.362 OA
ATOM     23  C   UNL     1     208.310 205.717 206.950  1.00  0.00     0.177 C 
ATOM     24  C   UNL     1     208.765 203.421 207.858  1.00  0.00     0.176 C 
ATOM     25  C   UNL     1     209.416 204.743 207.394  1.00  0.00     0.177 C 
BRANCH  21  26
ATOM     26  O   UNL     1     206.264 205.856 205.684  1.00  0.00    -0.387 OA
ATOM     27  H   UNL     1     205.464 205.278 205.780  1.00  0.00     0.211 HD
ENDBRANCH  21  26
BRANCH  23  28
ATOM     28  O   UNL     1     208.893 206.875 206.410  1.00  0.00    -0.387 OA
ATOM     29  H   UNL     1     208.163 207.535 206.281  1.00  0.00     0.211 HD
ENDBRANCH  23  28
BRANCH  24  30
ATOM     30  C   UNL     1     209.820 202.406 208.327  1.00  0.00     0.191 C 
BRANCH  30  31
ATOM     31  O   UNL     1     211.077 203.013 208.466  1.00  0.00    -0.394 OA
ATOM     32  H   UNL     1     211.115 203.379 209.388  1.00  0.00     0.210 HD
ENDBRANCH  30  31
ENDBRANCH  24  30
BRANCH  25  33
ATOM     33  O   UNL     1     210.299 204.492 206.329  1.00  0.00    -0.388 OA
ATOM     34  H   UNL     1     211.143 204.152 206.726  1.00  0.00     0.211 HD
ENDBRANCH  25  33
ENDBRANCH  11  20
BRANCH  10  35
ATOM     35  O   UNL     1     208.023 202.367 203.961  1.00  0.00    -0.507 OA
ATOM     36  H   UNL     1     208.743 202.103 204.617  1.00  0.00     0.293 HD
ENDBRANCH  10  35
TORSDOF 9
ENDMDL
MODEL 9
REMARK VINA RESULT:    -5.342     12.214     15.660
REMARK INTER + INTRA:          -8.316
REMARK INTER:                  -7.956
REMARK INTRA:                  -0.360
REMARK UNBOUND:                -1.100
REMARK SMILES O=c1c(-c2ccc(O)cc2)coc2c([C@H]3O[C@@H](CO)[C@@H](O)[C@@H](O)[C@@H]3O)c(O)ccc12
REMARK SMILES IDX 3 1 11 2 12 3 13 4 30 5 2 6 1 7 29 8 28 9 26 10 14 11 4 12
REMARK SMILES IDX 5 13 6 14 7 15 10 16 9 17 8 18 15 20 24 21 16 22 22 23 17 24
REMARK SMILES IDX 20 25 25 26 23 28 18 30 19 31 21 33 27 35
REMARK H PARENT 8 19 25 27 23 29 19 32 21 34 27 36
REMARK Flexibility Score: inf
ROOT
ATOM      1  C   UNL     1     196.106 206.644 207.788  1.00  0.00     0.065 A 
ATOM      2  C   UNL     1     197.033 205.599 207.892  1.00  0.00     0.208 A 
ATOM      3  O   UNL     1     196.962 204.544 207.090  1.00  0.00    -0.463 OA
ATOM      4  C   UNL     1     196.032 204.401 206.149  1.00  0.00     0.147 A 
ATOM      5  C   UNL     1     195.063 205.416 205.970  1.00  0.00     0.066 A 
ATOM      6  C   UNL     1     195.109 206.549 206.801  1.00  0.00     0.200 A 
ATOM      7  O   UNL     1     194.275 207.485 206.648  1.00  0.00    -0.288 OA
ATOM      8  C   UNL     1     194.091 205.275 204.970  1.00  0.00     0.020 A 
ATOM      9  C   UNL     1     194.087 204.153 204.149  1.00  0.00     0.047 A 
ATOM     10  C   UNL     1     195.041 203.143 204.303  1.00  0.00     0.125 A 
ATOM     11  C   UNL     1     196.019 203.241 205.332  1.00  0.00     0.069 A 
ENDROOT
BRANCH   1  12
ATOM     12  C   UNL     1     196.199 207.811 208.702  1.00  0.00    -0.011 A 
ATOM     13  C   UNL     1     195.621 209.041 208.342  1.00  0.00     0.013 A 
ATOM     14  C   UNL     1     195.715 210.145 209.196  1.00  0.00     0.047 A 
ATOM     15  C   UNL     1     196.390 210.035 210.415  1.00  0.00     0.115 A 
ATOM     16  C   UNL     1     196.883 207.710 209.926  1.00  0.00     0.013 A 
ATOM     17  C   UNL     1     196.976 208.815 210.778  1.00  0.00     0.047 A 
BRANCH  15  18
ATOM     18  O   UNL     1     196.475 211.142 211.257  1.00  0.00    -0.508 OA
ATOM     19  H   UNL     1     197.050 211.943 211.022  1.00  0.00     0.293 HD
ENDBRANCH  15  18
ENDBRANCH   1  12
BRANCH  11  20
ATOM     20  C   UNL     1     197.072 202.159 205.555  1.00  0.00     0.188 C 
ATOM     21  C   UNL     1     198.182 202.254 204.480  1.00  0.00     0.179 C 
ATOM     22  O   UNL     1     196.449 200.883 205.561  1.00  0.00    -0.362 OA
ATOM     23  C   UNL     1     199.194 201.107 204.670  1.00  0.00     0.177 C 
ATOM     24  C   UNL     1     197.379 199.863 205.881  1.00  0.00     0.176 C 
ATOM     25  C   UNL     1     198.460 199.759 204.781  1.00  0.00     0.177 C 
BRANCH  21  26
ATOM     26  O   UNL     1     198.840 203.490 204.605  1.00  0.00    -0.387 OA
ATOM     27  H   UNL     1     198.160 204.198 204.467  1.00  0.00     0.211 HD
ENDBRANCH  21  26
BRANCH  23  28
ATOM     28  O   UNL     1     200.093 201.064 203.591  1.00  0.00    -0.387 OA
ATOM     29  H   UNL     1     199.551 200.974 202.765  1.00  0.00     0.211 HD
ENDBRANCH  23  28
BRANCH  24  30
ATOM     30  C   UNL     1     196.615 198.540 206.049  1.00  0.00     0.191 C 
BRANCH  30  31
ATOM     31  O   UNL     1     197.361 197.619 206.798  1.00  0.00    -0.394 OA
ATOM     32  H   UNL     1     196.745 196.876 207.031  1.00  0.00     0.210 HD
ENDBRANCH  30  31
ENDBRANCH  24  30
BRANCH  25  33
ATOM     33  O   UNL     1     197.859 199.428 203.553  1.00  0.00    -0.388 OA
ATOM     34  H   UNL     1     197.634 198.463 203.591  1.00  0.00     0.211 HD
ENDBRANCH  25  33
ENDBRANCH  11  20
BRANCH  10  35
ATOM     35  O   UNL     1     194.976 202.072 203.407  1.00  0.00    -0.507 OA
ATOM     36  H   UNL     1     195.725 201.795 202.790  1.00  0.00     0.293 HD
ENDBRANCH  10  35
TORSDOF 9
ENDMDL
