MODEL 1
REMARK VINA RESULT:    -7.406      0.000      0.000
REMARK INTER + INTRA:          -7.622
REMARK INTER:                  -7.622
REMARK INTRA:                   0.000
REMARK UNBOUND:                 0.000
REMARK SMILES O=c1ccc2ccc(O)cc2o1
REMARK SMILES IDX 6 1 7 2 8 3 10 4 11 5 5 6 4 7 3 8 2 9 1 10 12 11 9 12
REMARK H PARENT 9 13
REMARK Flexibility Score: inf
ROOT
ATOM      1  C   UNL     1     -11.007   2.629  -8.873  1.00  0.00     0.016 A 
ATOM      2  C   UNL     1     -11.663   3.757  -8.368  1.00  0.00     0.047 A 
ATOM      3  C   UNL     1     -13.057   3.859  -8.448  1.00  0.00     0.119 A 
ATOM      4  C   UNL     1     -13.802   2.828  -9.038  1.00  0.00     0.094 A 
ATOM      5  C   UNL     1     -13.155   1.696  -9.546  1.00  0.00     0.142 A 
ATOM      6  C   UNL     1     -11.748   1.596  -9.463  1.00  0.00     0.018 A 
ATOM      7  C   UNL     1     -11.129   0.453  -9.980  1.00  0.00     0.019 A 
ATOM      8  C   UNL     1     -11.911  -0.546 -10.557  1.00  0.00     0.094 A 
ATOM      9  C   UNL     1     -13.300  -0.379 -10.605  1.00  0.00     0.336 A 
ATOM     10  O   UNL     1     -14.023  -1.271 -11.121  1.00  0.00    -0.246 OA
ATOM     11  O   UNL     1     -13.863   0.718 -10.105  1.00  0.00    -0.423 OA
ENDROOT
BRANCH   3  12
ATOM     12  O   UNL     1     -13.692   4.990  -7.939  1.00  0.00    -0.508 OA
ATOM     13  H   UNL     1     -14.407   4.919  -7.225  1.00  0.00     0.293 HD
ENDBRANCH   3  12
TORSDOF 1
ENDMDL
MODEL 2
REMARK VINA RESULT:    -7.112      1.600      4.770
REMARK INTER + INTRA:          -7.320
REMARK INTER:                  -7.320
REMARK INTRA:                   0.000
REMARK UNBOUND:                 0.000
REMARK SMILES O=c1ccc2ccc(O)cc2o1
REMARK SMILES IDX 6 1 7 2 8 3 10 4 11 5 5 6 4 7 3 8 2 9 1 10 12 11 9 12
REMARK H PARENT 9 13
REMARK Flexibility Score: inf
ROOT
ATOM      1  C   UNL     1     -14.084   0.606 -10.302  1.00  0.00     0.016 A 
ATOM      2  C   UNL     1     -13.584  -0.618 -10.761  1.00  0.00     0.047 A 
ATOM      3  C   UNL     1     -12.218  -0.908 -10.654  1.00  0.00     0.119 A 
ATOM      4  C   UNL     1     -11.345   0.031 -10.086  1.00  0.00     0.094 A 
ATOM      5  C   UNL     1     -11.836   1.257  -9.625  1.00  0.00     0.142 A 
ATOM      6  C   UNL     1     -13.215   1.547  -9.734  1.00  0.00     0.018 A 
ATOM      7  C   UNL     1     -13.676   2.781  -9.265  1.00  0.00     0.019 A 
ATOM      8  C   UNL     1     -12.770   3.683  -8.708  1.00  0.00     0.094 A 
ATOM      9  C   UNL     1     -11.418   3.328  -8.633  1.00  0.00     0.336 A 
ATOM     10  O   UNL     1     -10.586   4.129  -8.132  1.00  0.00    -0.246 OA
ATOM     11  O   UNL     1     -11.006   2.147  -9.086  1.00  0.00    -0.423 OA
ENDROOT
BRANCH   3  12
ATOM     12  O   UNL     1     -11.739  -2.132 -11.116  1.00  0.00    -0.508 OA
ATOM     13  H   UNL     1     -12.298  -2.975 -11.057  1.00  0.00     0.293 HD
ENDBRANCH   3  12
TORSDOF 1
ENDMDL
MODEL 3
REMARK VINA RESULT:    -7.006      1.426      2.236
REMARK INTER + INTRA:          -7.211
REMARK INTER:                  -7.211
REMARK INTRA:                   0.000
REMARK UNBOUND:                 0.000
REMARK SMILES O=c1ccc2ccc(O)cc2o1
REMARK SMILES IDX 6 1 7 2 8 3 10 4 11 5 5 6 4 7 3 8 2 9 1 10 12 11 9 12
REMARK H PARENT 9 13
REMARK Flexibility Score: inf
ROOT
ATOM      1  C   UNL     1     -13.647   3.063  -8.954  1.00  0.00     0.016 A 
ATOM      2  C   UNL     1     -12.596   3.858  -8.485  1.00  0.00     0.047 A 
ATOM      3  C   UNL     1     -11.274   3.403  -8.566  1.00  0.00     0.119 A 
ATOM      4  C   UNL     1     -11.001   2.144  -9.119  1.00  0.00     0.094 A 
ATOM      5  C   UNL     1     -12.046   1.341  -9.590  1.00  0.00     0.142 A 
ATOM      6  C   UNL     1     -13.378   1.805  -9.507  1.00  0.00     0.018 A 
ATOM      7  C   UNL     1     -14.401   0.981  -9.987  1.00  0.00     0.019 A 
ATOM      8  C   UNL     1     -14.081  -0.264 -10.528  1.00  0.00     0.094 A 
ATOM      9  C   UNL     1     -12.738  -0.657 -10.578  1.00  0.00     0.336 A 
ATOM     10  O   UNL     1     -12.430  -1.776 -11.064  1.00  0.00    -0.246 OA
ATOM     11  O   UNL     1     -11.784   0.147 -10.116  1.00  0.00    -0.423 OA
ENDROOT
BRANCH   3  12
ATOM     12  O   UNL     1     -10.241   4.209  -8.093  1.00  0.00    -0.508 OA
ATOM     13  H   UNL     1     -10.269   4.617  -7.166  1.00  0.00     0.293 HD
ENDBRANCH   3  12
TORSDOF 1
ENDMDL
MODEL 4
REMARK VINA RESULT:    -6.693      0.752      4.222
REMARK INTER + INTRA:          -6.889
REMARK INTER:                  -6.889
REMARK INTRA:                   0.000
REMARK UNBOUND:                 0.000
REMARK SMILES O=c1ccc2ccc(O)cc2o1
REMARK SMILES IDX 6 1 7 2 8 3 10 4 11 5 5 6 4 7 3 8 2 9 1 10 12 11 9 12
REMARK H PARENT 9 13
REMARK Flexibility Score: inf
ROOT
ATOM      1  C   UNL     1     -11.234   0.469  -9.947  1.00  0.00     0.016 A 
ATOM      2  C   UNL     1     -12.102  -0.471 -10.513  1.00  0.00     0.047 A 
ATOM      3  C   UNL     1     -13.480  -0.226 -10.556  1.00  0.00     0.119 A 
ATOM      4  C   UNL     1     -13.995   0.967 -10.029  1.00  0.00     0.094 A 
ATOM      5  C   UNL     1     -13.135   1.913  -9.460  1.00  0.00     0.142 A 
ATOM      6  C   UNL     1     -11.745   1.662  -9.419  1.00  0.00     0.018 A 
ATOM      7  C   UNL     1     -10.911   2.626  -8.844  1.00  0.00     0.019 A 
ATOM      8  C   UNL     1     -11.469   3.797  -8.333  1.00  0.00     0.094 A 
ATOM      9  C   UNL     1     -12.855   3.977  -8.408  1.00  0.00     0.336 A 
ATOM     10  O   UNL     1     -13.377   5.028  -7.953  1.00  0.00    -0.246 OA
ATOM     11  O   UNL     1     -13.625   3.044  -8.961  1.00  0.00    -0.423 OA
ENDROOT
BRANCH   3  12
ATOM     12  O   UNL     1     -14.328  -1.174 -11.124  1.00  0.00    -0.508 OA
ATOM     13  H   UNL     1     -15.168  -0.903 -11.621  1.00  0.00     0.293 HD
ENDBRANCH   3  12
TORSDOF 1
ENDMDL
MODEL 5
REMARK VINA RESULT:    -5.933      1.524      4.451
REMARK INTER + INTRA:          -6.107
REMARK INTER:                  -6.107
REMARK INTRA:                   0.000
REMARK UNBOUND:                 0.000
REMARK SMILES O=c1ccc2ccc(O)cc2o1
REMARK SMILES IDX 6 1 7 2 8 3 10 4 11 5 5 6 4 7 3 8 2 9 1 10 12 11 9 12
REMARK H PARENT 9 13
REMARK Flexibility Score: inf
ROOT
ATOM      1  C   UNL     1     -10.411  -0.453  -9.529  1.00  0.00     0.016 A 
ATOM      2  C   UNL     1     -10.536  -1.797  -9.899  1.00  0.00     0.047 A 
ATOM      3  C   UNL     1     -11.756  -2.286 -10.383  1.00  0.00     0.119 A 
ATOM      4  C   UNL     1     -12.859  -1.427 -10.497  1.00  0.00     0.094 A 
ATOM      5  C   UNL     1     -12.743  -0.082 -10.128  1.00  0.00     0.142 A 
ATOM      6  C   UNL     1     -11.510   0.408  -9.641  1.00  0.00     0.018 A 
ATOM      7  C   UNL     1     -11.425   1.757  -9.281  1.00  0.00     0.019 A 
ATOM      8  C   UNL     1     -12.548   2.572  -9.411  1.00  0.00     0.094 A 
ATOM      9  C   UNL     1     -13.736   2.018  -9.901  1.00  0.00     0.336 A 
ATOM     10  O   UNL     1     -14.761   2.738 -10.027  1.00  0.00    -0.246 OA
ATOM     11  O   UNL     1     -13.790   0.731 -10.238  1.00  0.00    -0.423 OA
ENDROOT
BRANCH   3  12
ATOM     12  O   UNL     1     -11.861  -3.626 -10.747  1.00  0.00    -0.508 OA
ATOM     13  H   UNL     1     -11.118  -4.098 -11.250  1.00  0.00     0.293 HD
ENDBRANCH   3  12
TORSDOF 1
ENDMDL
MODEL 6
REMARK VINA RESULT:    -5.905      2.068      4.785
REMARK INTER + INTRA:          -6.078
REMARK INTER:                  -6.078
REMARK INTRA:                   0.000
REMARK UNBOUND:                 0.000
REMARK SMILES O=c1ccc2ccc(O)cc2o1
REMARK SMILES IDX 6 1 7 2 8 3 10 4 11 5 5 6 4 7 3 8 2 9 1 10 12 11 9 12
REMARK H PARENT 9 13
REMARK Flexibility Score: inf
ROOT
ATOM      1  C   UNL     1     -12.716  -1.888 -10.540  1.00  0.00     0.016 A 
ATOM      2  C   UNL     1     -11.450  -2.466 -10.399  1.00  0.00     0.047 A 
ATOM      3  C   UNL     1     -10.367  -1.697  -9.953  1.00  0.00     0.119 A 
ATOM      4  C   UNL     1     -10.551  -0.341  -9.646  1.00  0.00     0.094 A 
ATOM      5  C   UNL     1     -11.814   0.245  -9.785  1.00  0.00     0.142 A 
ATOM      6  C   UNL     1     -12.904  -0.534 -10.234  1.00  0.00     0.018 A 
ATOM      7  C   UNL     1     -14.154   0.080 -10.363  1.00  0.00     0.019 A 
ATOM      8  C   UNL     1     -14.289   1.431 -10.046  1.00  0.00     0.094 A 
ATOM      9  C   UNL     1     -13.165   2.140  -9.606  1.00  0.00     0.336 A 
ATOM     10  O   UNL     1     -13.267   3.361  -9.315  1.00  0.00    -0.246 OA
ATOM     11  O   UNL     1     -11.987   1.532  -9.493  1.00  0.00    -0.423 OA
ENDROOT
BRANCH   3  12
ATOM     12  O   UNL     1      -9.114  -2.290  -9.818  1.00  0.00    -0.508 OA
ATOM     13  H   UNL     1      -8.688  -2.805 -10.580  1.00  0.00     0.293 HD
ENDBRANCH   3  12
TORSDOF 1
ENDMDL
MODEL 7
REMARK VINA RESULT:    -5.087     15.474     17.020
REMARK INTER + INTRA:          -5.236
REMARK INTER:                  -5.236
REMARK INTRA:                   0.000
REMARK UNBOUND:                 0.000
REMARK SMILES O=c1ccc2ccc(O)cc2o1
REMARK SMILES IDX 6 1 7 2 8 3 10 4 11 5 5 6 4 7 3 8 2 9 1 10 12 11 9 12
REMARK H PARENT 9 13
REMARK Flexibility Score: inf
ROOT
ATOM      1  C   UNL     1     -12.105   4.151   6.806  1.00  0.00     0.016 A 
ATOM      2  C   UNL     1     -11.095   4.167   7.774  1.00  0.00     0.047 A 
ATOM      3  C   UNL     1     -10.505   5.377   8.159  1.00  0.00     0.119 A 
ATOM      4  C   UNL     1     -10.926   6.580   7.574  1.00  0.00     0.094 A 
ATOM      5  C   UNL     1     -11.936   6.573   6.605  1.00  0.00     0.142 A 
ATOM      6  C   UNL     1     -12.529   5.350   6.219  1.00  0.00     0.018 A 
ATOM      7  C   UNL     1     -13.536   5.375   5.248  1.00  0.00     0.019 A 
ATOM      8  C   UNL     1     -13.922   6.595   4.694  1.00  0.00     0.094 A 
ATOM      9  C   UNL     1     -13.290   7.767   5.125  1.00  0.00     0.336 A 
ATOM     10  O   UNL     1     -13.625   8.877   4.637  1.00  0.00    -0.246 OA
ATOM     11  O   UNL     1     -12.335   7.715   6.050  1.00  0.00    -0.423 OA
ENDROOT
BRANCH   3  12
ATOM     12  O   UNL     1      -9.500   5.373   9.125  1.00  0.00    -0.508 OA
ATOM     13  H   UNL     1      -9.700   5.578  10.097  1.00  0.00     0.293 HD
ENDBRANCH   3  12
TORSDOF 1
ENDMDL
MODEL 8
REMARK VINA RESULT:    -4.794     14.913     16.487
REMARK INTER + INTRA:          -4.934
REMARK INTER:                  -4.934
REMARK INTRA:                   0.000
REMARK UNBOUND:                 0.000
REMARK SMILES O=c1ccc2ccc(O)cc2o1
REMARK SMILES IDX 6 1 7 2 8 3 10 4 11 5 5 6 4 7 3 8 2 9 1 10 12 11 9 12
REMARK H PARENT 9 13
REMARK Flexibility Score: inf
ROOT
ATOM      1  C   UNL     1     -10.996   6.716   7.226  1.00  0.00     0.016 A 
ATOM      2  C   UNL     1     -10.489   5.530   7.768  1.00  0.00     0.047 A 
ATOM      3  C   UNL     1     -11.043   4.295   7.409  1.00  0.00     0.119 A 
ATOM      4  C   UNL     1     -12.111   4.244   6.502  1.00  0.00     0.094 A 
ATOM      5  C   UNL     1     -12.625   5.425   5.955  1.00  0.00     0.142 A 
ATOM      6  C   UNL     1     -12.063   6.669   6.319  1.00  0.00     0.018 A 
ATOM      7  C   UNL     1     -12.598   7.832   5.755  1.00  0.00     0.019 A 
ATOM      8  C   UNL     1     -13.661   7.732   4.858  1.00  0.00     0.094 A 
ATOM      9  C   UNL     1     -14.166   6.465   4.544  1.00  0.00     0.336 A 
ATOM     10  O   UNL     1     -15.125   6.354   3.736  1.00  0.00    -0.246 OA
ATOM     11  O   UNL     1     -13.639   5.375   5.094  1.00  0.00    -0.423 OA
ENDROOT
BRANCH   3  12
ATOM     12  O   UNL     1     -10.525   3.125   7.960  1.00  0.00    -0.508 OA
ATOM     13  H   UNL     1      -9.646   3.122   8.465  1.00  0.00     0.293 HD
ENDBRANCH   3  12
TORSDOF 1
ENDMDL
MODEL 9
REMARK VINA RESULT:    -4.778     15.603     16.912
REMARK INTER + INTRA:          -4.918
REMARK INTER:                  -4.918
REMARK INTRA:                   0.000
REMARK UNBOUND:                 0.000
REMARK SMILES O=c1ccc2ccc(O)cc2o1
REMARK SMILES IDX 6 1 7 2 8 3 10 4 11 5 5 6 4 7 3 8 2 9 1 10 12 11 9 12
REMARK H PARENT 9 13
REMARK Flexibility Score: inf
ROOT
ATOM      1  C   UNL     1     -13.704   5.750   5.143  1.00  0.00     0.016 A 
ATOM      2  C   UNL     1     -13.965   7.035   4.655  1.00  0.00     0.047 A 
ATOM      3  C   UNL     1     -13.250   8.136   5.142  1.00  0.00     0.119 A 
ATOM      4  C   UNL     1     -12.266   7.952   6.125  1.00  0.00     0.094 A 
ATOM      5  C   UNL     1     -11.998   6.670   6.619  1.00  0.00     0.142 A 
ATOM      6  C   UNL     1     -12.722   5.562   6.125  1.00  0.00     0.018 A 
ATOM      7  C   UNL     1     -12.432   4.294   6.638  1.00  0.00     0.019 A 
ATOM      8  C   UNL     1     -11.445   4.160   7.615  1.00  0.00     0.094 A 
ATOM      9  C   UNL     1     -10.769   5.303   8.057  1.00  0.00     0.336 A 
ATOM     10  O   UNL     1      -9.875   5.202   8.937  1.00  0.00    -0.246 OA
ATOM     11  O   UNL     1     -11.064   6.498   7.551  1.00  0.00    -0.423 OA
ENDROOT
BRANCH   3  12
ATOM     12  O   UNL     1     -13.524   9.407   4.644  1.00  0.00    -0.508 OA
ATOM     13  H   UNL     1     -13.041   9.773   3.832  1.00  0.00     0.293 HD
ENDBRANCH   3  12
TORSDOF 1
ENDMDL
