MODEL 1
REMARK VINA RESULT:    -6.448      0.000      0.000
REMARK INTER + INTRA:          -7.991
REMARK INTER:                  -7.767
REMARK INTRA:                  -0.224
REMARK UNBOUND:                -0.224
REMARK SMILES O=c1c(O)c(-c2ccc(O)cc2O)oc2cc(O)cc(O)c12
REMARK SMILES IDX 5 1 3 2 2 3 1 4 22 5 20 6 19 7 17 8 16 9 15 10 14 11 6 12
REMARK SMILES IDX 8 13 7 14 9 15 11 16 12 17 10 18 13 20 4 22 21 24 18 26
REMARK H PARENT 10 19 13 21 4 23 21 25 18 27
REMARK Flexibility Score: inf
ROOT
ATOM      1  C   UNL     1      15.679  15.783  13.307  1.00  0.00     0.184 A 
ATOM      2  C   UNL     1      16.516  16.197  12.260  1.00  0.00     0.208 A 
ATOM      3  C   UNL     1      15.936  16.657  11.067  1.00  0.00     0.238 A 
ATOM      4  O   UNL     1      16.691  16.968  10.109  1.00  0.00    -0.285 OA
ATOM      5  C   UNL     1      14.526  16.724  10.950  1.00  0.00     0.111 A 
ATOM      6  C   UNL     1      13.830  17.211   9.803  1.00  0.00     0.134 A 
ATOM      7  C   UNL     1      12.433  17.117   9.752  1.00  0.00     0.093 A 
ATOM      8  C   UNL     1      11.705  16.615  10.829  1.00  0.00     0.123 A 
ATOM      9  C   UNL     1      12.371  16.191  11.978  1.00  0.00     0.094 A 
ATOM     10  C   UNL     1      13.765  16.237  12.046  1.00  0.00     0.146 A 
ATOM     11  O   UNL     1      14.362  15.809  13.152  1.00  0.00    -0.451 OA
ENDROOT
BRANCH   1  12
ATOM     12  C   UNL     1      16.233  15.312  14.594  1.00  0.00     0.063 A 
ATOM     13  C   UNL     1      17.753  13.836  15.794  1.00  0.00     0.047 A 
ATOM     14  C   UNL     1      17.173  14.265  14.598  1.00  0.00     0.020 A 
ATOM     15  C   UNL     1      17.410  14.450  17.001  1.00  0.00     0.119 A 
ATOM     16  C   UNL     1      16.477  15.494  17.010  1.00  0.00     0.093 A 
ATOM     17  C   UNL     1      15.880  15.926  15.818  1.00  0.00     0.130 A 
BRANCH  15  18
ATOM     18  O   UNL     1      18.002  14.015  18.186  1.00  0.00    -0.508 OA
ATOM     19  H   UNL     1      18.593  13.194  18.211  1.00  0.00     0.293 HD
ENDBRANCH  15  18
BRANCH  17  20
ATOM     20  O   UNL     1      14.930  16.947  15.890  1.00  0.00    -0.507 OA
ATOM     21  H   UNL     1      14.966  17.687  16.579  1.00  0.00     0.293 HD
ENDBRANCH  17  20
ENDBRANCH   1  12
BRANCH   2  22
ATOM     22  O   UNL     1      17.903  16.122  12.404  1.00  0.00    -0.502 OA
ATOM     23  H   UNL     1      18.353  16.079  13.310  1.00  0.00     0.293 HD
ENDBRANCH   2  22
BRANCH   6  24
ATOM     24  O   UNL     1      14.454  17.815   8.708  1.00  0.00    -0.507 OA
ATOM     25  H   UNL     1      14.234  18.734   8.355  1.00  0.00     0.293 HD
ENDBRANCH   6  24
BRANCH   8  26
ATOM     26  O   UNL     1      10.315  16.552  10.749  1.00  0.00    -0.508 OA
ATOM     27  H   UNL     1       9.819  16.855   9.918  1.00  0.00     0.293 HD
ENDBRANCH   8  26
TORSDOF 6
ENDMDL
MODEL 2
REMARK VINA RESULT:    -6.414      3.146      5.291
REMARK INTER + INTRA:          -7.950
REMARK INTER:                  -7.584
REMARK INTRA:                  -0.366
REMARK UNBOUND:                -0.224
REMARK SMILES O=c1c(O)c(-c2ccc(O)cc2O)oc2cc(O)cc(O)c12
REMARK SMILES IDX 5 1 3 2 2 3 1 4 22 5 20 6 19 7 17 8 16 9 15 10 14 11 6 12
REMARK SMILES IDX 8 13 7 14 9 15 11 16 12 17 10 18 13 20 4 22 21 24 18 26
REMARK H PARENT 10 19 13 21 4 23 21 25 18 27
REMARK Flexibility Score: inf
ROOT
ATOM      1  C   UNL     1      17.398  13.318  17.164  1.00  0.00     0.184 A 
ATOM      2  C   UNL     1      18.031  12.848  16.003  1.00  0.00     0.208 A 
ATOM      3  C   UNL     1      17.876  13.563  14.806  1.00  0.00     0.238 A 
ATOM      4  O   UNL     1      18.395  13.103  13.756  1.00  0.00    -0.285 OA
ATOM      5  C   UNL     1      17.112  14.756  14.793  1.00  0.00     0.111 A 
ATOM      6  C   UNL     1      16.921  15.584  13.645  1.00  0.00     0.134 A 
ATOM      7  C   UNL     1      16.046  16.675  13.720  1.00  0.00     0.093 A 
ATOM      8  C   UNL     1      15.407  17.007  14.914  1.00  0.00     0.123 A 
ATOM      9  C   UNL     1      15.633  16.239  16.057  1.00  0.00     0.094 A 
ATOM     10  C   UNL     1      16.470  15.123  16.005  1.00  0.00     0.146 A 
ATOM     11  O   UNL     1      16.647  14.411  17.112  1.00  0.00    -0.451 OA
ENDROOT
BRANCH   1  12
ATOM     12  C   UNL     1      17.544  12.618  18.458  1.00  0.00     0.063 A 
ATOM     13  C   UNL     1      17.081  10.666  19.837  1.00  0.00     0.047 A 
ATOM     14  C   UNL     1      16.915  11.374  18.644  1.00  0.00     0.020 A 
ATOM     15  C   UNL     1      17.883  11.185  20.856  1.00  0.00     0.119 A 
ATOM     16  C   UNL     1      18.516  12.422  20.682  1.00  0.00     0.093 A 
ATOM     17  C   UNL     1      18.348  13.147  19.495  1.00  0.00     0.130 A 
BRANCH  15  18
ATOM     18  O   UNL     1      18.044  10.465  22.038  1.00  0.00    -0.508 OA
ATOM     19  H   UNL     1      18.803  10.662  22.679  1.00  0.00     0.293 HD
ENDBRANCH  15  18
BRANCH  17  20
ATOM     20  O   UNL     1      18.973  14.391  19.388  1.00  0.00    -0.507 OA
ATOM     21  H   UNL     1      19.973  14.515  19.479  1.00  0.00     0.293 HD
ENDBRANCH  17  20
ENDBRANCH   1  12
BRANCH   2  22
ATOM     22  O   UNL     1      18.780  11.669  16.046  1.00  0.00    -0.502 OA
ATOM     23  H   UNL     1      19.725  11.639  16.410  1.00  0.00     0.293 HD
ENDBRANCH   2  22
BRANCH   6  24
ATOM     24  O   UNL     1      17.581  15.396  12.428  1.00  0.00    -0.507 OA
ATOM     25  H   UNL     1      17.123  15.225  11.546  1.00  0.00     0.293 HD
ENDBRANCH   6  24
BRANCH   8  26
ATOM     26  O   UNL     1      14.557  18.109  14.954  1.00  0.00    -0.508 OA
ATOM     27  H   UNL     1      14.905  19.052  14.821  1.00  0.00     0.293 HD
ENDBRANCH   8  26
TORSDOF 6
ENDMDL
MODEL 3
REMARK VINA RESULT:    -6.398      1.806      2.283
REMARK INTER + INTRA:          -7.931
REMARK INTER:                  -7.712
REMARK INTRA:                  -0.219
REMARK UNBOUND:                -0.224
REMARK SMILES O=c1c(O)c(-c2ccc(O)cc2O)oc2cc(O)cc(O)c12
REMARK SMILES IDX 5 1 3 2 2 3 1 4 22 5 20 6 19 7 17 8 16 9 15 10 14 11 6 12
REMARK SMILES IDX 8 13 7 14 9 15 11 16 12 17 10 18 13 20 4 22 21 24 18 26
REMARK H PARENT 10 19 13 21 4 23 21 25 18 27
REMARK Flexibility Score: inf
ROOT
ATOM      1  C   UNL     1      16.435  16.229  12.158  1.00  0.00     0.184 A 
ATOM      2  C   UNL     1      17.655  16.510  11.524  1.00  0.00     0.208 A 
ATOM      3  C   UNL     1      17.652  16.855  10.164  1.00  0.00     0.238 A 
ATOM      4  O   UNL     1      18.754  17.045   9.587  1.00  0.00    -0.285 OA
ATOM      5  C   UNL     1      16.424  16.943   9.463  1.00  0.00     0.111 A 
ATOM      6  C   UNL     1      16.299  17.324   8.092  1.00  0.00     0.134 A 
ATOM      7  C   UNL     1      15.045  17.258   7.471  1.00  0.00     0.093 A 
ATOM      8  C   UNL     1      13.905  16.890   8.184  1.00  0.00     0.123 A 
ATOM      9  C   UNL     1      14.007  16.574   9.538  1.00  0.00     0.094 A 
ATOM     10  C   UNL     1      15.248  16.593  10.178  1.00  0.00     0.146 A 
ATOM     11  O   UNL     1      15.304  16.270  11.465  1.00  0.00    -0.451 OA
ENDROOT
BRANCH   1  12
ATOM     12  C   UNL     1      16.375  15.883  13.594  1.00  0.00     0.063 A 
ATOM     13  C   UNL     1      17.171  14.515  15.443  1.00  0.00     0.047 A 
ATOM     14  C   UNL     1      17.167  14.828  14.082  1.00  0.00     0.020 A 
ATOM     15  C   UNL     1      16.392  15.254  16.336  1.00  0.00     0.119 A 
ATOM     16  C   UNL     1      15.600  16.307  15.863  1.00  0.00     0.093 A 
ATOM     17  C   UNL     1      15.579  16.624  14.498  1.00  0.00     0.130 A 
BRANCH  15  18
ATOM     18  O   UNL     1      16.410  14.933  17.693  1.00  0.00    -0.508 OA
ATOM     19  H   UNL     1      15.570  14.973  18.257  1.00  0.00     0.293 HD
ENDBRANCH  15  18
BRANCH  17  20
ATOM     20  O   UNL     1      14.745  17.661  14.075  1.00  0.00    -0.507 OA
ATOM     21  H   UNL     1      13.954  17.517  13.461  1.00  0.00     0.293 HD
ENDBRANCH  17  20
ENDBRANCH   1  12
BRANCH   2  22
ATOM     22  O   UNL     1      18.851  16.418  12.241  1.00  0.00    -0.502 OA
ATOM     23  H   UNL     1      19.232  17.198  12.763  1.00  0.00     0.293 HD
ENDBRANCH   2  22
BRANCH   6  24
ATOM     24  O   UNL     1      17.358  17.794   7.312  1.00  0.00    -0.507 OA
ATOM     25  H   UNL     1      18.327  17.787   7.592  1.00  0.00     0.293 HD
ENDBRANCH   6  24
BRANCH   8  26
ATOM     26  O   UNL     1      12.673  16.852   7.535  1.00  0.00    -0.508 OA
ATOM     27  H   UNL     1      11.902  17.443   7.827  1.00  0.00     0.293 HD
ENDBRANCH   8  26
TORSDOF 6
ENDMDL
MODEL 4
REMARK VINA RESULT:    -6.337      1.721      6.674
REMARK INTER + INTRA:          -7.858
REMARK INTER:                  -7.516
REMARK INTRA:                  -0.342
REMARK UNBOUND:                -0.224
REMARK SMILES O=c1c(O)c(-c2ccc(O)cc2O)oc2cc(O)cc(O)c12
REMARK SMILES IDX 5 1 3 2 2 3 1 4 22 5 20 6 19 7 17 8 16 9 15 10 14 11 6 12
REMARK SMILES IDX 8 13 7 14 9 15 11 16 12 17 10 18 13 20 4 22 21 24 18 26
REMARK H PARENT 10 19 13 21 4 23 21 25 18 27
REMARK Flexibility Score: inf
ROOT
ATOM      1  C   UNL     1      15.996  15.492  11.752  1.00  0.00     0.184 A 
ATOM      2  C   UNL     1      17.062  14.602  11.550  1.00  0.00     0.208 A 
ATOM      3  C   UNL     1      17.732  14.079  12.667  1.00  0.00     0.238 A 
ATOM      4  O   UNL     1      18.726  13.330  12.478  1.00  0.00    -0.285 OA
ATOM      5  C   UNL     1      17.307  14.430  13.971  1.00  0.00     0.111 A 
ATOM      6  C   UNL     1      17.887  13.928  15.176  1.00  0.00     0.134 A 
ATOM      7  C   UNL     1      17.464  14.439  16.410  1.00  0.00     0.093 A 
ATOM      8  C   UNL     1      16.441  15.384  16.487  1.00  0.00     0.123 A 
ATOM      9  C   UNL     1      15.828  15.837  15.319  1.00  0.00     0.094 A 
ATOM     10  C   UNL     1      16.251  15.375  14.072  1.00  0.00     0.146 A 
ATOM     11  O   UNL     1      15.651  15.843  12.984  1.00  0.00    -0.451 OA
ENDROOT
BRANCH   1  12
ATOM     12  C   UNL     1      15.239  16.056  10.614  1.00  0.00     0.063 A 
ATOM     13  C   UNL     1      13.149  16.217   9.377  1.00  0.00     0.047 A 
ATOM     14  C   UNL     1      13.905  15.659  10.410  1.00  0.00     0.020 A 
ATOM     15  C   UNL     1      13.710  17.184   8.539  1.00  0.00     0.119 A 
ATOM     16  C   UNL     1      15.036  17.588   8.733  1.00  0.00     0.093 A 
ATOM     17  C   UNL     1      15.808  17.028   9.759  1.00  0.00     0.130 A 
BRANCH  15  18
ATOM     18  O   UNL     1      12.941  17.735   7.515  1.00  0.00    -0.508 OA
ATOM     19  H   UNL     1      11.973  17.996   7.662  1.00  0.00     0.293 HD
ENDBRANCH  15  18
BRANCH  17  20
ATOM     20  O   UNL     1      17.136  17.442   9.886  1.00  0.00    -0.507 OA
ATOM     21  H   UNL     1      17.914  16.927   9.494  1.00  0.00     0.293 HD
ENDBRANCH  17  20
ENDBRANCH   1  12
BRANCH   2  22
ATOM     22  O   UNL     1      17.458  14.271  10.252  1.00  0.00    -0.502 OA
ATOM     23  H   UNL     1      17.371  14.917   9.476  1.00  0.00     0.293 HD
ENDBRANCH   2  22
BRANCH   6  24
ATOM     24  O   UNL     1      18.852  12.919  15.217  1.00  0.00    -0.507 OA
ATOM     25  H   UNL     1      18.700  11.965  14.927  1.00  0.00     0.293 HD
ENDBRANCH   6  24
BRANCH   8  26
ATOM     26  O   UNL     1      16.037  15.857  17.733  1.00  0.00    -0.508 OA
ATOM     27  H   UNL     1      15.337  15.371  18.283  1.00  0.00     0.293 HD
ENDBRANCH   8  26
TORSDOF 6
ENDMDL
MODEL 5
REMARK VINA RESULT:    -6.288      1.908      2.711
REMARK INTER + INTRA:          -7.798
REMARK INTER:                  -7.486
REMARK INTRA:                  -0.312
REMARK UNBOUND:                -0.224
REMARK SMILES O=c1c(O)c(-c2ccc(O)cc2O)oc2cc(O)cc(O)c12
REMARK SMILES IDX 5 1 3 2 2 3 1 4 22 5 20 6 19 7 17 8 16 9 15 10 14 11 6 12
REMARK SMILES IDX 8 13 7 14 9 15 11 16 12 17 10 18 13 20 4 22 21 24 18 26
REMARK H PARENT 10 19 13 21 4 23 21 25 18 27
REMARK Flexibility Score: inf
ROOT
ATOM      1  C   UNL     1      15.447  15.068  11.692  1.00  0.00     0.184 A 
ATOM      2  C   UNL     1      15.787  15.513  10.406  1.00  0.00     0.208 A 
ATOM      3  C   UNL     1      14.812  16.154   9.627  1.00  0.00     0.238 A 
ATOM      4  O   UNL     1      15.106  16.496   8.452  1.00  0.00    -0.285 OA
ATOM      5  C   UNL     1      13.516  16.367  10.158  1.00  0.00     0.111 A 
ATOM      6  C   UNL     1      12.460  17.042   9.473  1.00  0.00     0.134 A 
ATOM      7  C   UNL     1      11.184  17.088  10.047  1.00  0.00     0.093 A 
ATOM      8  C   UNL     1      10.940  16.541  11.307  1.00  0.00     0.123 A 
ATOM      9  C   UNL     1      11.978  15.932  12.010  1.00  0.00     0.094 A 
ATOM     10  C   UNL     1      13.253  15.837  11.449  1.00  0.00     0.146 A 
ATOM     11  O   UNL     1      14.211  15.236  12.145  1.00  0.00    -0.451 OA
ENDROOT
BRANCH   1  12
ATOM     12  C   UNL     1      16.439  14.407  12.566  1.00  0.00     0.063 A 
ATOM     13  C   UNL     1      17.733  14.415  14.628  1.00  0.00     0.047 A 
ATOM     14  C   UNL     1      16.839  15.041  13.757  1.00  0.00     0.020 A 
ATOM     15  C   UNL     1      18.235  13.146  14.328  1.00  0.00     0.119 A 
ATOM     16  C   UNL     1      17.844  12.505  13.147  1.00  0.00     0.093 A 
ATOM     17  C   UNL     1      16.956  13.127  12.259  1.00  0.00     0.130 A 
BRANCH  15  18
ATOM     18  O   UNL     1      19.122  12.532  15.210  1.00  0.00    -0.508 OA
ATOM     19  H   UNL     1      19.000  11.569  15.499  1.00  0.00     0.293 HD
ENDBRANCH  15  18
BRANCH  17  20
ATOM     20  O   UNL     1      16.627  12.457  11.079  1.00  0.00    -0.507 OA
ATOM     21  H   UNL     1      16.719  12.876  10.162  1.00  0.00     0.293 HD
ENDBRANCH  17  20
ENDBRANCH   1  12
BRANCH   2  22
ATOM     22  O   UNL     1      17.074  15.291   9.909  1.00  0.00    -0.502 OA
ATOM     23  H   UNL     1      17.499  15.893   9.214  1.00  0.00     0.293 HD
ENDBRANCH   2  22
BRANCH   6  24
ATOM     24  O   UNL     1      12.618  17.701   8.251  1.00  0.00    -0.507 OA
ATOM     25  H   UNL     1      12.055  18.478   7.939  1.00  0.00     0.293 HD
ENDBRANCH   6  24
BRANCH   8  26
ATOM     26  O   UNL     1       9.661  16.620  11.853  1.00  0.00    -0.508 OA
ATOM     27  H   UNL     1       9.361  15.992  12.591  1.00  0.00     0.293 HD
ENDBRANCH   8  26
TORSDOF 6
ENDMDL
MODEL 6
REMARK VINA RESULT:    -6.264      3.506      8.821
REMARK INTER + INTRA:          -7.770
REMARK INTER:                  -7.385
REMARK INTRA:                  -0.384
REMARK UNBOUND:                -0.224
REMARK SMILES O=c1c(O)c(-c2ccc(O)cc2O)oc2cc(O)cc(O)c12
REMARK SMILES IDX 5 1 3 2 2 3 1 4 22 5 20 6 19 7 17 8 16 9 15 10 14 11 6 12
REMARK SMILES IDX 8 13 7 14 9 15 11 16 12 17 10 18 13 20 4 22 21 24 18 26
REMARK H PARENT 10 19 13 21 4 23 21 25 18 27
REMARK Flexibility Score: inf
ROOT
ATOM      1  C   UNL     1      17.139  13.411  17.599  1.00  0.00     0.184 A 
ATOM      2  C   UNL     1      18.024  13.789  18.619  1.00  0.00     0.208 A 
ATOM      3  C   UNL     1      18.258  12.901  19.681  1.00  0.00     0.238 A 
ATOM      4  O   UNL     1      19.004  13.270  20.624  1.00  0.00    -0.285 OA
ATOM      5  C   UNL     1      17.624  11.634  19.691  1.00  0.00     0.111 A 
ATOM      6  C   UNL     1      17.818  10.638  20.695  1.00  0.00     0.134 A 
ATOM      7  C   UNL     1      17.046   9.470  20.667  1.00  0.00     0.093 A 
ATOM      8  C   UNL     1      16.136   9.232  19.638  1.00  0.00     0.123 A 
ATOM      9  C   UNL     1      15.981  10.172  18.619  1.00  0.00     0.094 A 
ATOM     10  C   UNL     1      16.709  11.364  18.639  1.00  0.00     0.146 A 
ATOM     11  O   UNL     1      16.521  12.239  17.658  1.00  0.00    -0.451 OA
ENDROOT
BRANCH   1  12
ATOM     12  C   UNL     1      16.873  14.296  16.444  1.00  0.00     0.063 A 
ATOM     13  C   UNL     1      15.657  16.182  15.500  1.00  0.00     0.047 A 
ATOM     14  C   UNL     1      15.891  15.297  16.556  1.00  0.00     0.020 A 
ATOM     15  C   UNL     1      16.403  16.085  14.324  1.00  0.00     0.119 A 
ATOM     16  C   UNL     1      17.384  15.093  14.201  1.00  0.00     0.093 A 
ATOM     17  C   UNL     1      17.621  14.193  15.248  1.00  0.00     0.130 A 
BRANCH  15  18
ATOM     18  O   UNL     1      16.161  16.978  13.281  1.00  0.00    -0.508 OA
ATOM     19  H   UNL     1      15.219  17.228  13.006  1.00  0.00     0.293 HD
ENDBRANCH  15  18
BRANCH  17  20
ATOM     20  O   UNL     1      18.586  13.201  15.059  1.00  0.00    -0.507 OA
ATOM     21  H   UNL     1      18.640  12.368  15.631  1.00  0.00     0.293 HD
ENDBRANCH  17  20
ENDBRANCH   1  12
BRANCH   2  22
ATOM     22  O   UNL     1      18.637  15.044  18.582  1.00  0.00    -0.502 OA
ATOM     23  H   UNL     1      19.336  15.327  19.258  1.00  0.00     0.293 HD
ENDBRANCH   2  22
BRANCH   6  24
ATOM     24  O   UNL     1      18.766  10.734  21.717  1.00  0.00    -0.507 OA
ATOM     25  H   UNL     1      19.146  11.598  22.071  1.00  0.00     0.293 HD
ENDBRANCH   6  24
BRANCH   8  26
ATOM     26  O   UNL     1      15.397   8.051  19.634  1.00  0.00    -0.508 OA
ATOM     27  H   UNL     1      15.104   7.613  18.768  1.00  0.00     0.293 HD
ENDBRANCH   8  26
TORSDOF 6
ENDMDL
MODEL 7
REMARK VINA RESULT:    -6.178      1.781      2.268
REMARK INTER + INTRA:          -7.666
REMARK INTER:                  -7.280
REMARK INTRA:                  -0.387
REMARK UNBOUND:                -0.224
REMARK SMILES O=c1c(O)c(-c2ccc(O)cc2O)oc2cc(O)cc(O)c12
REMARK SMILES IDX 5 1 3 2 2 3 1 4 22 5 20 6 19 7 17 8 16 9 15 10 14 11 6 12
REMARK SMILES IDX 8 13 7 14 9 15 11 16 12 17 10 18 13 20 4 22 21 24 18 26
REMARK H PARENT 10 19 13 21 4 23 21 25 18 27
REMARK Flexibility Score: inf
ROOT
ATOM      1  C   UNL     1      15.254  15.538  13.465  1.00  0.00     0.184 A 
ATOM      2  C   UNL     1      15.325  16.792  12.839  1.00  0.00     0.208 A 
ATOM      3  C   UNL     1      14.562  17.020  11.684  1.00  0.00     0.238 A 
ATOM      4  O   UNL     1      14.678  18.124  11.092  1.00  0.00    -0.285 OA
ATOM      5  C   UNL     1      13.714  15.999  11.188  1.00  0.00     0.111 A 
ATOM      6  C   UNL     1      12.865  16.133  10.047  1.00  0.00     0.134 A 
ATOM      7  C   UNL     1      12.161  15.017   9.576  1.00  0.00     0.093 A 
ATOM      8  C   UNL     1      12.225  13.792  10.239  1.00  0.00     0.123 A 
ATOM      9  C   UNL     1      13.005  13.666  11.388  1.00  0.00     0.094 A 
ATOM     10  C   UNL     1      13.748  14.749  11.862  1.00  0.00     0.146 A 
ATOM     11  O   UNL     1      14.489  14.583  12.950  1.00  0.00    -0.451 OA
ENDROOT
BRANCH   1  12
ATOM     12  C   UNL     1      16.017  15.248  14.698  1.00  0.00     0.063 A 
ATOM     13  C   UNL     1      16.332  15.602  17.086  1.00  0.00     0.047 A 
ATOM     14  C   UNL     1      15.664  15.897  15.895  1.00  0.00     0.020 A 
ATOM     15  C   UNL     1      17.355  14.651  17.100  1.00  0.00     0.119 A 
ATOM     16  C   UNL     1      17.715  13.998  15.915  1.00  0.00     0.093 A 
ATOM     17  C   UNL     1      17.060  14.293  14.712  1.00  0.00     0.130 A 
BRANCH  15  18
ATOM     18  O   UNL     1      18.010  14.363  18.297  1.00  0.00    -0.508 OA
ATOM     19  H   UNL     1      17.615  13.723  18.975  1.00  0.00     0.293 HD
ENDBRANCH  15  18
BRANCH  17  20
ATOM     20  O   UNL     1      17.482  13.638  13.554  1.00  0.00    -0.507 OA
ATOM     21  H   UNL     1      18.449  13.395  13.378  1.00  0.00     0.293 HD
ENDBRANCH  17  20
ENDBRANCH   1  12
BRANCH   2  22
ATOM     22  O   UNL     1      16.168  17.781  13.352  1.00  0.00    -0.502 OA
ATOM     23  H   UNL     1      15.838  18.501  13.983  1.00  0.00     0.293 HD
ENDBRANCH   2  22
BRANCH   6  24
ATOM     24  O   UNL     1      12.658  17.334   9.364  1.00  0.00    -0.507 OA
ATOM     25  H   UNL     1      12.760  17.455   8.368  1.00  0.00     0.293 HD
ENDBRANCH   6  24
BRANCH   8  26
ATOM     26  O   UNL     1      11.498  12.709   9.750  1.00  0.00    -0.508 OA
ATOM     27  H   UNL     1      11.557  11.794  10.182  1.00  0.00     0.293 HD
ENDBRANCH   8  26
TORSDOF 6
ENDMDL
MODEL 8
REMARK VINA RESULT:    -6.174      5.167      8.554
REMARK INTER + INTRA:          -7.661
REMARK INTER:                  -7.263
REMARK INTRA:                  -0.398
REMARK UNBOUND:                -0.224
REMARK SMILES O=c1c(O)c(-c2ccc(O)cc2O)oc2cc(O)cc(O)c12
REMARK SMILES IDX 5 1 3 2 2 3 1 4 22 5 20 6 19 7 17 8 16 9 15 10 14 11 6 12
REMARK SMILES IDX 8 13 7 14 9 15 11 16 12 17 10 18 13 20 4 22 21 24 18 26
REMARK H PARENT 10 19 13 21 4 23 21 25 18 27
REMARK Flexibility Score: inf
ROOT
ATOM      1  C   UNL     1      15.749  11.924  16.436  1.00  0.00     0.184 A 
ATOM      2  C   UNL     1      16.273  13.218  16.291  1.00  0.00     0.208 A 
ATOM      3  C   UNL     1      17.137  13.717  17.277  1.00  0.00     0.238 A 
ATOM      4  O   UNL     1      17.554  14.900  17.172  1.00  0.00    -0.285 OA
ATOM      5  C   UNL     1      17.489  12.903  18.382  1.00  0.00     0.111 A 
ATOM      6  C   UNL     1      18.389  13.291  19.421  1.00  0.00     0.134 A 
ATOM      7  C   UNL     1      18.568  12.451  20.527  1.00  0.00     0.093 A 
ATOM      8  C   UNL     1      17.933  11.212  20.602  1.00  0.00     0.123 A 
ATOM      9  C   UNL     1      17.098  10.797  19.564  1.00  0.00     0.094 A 
ATOM     10  C   UNL     1      16.870  11.628  18.466  1.00  0.00     0.146 A 
ATOM     11  O   UNL     1      16.056  11.202  17.506  1.00  0.00    -0.451 OA
ENDROOT
BRANCH   1  12
ATOM     12  C   UNL     1      14.853  11.337  15.417  1.00  0.00     0.063 A 
ATOM     13  C   UNL     1      14.571  10.343  13.213  1.00  0.00     0.047 A 
ATOM     14  C   UNL     1      15.383  10.950  14.174  1.00  0.00     0.020 A 
ATOM     15  C   UNL     1      13.221  10.107  13.483  1.00  0.00     0.119 A 
ATOM     16  C   UNL     1      12.681  10.487  14.718  1.00  0.00     0.093 A 
ATOM     17  C   UNL     1      13.483  11.106  15.685  1.00  0.00     0.130 A 
BRANCH  15  18
ATOM     18  O   UNL     1      12.424   9.496  12.517  1.00  0.00    -0.508 OA
ATOM     19  H   UNL     1      11.614   9.963  12.126  1.00  0.00     0.293 HD
ENDBRANCH  15  18
BRANCH  17  20
ATOM     20  O   UNL     1      12.886  11.496  16.886  1.00  0.00    -0.507 OA
ATOM     21  H   UNL     1      12.331  10.869  17.455  1.00  0.00     0.293 HD
ENDBRANCH  17  20
ENDBRANCH   1  12
BRANCH   2  22
ATOM     22  O   UNL     1      15.910  13.997  15.189  1.00  0.00    -0.502 OA
ATOM     23  H   UNL     1      15.208  14.725  15.247  1.00  0.00     0.293 HD
ENDBRANCH   2  22
BRANCH   6  24
ATOM     24  O   UNL     1      19.144  14.467  19.402  1.00  0.00    -0.507 OA
ATOM     25  H   UNL     1      18.837  15.354  19.771  1.00  0.00     0.293 HD
ENDBRANCH   6  24
BRANCH   8  26
ATOM     26  O   UNL     1      18.149  10.396  21.710  1.00  0.00    -0.508 OA
ATOM     27  H   UNL     1      18.332   9.404  21.610  1.00  0.00     0.293 HD
ENDBRANCH   8  26
TORSDOF 6
ENDMDL
MODEL 9
REMARK VINA RESULT:    -6.152      1.745      3.389
REMARK INTER + INTRA:          -7.634
REMARK INTER:                  -7.228
REMARK INTRA:                  -0.407
REMARK UNBOUND:                -0.224
REMARK SMILES O=c1c(O)c(-c2ccc(O)cc2O)oc2cc(O)cc(O)c12
REMARK SMILES IDX 5 1 3 2 2 3 1 4 22 5 20 6 19 7 17 8 16 9 15 10 14 11 6 12
REMARK SMILES IDX 8 13 7 14 9 15 11 16 12 17 10 18 13 20 4 22 21 24 18 26
REMARK H PARENT 10 19 13 21 4 23 21 25 18 27
REMARK Flexibility Score: inf
ROOT
ATOM      1  C   UNL     1      14.848  16.056  12.215  1.00  0.00     0.184 A 
ATOM      2  C   UNL     1      13.505  16.073  11.810  1.00  0.00     0.208 A 
ATOM      3  C   UNL     1      13.199  16.407  10.482  1.00  0.00     0.238 A 
ATOM      4  O   UNL     1      11.989  16.481  10.141  1.00  0.00    -0.285 OA
ATOM      5  C   UNL     1      14.244  16.692   9.569  1.00  0.00     0.111 A 
ATOM      6  C   UNL     1      14.053  17.003   8.188  1.00  0.00     0.134 A 
ATOM      7  C   UNL     1      15.152  17.387   7.409  1.00  0.00     0.093 A 
ATOM      8  C   UNL     1      16.440  17.407   7.941  1.00  0.00     0.123 A 
ATOM      9  C   UNL     1      16.646  17.048   9.273  1.00  0.00     0.094 A 
ATOM     10  C   UNL     1      15.567  16.697  10.086  1.00  0.00     0.146 A 
ATOM     11  O   UNL     1      15.804  16.376  11.352  1.00  0.00    -0.451 OA
ENDROOT
BRANCH   1  12
ATOM     12  C   UNL     1      15.231  15.689  13.595  1.00  0.00     0.063 A 
ATOM     13  C   UNL     1      16.047  14.006  15.154  1.00  0.00     0.047 A 
ATOM     14  C   UNL     1      15.627  14.368  13.871  1.00  0.00     0.020 A 
ATOM     15  C   UNL     1      16.084  14.958  16.175  1.00  0.00     0.119 A 
ATOM     16  C   UNL     1      15.694  16.277  15.912  1.00  0.00     0.093 A 
ATOM     17  C   UNL     1      15.260  16.649  14.633  1.00  0.00     0.130 A 
BRANCH  15  18
ATOM     18  O   UNL     1      16.510  14.584  17.448  1.00  0.00    -0.508 OA
ATOM     19  H   UNL     1      16.206  13.717  17.874  1.00  0.00     0.293 HD
ENDBRANCH  15  18
BRANCH  17  20
ATOM     20  O   UNL     1      14.849  17.969  14.435  1.00  0.00    -0.507 OA
ATOM     21  H   UNL     1      15.471  18.698  14.111  1.00  0.00     0.293 HD
ENDBRANCH  17  20
ENDBRANCH   1  12
BRANCH   2  22
ATOM     22  O   UNL     1      12.494  15.785  12.731  1.00  0.00    -0.502 OA
ATOM     23  H   UNL     1      12.361  14.859  13.119  1.00  0.00     0.293 HD
ENDBRANCH   2  22
BRANCH   6  24
ATOM     24  O   UNL     1      12.821  16.926   7.534  1.00  0.00    -0.507 OA
ATOM     25  H   UNL     1      12.253  17.720   7.280  1.00  0.00     0.293 HD
ENDBRANCH   6  24
BRANCH   8  26
ATOM     26  O   UNL     1      17.511  17.779   7.131  1.00  0.00    -0.508 OA
ATOM     27  H   UNL     1      18.375  17.248   7.119  1.00  0.00     0.293 HD
ENDBRANCH   8  26
TORSDOF 6
ENDMDL
