MODEL 1
REMARK VINA RESULT:    -3.836      0.000      0.000
REMARK INTER + INTRA:          -3.969
REMARK INTER:                  -4.733
REMARK INTRA:                   0.764
REMARK UNBOUND:                 0.764
REMARK SMILES CC1=CC=CC(C)(C)CC1=O
REMARK SMILES IDX 1 1 2 2 3 3 10 4 11 5 9 6 4 8 5 9 6 10 7 11 8 12
REMARK H PARENT
REMARK Flexibility Score: 80.00
ROOT
ATOM      1  C   UNL     1     -10.794  -9.149  13.640  1.00  0.00     0.048 C 
ATOM      2  C   UNL     1      -9.359  -8.845  13.278  1.00  0.00    -0.008 C 
ATOM      3  C   UNL     1      -8.687  -9.768  12.557  1.00  0.00     0.007 C 
ENDROOT
BRANCH   2   4
ATOM      4  C   UNL     1      -8.827  -7.519  13.681  1.00  0.00     0.159 C 
ATOM      5  O   UNL     1      -9.631  -6.644  14.105  1.00  0.00    -0.295 OA
BRANCH   4   6
ATOM      6  C   UNL     1      -7.374  -7.161  13.624  1.00  0.00     0.091 CG0
ATOM      7  G   UNL     1      -6.780  -7.247  12.201  1.00  0.00     0.000 G0
ENDBRANCH   4   6
ENDBRANCH   2   4
BRANCH   3   8
ATOM      8  C   UNL     1      -7.299  -9.743  12.037  1.00  0.00    -0.003 C 
ATOM      9  C   UNL     1      -6.483  -8.696  11.861  1.00  0.00    -0.020 C 
BRANCH   9  10
ATOM     10  C   UNL     1      -6.788  -7.254  12.189  1.00  0.00    -0.010 CG0
ATOM     11  C   UNL     1      -7.728  -6.658  11.115  1.00  0.00     0.016 C 
ATOM     12  C   UNL     1      -5.464  -6.459  12.157  1.00  0.00     0.016 C 
ATOM     13  G   UNL     1      -7.375  -7.158  13.614  1.00  0.00     0.000 G0
ENDBRANCH   9  10
ENDBRANCH   3   8
TORSDOF 0
ENDMDL
MODEL 2
REMARK VINA RESULT:    -3.611     14.859     16.275
REMARK INTER + INTRA:          -3.691
REMARK INTER:                  -4.748
REMARK INTRA:                   1.057
REMARK UNBOUND:                 0.764
REMARK SMILES CC1=CC=CC(C)(C)CC1=O
REMARK SMILES IDX 1 1 2 2 3 3 10 4 11 5 9 6 4 8 5 9 6 10 7 11 8 12
REMARK H PARENT
REMARK Flexibility Score: 80.00
ROOT
ATOM      1  C   UNL     1       2.749   5.916  10.008  1.00  0.00     0.048 C 
ATOM      2  C   UNL     1       2.915   4.600  10.731  1.00  0.00    -0.008 C 
ATOM      3  C   UNL     1       1.997   3.638  10.498  1.00  0.00     0.007 C 
ENDROOT
BRANCH   2   4
ATOM      4  C   UNL     1       4.120   4.445  11.583  1.00  0.00     0.159 C 
ATOM      5  O   UNL     1       4.763   5.476  11.921  1.00  0.00    -0.295 OA
BRANCH   4   6
ATOM      6  C   UNL     1       4.615   3.122  12.080  1.00  0.00     0.091 CG0
ATOM      7  G   UNL     1       3.586   2.376  12.958  1.00  0.00     0.000 G0
ENDBRANCH   4   6
ENDBRANCH   2   4
BRANCH   3   8
ATOM      8  C   UNL     1       1.909   2.258  11.029  1.00  0.00    -0.003 C 
ATOM      9  C   UNL     1       2.573   1.703  12.051  1.00  0.00    -0.020 C 
BRANCH   9  10
ATOM     10  C   UNL     1       3.579   2.388  12.946  1.00  0.00    -0.010 CG0
ATOM     11  C   UNL     1       4.223   1.356  13.901  1.00  0.00     0.016 C 
ATOM     12  C   UNL     1       2.832   3.432  13.805  1.00  0.00     0.016 C 
ATOM     13  G   UNL     1       4.622   3.131  12.082  1.00  0.00     0.000 G0
ENDBRANCH   9  10
ENDBRANCH   3   8
TORSDOF 0
ENDMDL
MODEL 3
REMARK VINA RESULT:    -3.601      1.138      1.325
REMARK INTER + INTRA:          -3.680
REMARK INTER:                  -4.438
REMARK INTRA:                   0.758
REMARK UNBOUND:                 0.764
REMARK SMILES CC1=CC=CC(C)(C)CC1=O
REMARK SMILES IDX 1 1 2 2 3 3 10 4 11 5 9 6 4 8 5 9 6 10 7 11 8 12
REMARK H PARENT
REMARK Flexibility Score: 80.00
ROOT
ATOM      1  C   UNL     1     -10.646  -7.146  14.722  1.00  0.00     0.048 C 
ATOM      2  C   UNL     1      -9.270  -7.463  14.184  1.00  0.00    -0.008 C 
ATOM      3  C   UNL     1      -8.897  -8.760  14.145  1.00  0.00     0.007 C 
ENDROOT
BRANCH   2   4
ATOM      4  C   UNL     1      -8.467  -6.326  13.669  1.00  0.00     0.159 C 
ATOM      5  O   UNL     1      -9.024  -5.202  13.528  1.00  0.00    -0.295 OA
BRANCH   4   6
ATOM      6  C   UNL     1      -7.016  -6.432  13.315  1.00  0.00     0.091 CG0
ATOM      7  G   UNL     1      -6.729  -7.494  12.231  1.00  0.00     0.000 G0
ENDBRANCH   4   6
ENDBRANCH   2   4
BRANCH   3   8
ATOM      8  C   UNL     1      -7.641  -9.375  13.654  1.00  0.00    -0.003 C 
ATOM      9  C   UNL     1      -6.716  -8.862  12.833  1.00  0.00    -0.020 C 
BRANCH   9  10
ATOM     10  C   UNL     1      -6.725  -7.482  12.219  1.00  0.00    -0.010 CG0
ATOM     11  C   UNL     1      -7.735  -7.433  11.050  1.00  0.00     0.016 C 
ATOM     12  C   UNL     1      -5.318  -7.198  11.647  1.00  0.00     0.016 C 
ATOM     13  G   UNL     1      -7.023  -6.430  13.311  1.00  0.00     0.000 G0
ENDBRANCH   9  10
ENDBRANCH   3   8
TORSDOF 0
ENDMDL
MODEL 4
REMARK VINA RESULT:    -3.579     13.595     15.516
REMARK INTER + INTRA:          -3.652
REMARK INTER:                  -4.412
REMARK INTRA:                   0.760
REMARK UNBOUND:                 0.764
REMARK SMILES CC1=CC=CC(C)(C)CC1=O
REMARK SMILES IDX 1 1 2 2 3 3 10 4 11 5 9 6 4 8 5 9 6 10 7 11 8 12
REMARK H PARENT
REMARK Flexibility Score: 80.00
ROOT
ATOM      1  C   UNL     1       4.503   4.280  12.330  1.00  0.00     0.048 C 
ATOM      2  C   UNL     1       4.122   3.346  13.456  1.00  0.00    -0.008 C 
ATOM      3  C   UNL     1       3.500   3.880  14.528  1.00  0.00     0.007 C 
ENDROOT
BRANCH   2   4
ATOM      4  C   UNL     1       4.397   1.901  13.256  1.00  0.00     0.159 C 
ATOM      5  O   UNL     1       4.768   1.504  12.118  1.00  0.00    -0.295 OA
BRANCH   4   6
ATOM      6  C   UNL     1       4.269   0.879  14.343  1.00  0.00     0.091 CG0
ATOM      7  G   UNL     1       2.851   0.811  14.953  1.00  0.00     0.000 G0
ENDBRANCH   4   6
ENDBRANCH   2   4
BRANCH   3   8
ATOM      8  C   UNL     1       2.990   3.225  15.755  1.00  0.00    -0.003 C 
ATOM      9  C   UNL     1       2.700   1.935  15.965  1.00  0.00    -0.020 C 
BRANCH   9  10
ATOM     10  C   UNL     1       2.859   0.806  14.974  1.00  0.00    -0.010 CG0
ATOM     11  C   UNL     1       1.721   0.860  13.928  1.00  0.00     0.016 C 
ATOM     12  C   UNL     1       2.740  -0.531  15.739  1.00  0.00     0.016 C 
ATOM     13  G   UNL     1       4.262   0.872  14.332  1.00  0.00     0.000 G0
ENDBRANCH   9  10
ENDBRANCH   3   8
TORSDOF 0
ENDMDL
MODEL 5
REMARK VINA RESULT:    -3.486      1.670      3.256
REMARK INTER + INTRA:          -3.537
REMARK INTER:                  -4.307
REMARK INTRA:                   0.770
REMARK UNBOUND:                 0.764
REMARK SMILES CC1=CC=CC(C)(C)CC1=O
REMARK SMILES IDX 1 1 2 2 3 3 10 4 11 5 9 6 4 8 5 9 6 10 7 11 8 12
REMARK H PARENT
REMARK Flexibility Score: 80.00
ROOT
ATOM      1  C   UNL     1      -5.926  -9.901  10.994  1.00  0.00     0.048 C 
ATOM      2  C   UNL     1      -7.132  -9.260  11.640  1.00  0.00    -0.008 C 
ATOM      3  C   UNL     1      -8.075 -10.077  12.155  1.00  0.00     0.007 C 
ENDROOT
BRANCH   2   4
ATOM      4  C   UNL     1      -7.145  -7.778  11.724  1.00  0.00     0.159 C 
ATOM      5  O   UNL     1      -6.092  -7.143  11.443  1.00  0.00    -0.295 OA
BRANCH   4   6
ATOM      6  C   UNL     1      -8.353  -6.984  12.116  1.00  0.00     0.091 CG0
ATOM      7  G   UNL     1      -8.877  -7.327  13.528  1.00  0.00     0.000 G0
ENDBRANCH   4   6
ENDBRANCH   2   4
BRANCH   3   8
ATOM      8  C   UNL     1      -9.335  -9.750  12.862  1.00  0.00    -0.003 C 
ATOM      9  C   UNL     1      -9.696  -8.606  13.457  1.00  0.00    -0.020 C 
BRANCH   9  10
ATOM     10  C   UNL     1      -8.885  -7.333  13.523  1.00  0.00    -0.010 CG0
ATOM     11  C   UNL     1      -7.753  -7.483  14.565  1.00  0.00     0.016 C 
ATOM     12  C   UNL     1      -9.814  -6.190  13.990  1.00  0.00     0.016 C 
ATOM     13  G   UNL     1      -8.356  -6.980  12.115  1.00  0.00     0.000 G0
ENDBRANCH   9  10
ENDBRANCH   3   8
TORSDOF 0
ENDMDL
MODEL 6
REMARK VINA RESULT:    -3.402      1.863      2.953
REMARK INTER + INTRA:          -3.434
REMARK INTER:                  -4.190
REMARK INTRA:                   0.756
REMARK UNBOUND:                 0.764
REMARK SMILES CC1=CC=CC(C)(C)CC1=O
REMARK SMILES IDX 1 1 2 2 3 3 10 4 11 5 9 6 4 8 5 9 6 10 7 11 8 12
REMARK H PARENT
REMARK Flexibility Score: 80.00
ROOT
ATOM      1  C   UNL     1      -9.511  -8.813  13.373  1.00  0.00     0.048 C 
ATOM      2  C   UNL     1      -8.819  -7.592  12.811  1.00  0.00    -0.008 C 
ATOM      3  C   UNL     1      -8.951  -6.431  13.489  1.00  0.00     0.007 C 
ENDROOT
BRANCH   2   4
ATOM      4  C   UNL     1      -7.986  -7.785  11.598  1.00  0.00     0.159 C 
ATOM      5  O   UNL     1      -7.706  -8.960  11.234  1.00  0.00    -0.295 OA
BRANCH   4   6
ATOM      6  C   UNL     1      -7.465  -6.655  10.766  1.00  0.00     0.091 CG0
ATOM      7  G   UNL     1      -6.542  -5.696  11.549  1.00  0.00     0.000 G0
ENDBRANCH   4   6
ENDBRANCH   2   4
BRANCH   3   8
ATOM      8  C   UNL     1      -8.378  -5.094  13.206  1.00  0.00    -0.003 C 
ATOM      9  C   UNL     1      -7.355  -4.766  12.406  1.00  0.00    -0.020 C 
BRANCH   9  10
ATOM     10  C   UNL     1      -6.539  -5.713  11.558  1.00  0.00    -0.010 CG0
ATOM     11  C   UNL     1      -5.531  -6.479  12.445  1.00  0.00     0.016 C 
ATOM     12  C   UNL     1      -5.737  -4.878  10.535  1.00  0.00     0.016 C 
ATOM     13  G   UNL     1      -7.482  -6.655  10.777  1.00  0.00     0.000 G0
ENDBRANCH   9  10
ENDBRANCH   3   8
TORSDOF 0
ENDMDL
MODEL 7
REMARK VINA RESULT:    -3.391     10.393     11.457
REMARK INTER + INTRA:          -3.420
REMARK INTER:                  -4.184
REMARK INTRA:                   0.764
REMARK UNBOUND:                 0.764
REMARK SMILES CC1=CC=CC(C)(C)CC1=O
REMARK SMILES IDX 1 1 2 2 3 3 10 4 11 5 9 6 4 8 5 9 6 10 7 11 8 12
REMARK H PARENT
REMARK Flexibility Score: 80.00
ROOT
ATOM      1  C   UNL     1      -2.127  -7.827  19.584  1.00  0.00     0.048 C 
ATOM      2  C   UNL     1      -0.891  -7.139  20.117  1.00  0.00    -0.008 C 
ATOM      3  C   UNL     1       0.212  -7.893  20.307  1.00  0.00     0.007 C 
ENDROOT
BRANCH   2   4
ATOM      4  C   UNL     1      -0.969  -5.671  20.318  1.00  0.00     0.159 C 
ATOM      5  O   UNL     1      -1.964  -5.045  19.857  1.00  0.00    -0.295 OA
BRANCH   4   6
ATOM      6  C   UNL     1       0.069  -4.881  21.054  1.00  0.00     0.091 CG0
ATOM      7  G   UNL     1       1.471  -4.968  20.411  1.00  0.00     0.000 G0
ENDBRANCH   4   6
ENDBRANCH   2   4
BRANCH   3   8
ATOM      8  C   UNL     1       1.559  -7.505  20.785  1.00  0.00    -0.003 C 
ATOM      9  C   UNL     1       2.122  -6.291  20.828  1.00  0.00    -0.020 C 
BRANCH   9  10
ATOM     10  C   UNL     1       1.481  -4.988  20.411  1.00  0.00    -0.010 CG0
ATOM     11  C   UNL     1       1.456  -4.885  18.868  1.00  0.00     0.016 C 
ATOM     12  C   UNL     1       2.343  -3.827  20.953  1.00  0.00     0.016 C 
ATOM     13  G   UNL     1       0.073  -4.877  21.038  1.00  0.00     0.000 G0
ENDBRANCH   9  10
ENDBRANCH   3   8
TORSDOF 0
ENDMDL
MODEL 8
REMARK VINA RESULT:    -3.345     13.171     15.154
REMARK INTER + INTRA:          -3.364
REMARK INTER:                  -4.125
REMARK INTRA:                   0.762
REMARK UNBOUND:                 0.764
REMARK SMILES CC1=CC=CC(C)(C)CC1=O
REMARK SMILES IDX 1 1 2 2 3 3 10 4 11 5 9 6 4 8 5 9 6 10 7 11 8 12
REMARK H PARENT
REMARK Flexibility Score: 80.00
ROOT
ATOM      1  C   UNL     1       1.692   0.091  15.211  1.00  0.00     0.048 C 
ATOM      2  C   UNL     1       2.256   1.340  14.573  1.00  0.00    -0.008 C 
ATOM      3  C   UNL     1       3.069   2.113  15.323  1.00  0.00     0.007 C 
ENDROOT
BRANCH   2   4
ATOM      4  C   UNL     1       1.928   1.575  13.145  1.00  0.00     0.159 C 
ATOM      5  O   UNL     1       1.364   0.655  12.490  1.00  0.00    -0.295 OA
BRANCH   4   6
ATOM      6  C   UNL     1       2.219   2.859  12.432  1.00  0.00     0.091 CG0
ATOM      7  G   UNL     1       3.717   3.238  12.444  1.00  0.00     0.000 G0
ENDBRANCH   4   6
ENDBRANCH   2   4
BRANCH   3   8
ATOM      8  C   UNL     1       3.783   3.363  14.973  1.00  0.00    -0.003 C 
ATOM      9  C   UNL     1       4.077   3.856  13.763  1.00  0.00    -0.020 C 
BRANCH   9  10
ATOM     10  C   UNL     1       3.712   3.244  12.431  1.00  0.00    -0.010 CG0
ATOM     11  C   UNL     1       4.647   2.051  12.126  1.00  0.00     0.016 C 
ATOM     12  C   UNL     1       3.927   4.310  11.333  1.00  0.00     0.016 C 
ATOM     13  G   UNL     1       2.219   2.847  12.433  1.00  0.00     0.000 G0
ENDBRANCH   9  10
ENDBRANCH   3   8
TORSDOF 0
ENDMDL
MODEL 9
REMARK VINA RESULT:    -3.336      8.329      9.787
REMARK INTER + INTRA:          -3.352
REMARK INTER:                  -4.109
REMARK INTRA:                   0.757
REMARK UNBOUND:                 0.764
REMARK SMILES CC1=CC=CC(C)(C)CC1=O
REMARK SMILES IDX 1 1 2 2 3 3 10 4 11 5 9 6 4 8 5 9 6 10 7 11 8 12
REMARK H PARENT
REMARK Flexibility Score: 80.00
ROOT
ATOM      1  C   UNL     1      -0.239  -9.119  11.919  1.00  0.00     0.048 C 
ATOM      2  C   UNL     1       0.743  -8.364  11.053  1.00  0.00    -0.008 C 
ATOM      3  C   UNL     1       1.616  -9.088  10.320  1.00  0.00     0.007 C 
ENDROOT
BRANCH   2   4
ATOM      4  C   UNL     1       0.617  -6.886  11.021  1.00  0.00     0.159 C 
ATOM      5  O   UNL     1      -0.388  -6.348  11.563  1.00  0.00    -0.295 OA
BRANCH   4   6
ATOM      6  C   UNL     1       1.631  -5.984  10.387  1.00  0.00     0.091 CG0
ATOM      7  G   UNL     1       1.866  -6.287   8.891  1.00  0.00     0.000 G0
ENDBRANCH   4   6
ENDBRANCH   2   4
BRANCH   3   8
ATOM      8  C   UNL     1       2.662  -8.639   9.372  1.00  0.00    -0.003 C 
ATOM      9  C   UNL     1       2.786  -7.462   8.746  1.00  0.00    -0.020 C 
BRANCH   9  10
ATOM     10  C   UNL     1       1.871  -6.269   8.889  1.00  0.00    -0.010 CG0
ATOM     11  C   UNL     1       0.564  -6.511   8.099  1.00  0.00     0.016 C 
ATOM     12  C   UNL     1       2.579  -5.040   8.276  1.00  0.00     0.016 C 
ATOM     13  G   UNL     1       1.619  -5.983  10.386  1.00  0.00     0.000 G0
ENDBRANCH   9  10
ENDBRANCH   3   8
TORSDOF 0
ENDMDL
