MODEL 1
REMARK VINA RESULT:    -4.299      0.000      0.000
REMARK INTER + INTRA:          -5.254
REMARK INTER:                  -4.927
REMARK INTRA:                  -0.327
REMARK UNBOUND:                -0.327
REMARK SMILES COc1ccc(C(C)=O)c(O)c1
REMARK SMILES IDX 6 1 10 2 12 3 3 4 4 5 5 6 7 7 8 8 9 9 11 10 2 12 1 13
REMARK H PARENT 11 11
REMARK Flexibility Score: inf
ROOT
ATOM      1  C   UNL     1      23.024  50.983  50.919  1.00  0.00     0.059 A 
ATOM      2  C   UNL     1      21.771  51.390  51.434  1.00  0.00     0.130 A 
ATOM      3  C   UNL     1      21.590  51.525  52.819  1.00  0.00     0.093 A 
ATOM      4  C   UNL     1      22.634  51.259  53.708  1.00  0.00     0.122 A 
ATOM      5  C   UNL     1      23.879  50.851  53.201  1.00  0.00     0.047 A 
ATOM      6  C   UNL     1      24.070  50.716  51.824  1.00  0.00     0.019 A 
ENDROOT
BRANCH   1   7
ATOM      7  C   UNL     1      23.247  50.841  49.451  1.00  0.00     0.163 C 
ATOM      8  C   UNL     1      24.125  49.764  48.887  1.00  0.00     0.093 C 
ATOM      9  O   UNL     1      22.715  51.655  48.648  1.00  0.00    -0.294 OA
ENDBRANCH   1   7
BRANCH   2  10
ATOM     10  O   UNL     1      20.699  51.650  50.580  1.00  0.00    -0.507 OA
ATOM     11  H   UNL     1      19.767  51.305  50.772  1.00  0.00     0.293 HD
ENDBRANCH   2  10
BRANCH   4  12
ATOM     12  O   UNL     1      22.395  51.410  55.083  1.00  0.00    -0.497 OA
ATOM     13  C   UNL     1      21.108  51.607  55.659  1.00  0.00     0.278 C 
ENDBRANCH   4  12
TORSDOF 3
ENDMDL
MODEL 2
REMARK VINA RESULT:    -3.934      2.246      2.801
REMARK INTER + INTRA:          -4.836
REMARK INTER:                  -4.507
REMARK INTRA:                  -0.329
REMARK UNBOUND:                -0.327
REMARK SMILES COc1ccc(C(C)=O)c(O)c1
REMARK SMILES IDX 6 1 10 2 12 3 3 4 4 5 5 6 7 7 8 8 9 9 11 10 2 12 1 13
REMARK H PARENT 11 11
REMARK Flexibility Score: inf
ROOT
ATOM      1  C   UNL     1      21.801  53.129  50.585  1.00  0.00     0.059 A 
ATOM      2  C   UNL     1      21.610  51.815  51.075  1.00  0.00     0.130 A 
ATOM      3  C   UNL     1      21.161  51.614  52.390  1.00  0.00     0.093 A 
ATOM      4  C   UNL     1      20.900  52.696  53.233  1.00  0.00     0.122 A 
ATOM      5  C   UNL     1      21.092  54.002  52.751  1.00  0.00     0.047 A 
ATOM      6  C   UNL     1      21.536  54.214  51.444  1.00  0.00     0.019 A 
ENDROOT
BRANCH   1   7
ATOM      7  C   UNL     1      22.267  53.373  49.189  1.00  0.00     0.163 C 
ATOM      8  C   UNL     1      23.254  54.453  48.864  1.00  0.00     0.093 C 
ATOM      9  O   UNL     1      21.809  52.681  48.239  1.00  0.00    -0.294 OA
ENDBRANCH   1   7
BRANCH   2  10
ATOM     10  O   UNL     1      21.873  50.708  50.269  1.00  0.00    -0.507 OA
ATOM     11  H   UNL     1      22.331  50.799  49.370  1.00  0.00     0.293 HD
ENDBRANCH   2  10
BRANCH   4  12
ATOM     12  O   UNL     1      20.455  52.434  54.537  1.00  0.00    -0.497 OA
ATOM     13  C   UNL     1      19.336  53.067  55.148  1.00  0.00     0.278 C 
ENDBRANCH   4  12
TORSDOF 3
ENDMDL
MODEL 3
REMARK VINA RESULT:    -3.901      1.937      5.361
REMARK INTER + INTRA:          -4.799
REMARK INTER:                  -4.465
REMARK INTRA:                  -0.334
REMARK UNBOUND:                -0.327
REMARK SMILES COc1ccc(C(C)=O)c(O)c1
REMARK SMILES IDX 6 1 10 2 12 3 3 4 4 5 5 6 7 7 8 8 9 9 11 10 2 12 1 13
REMARK H PARENT 11 11
REMARK Flexibility Score: inf
ROOT
ATOM      1  C   UNL     1      20.829  52.800  53.609  1.00  0.00     0.059 A 
ATOM      2  C   UNL     1      21.382  51.552  53.236  1.00  0.00     0.130 A 
ATOM      3  C   UNL     1      21.966  51.392  51.971  1.00  0.00     0.093 A 
ATOM      4  C   UNL     1      22.010  52.450  51.061  1.00  0.00     0.122 A 
ATOM      5  C   UNL     1      21.459  53.690  51.425  1.00  0.00     0.047 A 
ATOM      6  C   UNL     1      20.877  53.861  52.683  1.00  0.00     0.019 A 
ENDROOT
BRANCH   1   7
ATOM      7  C   UNL     1      20.210  53.002  54.951  1.00  0.00     0.163 C 
ATOM      8  C   UNL     1      18.804  53.498  55.105  1.00  0.00     0.093 C 
ATOM      9  O   UNL     1      20.880  52.782  55.997  1.00  0.00    -0.294 OA
ENDBRANCH   1   7
BRANCH   2  10
ATOM     10  O   UNL     1      21.344  50.467  54.111  1.00  0.00    -0.507 OA
ATOM     11  H   UNL     1      20.822  50.497  54.979  1.00  0.00     0.293 HD
ENDBRANCH   2  10
BRANCH   4  12
ATOM     12  O   UNL     1      22.606  52.230  49.810  1.00  0.00    -0.497 OA
ATOM     13  C   UNL     1      21.982  52.509  48.561  1.00  0.00     0.278 C 
ENDBRANCH   4  12
TORSDOF 3
ENDMDL
MODEL 4
REMARK VINA RESULT:    -3.812     12.377     14.439
REMARK INTER + INTRA:          -4.697
REMARK INTER:                  -4.397
REMARK INTRA:                  -0.299
REMARK UNBOUND:                -0.327
REMARK SMILES COc1ccc(C(C)=O)c(O)c1
REMARK SMILES IDX 6 1 10 2 12 3 3 4 4 5 5 6 7 7 8 8 9 9 11 10 2 12 1 13
REMARK H PARENT 11 11
REMARK Flexibility Score: inf
ROOT
ATOM      1  C   UNL     1      19.184  54.311  39.498  1.00  0.00     0.059 A 
ATOM      2  C   UNL     1      19.637  52.972  39.542  1.00  0.00     0.130 A 
ATOM      3  C   UNL     1      20.131  52.358  38.381  1.00  0.00     0.093 A 
ATOM      4  C   UNL     1      20.182  53.050  37.169  1.00  0.00     0.122 A 
ATOM      5  C   UNL     1      19.730  54.379  37.120  1.00  0.00     0.047 A 
ATOM      6  C   UNL     1      19.238  55.000  38.270  1.00  0.00     0.019 A 
ENDROOT
BRANCH   1   7
ATOM      7  C   UNL     1      18.662  54.992  40.718  1.00  0.00     0.163 C 
ATOM      8  C   UNL     1      17.679  56.121  40.633  1.00  0.00     0.093 C 
ATOM      9  O   UNL     1      19.068  54.643  41.860  1.00  0.00    -0.294 OA
ENDBRANCH   1   7
BRANCH   2  10
ATOM     10  O   UNL     1      19.588  52.242  40.730  1.00  0.00    -0.507 OA
ATOM     11  H   UNL     1      19.041  52.551  41.525  1.00  0.00     0.293 HD
ENDBRANCH   2  10
BRANCH   4  12
ATOM     12  O   UNL     1      20.685  52.384  36.041  1.00  0.00    -0.497 OA
ATOM     13  C   UNL     1      20.718  50.968  35.890  1.00  0.00     0.278 C 
ENDBRANCH   4  12
TORSDOF 3
ENDMDL
MODEL 5
REMARK VINA RESULT:    -3.799      1.370      4.511
REMARK INTER + INTRA:          -4.681
REMARK INTER:                  -4.367
REMARK INTRA:                  -0.314
REMARK UNBOUND:                -0.327
REMARK SMILES COc1ccc(C(C)=O)c(O)c1
REMARK SMILES IDX 6 1 10 2 12 3 3 4 4 5 5 6 7 7 8 8 9 9 11 10 2 12 1 13
REMARK H PARENT 11 11
REMARK Flexibility Score: inf
ROOT
ATOM      1  C   UNL     1      22.598  51.283  53.183  1.00  0.00     0.059 A 
ATOM      2  C   UNL     1      21.480  51.799  52.486  1.00  0.00     0.130 A 
ATOM      3  C   UNL     1      21.498  51.872  51.085  1.00  0.00     0.093 A 
ATOM      4  C   UNL     1      22.612  51.444  50.358  1.00  0.00     0.122 A 
ATOM      5  C   UNL     1      23.725  50.936  51.046  1.00  0.00     0.047 A 
ATOM      6  C   UNL     1      23.717  50.857  52.440  1.00  0.00     0.019 A 
ENDROOT
BRANCH   1   7
ATOM      7  C   UNL     1      22.603  51.185  54.672  1.00  0.00     0.163 C 
ATOM      8  C   UNL     1      23.275  50.050  55.385  1.00  0.00     0.093 C 
ATOM      9  O   UNL     1      22.008  52.054  55.366  1.00  0.00    -0.294 OA
ENDBRANCH   1   7
BRANCH   2  10
ATOM     10  O   UNL     1      20.356  52.249  53.177  1.00  0.00    -0.507 OA
ATOM     11  H   UNL     1      20.348  52.336  54.186  1.00  0.00     0.293 HD
ENDBRANCH   2  10
BRANCH   4  12
ATOM     12  O   UNL     1      22.573  51.543  48.958  1.00  0.00    -0.497 OA
ATOM     13  C   UNL     1      21.869  52.552  48.242  1.00  0.00     0.278 C 
ENDBRANCH   4  12
TORSDOF 3
ENDMDL
MODEL 6
REMARK VINA RESULT:    -3.798     11.235     12.492
REMARK INTER + INTRA:          -4.680
REMARK INTER:                  -4.343
REMARK INTRA:                  -0.337
REMARK UNBOUND:                -0.327
REMARK SMILES COc1ccc(C(C)=O)c(O)c1
REMARK SMILES IDX 6 1 10 2 12 3 3 4 4 5 5 6 7 7 8 8 9 9 11 10 2 12 1 13
REMARK H PARENT 11 11
REMARK Flexibility Score: inf
ROOT
ATOM      1  C   UNL     1      21.350  52.653  39.611  1.00  0.00     0.059 A 
ATOM      2  C   UNL     1      20.297  53.216  38.853  1.00  0.00     0.130 A 
ATOM      3  C   UNL     1      19.228  53.856  39.500  1.00  0.00     0.093 A 
ATOM      4  C   UNL     1      19.183  53.946  40.893  1.00  0.00     0.122 A 
ATOM      5  C   UNL     1      20.225  53.385  41.650  1.00  0.00     0.047 A 
ATOM      6  C   UNL     1      21.293  52.747  41.016  1.00  0.00     0.019 A 
ENDROOT
BRANCH   1   7
ATOM      7  C   UNL     1      22.503  51.975  38.950  1.00  0.00     0.163 C 
ATOM      8  C   UNL     1      23.921  52.333  39.277  1.00  0.00     0.093 C 
ATOM      9  O   UNL     1      22.300  51.096  38.069  1.00  0.00    -0.294 OA
ENDBRANCH   1   7
BRANCH   2  10
ATOM     10  O   UNL     1      20.298  53.134  37.461  1.00  0.00    -0.507 OA
ATOM     11  H   UNL     1      20.942  52.531  36.962  1.00  0.00     0.293 HD
ENDBRANCH   2  10
BRANCH   4  12
ATOM     12  O   UNL     1      18.089  54.596  41.484  1.00  0.00    -0.497 OA
ATOM     13  C   UNL     1      18.158  55.866  42.123  1.00  0.00     0.278 C 
ENDBRANCH   4  12
TORSDOF 3
ENDMDL
MODEL 7
REMARK VINA RESULT:    -3.789      2.354      5.259
REMARK INTER + INTRA:          -4.670
REMARK INTER:                  -4.335
REMARK INTRA:                  -0.335
REMARK UNBOUND:                -0.327
REMARK SMILES COc1ccc(C(C)=O)c(O)c1
REMARK SMILES IDX 6 1 10 2 12 3 3 4 4 5 5 6 7 7 8 8 9 9 11 10 2 12 1 13
REMARK H PARENT 11 11
REMARK Flexibility Score: inf
ROOT
ATOM      1  C   UNL     1      20.706  52.807  53.437  1.00  0.00     0.059 A 
ATOM      2  C   UNL     1      20.844  54.001  52.690  1.00  0.00     0.130 A 
ATOM      3  C   UNL     1      21.477  53.977  51.438  1.00  0.00     0.093 A 
ATOM      4  C   UNL     1      21.982  52.786  50.911  1.00  0.00     0.122 A 
ATOM      5  C   UNL     1      21.850  51.599  51.651  1.00  0.00     0.047 A 
ATOM      6  C   UNL     1      21.219  51.611  52.897  1.00  0.00     0.019 A 
ENDROOT
BRANCH   1   7
ATOM      7  C   UNL     1      20.028  52.801  54.766  1.00  0.00     0.163 C 
ATOM      8  C   UNL     1      20.634  52.121  55.957  1.00  0.00     0.093 C 
ATOM      9  O   UNL     1      18.903  53.352  54.906  1.00  0.00    -0.294 OA
ENDBRANCH   1   7
BRANCH   2  10
ATOM     10  O   UNL     1      20.366  55.213  53.188  1.00  0.00    -0.507 OA
ATOM     11  H   UNL     1      20.936  55.810  53.775  1.00  0.00     0.293 HD
ENDBRANCH   2  10
BRANCH   4  12
ATOM     12  O   UNL     1      22.606  52.824  49.654  1.00  0.00    -0.497 OA
ATOM     13  C   UNL     1      21.944  52.572  48.419  1.00  0.00     0.278 C 
ENDBRANCH   4  12
TORSDOF 3
ENDMDL
MODEL 8
REMARK VINA RESULT:    -3.761      2.448      2.913
REMARK INTER + INTRA:          -4.638
REMARK INTER:                  -4.311
REMARK INTRA:                  -0.327
REMARK UNBOUND:                -0.327
REMARK SMILES COc1ccc(C(C)=O)c(O)c1
REMARK SMILES IDX 6 1 10 2 12 3 3 4 4 5 5 6 7 7 8 8 9 9 11 10 2 12 1 13
REMARK H PARENT 11 11
REMARK Flexibility Score: inf
ROOT
ATOM      1  C   UNL     1      21.492  53.110  51.592  1.00  0.00     0.059 A 
ATOM      2  C   UNL     1      21.107  54.110  52.516  1.00  0.00     0.130 A 
ATOM      3  C   UNL     1      20.807  53.763  53.842  1.00  0.00     0.093 A 
ATOM      4  C   UNL     1      20.878  52.436  54.271  1.00  0.00     0.122 A 
ATOM      5  C   UNL     1      21.256  51.440  53.356  1.00  0.00     0.047 A 
ATOM      6  C   UNL     1      21.559  51.774  52.034  1.00  0.00     0.019 A 
ENDROOT
BRANCH   1   7
ATOM      7  C   UNL     1      21.827  53.451  50.178  1.00  0.00     0.163 C 
ATOM      8  C   UNL     1      21.400  52.580  49.035  1.00  0.00     0.093 C 
ATOM      9  O   UNL     1      22.510  54.479  49.920  1.00  0.00    -0.294 OA
ENDBRANCH   1   7
BRANCH   2  10
ATOM     10  O   UNL     1      21.010  55.444  52.122  1.00  0.00    -0.507 OA
ATOM     11  H   UNL     1      20.114  55.902  52.001  1.00  0.00     0.293 HD
ENDBRANCH   2  10
BRANCH   4  12
ATOM     12  O   UNL     1      20.565  52.150  55.608  1.00  0.00    -0.497 OA
ATOM     13  C   UNL     1      19.241  52.065  56.125  1.00  0.00     0.278 C 
ENDBRANCH   4  12
TORSDOF 3
ENDMDL
