MODEL 1
REMARK VINA RESULT:    -5.042      0.000      0.000
REMARK INTER + INTRA:         -10.265
REMARK INTER:                  -7.695
REMARK INTRA:                  -2.570
REMARK UNBOUND:                -2.570
REMARK SMILES CC(=O)CCC=C(C)CCC=C(C)CCC=C(C)C
REMARK SMILES IDX 10 1 11 2 12 3 13 4 14 5 15 6 16 7 18 8 17 9 19 10 9 11 7 12
REMARK SMILES IDX 6 13 8 14 5 15 4 16 2 17 3 18 1 19
REMARK H PARENT
REMARK Flexibility Score: inf
ROOT
ATOM      1  C   UNL     1      10.835 -17.989  24.541  1.00  0.00     0.032 C 
ENDROOT
BRANCH   1   2
ATOM      2  C   UNL     1       9.408 -18.318  24.172  1.00  0.00    -0.028 C 
ATOM      3  C   UNL     1       8.972 -18.371  22.895  1.00  0.00    -0.077 C 
ATOM      4  C   UNL     1       9.898 -18.097  21.735  1.00  0.00     0.039 C 
BRANCH   3   5
ATOM      5  C   UNL     1       7.521 -18.713  22.621  1.00  0.00     0.034 C 
BRANCH   5   6
ATOM      6  C   UNL     1       7.185 -20.161  23.010  1.00  0.00     0.032 C 
BRANCH   6   7
ATOM      7  C   UNL     1       7.788 -21.159  22.050  1.00  0.00    -0.028 C 
ATOM      8  C   UNL     1       9.437 -22.036  23.720  1.00  0.00     0.039 C 
ATOM      9  C   UNL     1       8.812 -21.991  22.346  1.00  0.00    -0.080 C 
ATOM     10  C   UNL     1       9.323 -22.909  21.267  1.00  0.00     0.039 C 
ENDBRANCH   6   7
ENDBRANCH   5   6
ENDBRANCH   3   5
ENDBRANCH   1   2
BRANCH   1  11
ATOM     11  C   UNL     1      10.931 -16.618  25.221  1.00  0.00     0.034 C 
BRANCH  11  12
ATOM     12  C   UNL     1      10.914 -15.509  24.188  1.00  0.00    -0.077 C 
ATOM     13  C   UNL     1       9.927 -14.586  24.115  1.00  0.00    -0.028 C 
ATOM     14  C   UNL     1      12.080 -15.382  23.243  1.00  0.00     0.039 C 
BRANCH  13  15
ATOM     15  C   UNL     1       8.679 -14.586  24.965  1.00  0.00     0.035 C 
BRANCH  15  16
ATOM     16  C   UNL     1       7.438 -14.971  24.149  1.00  0.00     0.079 C 
BRANCH  16  17
ATOM     17  C   UNL     1       6.604 -16.004  24.862  1.00  0.00     0.130 C 
ATOM     18  O   UNL     1       5.520 -16.329  24.398  1.00  0.00    -0.300 OA
ATOM     19  C   UNL     1       7.077 -16.647  26.132  1.00  0.00     0.087 C 
ENDBRANCH  16  17
ENDBRANCH  15  16
ENDBRANCH  13  15
ENDBRANCH  11  12
ENDBRANCH   1  11
TORSDOF 9
ENDMDL
MODEL 2
REMARK VINA RESULT:    -4.976      2.484      3.612
REMARK INTER + INTRA:         -10.164
REMARK INTER:                  -8.191
REMARK INTRA:                  -1.973
REMARK UNBOUND:                -2.570
REMARK SMILES CC(=O)CCC=C(C)CCC=C(C)CCC=C(C)C
REMARK SMILES IDX 10 1 11 2 12 3 13 4 14 5 15 6 16 7 18 8 17 9 19 10 9 11 7 12
REMARK SMILES IDX 6 13 8 14 5 15 4 16 2 17 3 18 1 19
REMARK H PARENT
REMARK Flexibility Score: inf
ROOT
ATOM      1  C   UNL     1       6.937 -17.406  24.618  1.00  0.00     0.032 C 
ENDROOT
BRANCH   1   2
ATOM      2  C   UNL     1       6.769 -18.180  23.332  1.00  0.00    -0.028 C 
ATOM      3  C   UNL     1       7.740 -18.276  22.398  1.00  0.00    -0.077 C 
ATOM      4  C   UNL     1       9.077 -17.601  22.581  1.00  0.00     0.039 C 
BRANCH   3   5
ATOM      5  C   UNL     1       7.481 -19.079  21.139  1.00  0.00     0.034 C 
BRANCH   5   6
ATOM      6  C   UNL     1       6.976 -20.495  21.451  1.00  0.00     0.032 C 
BRANCH   6   7
ATOM      7  C   UNL     1       8.014 -21.547  21.140  1.00  0.00    -0.028 C 
ATOM      8  C   UNL     1       8.839 -21.684  23.502  1.00  0.00     0.039 C 
ATOM      9  C   UNL     1       8.871 -22.074  22.043  1.00  0.00    -0.080 C 
ATOM     10  C   UNL     1       9.873 -23.095  21.570  1.00  0.00     0.039 C 
ENDBRANCH   6   7
ENDBRANCH   5   6
ENDBRANCH   3   5
ENDBRANCH   1   2
BRANCH   1  11
ATOM     11  C   UNL     1       6.185 -16.071  24.565  1.00  0.00     0.034 C 
BRANCH  11  12
ATOM     12  C   UNL     1       7.115 -14.951  24.142  1.00  0.00    -0.077 C 
ATOM     13  C   UNL     1       6.936 -14.235  23.008  1.00  0.00    -0.028 C 
ATOM     14  C   UNL     1       8.249 -14.569  25.056  1.00  0.00     0.039 C 
BRANCH  13  15
ATOM     15  C   UNL     1       5.870 -14.506  21.973  1.00  0.00     0.035 C 
BRANCH  15  16
ATOM     16  C   UNL     1       6.037 -13.608  20.741  1.00  0.00     0.079 C 
BRANCH  16  17
ATOM     17  C   UNL     1       6.520 -14.390  19.546  1.00  0.00     0.130 C 
ATOM     18  O   UNL     1       6.331 -13.950  18.422  1.00  0.00    -0.300 OA
ATOM     19  C   UNL     1       7.234 -15.699  19.709  1.00  0.00     0.087 C 
ENDBRANCH  16  17
ENDBRANCH  15  16
ENDBRANCH  13  15
ENDBRANCH  11  12
ENDBRANCH   1  11
TORSDOF 9
ENDMDL
MODEL 3
REMARK VINA RESULT:    -4.933      2.621      5.901
REMARK INTER + INTRA:         -10.098
REMARK INTER:                  -8.090
REMARK INTRA:                  -2.009
REMARK UNBOUND:                -2.570
REMARK SMILES CC(=O)CCC=C(C)CCC=C(C)CCC=C(C)C
REMARK SMILES IDX 10 1 11 2 12 3 13 4 14 5 15 6 16 7 18 8 17 9 19 10 9 11 7 12
REMARK SMILES IDX 6 13 8 14 5 15 4 16 2 17 3 18 1 19
REMARK H PARENT
REMARK Flexibility Score: inf
ROOT
ATOM      1  C   UNL     1       7.643 -20.165  26.918  1.00  0.00     0.032 C 
ENDROOT
BRANCH   1   2
ATOM      2  C   UNL     1       7.180 -18.755  26.642  1.00  0.00    -0.028 C 
ATOM      3  C   UNL     1       8.027 -17.749  26.333  1.00  0.00    -0.077 C 
ATOM      4  C   UNL     1       9.517 -17.974  26.246  1.00  0.00     0.039 C 
BRANCH   3   5
ATOM      5  C   UNL     1       7.470 -16.365  26.069  1.00  0.00     0.034 C 
BRANCH   5   6
ATOM      6  C   UNL     1       6.389 -16.376  24.978  1.00  0.00     0.032 C 
BRANCH   6   7
ATOM      7  C   UNL     1       6.973 -16.608  23.604  1.00  0.00    -0.028 C 
ATOM      8  C   UNL     1       6.770 -14.206  22.919  1.00  0.00     0.039 C 
ATOM      9  C   UNL     1       7.130 -15.651  22.662  1.00  0.00    -0.080 C 
ATOM     10  C   UNL     1       7.701 -16.047  21.326  1.00  0.00     0.039 C 
ENDBRANCH   6   7
ENDBRANCH   5   6
ENDBRANCH   3   5
ENDBRANCH   1   2
BRANCH   1  11
ATOM     11  C   UNL     1       7.289 -21.104  25.759  1.00  0.00     0.034 C 
BRANCH  11  12
ATOM     12  C   UNL     1       8.394 -21.110  24.722  1.00  0.00    -0.077 C 
ATOM     13  C   UNL     1       8.243 -20.589  23.482  1.00  0.00    -0.028 C 
ATOM     14  C   UNL     1       9.743 -21.658  25.106  1.00  0.00     0.039 C 
BRANCH  13  15
ATOM     15  C   UNL     1       6.953 -20.030  22.931  1.00  0.00     0.035 C 
BRANCH  15  16
ATOM     16  C   UNL     1       6.598 -20.657  21.577  1.00  0.00     0.079 C 
BRANCH  16  17
ATOM     17  C   UNL     1       7.735 -20.538  20.595  1.00  0.00     0.130 C 
ATOM     18  O   UNL     1       8.105 -19.430  20.233  1.00  0.00    -0.300 OA
ATOM     19  C   UNL     1       8.426 -21.754  20.052  1.00  0.00     0.087 C 
ENDBRANCH  16  17
ENDBRANCH  15  16
ENDBRANCH  13  15
ENDBRANCH  11  12
ENDBRANCH   1  11
TORSDOF 9
ENDMDL
MODEL 4
REMARK VINA RESULT:    -4.890      1.796      5.658
REMARK INTER + INTRA:         -10.033
REMARK INTER:                  -8.006
REMARK INTRA:                  -2.027
REMARK UNBOUND:                -2.570
REMARK SMILES CC(=O)CCC=C(C)CCC=C(C)CCC=C(C)C
REMARK SMILES IDX 10 1 11 2 12 3 13 4 14 5 15 6 16 7 18 8 17 9 19 10 9 11 7 12
REMARK SMILES IDX 6 13 8 14 5 15 4 16 2 17 3 18 1 19
REMARK H PARENT
REMARK Flexibility Score: inf
ROOT
ATOM      1  C   UNL     1       6.804 -18.413  23.269  1.00  0.00     0.032 C 
ENDROOT
BRANCH   1   2
ATOM      2  C   UNL     1       6.970 -17.094  23.985  1.00  0.00    -0.028 C 
ATOM      3  C   UNL     1       7.200 -15.930  23.340  1.00  0.00    -0.077 C 
ATOM      4  C   UNL     1       7.311 -15.873  21.835  1.00  0.00     0.039 C 
BRANCH   3   5
ATOM      5  C   UNL     1       7.350 -14.654  24.143  1.00  0.00     0.034 C 
BRANCH   5   6
ATOM      6  C   UNL     1       8.651 -14.635  24.958  1.00  0.00     0.032 C 
BRANCH   6   7
ATOM      7  C   UNL     1       9.856 -14.341  24.096  1.00  0.00    -0.028 C 
ATOM      8  C   UNL     1      10.906 -16.581  24.490  1.00  0.00     0.039 C 
ATOM      9  C   UNL     1      10.885 -15.194  23.893  1.00  0.00    -0.080 C 
ATOM     10  C   UNL     1      12.032 -14.740  23.029  1.00  0.00     0.039 C 
ENDBRANCH   6   7
ENDBRANCH   5   6
ENDBRANCH   3   5
ENDBRANCH   1   2
BRANCH   1  11
ATOM     11  C   UNL     1       8.163 -19.054  22.962  1.00  0.00     0.034 C 
BRANCH  11  12
ATOM     12  C   UNL     1       8.006 -20.540  22.707  1.00  0.00    -0.077 C 
ATOM     13  C   UNL     1       8.278 -21.480  23.642  1.00  0.00    -0.028 C 
ATOM     14  C   UNL     1       7.457 -20.991  21.379  1.00  0.00     0.039 C 
BRANCH  13  15
ATOM     15  C   UNL     1       8.858 -21.199  25.007  1.00  0.00     0.035 C 
BRANCH  15  16
ATOM     16  C   UNL     1       7.760 -20.981  26.055  1.00  0.00     0.079 C 
BRANCH  16  17
ATOM     17  C   UNL     1       7.837 -19.603  26.662  1.00  0.00     0.130 C 
ATOM     18  O   UNL     1       6.828 -19.092  27.126  1.00  0.00    -0.300 OA
ATOM     19  C   UNL     1       9.130 -18.845  26.711  1.00  0.00     0.087 C 
ENDBRANCH  16  17
ENDBRANCH  15  16
ENDBRANCH  13  15
ENDBRANCH  11  12
ENDBRANCH   1  11
TORSDOF 9
ENDMDL
MODEL 5
REMARK VINA RESULT:    -4.882      2.101      3.450
REMARK INTER + INTRA:         -10.020
REMARK INTER:                  -7.894
REMARK INTRA:                  -2.127
REMARK UNBOUND:                -2.570
REMARK SMILES CC(=O)CCC=C(C)CCC=C(C)CCC=C(C)C
REMARK SMILES IDX 10 1 11 2 12 3 13 4 14 5 15 6 16 7 18 8 17 9 19 10 9 11 7 12
REMARK SMILES IDX 6 13 8 14 5 15 4 16 2 17 3 18 1 19
REMARK H PARENT
REMARK Flexibility Score: inf
ROOT
ATOM      1  C   UNL     1       8.162 -16.350  21.224  1.00  0.00     0.032 C 
ENDROOT
BRANCH   1   2
ATOM      2  C   UNL     1       7.538 -17.721  21.323  1.00  0.00    -0.028 C 
ATOM      3  C   UNL     1       8.258 -18.843  21.537  1.00  0.00    -0.077 C 
ATOM      4  C   UNL     1       9.759 -18.798  21.691  1.00  0.00     0.039 C 
BRANCH   3   5
ATOM      5  C   UNL     1       7.544 -20.177  21.625  1.00  0.00     0.034 C 
BRANCH   5   6
ATOM      6  C   UNL     1       8.076 -21.042  22.777  1.00  0.00     0.032 C 
BRANCH   6   7
ATOM      7  C   UNL     1       7.364 -20.754  24.077  1.00  0.00    -0.028 C 
ATOM      8  C   UNL     1       9.360 -21.287  25.495  1.00  0.00     0.039 C 
ATOM      9  C   UNL     1       7.918 -20.880  25.304  1.00  0.00    -0.080 C 
ATOM     10  C   UNL     1       7.065 -20.584  26.510  1.00  0.00     0.039 C 
ENDBRANCH   6   7
ENDBRANCH   5   6
ENDBRANCH   3   5
ENDBRANCH   1   2
BRANCH   1  11
ATOM     11  C   UNL     1       8.234 -15.671  22.596  1.00  0.00     0.034 C 
BRANCH  11  12
ATOM     12  C   UNL     1       6.866 -15.171  23.017  1.00  0.00    -0.077 C 
ATOM     13  C   UNL     1       6.111 -15.791  23.952  1.00  0.00    -0.028 C 
ATOM     14  C   UNL     1       6.351 -13.888  22.419  1.00  0.00     0.039 C 
BRANCH  13  15
ATOM     15  C   UNL     1       6.467 -17.096  24.625  1.00  0.00     0.035 C 
BRANCH  15  16
ATOM     16  C   UNL     1       6.826 -16.891  26.102  1.00  0.00     0.079 C 
BRANCH  16  17
ATOM     17  C   UNL     1       8.207 -16.308  26.262  1.00  0.00     0.130 C 
ATOM     18  O   UNL     1       8.332 -15.141  26.604  1.00  0.00    -0.300 OA
ATOM     19  C   UNL     1       9.434 -17.133  26.013  1.00  0.00     0.087 C 
ENDBRANCH  16  17
ENDBRANCH  15  16
ENDBRANCH  13  15
ENDBRANCH  11  12
ENDBRANCH   1  11
TORSDOF 9
ENDMDL
MODEL 6
REMARK VINA RESULT:    -4.878      2.454      6.059
REMARK INTER + INTRA:         -10.014
REMARK INTER:                  -7.462
REMARK INTRA:                  -2.553
REMARK UNBOUND:                -2.570
REMARK SMILES CC(=O)CCC=C(C)CCC=C(C)CCC=C(C)C
REMARK SMILES IDX 10 1 11 2 12 3 13 4 14 5 15 6 16 7 18 8 17 9 19 10 9 11 7 12
REMARK SMILES IDX 6 13 8 14 5 15 4 16 2 17 3 18 1 19
REMARK H PARENT
REMARK Flexibility Score: inf
ROOT
ATOM      1  C   UNL     1      10.134 -21.120  25.246  1.00  0.00     0.032 C 
ENDROOT
BRANCH   1   2
ATOM      2  C   UNL     1      10.559 -19.705  24.934  1.00  0.00    -0.028 C 
ATOM      3  C   UNL     1      10.624 -18.733  25.869  1.00  0.00    -0.077 C 
ATOM      4  C   UNL     1      10.265 -19.002  27.311  1.00  0.00     0.039 C 
BRANCH   3   5
ATOM      5  C   UNL     1      11.065 -17.341  25.463  1.00  0.00     0.034 C 
BRANCH   5   6
ATOM      6  C   UNL     1      10.022 -16.275  25.831  1.00  0.00     0.032 C 
BRANCH   6   7
ATOM      7  C   UNL     1       8.964 -16.127  24.763  1.00  0.00    -0.028 C 
ATOM      8  C   UNL     1       7.157 -17.154  26.162  1.00  0.00     0.039 C 
ATOM      9  C   UNL     1       7.681 -16.536  24.888  1.00  0.00    -0.080 C 
ATOM     10  C   UNL     1       6.752 -16.346  23.718  1.00  0.00     0.039 C 
ENDBRANCH   6   7
ENDBRANCH   5   6
ENDBRANCH   3   5
ENDBRANCH   1   2
BRANCH   1  11
ATOM     11  C   UNL     1       8.982 -21.566  24.339  1.00  0.00     0.034 C 
BRANCH  11  12
ATOM     12  C   UNL     1       7.720 -20.789  24.658  1.00  0.00    -0.077 C 
ATOM     13  C   UNL     1       7.065 -20.041  23.740  1.00  0.00    -0.028 C 
ATOM     14  C   UNL     1       7.127 -20.907  26.037  1.00  0.00     0.039 C 
BRANCH  13  15
ATOM     15  C   UNL     1       7.538 -19.796  22.327  1.00  0.00     0.035 C 
BRANCH  15  16
ATOM     16  C   UNL     1       6.907 -20.786  21.340  1.00  0.00     0.079 C 
BRANCH  16  17
ATOM     17  C   UNL     1       7.953 -21.636  20.663  1.00  0.00     0.130 C 
ATOM     18  O   UNL     1       8.173 -22.764  21.077  1.00  0.00    -0.300 OA
ATOM     19  C   UNL     1       8.727 -21.125  19.484  1.00  0.00     0.087 C 
ENDBRANCH  16  17
ENDBRANCH  15  16
ENDBRANCH  13  15
ENDBRANCH  11  12
ENDBRANCH   1  11
TORSDOF 9
ENDMDL
MODEL 7
REMARK VINA RESULT:    -4.818      1.937      3.017
REMARK INTER + INTRA:          -9.924
REMARK INTER:                  -7.094
REMARK INTRA:                  -2.829
REMARK UNBOUND:                -2.570
REMARK SMILES CC(=O)CCC=C(C)CCC=C(C)CCC=C(C)C
REMARK SMILES IDX 10 1 11 2 12 3 13 4 14 5 15 6 16 7 18 8 17 9 19 10 9 11 7 12
REMARK SMILES IDX 6 13 8 14 5 15 4 16 2 17 3 18 1 19
REMARK H PARENT
REMARK Flexibility Score: inf
ROOT
ATOM      1  C   UNL     1      10.121 -17.931  26.868  1.00  0.00     0.032 C 
ENDROOT
BRANCH   1   2
ATOM      2  C   UNL     1       8.879 -18.734  26.565  1.00  0.00    -0.028 C 
ATOM      3  C   UNL     1       8.733 -20.028  26.923  1.00  0.00    -0.077 C 
ATOM      4  C   UNL     1       9.823 -20.769  27.659  1.00  0.00     0.039 C 
BRANCH   3   5
ATOM      5  C   UNL     1       7.448 -20.753  26.577  1.00  0.00     0.034 C 
BRANCH   5   6
ATOM      6  C   UNL     1       7.212 -20.820  25.061  1.00  0.00     0.032 C 
BRANCH   6   7
ATOM      7  C   UNL     1       8.351 -21.502  24.341  1.00  0.00    -0.028 C 
ATOM      8  C   UNL     1       7.592 -20.764  22.070  1.00  0.00     0.039 C 
ATOM      9  C   UNL     1       8.523 -21.505  22.999  1.00  0.00    -0.080 C 
ATOM     10  C   UNL     1       9.695 -22.260  22.429  1.00  0.00     0.039 C 
ENDBRANCH   6   7
ENDBRANCH   5   6
ENDBRANCH   3   5
ENDBRANCH   1   2
BRANCH   1  11
ATOM     11  C   UNL     1      10.671 -17.260  25.605  1.00  0.00     0.034 C 
BRANCH  11  12
ATOM     12  C   UNL     1      10.698 -18.239  24.449  1.00  0.00    -0.077 C 
ATOM     13  C   UNL     1       9.981 -18.060  23.315  1.00  0.00    -0.028 C 
ATOM     14  C   UNL     1      11.615 -19.432  24.532  1.00  0.00     0.039 C 
BRANCH  13  15
ATOM     15  C   UNL     1       8.997 -16.938  23.083  1.00  0.00     0.035 C 
BRANCH  15  16
ATOM     16  C   UNL     1       7.570 -17.349  23.466  1.00  0.00     0.079 C 
BRANCH  16  17
ATOM     17  C   UNL     1       6.895 -16.293  24.304  1.00  0.00     0.130 C 
ATOM     18  O   UNL     1       5.691 -16.358  24.499  1.00  0.00    -0.300 OA
ATOM     19  C   UNL     1       7.675 -15.163  24.909  1.00  0.00     0.087 C 
ENDBRANCH  16  17
ENDBRANCH  15  16
ENDBRANCH  13  15
ENDBRANCH  11  12
ENDBRANCH   1  11
TORSDOF 9
ENDMDL
MODEL 8
REMARK VINA RESULT:    -4.815      2.417      4.760
REMARK INTER + INTRA:          -9.918
REMARK INTER:                  -7.275
REMARK INTRA:                  -2.644
REMARK UNBOUND:                -2.570
REMARK SMILES CC(=O)CCC=C(C)CCC=C(C)CCC=C(C)C
REMARK SMILES IDX 10 1 11 2 12 3 13 4 14 5 15 6 16 7 18 8 17 9 19 10 9 11 7 12
REMARK SMILES IDX 6 13 8 14 5 15 4 16 2 17 3 18 1 19
REMARK H PARENT
REMARK Flexibility Score: inf
ROOT
ATOM      1  C   UNL     1      10.067 -21.392  25.617  1.00  0.00     0.032 C 
ENDROOT
BRANCH   1   2
ATOM      2  C   UNL     1       9.159 -21.032  24.465  1.00  0.00    -0.028 C 
ATOM      3  C   UNL     1       7.847 -20.753  24.621  1.00  0.00    -0.077 C 
ATOM      4  C   UNL     1       7.191 -20.787  25.981  1.00  0.00     0.039 C 
BRANCH   3   5
ATOM      5  C   UNL     1       7.014 -20.398  23.406  1.00  0.00     0.034 C 
BRANCH   5   6
ATOM      6  C   UNL     1       7.420 -19.045  22.802  1.00  0.00     0.032 C 
BRANCH   6   7
ATOM      7  C   UNL     1       6.977 -17.886  23.663  1.00  0.00    -0.028 C 
ATOM      8  C   UNL     1       7.668 -16.152  21.992  1.00  0.00     0.039 C 
ATOM      9  C   UNL     1       7.102 -16.583  23.324  1.00  0.00    -0.080 C 
ATOM     10  C   UNL     1       6.640 -15.540  24.307  1.00  0.00     0.039 C 
ENDBRANCH   6   7
ENDBRANCH   5   6
ENDBRANCH   3   5
ENDBRANCH   1   2
BRANCH   1  11
ATOM     11  C   UNL     1      11.142 -20.322  25.833  1.00  0.00     0.034 C 
BRANCH  11  12
ATOM     12  C   UNL     1      10.968 -19.656  27.184  1.00  0.00    -0.077 C 
ATOM     13  C   UNL     1      10.202 -18.556  27.369  1.00  0.00    -0.028 C 
ATOM     14  C   UNL     1      11.619 -20.283  28.389  1.00  0.00     0.039 C 
BRANCH  13  15
ATOM     15  C   UNL     1       9.506 -17.791  26.268  1.00  0.00     0.035 C 
BRANCH  15  16
ATOM     16  C   UNL     1      10.071 -16.373  26.121  1.00  0.00     0.079 C 
BRANCH  16  17
ATOM     17  C   UNL     1      10.432 -16.065  24.690  1.00  0.00     0.130 C 
ATOM     18  O   UNL     1      10.382 -14.911  24.291  1.00  0.00    -0.300 OA
ATOM     19  C   UNL     1      10.856 -17.149  23.743  1.00  0.00     0.087 C 
ENDBRANCH  16  17
ENDBRANCH  15  16
ENDBRANCH  13  15
ENDBRANCH  11  12
ENDBRANCH   1  11
TORSDOF 9
ENDMDL
MODEL 9
REMARK VINA RESULT:    -4.764      2.263      3.308
REMARK INTER + INTRA:          -9.840
REMARK INTER:                  -7.149
REMARK INTRA:                  -2.691
REMARK UNBOUND:                -2.570
REMARK SMILES CC(=O)CCC=C(C)CCC=C(C)CCC=C(C)C
REMARK SMILES IDX 10 1 11 2 12 3 13 4 14 5 15 6 16 7 18 8 17 9 19 10 9 11 7 12
REMARK SMILES IDX 6 13 8 14 5 15 4 16 2 17 3 18 1 19
REMARK H PARENT
REMARK Flexibility Score: inf
ROOT
ATOM      1  C   UNL     1       7.173 -15.622  24.516  1.00  0.00     0.032 C 
ENDROOT
BRANCH   1   2
ATOM      2  C   UNL     1       6.792 -17.082  24.517  1.00  0.00    -0.028 C 
ATOM      3  C   UNL     1       7.164 -17.941  23.543  1.00  0.00    -0.077 C 
ATOM      4  C   UNL     1       7.999 -17.486  22.370  1.00  0.00     0.039 C 
BRANCH   3   5
ATOM      5  C   UNL     1       6.736 -19.392  23.629  1.00  0.00     0.034 C 
BRANCH   5   6
ATOM      6  C   UNL     1       7.445 -20.266  22.584  1.00  0.00     0.032 C 
BRANCH   6   7
ATOM      7  C   UNL     1       8.251 -21.372  23.224  1.00  0.00    -0.028 C 
ATOM      8  C   UNL     1      10.459 -20.370  22.591  1.00  0.00     0.039 C 
ATOM      9  C   UNL     1       9.601 -21.445  23.216  1.00  0.00    -0.080 C 
ATOM     10  C   UNL     1      10.258 -22.631  23.873  1.00  0.00     0.039 C 
ENDBRANCH   6   7
ENDBRANCH   5   6
ENDBRANCH   3   5
ENDBRANCH   1   2
BRANCH   1  11
ATOM     11  C   UNL     1       8.204 -15.316  25.610  1.00  0.00     0.034 C 
BRANCH  11  12
ATOM     12  C   UNL     1       9.613 -15.485  25.076  1.00  0.00    -0.077 C 
ATOM     13  C   UNL     1      10.429 -16.493  25.461  1.00  0.00    -0.028 C 
ATOM     14  C   UNL     1      10.105 -14.531  24.019  1.00  0.00     0.039 C 
BRANCH  13  15
ATOM     15  C   UNL     1      10.102 -17.513  26.525  1.00  0.00     0.035 C 
BRANCH  15  16
ATOM     16  C   UNL     1       9.820 -18.893  25.919  1.00  0.00     0.079 C 
BRANCH  16  17
ATOM     17  C   UNL     1       9.436 -19.896  26.977  1.00  0.00     0.130 C 
ATOM     18  O   UNL     1      10.187 -20.092  27.921  1.00  0.00    -0.300 OA
ATOM     19  C   UNL     1       8.146 -20.658  26.897  1.00  0.00     0.087 C 
ENDBRANCH  16  17
ENDBRANCH  15  16
ENDBRANCH  13  15
ENDBRANCH  11  12
ENDBRANCH   1  11
TORSDOF 9
ENDMDL
