MODEL 1
REMARK VINA RESULT:    -3.876      0.000      0.000
REMARK INTER + INTRA:          -4.693
REMARK INTER:                  -4.669
REMARK INTRA:                  -0.024
REMARK UNBOUND:                -0.024
REMARK SMILES OCC(O)CO
REMARK SMILES IDX 3 1 5 2 6 3 2 5 1 6 4 8
REMARK H PARENT 6 4 1 7 4 9
REMARK Flexibility Score: inf
ROOT
ATOM      1  C   UNL     1      94.342 118.108 110.693  1.00  0.00     0.165 C 
ENDROOT
BRANCH   1   2
ATOM      2  C   UNL     1      94.404 116.811 109.876  1.00  0.00     0.190 C 
BRANCH   2   3
ATOM      3  O   UNL     1      93.467 115.885 110.358  1.00  0.00    -0.394 OA
ATOM      4  H   UNL     1      93.938 115.321 111.025  1.00  0.00     0.210 HD
ENDBRANCH   2   3
ENDBRANCH   1   2
BRANCH   1   5
ATOM      5  C   UNL     1      93.713 117.866 112.072  1.00  0.00     0.190 C 
BRANCH   5   6
ATOM      6  O   UNL     1      92.875 118.933 112.421  1.00  0.00    -0.394 OA
ATOM      7  H   UNL     1      92.808 118.918 113.412  1.00  0.00     0.210 HD
ENDBRANCH   5   6
ENDBRANCH   1   5
BRANCH   1   8
ATOM      8  O   UNL     1      93.600 119.071 109.989  1.00  0.00    -0.388 OA
ATOM      9  H   UNL     1      93.052 118.581 109.323  1.00  0.00     0.211 HD
ENDBRANCH   1   8
TORSDOF 5
ENDMDL
MODEL 2
REMARK VINA RESULT:    -3.559      0.724      2.720
REMARK INTER + INTRA:          -4.312
REMARK INTER:                  -4.131
REMARK INTRA:                  -0.181
REMARK UNBOUND:                -0.024
REMARK SMILES OCC(O)CO
REMARK SMILES IDX 3 1 5 2 6 3 2 5 1 6 4 8
REMARK H PARENT 6 4 1 7 4 9
REMARK Flexibility Score: inf
ROOT
ATOM      1  C   UNL     1      94.094 117.091 110.987  1.00  0.00     0.165 C 
ENDROOT
BRANCH   1   2
ATOM      2  C   UNL     1      93.094 117.711 111.973  1.00  0.00     0.190 C 
BRANCH   2   3
ATOM      3  O   UNL     1      93.637 118.866 112.557  1.00  0.00    -0.394 OA
ATOM      4  H   UNL     1      94.007 118.594 113.438  1.00  0.00     0.210 HD
ENDBRANCH   2   3
ENDBRANCH   1   2
BRANCH   1   5
ATOM      5  C   UNL     1      94.469 118.084 109.879  1.00  0.00     0.190 C 
BRANCH   5   6
ATOM      6  O   UNL     1      93.584 119.170 109.875  1.00  0.00    -0.394 OA
ATOM      7  H   UNL     1      93.252 119.251 108.943  1.00  0.00     0.210 HD
ENDBRANCH   5   6
ENDBRANCH   1   5
BRANCH   1   8
ATOM      8  O   UNL     1      93.538 115.930 110.424  1.00  0.00    -0.388 OA
ATOM      9  H   UNL     1      94.030 115.160 110.812  1.00  0.00     0.211 HD
ENDBRANCH   1   8
TORSDOF 5
ENDMDL
MODEL 3
REMARK VINA RESULT:    -3.285      0.634      2.667
REMARK INTER + INTRA:          -3.981
REMARK INTER:                  -3.961
REMARK INTRA:                  -0.020
REMARK UNBOUND:                -0.024
REMARK SMILES OCC(O)CO
REMARK SMILES IDX 3 1 5 2 6 3 2 5 1 6 4 8
REMARK H PARENT 6 4 1 7 4 9
REMARK Flexibility Score: inf
ROOT
ATOM      1  C   UNL     1      93.938 118.176 110.712  1.00  0.00     0.165 C 
ENDROOT
BRANCH   1   2
ATOM      2  C   UNL     1      93.999 117.866 112.213  1.00  0.00     0.190 C 
BRANCH   2   3
ATOM      3  O   UNL     1      92.875 118.394 112.867  1.00  0.00    -0.394 OA
ATOM      4  H   UNL     1      93.003 119.378 112.907  1.00  0.00     0.210 HD
ENDBRANCH   2   3
ENDBRANCH   1   2
BRANCH   1   5
ATOM      5  C   UNL     1      94.392 116.971 109.877  1.00  0.00     0.190 C 
BRANCH   5   6
ATOM      6  O   UNL     1      93.555 115.872 110.110  1.00  0.00    -0.394 OA
ATOM      7  H   UNL     1      92.835 116.197 110.711  1.00  0.00     0.210 HD
ENDBRANCH   5   6
ENDBRANCH   1   5
BRANCH   1   8
ATOM      8  O   UNL     1      94.747 119.289 110.429  1.00  0.00    -0.388 OA
ATOM      9  H   UNL     1      95.596 118.938 110.054  1.00  0.00     0.211 HD
ENDBRANCH   1   8
TORSDOF 5
ENDMDL
MODEL 4
REMARK VINA RESULT:    -3.275      0.766      2.133
REMARK INTER + INTRA:          -3.969
REMARK INTER:                  -3.763
REMARK INTRA:                  -0.207
REMARK UNBOUND:                -0.024
REMARK SMILES OCC(O)CO
REMARK SMILES IDX 3 1 5 2 6 3 2 5 1 6 4 8
REMARK H PARENT 6 4 1 7 4 9
REMARK Flexibility Score: inf
ROOT
ATOM      1  C   UNL     1      93.513 117.276 110.776  1.00  0.00     0.165 C 
ENDROOT
BRANCH   1   2
ATOM      2  C   UNL     1      94.425 118.120 109.875  1.00  0.00     0.190 C 
BRANCH   2   3
ATOM      3  O   UNL     1      94.360 119.472 110.244  1.00  0.00    -0.394 OA
ATOM      4  H   UNL     1      93.536 119.842 109.832  1.00  0.00     0.210 HD
ENDBRANCH   2   3
ENDBRANCH   1   2
BRANCH   1   5
ATOM      5  C   UNL     1      93.751 117.592 112.259  1.00  0.00     0.190 C 
BRANCH   5   6
ATOM      6  O   UNL     1      93.082 118.769 112.620  1.00  0.00    -0.394 OA
ATOM      7  H   UNL     1      92.164 118.689 112.249  1.00  0.00     0.210 HD
ENDBRANCH   5   6
ENDBRANCH   1   5
BRANCH   1   8
ATOM      8  O   UNL     1      93.746 115.912 110.532  1.00  0.00    -0.388 OA
ATOM      9  H   UNL     1      93.269 115.685 109.692  1.00  0.00     0.211 HD
ENDBRANCH   1   8
TORSDOF 5
ENDMDL
MODEL 5
REMARK VINA RESULT:    -2.708      0.832      2.551
REMARK INTER + INTRA:          -3.286
REMARK INTER:                  -3.071
REMARK INTRA:                  -0.215
REMARK UNBOUND:                -0.024
REMARK SMILES OCC(O)CO
REMARK SMILES IDX 3 1 5 2 6 3 2 5 1 6 4 8
REMARK H PARENT 6 4 1 7 4 9
REMARK Flexibility Score: inf
ROOT
ATOM      1  C   UNL     1      93.897 117.822 111.821  1.00  0.00     0.165 C 
ENDROOT
BRANCH   1   2
ATOM      2  C   UNL     1      94.521 118.541 110.617  1.00  0.00     0.190 C 
BRANCH   2   3
ATOM      3  O   UNL     1      93.530 119.202 109.876  1.00  0.00    -0.394 OA
ATOM      4  H   UNL     1      93.205 118.559 109.193  1.00  0.00     0.210 HD
ENDBRANCH   2   3
ENDBRANCH   1   2
BRANCH   1   5
ATOM      5  C   UNL     1      93.123 116.572 111.381  1.00  0.00     0.190 C 
BRANCH   5   6
ATOM      6  O   UNL     1      93.526 116.173 110.100  1.00  0.00    -0.394 OA
ATOM      7  H   UNL     1      93.098 116.806 109.467  1.00  0.00     0.210 HD
ENDBRANCH   5   6
ENDBRANCH   1   5
BRANCH   1   8
ATOM      8  O   UNL     1      93.041 118.703 112.501  1.00  0.00    -0.388 OA
ATOM      9  H   UNL     1      93.425 119.612 112.400  1.00  0.00     0.211 HD
ENDBRANCH   1   8
TORSDOF 5
ENDMDL
MODEL 6
REMARK VINA RESULT:    -1.866      1.237      2.148
REMARK INTER + INTRA:          -2.272
REMARK INTER:                  -2.060
REMARK INTRA:                  -0.212
REMARK UNBOUND:                -0.024
REMARK SMILES OCC(O)CO
REMARK SMILES IDX 3 1 5 2 6 3 2 5 1 6 4 8
REMARK H PARENT 6 4 1 7 4 9
REMARK Flexibility Score: inf
ROOT
ATOM      1  C   UNL     1      93.372 118.148 111.141  1.00  0.00     0.165 C 
ENDROOT
BRANCH   1   2
ATOM      2  C   UNL     1      93.742 116.666 111.293  1.00  0.00     0.190 C 
BRANCH   2   3
ATOM      3  O   UNL     1      93.687 116.019 110.050  1.00  0.00    -0.394 OA
ATOM      4  H   UNL     1      94.478 116.325 109.533  1.00  0.00     0.210 HD
ENDBRANCH   2   3
ENDBRANCH   1   2
BRANCH   1   5
ATOM      5  C   UNL     1      93.997 118.749 109.875  1.00  0.00     0.190 C 
BRANCH   5   6
ATOM      6  O   UNL     1      95.384 118.553 109.875  1.00  0.00    -0.394 OA
ATOM      7  H   UNL     1      95.763 119.268 109.299  1.00  0.00     0.210 HD
ENDBRANCH   5   6
ENDBRANCH   1   5
BRANCH   1   8
ATOM      8  O   UNL     1      93.803 118.858 112.274  1.00  0.00    -0.388 OA
ATOM      9  H   UNL     1      93.184 119.625 112.384  1.00  0.00     0.211 HD
ENDBRANCH   1   8
TORSDOF 5
ENDMDL
MODEL 7
REMARK VINA RESULT:    -1.399      1.816      2.464
REMARK INTER + INTRA:          -1.709
REMARK INTER:                  -1.707
REMARK INTRA:                  -0.003
REMARK UNBOUND:                -0.024
REMARK SMILES OCC(O)CO
REMARK SMILES IDX 3 1 5 2 6 3 2 5 1 6 4 8
REMARK H PARENT 6 4 1 7 4 9
REMARK Flexibility Score: inf
ROOT
ATOM      1  C   UNL     1      94.067 118.308 112.635  1.00  0.00     0.165 C 
ENDROOT
BRANCH   1   2
ATOM      2  C   UNL     1      94.010 117.792 111.191  1.00  0.00     0.190 C 
BRANCH   2   3
ATOM      3  O   UNL     1      93.220 116.635 111.117  1.00  0.00    -0.394 OA
ATOM      4  H   UNL     1      93.303 116.175 111.993  1.00  0.00     0.210 HD
ENDBRANCH   2   3
ENDBRANCH   1   2
BRANCH   1   5
ATOM      5  C   UNL     1      95.269 117.722 113.387  1.00  0.00     0.190 C 
BRANCH   5   6
ATOM      6  O   UNL     1      95.263 118.145 114.723  1.00  0.00    -0.394 OA
ATOM      7  H   UNL     1      96.214 118.289 114.970  1.00  0.00     0.210 HD
ENDBRANCH   5   6
ENDBRANCH   1   5
BRANCH   1   8
ATOM      8  O   UNL     1      92.875 117.975 113.300  1.00  0.00    -0.388 OA
ATOM      9  H   UNL     1      92.712 118.688 113.971  1.00  0.00     0.211 HD
ENDBRANCH   1   8
TORSDOF 5
ENDMDL
MODEL 8
REMARK VINA RESULT:    -1.134     21.620     22.599
REMARK INTER + INTRA:          -1.390
REMARK INTER:                  -1.369
REMARK INTRA:                  -0.021
REMARK UNBOUND:                -0.024
REMARK SMILES OCC(O)CO
REMARK SMILES IDX 3 1 5 2 6 3 2 5 1 6 4 8
REMARK H PARENT 6 4 1 7 4 9
REMARK Flexibility Score: inf
ROOT
ATOM      1  C   UNL     1      96.454 132.245 127.538  1.00  0.00     0.165 C 
ENDROOT
BRANCH   1   2
ATOM      2  C   UNL     1      97.202 133.124 128.549  1.00  0.00     0.190 C 
BRANCH   2   3
ATOM      3  O   UNL     1      98.580 133.110 128.284  1.00  0.00    -0.394 OA
ATOM      4  H   UNL     1      98.911 134.033 128.439  1.00  0.00     0.210 HD
ENDBRANCH   2   3
ENDBRANCH   1   2
BRANCH   1   5
ATOM      5  C   UNL     1      95.679 133.099 126.526  1.00  0.00     0.190 C 
BRANCH   5   6
ATOM      6  O   UNL     1      96.303 133.059 125.273  1.00  0.00    -0.394 OA
ATOM      7  H   UNL     1      96.570 133.993 125.068  1.00  0.00     0.210 HD
ENDBRANCH   5   6
ENDBRANCH   1   5
BRANCH   1   8
ATOM      8  O   UNL     1      95.573 131.390 128.221  1.00  0.00    -0.388 OA
ATOM      9  H   UNL     1      94.666 131.566 127.860  1.00  0.00     0.211 HD
ENDBRANCH   1   8
TORSDOF 5
ENDMDL
