MODEL 1
REMARK VINA RESULT:    -4.140      0.000      0.000
REMARK INTER + INTRA:          -5.870
REMARK INTER:                  -5.351
REMARK INTRA:                  -0.520
REMARK UNBOUND:                -0.520
REMARK SMILES C=CC(=O)CCCCC
REMARK SMILES IDX 6 1 7 2 8 3 9 4 5 5 3 6 4 7 2 8 1 9
REMARK H PARENT
REMARK Flexibility Score: inf
ROOT
ATOM      1  C   UNL     1     -11.834 -16.992  29.224  1.00  0.00     0.008 C 
ENDROOT
BRANCH   1   2
ATOM      2  C   UNL     1     -12.523 -16.118  28.163  1.00  0.00     0.000 C 
BRANCH   2   3
ATOM      3  C   UNL     1     -12.780 -16.870  26.849  1.00  0.00    -0.003 C 
ATOM      4  C   UNL     1     -11.482 -17.426  26.272  1.00  0.00     0.004 C 
ENDBRANCH   2   3
ENDBRANCH   1   2
BRANCH   1   5
ATOM      5  C   UNL     1     -12.751 -17.420  30.382  1.00  0.00     0.080 C 
BRANCH   5   6
ATOM      6  C   UNL     1     -12.913 -18.912  30.451  1.00  0.00     0.155 C 
ATOM      7  O   UNL     1     -13.154 -19.455  31.564  1.00  0.00    -0.295 OA
BRANCH   6   8
ATOM      8  C   UNL     1     -12.764 -19.734  29.233  1.00  0.00     0.039 C 
ATOM      9  C   UNL     1     -13.807 -20.258  28.593  1.00  0.00     0.012 C 
ENDBRANCH   6   8
ENDBRANCH   5   6
ENDBRANCH   1   5
TORSDOF 5
ENDMDL
MODEL 2
REMARK VINA RESULT:    -4.113      2.340      3.688
REMARK INTER + INTRA:          -5.836
REMARK INTER:                  -5.586
REMARK INTRA:                  -0.250
REMARK UNBOUND:                -0.520
REMARK SMILES C=CC(=O)CCCCC
REMARK SMILES IDX 6 1 7 2 8 3 9 4 5 5 3 6 4 7 2 8 1 9
REMARK H PARENT
REMARK Flexibility Score: inf
ROOT
ATOM      1  C   UNL     1     -12.421 -15.434  28.876  1.00  0.00     0.008 C 
ENDROOT
BRANCH   1   2
ATOM      2  C   UNL     1     -13.629 -14.674  29.453  1.00  0.00     0.000 C 
BRANCH   2   3
ATOM      3  C   UNL     1     -14.360 -13.832  28.398  1.00  0.00    -0.003 C 
ATOM      4  C   UNL     1     -15.441 -12.966  29.040  1.00  0.00     0.004 C 
ENDBRANCH   2   3
ENDBRANCH   1   2
BRANCH   1   5
ATOM      5  C   UNL     1     -12.443 -16.949  29.142  1.00  0.00     0.080 C 
BRANCH   5   6
ATOM      6  C   UNL     1     -12.804 -17.732  27.911  1.00  0.00     0.155 C 
ATOM      7  O   UNL     1     -13.354 -18.860  28.038  1.00  0.00    -0.295 OA
BRANCH   6   8
ATOM      8  C   UNL     1     -12.491 -17.197  26.571  1.00  0.00     0.039 C 
ATOM      9  C   UNL     1     -11.328 -17.424  25.965  1.00  0.00     0.012 C 
ENDBRANCH   6   8
ENDBRANCH   5   6
ENDBRANCH   1   5
TORSDOF 5
ENDMDL
MODEL 3
REMARK VINA RESULT:    -4.096      2.488      4.140
REMARK INTER + INTRA:          -5.813
REMARK INTER:                  -5.625
REMARK INTRA:                  -0.188
REMARK UNBOUND:                -0.520
REMARK SMILES C=CC(=O)CCCCC
REMARK SMILES IDX 6 1 7 2 8 3 9 4 5 5 3 6 4 7 2 8 1 9
REMARK H PARENT
REMARK Flexibility Score: inf
ROOT
ATOM      1  C   UNL     1     -12.862 -15.506  29.184  1.00  0.00     0.008 C 
ENDROOT
BRANCH   1   2
ATOM      2  C   UNL     1     -13.250 -15.611  30.669  1.00  0.00     0.000 C 
BRANCH   2   3
ATOM      3  C   UNL     1     -14.333 -14.601  31.073  1.00  0.00    -0.003 C 
ATOM      4  C   UNL     1     -14.915 -14.938  32.444  1.00  0.00     0.004 C 
ENDBRANCH   2   3
ENDBRANCH   1   2
BRANCH   1   5
ATOM      5  C   UNL     1     -11.368 -15.736  28.903  1.00  0.00     0.080 C 
BRANCH   5   6
ATOM      6  C   UNL     1     -11.073 -17.169  28.562  1.00  0.00     0.155 C 
ATOM      7  O   UNL     1     -10.344 -17.849  29.335  1.00  0.00    -0.295 OA
BRANCH   6   8
ATOM      8  C   UNL     1     -11.607 -17.763  27.320  1.00  0.00     0.039 C 
ATOM      9  C   UNL     1     -11.179 -17.400  26.113  1.00  0.00     0.012 C 
ENDBRANCH   6   8
ENDBRANCH   5   6
ENDBRANCH   1   5
TORSDOF 5
ENDMDL
MODEL 4
REMARK VINA RESULT:    -4.015      1.778      2.547
REMARK INTER + INTRA:          -5.708
REMARK INTER:                  -5.334
REMARK INTRA:                  -0.374
REMARK UNBOUND:                -0.520
REMARK SMILES C=CC(=O)CCCCC
REMARK SMILES IDX 6 1 7 2 8 3 9 4 5 5 3 6 4 7 2 8 1 9
REMARK H PARENT
REMARK Flexibility Score: inf
ROOT
ATOM      1  C   UNL     1     -11.823 -18.053  28.034  1.00  0.00     0.008 C 
ENDROOT
BRANCH   1   2
ATOM      2  C   UNL     1     -11.441 -16.630  28.480  1.00  0.00     0.000 C 
BRANCH   2   3
ATOM      3  C   UNL     1     -12.531 -15.962  29.330  1.00  0.00    -0.003 C 
ATOM      4  C   UNL     1     -13.207 -14.828  28.564  1.00  0.00     0.004 C 
ENDBRANCH   2   3
ENDBRANCH   1   2
BRANCH   1   5
ATOM      5  C   UNL     1     -13.280 -18.440  28.337  1.00  0.00     0.080 C 
BRANCH   5   6
ATOM      6  C   UNL     1     -13.392 -19.841  28.867  1.00  0.00     0.155 C 
ATOM      7  O   UNL     1     -14.018 -20.706  28.195  1.00  0.00    -0.295 OA
BRANCH   6   8
ATOM      8  C   UNL     1     -12.801 -20.192  30.174  1.00  0.00     0.039 C 
ATOM      9  C   UNL     1     -13.011 -19.468  31.271  1.00  0.00     0.012 C 
ENDBRANCH   6   8
ENDBRANCH   5   6
ENDBRANCH   1   5
TORSDOF 5
ENDMDL
MODEL 5
REMARK VINA RESULT:    -3.945      2.332      4.458
REMARK INTER + INTRA:          -5.618
REMARK INTER:                  -5.288
REMARK INTRA:                  -0.329
REMARK UNBOUND:                -0.520
REMARK SMILES C=CC(=O)CCCCC
REMARK SMILES IDX 6 1 7 2 8 3 9 4 5 5 3 6 4 7 2 8 1 9
REMARK H PARENT
REMARK Flexibility Score: inf
ROOT
ATOM      1  C   UNL     1     -13.613 -19.014  28.240  1.00  0.00     0.008 C 
ENDROOT
BRANCH   1   2
ATOM      2  C   UNL     1     -13.202 -20.233  29.084  1.00  0.00     0.000 C 
BRANCH   2   3
ATOM      3  C   UNL     1     -12.197 -19.878  30.189  1.00  0.00    -0.003 C 
ATOM      4  C   UNL     1     -12.910 -19.578  31.504  1.00  0.00     0.004 C 
ENDBRANCH   2   3
ENDBRANCH   1   2
BRANCH   1   5
ATOM      5  C   UNL     1     -12.441 -18.111  27.822  1.00  0.00     0.080 C 
BRANCH   5   6
ATOM      6  C   UNL     1     -12.864 -16.679  27.654  1.00  0.00     0.155 C 
ATOM      7  O   UNL     1     -13.588 -16.362  26.670  1.00  0.00    -0.295 OA
BRANCH   6   8
ATOM      8  C   UNL     1     -12.414 -15.652  28.614  1.00  0.00     0.039 C 
ATOM      9  C   UNL     1     -11.286 -15.773  29.312  1.00  0.00     0.012 C 
ENDBRANCH   6   8
ENDBRANCH   5   6
ENDBRANCH   1   5
TORSDOF 5
ENDMDL
MODEL 6
REMARK VINA RESULT:    -3.932      1.910      3.815
REMARK INTER + INTRA:          -5.601
REMARK INTER:                  -5.121
REMARK INTRA:                  -0.480
REMARK UNBOUND:                -0.520
REMARK SMILES C=CC(=O)CCCCC
REMARK SMILES IDX 6 1 7 2 8 3 9 4 5 5 3 6 4 7 2 8 1 9
REMARK H PARENT
REMARK Flexibility Score: inf
ROOT
ATOM      1  C   UNL     1     -12.733 -17.653  30.173  1.00  0.00     0.008 C 
ENDROOT
BRANCH   1   2
ATOM      2  C   UNL     1     -12.200 -19.097  30.171  1.00  0.00     0.000 C 
BRANCH   2   3
ATOM      3  C   UNL     1     -13.311 -20.140  29.990  1.00  0.00    -0.003 C 
ATOM      4  C   UNL     1     -13.868 -20.109  28.569  1.00  0.00     0.004 C 
ENDBRANCH   2   3
ENDBRANCH   1   2
BRANCH   1   5
ATOM      5  C   UNL     1     -11.891 -16.668  29.346  1.00  0.00     0.080 C 
BRANCH   5   6
ATOM      6  C   UNL     1     -12.679 -16.060  28.220  1.00  0.00     0.155 C 
ATOM      7  O   UNL     1     -13.201 -14.922  28.378  1.00  0.00    -0.295 OA
BRANCH   6   8
ATOM      8  C   UNL     1     -12.862 -16.799  26.956  1.00  0.00     0.039 C 
ATOM      9  C   UNL     1     -11.865 -17.441  26.352  1.00  0.00     0.012 C 
ENDBRANCH   6   8
ENDBRANCH   5   6
ENDBRANCH   1   5
TORSDOF 5
ENDMDL
MODEL 7
REMARK VINA RESULT:    -3.887      1.567      1.762
REMARK INTER + INTRA:          -5.543
REMARK INTER:                  -5.200
REMARK INTRA:                  -0.344
REMARK UNBOUND:                -0.520
REMARK SMILES C=CC(=O)CCCCC
REMARK SMILES IDX 6 1 7 2 8 3 9 4 5 5 3 6 4 7 2 8 1 9
REMARK H PARENT
REMARK Flexibility Score: inf
ROOT
ATOM      1  C   UNL     1     -11.816 -15.989  28.899  1.00  0.00     0.008 C 
ENDROOT
BRANCH   1   2
ATOM      2  C   UNL     1     -12.959 -15.837  27.879  1.00  0.00     0.000 C 
BRANCH   2   3
ATOM      3  C   UNL     1     -12.976 -16.962  26.834  1.00  0.00    -0.003 C 
ATOM      4  C   UNL     1     -11.560 -17.334  26.404  1.00  0.00     0.004 C 
ENDBRANCH   2   3
ENDBRANCH   1   2
BRANCH   1   5
ATOM      5  C   UNL     1     -12.234 -16.659  30.219  1.00  0.00     0.080 C 
BRANCH   5   6
ATOM      6  C   UNL     1     -11.924 -18.129  30.226  1.00  0.00     0.155 C 
ATOM      7  O   UNL     1     -10.841 -18.533  29.720  1.00  0.00    -0.295 OA
BRANCH   6   8
ATOM      8  C   UNL     1     -12.889 -19.090  30.795  1.00  0.00     0.039 C 
ATOM      9  C   UNL     1     -12.544 -19.990  31.714  1.00  0.00     0.012 C 
ENDBRANCH   6   8
ENDBRANCH   5   6
ENDBRANCH   1   5
TORSDOF 5
ENDMDL
MODEL 8
REMARK VINA RESULT:    -3.885      2.123      3.407
REMARK INTER + INTRA:          -5.541
REMARK INTER:                  -5.009
REMARK INTRA:                  -0.532
REMARK UNBOUND:                -0.520
REMARK SMILES C=CC(=O)CCCCC
REMARK SMILES IDX 6 1 7 2 8 3 9 4 5 5 3 6 4 7 2 8 1 9
REMARK H PARENT
REMARK Flexibility Score: inf
ROOT
ATOM      1  C   UNL     1     -13.045 -15.398  28.276  1.00  0.00     0.008 C 
ENDROOT
BRANCH   1   2
ATOM      2  C   UNL     1     -11.709 -15.523  29.030  1.00  0.00     0.000 C 
BRANCH   2   3
ATOM      3  C   UNL     1     -11.887 -16.002  30.477  1.00  0.00    -0.003 C 
ATOM      4  C   UNL     1     -13.347 -15.908  30.911  1.00  0.00     0.004 C 
ENDBRANCH   2   3
ENDBRANCH   1   2
BRANCH   1   5
ATOM      5  C   UNL     1     -13.167 -16.322  27.052  1.00  0.00     0.080 C 
BRANCH   5   6
ATOM      6  C   UNL     1     -12.606 -17.689  27.321  1.00  0.00     0.155 C 
ATOM      7  O   UNL     1     -11.495 -18.010  26.814  1.00  0.00    -0.295 OA
BRANCH   6   8
ATOM      8  C   UNL     1     -13.360 -18.655  28.145  1.00  0.00     0.039 C 
ATOM      9  C   UNL     1     -12.763 -19.490  28.992  1.00  0.00     0.012 C 
ENDBRANCH   6   8
ENDBRANCH   5   6
ENDBRANCH   1   5
TORSDOF 5
ENDMDL
MODEL 9
REMARK VINA RESULT:    -3.682      2.085      3.927
REMARK INTER + INTRA:          -5.278
REMARK INTER:                  -4.805
REMARK INTRA:                  -0.474
REMARK UNBOUND:                -0.520
REMARK SMILES C=CC(=O)CCCCC
REMARK SMILES IDX 6 1 7 2 8 3 9 4 5 5 3 6 4 7 2 8 1 9
REMARK H PARENT
REMARK Flexibility Score: inf
ROOT
ATOM      1  C   UNL     1     -11.440 -18.076  30.871  1.00  0.00     0.008 C 
ENDROOT
BRANCH   1   2
ATOM      2  C   UNL     1     -12.882 -18.583  30.691  1.00  0.00     0.000 C 
BRANCH   2   3
ATOM      3  C   UNL     1     -12.944 -20.037  30.203  1.00  0.00    -0.003 C 
ATOM      4  C   UNL     1     -13.633 -20.132  28.845  1.00  0.00     0.004 C 
ENDBRANCH   2   3
ENDBRANCH   1   2
BRANCH   1   5
ATOM      5  C   UNL     1     -10.615 -18.045  29.574  1.00  0.00     0.080 C 
BRANCH   5   6
ATOM      6  C   UNL     1     -11.238 -17.161  28.531  1.00  0.00     0.155 C 
ATOM      7  O   UNL     1     -11.440 -17.621  27.374  1.00  0.00    -0.295 OA
BRANCH   6   8
ATOM      8  C   UNL     1     -11.582 -15.761  28.852  1.00  0.00     0.039 C 
ATOM      9  C   UNL     1     -12.803 -15.265  28.665  1.00  0.00     0.012 C 
ENDBRANCH   6   8
ENDBRANCH   5   6
ENDBRANCH   1   5
TORSDOF 5
ENDMDL
