MODEL 1
REMARK VINA RESULT:    -3.856      0.000      0.000
REMARK INTER + INTRA:         -10.278
REMARK INTER:                  -8.364
REMARK INTRA:                  -1.914
REMARK UNBOUND:                -1.914
REMARK SMILES CCCCCCCCCCCCCCCCCCCCCC(=O)[O-]
REMARK SMILES IDX 12 1 11 2 10 3 9 4 8 5 7 6 6 7 5 8 4 9 3 10 2 11 1 12 13 13
REMARK SMILES IDX 14 14 15 15 16 16 17 17 18 18 19 19 20 20 21 21 22 22 23 23
REMARK SMILES IDX 24 24
REMARK H PARENT
REMARK Flexibility Score: inf
ROOT
ATOM      1  C   UNL     1      33.964  47.960  26.083  1.00  0.00     0.000 C 
ENDROOT
BRANCH   1   2
ATOM      2  C   UNL     1      33.517  49.424  26.249  1.00  0.00     0.000 C 
BRANCH   2   3
ATOM      3  C   UNL     1      34.630  50.330  26.803  1.00  0.00     0.000 C 
BRANCH   3   4
ATOM      4  C   UNL     1      34.139  51.758  27.087  1.00  0.00    -0.000 C 
BRANCH   4   5
ATOM      5  C   UNL     1      32.679  51.985  26.653  1.00  0.00    -0.000 C 
BRANCH   5   6
ATOM      6  C   UNL     1      32.528  53.238  25.764  1.00  0.00    -0.000 C 
BRANCH   6   7
ATOM      7  C   UNL     1      31.067  53.659  25.530  1.00  0.00    -0.000 C 
BRANCH   7   8
ATOM      8  C   UNL     1      30.087  52.982  26.502  1.00  0.00    -0.000 C 
BRANCH   8   9
ATOM      9  C   UNL     1      28.911  52.291  25.786  1.00  0.00    -0.000 C 
BRANCH   9  10
ATOM     10  C   UNL     1      29.198  50.863  25.286  1.00  0.00    -0.000 C 
BRANCH  10  11
ATOM     11  C   UNL     1      29.791  50.831  23.870  1.00  0.00    -0.003 C 
ATOM     12  C   UNL     1      31.231  50.326  23.888  1.00  0.00     0.004 C 
ENDBRANCH  10  11
ENDBRANCH   9  10
ENDBRANCH   8   9
ENDBRANCH   7   8
ENDBRANCH   6   7
ENDBRANCH   5   6
ENDBRANCH   4   5
ENDBRANCH   3   4
ENDBRANCH   2   3
ENDBRANCH   1   2
BRANCH   1  13
ATOM     13  C   UNL     1      33.277  47.191  24.936  1.00  0.00     0.000 C 
BRANCH  13  14
ATOM     14  C   UNL     1      32.612  45.863  25.348  1.00  0.00     0.000 C 
BRANCH  14  15
ATOM     15  C   UNL     1      32.834  45.451  26.816  1.00  0.00     0.000 C 
BRANCH  15  16
ATOM     16  C   UNL     1      33.735  44.219  27.023  1.00  0.00     0.000 C 
BRANCH  16  17
ATOM     17  C   UNL     1      35.011  44.264  26.166  1.00  0.00     0.000 C 
BRANCH  17  18
ATOM     18  C   UNL     1      36.198  44.916  26.897  1.00  0.00     0.000 C 
BRANCH  18  19
ATOM     19  C   UNL     1      37.418  43.999  27.123  1.00  0.00     0.000 C 
BRANCH  19  20
ATOM     20  C   UNL     1      37.251  42.550  26.623  1.00  0.00     0.006 C 
BRANCH  20  21
ATOM     21  C   UNL     1      38.043  42.223  25.347  1.00  0.00     0.053 C 
BRANCH  21  22
ATOM     22  C   UNL     1      37.374  41.160  24.531  1.00  0.00     0.041 C 
ATOM     23  O   UNL     1      37.243  39.995  24.991  1.00  0.00    -0.550 OA
ATOM     24  O   UNL     1      36.871  41.464  23.273  1.00  0.00    -0.550 OA
ENDBRANCH  21  22
ENDBRANCH  20  21
ENDBRANCH  19  20
ENDBRANCH  18  19
ENDBRANCH  17  18
ENDBRANCH  16  17
ENDBRANCH  15  16
ENDBRANCH  14  15
ENDBRANCH  13  14
ENDBRANCH   1  13
TORSDOF 20
ENDMDL
MODEL 2
REMARK VINA RESULT:    -3.702      2.467      4.264
REMARK INTER + INTRA:          -9.944
REMARK INTER:                  -8.644
REMARK INTRA:                  -1.300
REMARK UNBOUND:                -1.914
REMARK SMILES CCCCCCCCCCCCCCCCCCCCCC(=O)[O-]
REMARK SMILES IDX 12 1 11 2 10 3 9 4 8 5 7 6 6 7 5 8 4 9 3 10 2 11 1 12 13 13
REMARK SMILES IDX 14 14 15 15 16 16 17 17 18 18 19 19 20 20 21 21 22 22 23 23
REMARK SMILES IDX 24 24
REMARK H PARENT
REMARK Flexibility Score: inf
ROOT
ATOM      1  C   UNL     1      33.131  44.772  26.222  1.00  0.00     0.000 C 
ENDROOT
BRANCH   1   2
ATOM      2  C   UNL     1      32.360  45.954  26.838  1.00  0.00     0.000 C 
BRANCH   2   3
ATOM      3  C   UNL     1      32.673  47.295  26.154  1.00  0.00     0.000 C 
BRANCH   3   4
ATOM      4  C   UNL     1      34.098  47.344  25.580  1.00  0.00    -0.000 C 
BRANCH   4   5
ATOM      5  C   UNL     1      34.766  48.720  25.757  1.00  0.00    -0.000 C 
BRANCH   5   6
ATOM      6  C   UNL     1      33.853  49.714  26.507  1.00  0.00    -0.000 C 
BRANCH   6   7
ATOM      7  C   UNL     1      34.477  51.107  26.695  1.00  0.00    -0.000 C 
BRANCH   7   8
ATOM      8  C   UNL     1      33.505  52.249  26.353  1.00  0.00    -0.000 C 
BRANCH   8   9
ATOM      9  C   UNL     1      32.069  51.756  26.093  1.00  0.00    -0.000 C 
BRANCH   9  10
ATOM     10  C   UNL     1      31.228  52.654  25.166  1.00  0.00    -0.000 C 
BRANCH  10  11
ATOM     11  C   UNL     1      30.497  51.865  24.070  1.00  0.00    -0.003 C 
ATOM     12  C   UNL     1      31.107  50.478  23.891  1.00  0.00     0.004 C 
ENDBRANCH  10  11
ENDBRANCH   9  10
ENDBRANCH   8   9
ENDBRANCH   7   8
ENDBRANCH   6   7
ENDBRANCH   5   6
ENDBRANCH   4   5
ENDBRANCH   3   4
ENDBRANCH   2   3
ENDBRANCH   1   2
BRANCH   1  13
ATOM     13  C   UNL     1      34.288  44.224  27.081  1.00  0.00     0.000 C 
BRANCH  13  14
ATOM     14  C   UNL     1      35.608  43.987  26.322  1.00  0.00     0.000 C 
BRANCH  14  15
ATOM     15  C   UNL     1      36.698  43.250  27.125  1.00  0.00     0.000 C 
BRANCH  15  16
ATOM     16  C   UNL     1      37.774  42.546  26.276  1.00  0.00     0.000 C 
BRANCH  16  17
ATOM     17  C   UNL     1      38.506  41.433  27.046  1.00  0.00     0.000 C 
BRANCH  17  18
ATOM     18  C   UNL     1      38.763  40.183  26.186  1.00  0.00     0.000 C 
BRANCH  18  19
ATOM     19  C   UNL     1      37.526  39.303  25.916  1.00  0.00     0.000 C 
BRANCH  19  20
ATOM     20  C   UNL     1      37.280  38.180  26.945  1.00  0.00     0.006 C 
BRANCH  20  21
ATOM     21  C   UNL     1      38.348  37.075  26.945  1.00  0.00     0.053 C 
BRANCH  21  22
ATOM     22  C   UNL     1      37.858  35.826  26.279  1.00  0.00     0.041 C 
ATOM     23  O   UNL     1      38.609  35.189  25.493  1.00  0.00    -0.550 OA
ATOM     24  O   UNL     1      36.580  35.351  26.546  1.00  0.00    -0.550 OA
ENDBRANCH  21  22
ENDBRANCH  20  21
ENDBRANCH  19  20
ENDBRANCH  18  19
ENDBRANCH  17  18
ENDBRANCH  16  17
ENDBRANCH  15  16
ENDBRANCH  14  15
ENDBRANCH  13  14
ENDBRANCH   1  13
TORSDOF 20
ENDMDL
MODEL 3
REMARK VINA RESULT:    -3.692      1.381      2.190
REMARK INTER + INTRA:          -9.922
REMARK INTER:                  -8.840
REMARK INTRA:                  -1.081
REMARK UNBOUND:                -1.914
REMARK SMILES CCCCCCCCCCCCCCCCCCCCCC(=O)[O-]
REMARK SMILES IDX 12 1 11 2 10 3 9 4 8 5 7 6 6 7 5 8 4 9 3 10 2 11 1 12 13 13
REMARK SMILES IDX 14 14 15 15 16 16 17 17 18 18 19 19 20 20 21 21 22 22 23 23
REMARK SMILES IDX 24 24
REMARK H PARENT
REMARK Flexibility Score: inf
ROOT
ATOM      1  C   UNL     1      33.060  47.228  24.878  1.00  0.00     0.000 C 
ENDROOT
BRANCH   1   2
ATOM      2  C   UNL     1      33.387  48.722  25.055  1.00  0.00     0.000 C 
BRANCH   2   3
ATOM      3  C   UNL     1      34.519  48.972  26.066  1.00  0.00     0.000 C 
BRANCH   3   4
ATOM      4  C   UNL     1      34.625  50.449  26.477  1.00  0.00    -0.000 C 
BRANCH   4   5
ATOM      5  C   UNL     1      33.260  51.073  26.820  1.00  0.00    -0.000 C 
BRANCH   5   6
ATOM      6  C   UNL     1      33.171  52.550  26.378  1.00  0.00    -0.000 C 
BRANCH   6   7
ATOM      7  C   UNL     1      31.844  53.231  26.754  1.00  0.00    -0.000 C 
BRANCH   7   8
ATOM      8  C   UNL     1      31.223  54.015  25.587  1.00  0.00    -0.000 C 
BRANCH   8   9
ATOM      9  C   UNL     1      29.850  53.465  25.156  1.00  0.00    -0.000 C 
BRANCH   9  10
ATOM     10  C   UNL     1      29.424  52.156  25.848  1.00  0.00    -0.000 C 
BRANCH  10  11
ATOM     11  C   UNL     1      29.264  50.985  24.868  1.00  0.00    -0.003 C 
ATOM     12  C   UNL     1      30.549  50.750  24.078  1.00  0.00     0.004 C 
ENDBRANCH  10  11
ENDBRANCH   9  10
ENDBRANCH   8   9
ENDBRANCH   7   8
ENDBRANCH   6   7
ENDBRANCH   5   6
ENDBRANCH   4   5
ENDBRANCH   3   4
ENDBRANCH   2   3
ENDBRANCH   1   2
BRANCH   1  13
ATOM     13  C   UNL     1      32.815  46.450  26.187  1.00  0.00     0.000 C 
BRANCH  13  14
ATOM     14  C   UNL     1      34.090  45.963  26.904  1.00  0.00     0.000 C 
BRANCH  14  15
ATOM     15  C   UNL     1      34.263  44.432  26.956  1.00  0.00     0.000 C 
BRANCH  15  16
ATOM     16  C   UNL     1      35.530  43.892  26.267  1.00  0.00     0.000 C 
BRANCH  16  17
ATOM     17  C   UNL     1      36.280  42.859  27.125  1.00  0.00     0.000 C 
BRANCH  17  18
ATOM     18  C   UNL     1      37.692  42.553  26.594  1.00  0.00     0.000 C 
BRANCH  18  19
ATOM     19  C   UNL     1      37.787  42.321  25.072  1.00  0.00     0.000 C 
BRANCH  19  20
ATOM     20  C   UNL     1      37.838  40.842  24.635  1.00  0.00     0.006 C 
BRANCH  20  21
ATOM     21  C   UNL     1      37.226  39.860  25.646  1.00  0.00     0.053 C 
BRANCH  21  22
ATOM     22  C   UNL     1      38.277  39.165  26.456  1.00  0.00     0.041 C 
ATOM     23  O   UNL     1      39.416  39.683  26.597  1.00  0.00    -0.550 OA
ATOM     24  O   UNL     1      37.989  37.957  27.078  1.00  0.00    -0.550 OA
ENDBRANCH  21  22
ENDBRANCH  20  21
ENDBRANCH  19  20
ENDBRANCH  18  19
ENDBRANCH  17  18
ENDBRANCH  16  17
ENDBRANCH  15  16
ENDBRANCH  14  15
ENDBRANCH  13  14
ENDBRANCH   1  13
TORSDOF 20
ENDMDL
MODEL 4
REMARK VINA RESULT:    -3.389      2.105      3.550
REMARK INTER + INTRA:          -9.265
REMARK INTER:                  -8.230
REMARK INTRA:                  -1.034
REMARK UNBOUND:                -1.914
REMARK SMILES CCCCCCCCCCCCCCCCCCCCCC(=O)[O-]
REMARK SMILES IDX 12 1 11 2 10 3 9 4 8 5 7 6 6 7 5 8 4 9 3 10 2 11 1 12 13 13
REMARK SMILES IDX 14 14 15 15 16 16 17 17 18 18 19 19 20 20 21 21 22 22 23 23
REMARK SMILES IDX 24 24
REMARK H PARENT
REMARK Flexibility Score: inf
ROOT
ATOM      1  C   UNL     1      32.788  45.620  25.078  1.00  0.00     0.000 C 
ENDROOT
BRANCH   1   2
ATOM      2  C   UNL     1      33.520  46.974  25.142  1.00  0.00     0.000 C 
BRANCH   2   3
ATOM      3  C   UNL     1      33.652  47.515  26.575  1.00  0.00     0.000 C 
BRANCH   3   4
ATOM      4  C   UNL     1      32.985  48.888  26.749  1.00  0.00    -0.000 C 
BRANCH   4   5
ATOM      5  C   UNL     1      32.316  49.395  25.458  1.00  0.00    -0.000 C 
BRANCH   5   6
ATOM      6  C   UNL     1      30.885  49.914  25.713  1.00  0.00    -0.000 C 
BRANCH   6   7
ATOM      7  C   UNL     1      30.312  50.745  24.553  1.00  0.00    -0.000 C 
BRANCH   7   8
ATOM      8  C   UNL     1      28.934  51.348  24.873  1.00  0.00    -0.000 C 
BRANCH   8   9
ATOM      9  C   UNL     1      28.994  52.439  25.959  1.00  0.00    -0.000 C 
BRANCH   9  10
ATOM     10  C   UNL     1      30.392  53.033  26.213  1.00  0.00    -0.000 C 
BRANCH  10  11
ATOM     11  C   UNL     1      30.595  54.397  25.538  1.00  0.00    -0.003 C 
ATOM     12  C   UNL     1      31.270  54.241  24.178  1.00  0.00     0.004 C 
ENDBRANCH  10  11
ENDBRANCH   9  10
ENDBRANCH   8   9
ENDBRANCH   7   8
ENDBRANCH   6   7
ENDBRANCH   5   6
ENDBRANCH   4   5
ENDBRANCH   3   4
ENDBRANCH   2   3
ENDBRANCH   1   2
BRANCH   1  13
ATOM     13  C   UNL     1      33.412  44.496  25.930  1.00  0.00     0.000 C 
BRANCH  13  14
ATOM     14  C   UNL     1      34.947  44.391  25.848  1.00  0.00     0.000 C 
BRANCH  14  15
ATOM     15  C   UNL     1      35.634  43.869  27.125  1.00  0.00     0.000 C 
BRANCH  15  16
ATOM     16  C   UNL     1      36.587  42.677  26.916  1.00  0.00     0.000 C 
BRANCH  16  17
ATOM     17  C   UNL     1      36.622  42.191  25.457  1.00  0.00     0.000 C 
BRANCH  17  18
ATOM     18  C   UNL     1      37.561  40.989  25.250  1.00  0.00     0.000 C 
BRANCH  18  19
ATOM     19  C   UNL     1      38.486  40.663  26.441  1.00  0.00     0.000 C 
BRANCH  19  20
ATOM     20  C   UNL     1      38.652  39.162  26.752  1.00  0.00     0.006 C 
BRANCH  20  21
ATOM     21  C   UNL     1      37.336  38.427  27.054  1.00  0.00     0.053 C 
BRANCH  21  22
ATOM     22  C   UNL     1      37.478  36.944  26.904  1.00  0.00     0.041 C 
ATOM     23  O   UNL     1      36.466  36.198  26.988  1.00  0.00    -0.550 OA
ATOM     24  O   UNL     1      38.723  36.387  26.644  1.00  0.00    -0.550 OA
ENDBRANCH  21  22
ENDBRANCH  20  21
ENDBRANCH  19  20
ENDBRANCH  18  19
ENDBRANCH  17  18
ENDBRANCH  16  17
ENDBRANCH  15  16
ENDBRANCH  14  15
ENDBRANCH  13  14
ENDBRANCH   1  13
TORSDOF 20
ENDMDL
MODEL 5
REMARK VINA RESULT:    -3.216      4.612     11.043
REMARK INTER + INTRA:          -8.890
REMARK INTER:                  -7.966
REMARK INTRA:                  -0.924
REMARK UNBOUND:                -1.914
REMARK SMILES CCCCCCCCCCCCCCCCCCCCCC(=O)[O-]
REMARK SMILES IDX 12 1 11 2 10 3 9 4 8 5 7 6 6 7 5 8 4 9 3 10 2 11 1 12 13 13
REMARK SMILES IDX 14 14 15 15 16 16 17 17 18 18 19 19 20 20 21 21 22 22 23 23
REMARK SMILES IDX 24 24
REMARK H PARENT
REMARK Flexibility Score: inf
ROOT
ATOM      1  C   UNL     1      32.969  45.465  25.260  1.00  0.00     0.000 C 
ENDROOT
BRANCH   1   2
ATOM      2  C   UNL     1      32.987  44.561  26.507  1.00  0.00     0.000 C 
BRANCH   2   3
ATOM      3  C   UNL     1      34.396  44.375  27.092  1.00  0.00     0.000 C 
BRANCH   3   4
ATOM      4  C   UNL     1      35.379  43.768  26.078  1.00  0.00    -0.000 C 
BRANCH   4   5
ATOM      5  C   UNL     1      36.851  44.058  26.424  1.00  0.00    -0.000 C 
BRANCH   5   6
ATOM      6  C   UNL     1      37.805  43.003  25.826  1.00  0.00    -0.000 C 
BRANCH   6   7
ATOM      7  C   UNL     1      37.563  41.579  26.355  1.00  0.00    -0.000 C 
BRANCH   7   8
ATOM      8  C   UNL     1      37.787  40.498  25.284  1.00  0.00    -0.000 C 
BRANCH   8   9
ATOM      9  C   UNL     1      37.197  39.130  25.679  1.00  0.00    -0.000 C 
BRANCH   9  10
ATOM     10  C   UNL     1      37.818  38.488  26.934  1.00  0.00    -0.000 C 
BRANCH  10  11
ATOM     11  C   UNL     1      38.162  37.004  26.740  1.00  0.00    -0.003 C 
ATOM     12  C   UNL     1      36.985  36.112  27.125  1.00  0.00     0.004 C 
ENDBRANCH  10  11
ENDBRANCH   9  10
ENDBRANCH   8   9
ENDBRANCH   7   8
ENDBRANCH   6   7
ENDBRANCH   5   6
ENDBRANCH   4   5
ENDBRANCH   3   4
ENDBRANCH   2   3
ENDBRANCH   1   2
BRANCH   1  13
ATOM     13  C   UNL     1      33.108  46.974  25.542  1.00  0.00     0.000 C 
BRANCH  13  14
ATOM     14  C   UNL     1      34.448  47.598  25.103  1.00  0.00     0.000 C 
BRANCH  14  15
ATOM     15  C   UNL     1      34.727  49.005  25.667  1.00  0.00     0.000 C 
BRANCH  15  16
ATOM     16  C   UNL     1      33.778  49.460  26.792  1.00  0.00     0.000 C 
BRANCH  16  17
ATOM     17  C   UNL     1      33.920  50.955  27.123  1.00  0.00     0.000 C 
BRANCH  17  18
ATOM     18  C   UNL     1      32.913  51.834  26.361  1.00  0.00     0.000 C 
BRANCH  18  19
ATOM     19  C   UNL     1      31.603  51.131  25.951  1.00  0.00     0.000 C 
BRANCH  19  20
ATOM     20  C   UNL     1      31.164  51.358  24.490  1.00  0.00     0.006 C 
BRANCH  20  21
ATOM     21  C   UNL     1      30.873  52.825  24.137  1.00  0.00     0.053 C 
BRANCH  21  22
ATOM     22  C   UNL     1      30.312  53.580  25.303  1.00  0.00     0.041 C 
ATOM     23  O   UNL     1      29.334  53.117  25.947  1.00  0.00    -0.550 OA
ATOM     24  O   UNL     1      30.887  54.782  25.695  1.00  0.00    -0.550 OA
ENDBRANCH  21  22
ENDBRANCH  20  21
ENDBRANCH  19  20
ENDBRANCH  18  19
ENDBRANCH  17  18
ENDBRANCH  16  17
ENDBRANCH  15  16
ENDBRANCH  14  15
ENDBRANCH  13  14
ENDBRANCH   1  13
TORSDOF 20
ENDMDL
MODEL 6
REMARK VINA RESULT:    -3.196      4.345     11.349
REMARK INTER + INTRA:          -8.846
REMARK INTER:                  -7.868
REMARK INTRA:                  -0.978
REMARK UNBOUND:                -1.914
REMARK SMILES CCCCCCCCCCCCCCCCCCCCCC(=O)[O-]
REMARK SMILES IDX 12 1 11 2 10 3 9 4 8 5 7 6 6 7 5 8 4 9 3 10 2 11 1 12 13 13
REMARK SMILES IDX 14 14 15 15 16 16 17 17 18 18 19 19 20 20 21 21 22 22 23 23
REMARK SMILES IDX 24 24
REMARK H PARENT
REMARK Flexibility Score: inf
ROOT
ATOM      1  C   UNL     1      33.967  44.566  25.652  1.00  0.00     0.000 C 
ENDROOT
BRANCH   1   2
ATOM      2  C   UNL     1      35.199  43.726  26.034  1.00  0.00     0.000 C 
BRANCH   2   3
ATOM      3  C   UNL     1      35.603  42.723  24.939  1.00  0.00     0.000 C 
BRANCH   3   4
ATOM      4  C   UNL     1      37.112  42.434  24.935  1.00  0.00    -0.000 C 
BRANCH   4   5
ATOM      5  C   UNL     1      37.791  42.781  26.272  1.00  0.00    -0.000 C 
BRANCH   5   6
ATOM      6  C   UNL     1      38.083  41.522  27.116  1.00  0.00    -0.000 C 
BRANCH   6   7
ATOM      7  C   UNL     1      37.654  40.209  26.439  1.00  0.00    -0.000 C 
BRANCH   7   8
ATOM      8  C   UNL     1      38.598  39.037  26.755  1.00  0.00    -0.000 C 
BRANCH   8   9
ATOM      9  C   UNL     1      37.848  37.743  27.120  1.00  0.00    -0.000 C 
BRANCH   9  10
ATOM     10  C   UNL     1      38.666  36.447  26.967  1.00  0.00    -0.000 C 
BRANCH  10  11
ATOM     11  C   UNL     1      38.000  35.425  26.034  1.00  0.00    -0.003 C 
ATOM     12  C   UNL     1      36.532  35.221  26.400  1.00  0.00     0.004 C 
ENDBRANCH  10  11
ENDBRANCH   9  10
ENDBRANCH   8   9
ENDBRANCH   7   8
ENDBRANCH   6   7
ENDBRANCH   5   6
ENDBRANCH   4   5
ENDBRANCH   3   4
ENDBRANCH   2   3
ENDBRANCH   1   2
BRANCH   1  13
ATOM     13  C   UNL     1      33.237  45.234  26.835  1.00  0.00     0.000 C 
BRANCH  13  14
ATOM     14  C   UNL     1      33.614  46.708  27.085  1.00  0.00     0.000 C 
BRANCH  14  15
ATOM     15  C   UNL     1      33.415  47.645  25.877  1.00  0.00     0.000 C 
BRANCH  15  16
ATOM     16  C   UNL     1      34.614  48.556  25.551  1.00  0.00     0.000 C 
BRANCH  16  17
ATOM     17  C   UNL     1      34.641  49.834  26.406  1.00  0.00     0.000 C 
BRANCH  17  18
ATOM     18  C   UNL     1      33.233  50.336  26.773  1.00  0.00     0.000 C 
BRANCH  18  19
ATOM     19  C   UNL     1      32.922  51.788  26.356  1.00  0.00     0.000 C 
BRANCH  19  20
ATOM     20  C   UNL     1      31.471  52.247  26.605  1.00  0.00     0.006 C 
BRANCH  20  21
ATOM     21  C   UNL     1      30.407  51.182  26.299  1.00  0.00     0.053 C 
BRANCH  21  22
ATOM     22  C   UNL     1      30.006  51.192  24.855  1.00  0.00     0.041 C 
ATOM     23  O   UNL     1      30.875  51.349  23.957  1.00  0.00    -0.550 OA
ATOM     24  O   UNL     1      28.677  51.002  24.502  1.00  0.00    -0.550 OA
ENDBRANCH  21  22
ENDBRANCH  20  21
ENDBRANCH  19  20
ENDBRANCH  18  19
ENDBRANCH  17  18
ENDBRANCH  16  17
ENDBRANCH  15  16
ENDBRANCH  14  15
ENDBRANCH  13  14
ENDBRANCH   1  13
TORSDOF 20
ENDMDL
MODEL 7
REMARK VINA RESULT:    -3.196      4.174     10.932
REMARK INTER + INTRA:          -8.846
REMARK INTER:                  -7.801
REMARK INTRA:                  -1.044
REMARK UNBOUND:                -1.914
REMARK SMILES CCCCCCCCCCCCCCCCCCCCCC(=O)[O-]
REMARK SMILES IDX 12 1 11 2 10 3 9 4 8 5 7 6 6 7 5 8 4 9 3 10 2 11 1 12 13 13
REMARK SMILES IDX 14 14 15 15 16 16 17 17 18 18 19 19 20 20 21 21 22 22 23 23
REMARK SMILES IDX 24 24
REMARK H PARENT
REMARK Flexibility Score: inf
ROOT
ATOM      1  C   UNL     1      34.170  47.986  25.984  1.00  0.00     0.000 C 
ENDROOT
BRANCH   1   2
ATOM      2  C   UNL     1      33.435  46.861  26.736  1.00  0.00     0.000 C 
BRANCH   2   3
ATOM      3  C   UNL     1      34.311  45.616  26.956  1.00  0.00     0.000 C 
BRANCH   3   4
ATOM      4  C   UNL     1      35.803  45.899  26.724  1.00  0.00    -0.000 C 
BRANCH   4   5
ATOM      5  C   UNL     1      36.567  44.674  26.187  1.00  0.00    -0.000 C 
BRANCH   5   6
ATOM      6  C   UNL     1      36.431  43.453  27.121  1.00  0.00    -0.000 C 
BRANCH   6   7
ATOM      7  C   UNL     1      37.438  42.330  26.823  1.00  0.00    -0.000 C 
BRANCH   7   8
ATOM      8  C   UNL     1      37.103  41.551  25.541  1.00  0.00    -0.000 C 
BRANCH   8   9
ATOM      9  C   UNL     1      37.265  40.028  25.703  1.00  0.00    -0.000 C 
BRANCH   9  10
ATOM     10  C   UNL     1      38.017  39.582  26.971  1.00  0.00    -0.000 C 
BRANCH  10  11
ATOM     11  C   UNL     1      38.409  38.097  26.945  1.00  0.00    -0.003 C 
ATOM     12  C   UNL     1      37.203  37.217  26.629  1.00  0.00     0.004 C 
ENDBRANCH  10  11
ENDBRANCH   9  10
ENDBRANCH   8   9
ENDBRANCH   7   8
ENDBRANCH   6   7
ENDBRANCH   5   6
ENDBRANCH   4   5
ENDBRANCH   3   4
ENDBRANCH   2   3
ENDBRANCH   1   2
BRANCH   1  13
ATOM     13  C   UNL     1      34.155  49.361  26.682  1.00  0.00     0.000 C 
BRANCH  13  14
ATOM     14  C   UNL     1      33.074  50.337  26.175  1.00  0.00     0.000 C 
BRANCH  14  15
ATOM     15  C   UNL     1      31.885  49.674  25.453  1.00  0.00     0.000 C 
BRANCH  15  16
ATOM     16  C   UNL     1      31.469  50.341  24.128  1.00  0.00     0.000 C 
BRANCH  16  17
ATOM     17  C   UNL     1      29.962  50.638  24.058  1.00  0.00     0.000 C 
BRANCH  17  18
ATOM     18  C   UNL     1      29.347  50.933  25.437  1.00  0.00     0.000 C 
BRANCH  18  19
ATOM     19  C   UNL     1      28.828  52.372  25.633  1.00  0.00     0.000 C 
BRANCH  19  20
ATOM     20  C   UNL     1      29.645  53.238  26.614  1.00  0.00     0.006 C 
BRANCH  20  21
ATOM     21  C   UNL     1      30.380  54.417  25.959  1.00  0.00     0.053 C 
BRANCH  21  22
ATOM     22  C   UNL     1      31.557  53.962  25.152  1.00  0.00     0.041 C 
ATOM     23  O   UNL     1      31.688  54.331  23.956  1.00  0.00    -0.550 OA
ATOM     24  O   UNL     1      32.525  53.149  25.730  1.00  0.00    -0.550 OA
ENDBRANCH  21  22
ENDBRANCH  20  21
ENDBRANCH  19  20
ENDBRANCH  18  19
ENDBRANCH  17  18
ENDBRANCH  16  17
ENDBRANCH  15  16
ENDBRANCH  14  15
ENDBRANCH  13  14
ENDBRANCH   1  13
TORSDOF 20
ENDMDL
MODEL 8
REMARK VINA RESULT:    -2.900      1.417      2.597
REMARK INTER + INTRA:          -8.204
REMARK INTER:                  -8.069
REMARK INTRA:                  -0.136
REMARK UNBOUND:                -1.914
REMARK SMILES CCCCCCCCCCCCCCCCCCCCCC(=O)[O-]
REMARK SMILES IDX 12 1 11 2 10 3 9 4 8 5 7 6 6 7 5 8 4 9 3 10 2 11 1 12 13 13
REMARK SMILES IDX 14 14 15 15 16 16 17 17 18 18 19 19 20 20 21 21 22 22 23 23
REMARK SMILES IDX 24 24
REMARK H PARENT
REMARK Flexibility Score: inf
ROOT
ATOM      1  C   UNL     1      32.672  46.599  24.421  1.00  0.00     0.000 C 
ENDROOT
BRANCH   1   2
ATOM      2  C   UNL     1      33.801  47.504  24.948  1.00  0.00     0.000 C 
BRANCH   2   3
ATOM      3  C   UNL     1      33.740  47.714  26.470  1.00  0.00     0.000 C 
BRANCH   3   4
ATOM      4  C   UNL     1      33.341  49.148  26.851  1.00  0.00    -0.000 C 
BRANCH   4   5
ATOM      5  C   UNL     1      31.909  49.505  26.413  1.00  0.00    -0.000 C 
BRANCH   5   6
ATOM      6  C   UNL     1      31.872  50.778  25.540  1.00  0.00    -0.000 C 
BRANCH   6   7
ATOM      7  C   UNL     1      30.840  50.718  24.401  1.00  0.00    -0.000 C 
BRANCH   7   8
ATOM      8  C   UNL     1      29.416  51.066  24.865  1.00  0.00    -0.000 C 
BRANCH   8   9
ATOM      9  C   UNL     1      29.336  52.423  25.590  1.00  0.00    -0.000 C 
BRANCH   9  10
ATOM     10  C   UNL     1      30.144  53.561  24.940  1.00  0.00    -0.000 C 
BRANCH  10  11
ATOM     11  C   UNL     1      30.690  54.568  25.962  1.00  0.00    -0.003 C 
ATOM     12  C   UNL     1      31.380  53.855  27.122  1.00  0.00     0.004 C 
ENDBRANCH  10  11
ENDBRANCH   9  10
ENDBRANCH   8   9
ENDBRANCH   7   8
ENDBRANCH   6   7
ENDBRANCH   5   6
ENDBRANCH   4   5
ENDBRANCH   3   4
ENDBRANCH   2   3
ENDBRANCH   1   2
BRANCH   1  13
ATOM     13  C   UNL     1      32.698  45.148  24.942  1.00  0.00     0.000 C 
BRANCH  13  14
ATOM     14  C   UNL     1      32.870  45.006  26.467  1.00  0.00     0.000 C 
BRANCH  14  15
ATOM     15  C   UNL     1      33.976  44.028  26.909  1.00  0.00     0.000 C 
BRANCH  15  16
ATOM     16  C   UNL     1      35.325  44.192  26.182  1.00  0.00     0.000 C 
BRANCH  16  17
ATOM     17  C   UNL     1      36.462  44.620  27.125  1.00  0.00     0.000 C 
BRANCH  17  18
ATOM     18  C   UNL     1      37.851  44.200  26.614  1.00  0.00     0.000 C 
BRANCH  18  19
ATOM     19  C   UNL     1      38.037  42.687  26.377  1.00  0.00     0.000 C 
BRANCH  19  20
ATOM     20  C   UNL     1      37.280  42.114  25.162  1.00  0.00     0.006 C 
BRANCH  20  21
ATOM     21  C   UNL     1      37.611  40.649  24.841  1.00  0.00     0.053 C 
BRANCH  21  22
ATOM     22  C   UNL     1      38.111  39.913  26.046  1.00  0.00     0.041 C 
ATOM     23  O   UNL     1      37.345  39.142  26.682  1.00  0.00    -0.550 OA
ATOM     24  O   UNL     1      39.432  40.058  26.451  1.00  0.00    -0.550 OA
ENDBRANCH  21  22
ENDBRANCH  20  21
ENDBRANCH  19  20
ENDBRANCH  18  19
ENDBRANCH  17  18
ENDBRANCH  16  17
ENDBRANCH  15  16
ENDBRANCH  14  15
ENDBRANCH  13  14
ENDBRANCH   1  13
TORSDOF 20
ENDMDL
