MODEL 1
REMARK VINA RESULT:    -2.794      0.000      0.000
REMARK INTER + INTRA:          -3.301
REMARK INTER:                  -3.284
REMARK INTRA:                  -0.017
REMARK UNBOUND:                -0.017
REMARK SMILES CCCCC(=O)[O-]
REMARK SMILES IDX 4 1 5 2 6 3 7 4 3 5 2 6 1 7
REMARK H PARENT
REMARK Flexibility Score: inf
ROOT
ATOM      1  C   UNL     1      17.406  20.736  50.105  1.00  0.00     0.053 C 
ENDROOT
BRANCH   1   2
ATOM      2  C   UNL     1      18.632  20.203  49.436  1.00  0.00     0.041 C 
ATOM      3  O   UNL     1      18.624  19.952  48.202  1.00  0.00    -0.550 OA
ATOM      4  O   UNL     1      19.771  19.934  50.184  1.00  0.00    -0.550 OA
ENDBRANCH   1   2
BRANCH   1   5
ATOM      5  C   UNL     1      17.108  19.950  51.385  1.00  0.00     0.006 C 
BRANCH   5   6
ATOM      6  C   UNL     1      15.599  19.879  51.647  1.00  0.00    -0.003 C 
ATOM      7  C   UNL     1      15.299  19.878  53.143  1.00  0.00     0.004 C 
ENDBRANCH   5   6
ENDBRANCH   1   5
TORSDOF 3
ENDMDL
MODEL 2
REMARK VINA RESULT:    -2.473     18.704     19.484
REMARK INTER + INTRA:          -2.924
REMARK INTER:                  -2.908
REMARK INTRA:                  -0.016
REMARK UNBOUND:                -0.017
REMARK SMILES CCCCC(=O)[O-]
REMARK SMILES IDX 4 1 5 2 6 3 7 4 3 5 2 6 1 7
REMARK H PARENT
REMARK Flexibility Score: inf
ROOT
ATOM      1  C   UNL     1      15.721  38.776  47.318  1.00  0.00     0.053 C 
ENDROOT
BRANCH   1   2
ATOM      2  C   UNL     1      14.300  38.933  46.879  1.00  0.00     0.041 C 
ATOM      3  O   UNL     1      13.905  40.020  46.384  1.00  0.00    -0.550 OA
ATOM      4  O   UNL     1      13.397  37.893  47.063  1.00  0.00    -0.550 OA
ENDBRANCH   1   2
BRANCH   1   5
ATOM      5  C   UNL     1      16.647  38.655  46.105  1.00  0.00     0.006 C 
BRANCH   5   6
ATOM      6  C   UNL     1      17.906  37.851  46.451  1.00  0.00    -0.003 C 
ATOM      7  C   UNL     1      19.059  38.771  46.837  1.00  0.00     0.004 C 
ENDBRANCH   5   6
ENDBRANCH   1   5
TORSDOF 3
ENDMDL
MODEL 3
REMARK VINA RESULT:    -1.930     18.657     19.241
REMARK INTER + INTRA:          -2.286
REMARK INTER:                  -2.253
REMARK INTRA:                  -0.033
REMARK UNBOUND:                -0.017
REMARK SMILES CCCCC(=O)[O-]
REMARK SMILES IDX 4 1 5 2 6 3 7 4 3 5 2 6 1 7
REMARK H PARENT
REMARK Flexibility Score: inf
ROOT
ATOM      1  C   UNL     1      16.606  38.666  46.084  1.00  0.00     0.053 C 
ENDROOT
BRANCH   1   2
ATOM      2  C   UNL     1      18.007  38.287  46.443  1.00  0.00     0.041 C 
ATOM      3  O   UNL     1      18.392  37.095  46.322  1.00  0.00    -0.550 OA
ATOM      4  O   UNL     1      18.874  39.241  46.961  1.00  0.00    -0.550 OA
ENDBRANCH   1   2
BRANCH   1   5
ATOM      5  C   UNL     1      15.682  38.519  47.296  1.00  0.00     0.006 C 
BRANCH   5   6
ATOM      6  C   UNL     1      14.899  39.813  47.551  1.00  0.00    -0.003 C 
ATOM      7  C   UNL     1      13.957  40.125  46.393  1.00  0.00     0.004 C 
ENDBRANCH   5   6
ENDBRANCH   1   5
TORSDOF 3
ENDMDL
MODEL 4
REMARK VINA RESULT:    -1.419     18.166     18.732
REMARK INTER + INTRA:          -1.685
REMARK INTER:                  -1.664
REMARK INTRA:                  -0.021
REMARK UNBOUND:                -0.017
REMARK SMILES CCCCC(=O)[O-]
REMARK SMILES IDX 4 1 5 2 6 3 7 4 3 5 2 6 1 7
REMARK H PARENT
REMARK Flexibility Score: inf
ROOT
ATOM      1  C   UNL     1      16.544  38.528  46.067  1.00  0.00     0.053 C 
ENDROOT
BRANCH   1   2
ATOM      2  C   UNL     1      17.934  38.185  46.499  1.00  0.00     0.041 C 
ATOM      3  O   UNL     1      18.721  39.089  46.881  1.00  0.00    -0.550 OA
ATOM      4  O   UNL     1      18.378  36.870  46.433  1.00  0.00    -0.550 OA
ENDBRANCH   1   2
BRANCH   1   5
ATOM      5  C   UNL     1      15.711  38.998  47.262  1.00  0.00     0.006 C 
BRANCH   5   6
ATOM      6  C   UNL     1      14.212  38.940  46.945  1.00  0.00    -0.003 C 
ATOM      7  C   UNL     1      13.639  37.558  47.240  1.00  0.00     0.004 C 
ENDBRANCH   5   6
ENDBRANCH   1   5
TORSDOF 3
ENDMDL
MODEL 5
REMARK VINA RESULT:    -1.373      1.568      2.060
REMARK INTER + INTRA:          -1.631
REMARK INTER:                  -1.601
REMARK INTRA:                  -0.030
REMARK UNBOUND:                -0.017
REMARK SMILES CCCCC(=O)[O-]
REMARK SMILES IDX 4 1 5 2 6 3 7 4 3 5 2 6 1 7
REMARK H PARENT
REMARK Flexibility Score: inf
ROOT
ATOM      1  C   UNL     1      18.577  19.877  51.625  1.00  0.00     0.053 C 
ENDROOT
BRANCH   1   2
ATOM      2  C   UNL     1      20.010  20.219  51.371  1.00  0.00     0.041 C 
ATOM      3  O   UNL     1      20.416  20.419  50.197  1.00  0.00    -0.550 OA
ATOM      4  O   UNL     1      20.910  20.269  52.428  1.00  0.00    -0.550 OA
ENDBRANCH   1   2
BRANCH   1   5
ATOM      5  C   UNL     1      17.696  20.363  50.471  1.00  0.00     0.006 C 
BRANCH   5   6
ATOM      6  C   UNL     1      16.431  21.051  50.996  1.00  0.00    -0.003 C 
ATOM      7  C   UNL     1      15.565  20.080  51.792  1.00  0.00     0.004 C 
ENDBRANCH   5   6
ENDBRANCH   1   5
TORSDOF 3
ENDMDL
MODEL 6
REMARK VINA RESULT:    -1.313      2.063      3.232
REMARK INTER + INTRA:          -1.561
REMARK INTER:                  -1.497
REMARK INTRA:                  -0.064
REMARK UNBOUND:                -0.017
REMARK SMILES CCCCC(=O)[O-]
REMARK SMILES IDX 4 1 5 2 6 3 7 4 3 5 2 6 1 7
REMARK H PARENT
REMARK Flexibility Score: inf
ROOT
ATOM      1  C   UNL     1      17.753  19.876  50.340  1.00  0.00     0.053 C 
ENDROOT
BRANCH   1   2
ATOM      2  C   UNL     1      17.975  20.724  49.128  1.00  0.00     0.041 C 
ATOM      3  O   UNL     1      17.570  21.915  49.105  1.00  0.00    -0.550 OA
ATOM      4  O   UNL     1      18.585  20.182  48.004  1.00  0.00    -0.550 OA
ENDBRANCH   1   2
BRANCH   1   5
ATOM      5  C   UNL     1      18.731  20.265  51.453  1.00  0.00     0.006 C 
BRANCH   5   6
ATOM      6  C   UNL     1      20.167  19.875  51.084  1.00  0.00    -0.003 C 
ATOM      7  C   UNL     1      21.154  20.332  52.154  1.00  0.00     0.004 C 
ENDBRANCH   5   6
ENDBRANCH   1   5
TORSDOF 3
ENDMDL
MODEL 7
REMARK VINA RESULT:    -0.952      2.688      4.017
REMARK INTER + INTRA:          -1.136
REMARK INTER:                  -1.105
REMARK INTRA:                  -0.031
REMARK UNBOUND:                -0.017
REMARK SMILES CCCCC(=O)[O-]
REMARK SMILES IDX 4 1 5 2 6 3 7 4 3 5 2 6 1 7
REMARK H PARENT
REMARK Flexibility Score: inf
ROOT
ATOM      1  C   UNL     1      17.290  19.875  51.187  1.00  0.00     0.053 C 
ENDROOT
BRANCH   1   2
ATOM      2  C   UNL     1      16.110  20.487  51.872  1.00  0.00     0.041 C 
ATOM      3  O   UNL     1      15.636  21.579  51.464  1.00  0.00    -0.550 OA
ATOM      4  O   UNL     1      15.563  19.875  52.992  1.00  0.00    -0.550 OA
ENDBRANCH   1   2
BRANCH   1   5
ATOM      5  C   UNL     1      17.618  20.637  49.899  1.00  0.00     0.006 C 
BRANCH   5   6
ATOM      6  C   UNL     1      18.850  20.043  49.207  1.00  0.00    -0.003 C 
ATOM      7  C   UNL     1      20.038  19.969  50.163  1.00  0.00     0.004 C 
ENDBRANCH   5   6
ENDBRANCH   1   5
TORSDOF 3
ENDMDL
