MODEL 1
REMARK VINA RESULT:    -3.075      0.000      0.000
REMARK INTER + INTRA:          -3.998
REMARK INTER:                  -3.614
REMARK INTRA:                  -0.384
REMARK UNBOUND:                -0.384
REMARK SMILES [NH3+][C@H](CO)C(=O)[O-]
REMARK SMILES IDX 3 1 2 2 1 3 5 7 6 8 7 9 4 10
REMARK H PARENT 1 4 1 5 1 6 4 11
REMARK Flexibility Score: inf
ROOT
ATOM      1  C   UNL     1      21.335  25.554  16.398  1.00  0.00     0.227 C 
ENDROOT
BRANCH   1   2
ATOM      2  C   UNL     1      20.111  26.431  16.716  1.00  0.00     0.253 C 
BRANCH   2   3
ATOM      3  N   UNL     1      18.970  26.054  15.873  1.00  0.00    -0.348 N 
ATOM      4  H   UNL     1      18.149  26.675  16.058  1.00  0.00     0.345 HD
ATOM      5  H   UNL     1      18.699  25.063  16.070  1.00  0.00     0.345 HD
ATOM      6  H   UNL     1      19.236  26.125  14.864  1.00  0.00     0.345 HD
ENDBRANCH   2   3
BRANCH   2   7
ATOM      7  C   UNL     1      19.745  26.327  18.173  1.00  0.00     0.102 C 
ATOM      8  O   UNL     1      20.244  27.119  19.016  1.00  0.00    -0.544 OA
ATOM      9  O   UNL     1      18.840  25.360  18.593  1.00  0.00    -0.544 OA
ENDBRANCH   2   7
ENDBRANCH   1   2
BRANCH   1  10
ATOM     10  O   UNL     1      21.657  24.734  17.490  1.00  0.00    -0.390 OA
ATOM     11  H   UNL     1      21.259  25.161  18.292  1.00  0.00     0.210 HD
ENDBRANCH   1  10
TORSDOF 4
ENDMDL
MODEL 2
REMARK VINA RESULT:    -2.846      5.191      6.069
REMARK INTER + INTRA:          -3.729
REMARK INTER:                  -3.503
REMARK INTRA:                  -0.225
REMARK UNBOUND:                -0.384
REMARK SMILES [NH3+][C@H](CO)C(=O)[O-]
REMARK SMILES IDX 3 1 2 2 1 3 5 7 6 8 7 9 4 10
REMARK H PARENT 1 4 1 5 1 6 4 11
REMARK Flexibility Score: inf
ROOT
ATOM      1  C   UNL     1      22.627  26.852  11.190  1.00  0.00     0.227 C 
ENDROOT
BRANCH   1   2
ATOM      2  C   UNL     1      22.116  25.548  11.829  1.00  0.00     0.253 C 
BRANCH   2   3
ATOM      3  N   UNL     1      22.512  24.387  11.022  1.00  0.00    -0.348 N 
ATOM      4  H   UNL     1      21.860  24.255  10.214  1.00  0.00     0.345 HD
ATOM      5  H   UNL     1      22.498  23.525  11.615  1.00  0.00     0.345 HD
ATOM      6  H   UNL     1      23.486  24.521  10.662  1.00  0.00     0.345 HD
ENDBRANCH   2   3
BRANCH   2   7
ATOM      7  C   UNL     1      22.629  25.408  13.238  1.00  0.00     0.102 C 
ATOM      8  O   UNL     1      23.685  25.996  13.595  1.00  0.00    -0.544 OA
ATOM      9  O   UNL     1      21.929  24.638  14.158  1.00  0.00    -0.544 OA
ENDBRANCH   2   7
ENDBRANCH   1   2
BRANCH   1  10
ATOM     10  O   UNL     1      23.967  26.723  10.797  1.00  0.00    -0.390 OA
ATOM     11  H   UNL     1      24.514  26.822  11.619  1.00  0.00     0.210 HD
ENDBRANCH   1  10
TORSDOF 4
ENDMDL
MODEL 3
REMARK VINA RESULT:    -2.756      1.704      2.382
REMARK INTER + INTRA:          -3.623
REMARK INTER:                  -3.227
REMARK INTRA:                  -0.397
REMARK UNBOUND:                -0.384
REMARK SMILES [NH3+][C@H](CO)C(=O)[O-]
REMARK SMILES IDX 3 1 2 2 1 3 5 7 6 8 7 9 4 10
REMARK H PARENT 1 4 1 5 1 6 4 11
REMARK Flexibility Score: inf
ROOT
ATOM      1  C   UNL     1      19.847  26.297  17.414  1.00  0.00     0.227 C 
ENDROOT
BRANCH   1   2
ATOM      2  C   UNL     1      18.358  26.479  17.070  1.00  0.00     0.253 C 
BRANCH   2   3
ATOM      3  N   UNL     1      18.032  25.801  15.810  1.00  0.00    -0.348 N 
ATOM      4  H   UNL     1      17.083  26.083  15.471  1.00  0.00     0.345 HD
ATOM      5  H   UNL     1      18.047  24.764  15.953  1.00  0.00     0.345 HD
ATOM      6  H   UNL     1      18.744  26.041  15.083  1.00  0.00     0.345 HD
ENDBRANCH   2   3
BRANCH   2   7
ATOM      7  C   UNL     1      17.486  25.965  18.185  1.00  0.00     0.102 C 
ATOM      8  O   UNL     1      17.036  24.789  18.154  1.00  0.00    -0.544 OA
ATOM      9  O   UNL     1      17.185  26.786  19.264  1.00  0.00    -0.544 OA
ENDBRANCH   2   7
ENDBRANCH   1   2
BRANCH   1  10
ATOM     10  O   UNL     1      19.997  25.626  18.637  1.00  0.00    -0.390 OA
ATOM     11  H   UNL     1      19.112  25.648  19.084  1.00  0.00     0.210 HD
ENDBRANCH   1  10
TORSDOF 4
ENDMDL
MODEL 4
REMARK VINA RESULT:    -2.751      6.046      7.160
REMARK INTER + INTRA:          -3.617
REMARK INTER:                  -3.390
REMARK INTRA:                  -0.227
REMARK UNBOUND:                -0.384
REMARK SMILES [NH3+][C@H](CO)C(=O)[O-]
REMARK SMILES IDX 3 1 2 2 1 3 5 7 6 8 7 9 4 10
REMARK H PARENT 1 4 1 5 1 6 4 11
REMARK Flexibility Score: inf
ROOT
ATOM      1  C   UNL     1      20.632  26.009  12.229  1.00  0.00     0.227 C 
ENDROOT
BRANCH   1   2
ATOM      2  C   UNL     1      22.148  25.806  12.054  1.00  0.00     0.253 C 
BRANCH   2   3
ATOM      3  N   UNL     1      22.573  24.537  12.658  1.00  0.00    -0.348 N 
ATOM      4  H   UNL     1      21.772  23.866  12.716  1.00  0.00     0.345 HD
ATOM      5  H   UNL     1      22.941  24.712  13.622  1.00  0.00     0.345 HD
ATOM      6  H   UNL     1      23.339  24.112  12.087  1.00  0.00     0.345 HD
ENDBRANCH   2   3
BRANCH   2   7
ATOM      7  C   UNL     1      22.525  25.846  10.596  1.00  0.00     0.102 C 
ATOM      8  O   UNL     1      22.202  24.903   9.826  1.00  0.00    -0.544 OA
ATOM      9  O   UNL     1      23.224  26.935  10.090  1.00  0.00    -0.544 OA
ENDBRANCH   2   7
ENDBRANCH   1   2
BRANCH   1  10
ATOM     10  O   UNL     1      19.920  24.912  11.724  1.00  0.00    -0.390 OA
ATOM     11  H   UNL     1      20.594  24.262  11.398  1.00  0.00     0.210 HD
ENDBRANCH   1  10
TORSDOF 4
ENDMDL
MODEL 5
REMARK VINA RESULT:    -2.732     11.771     12.285
REMARK INTER + INTRA:          -3.595
REMARK INTER:                  -3.370
REMARK INTRA:                  -0.225
REMARK UNBOUND:                -0.384
REMARK SMILES [NH3+][C@H](CO)C(=O)[O-]
REMARK SMILES IDX 3 1 2 2 1 3 5 7 6 8 7 9 4 10
REMARK H PARENT 1 4 1 5 1 6 4 11
REMARK Flexibility Score: inf
ROOT
ATOM      1  C   UNL     1      21.531  24.607   4.926  1.00  0.00     0.227 C 
ENDROOT
BRANCH   1   2
ATOM      2  C   UNL     1      20.913  23.820   6.096  1.00  0.00     0.253 C 
BRANCH   2   3
ATOM      3  N   UNL     1      19.450  23.788   5.983  1.00  0.00    -0.348 N 
ATOM      4  H   UNL     1      19.049  23.022   6.572  1.00  0.00     0.345 HD
ATOM      5  H   UNL     1      19.178  23.628   4.985  1.00  0.00     0.345 HD
ATOM      6  H   UNL     1      19.051  24.705   6.289  1.00  0.00     0.345 HD
ENDBRANCH   2   3
BRANCH   2   7
ATOM      7  C   UNL     1      21.467  22.421   6.148  1.00  0.00     0.102 C 
ATOM      8  O   UNL     1      20.753  21.437   5.816  1.00  0.00    -0.544 OA
ATOM      9  O   UNL     1      22.780  22.209   6.551  1.00  0.00    -0.544 OA
ENDBRANCH   2   7
ENDBRANCH   1   2
BRANCH   1  10
ATOM     10  O   UNL     1      22.924  24.443   4.895  1.00  0.00    -0.390 OA
ATOM     11  H   UNL     1      23.275  24.840   5.733  1.00  0.00     0.210 HD
ENDBRANCH   1  10
TORSDOF 4
ENDMDL
MODEL 6
REMARK VINA RESULT:    -2.732     11.128     12.022
REMARK INTER + INTRA:          -3.595
REMARK INTER:                  -3.228
REMARK INTRA:                  -0.367
REMARK UNBOUND:                -0.384
REMARK SMILES [NH3+][C@H](CO)C(=O)[O-]
REMARK SMILES IDX 3 1 2 2 1 3 5 7 6 8 7 9 4 10
REMARK H PARENT 1 4 1 5 1 6 4 11
REMARK Flexibility Score: inf
ROOT
ATOM      1  C   UNL     1      20.973  24.815   6.302  1.00  0.00     0.227 C 
ENDROOT
BRANCH   1   2
ATOM      2  C   UNL     1      21.388  23.720   5.303  1.00  0.00     0.253 C 
BRANCH   2   3
ATOM      3  N   UNL     1      22.563  24.141   4.532  1.00  0.00    -0.348 N 
ATOM      4  H   UNL     1      22.374  25.036   4.024  1.00  0.00     0.345 HD
ATOM      5  H   UNL     1      22.812  23.400   3.836  1.00  0.00     0.345 HD
ATOM      6  H   UNL     1      23.379  24.274   5.173  1.00  0.00     0.345 HD
ENDBRANCH   2   3
BRANCH   2   7
ATOM      7  C   UNL     1      21.665  22.424   6.019  1.00  0.00     0.102 C 
ATOM      8  O   UNL     1      22.813  22.180   6.478  1.00  0.00    -0.544 OA
ATOM      9  O   UNL     1      20.648  21.494   6.189  1.00  0.00    -0.544 OA
ENDBRANCH   2   7
ENDBRANCH   1   2
BRANCH   1  10
ATOM     10  O   UNL     1      21.100  24.360   7.622  1.00  0.00    -0.390 OA
ATOM     11  H   UNL     1      20.235  23.939   7.862  1.00  0.00     0.210 HD
ENDBRANCH   1  10
TORSDOF 4
ENDMDL
MODEL 7
REMARK VINA RESULT:    -2.713     12.460     12.958
REMARK INTER + INTRA:          -3.572
REMARK INTER:                  -3.334
REMARK INTRA:                  -0.238
REMARK UNBOUND:                -0.384
REMARK SMILES [NH3+][C@H](CO)C(=O)[O-]
REMARK SMILES IDX 3 1 2 2 1 3 5 7 6 8 7 9 4 10
REMARK H PARENT 1 4 1 5 1 6 4 11
REMARK Flexibility Score: inf
ROOT
ATOM      1  C   UNL     1      21.521  22.366   5.462  1.00  0.00     0.227 C 
ENDROOT
BRANCH   1   2
ATOM      2  C   UNL     1      21.533  23.430   4.349  1.00  0.00     0.253 C 
BRANCH   2   3
ATOM      3  N   UNL     1      20.169  23.702   3.879  1.00  0.00    -0.348 N 
ATOM      4  H   UNL     1      20.019  23.302   2.924  1.00  0.00     0.345 HD
ATOM      5  H   UNL     1      20.009  24.735   3.845  1.00  0.00     0.345 HD
ATOM      6  H   UNL     1      19.476  23.285   4.542  1.00  0.00     0.345 HD
ENDBRANCH   2   3
BRANCH   2   7
ATOM      7  C   UNL     1      22.186  24.698   4.832  1.00  0.00     0.102 C 
ATOM      8  O   UNL     1      21.850  25.212   5.932  1.00  0.00    -0.544 OA
ATOM      9  O   UNL     1      23.176  25.303   4.068  1.00  0.00    -0.544 OA
ENDBRANCH   2   7
ENDBRANCH   1   2
BRANCH   1  10
ATOM     10  O   UNL     1      22.771  22.292   6.093  1.00  0.00    -0.390 OA
ATOM     11  H   UNL     1      23.390  21.861   5.449  1.00  0.00     0.210 HD
ENDBRANCH   1  10
TORSDOF 4
ENDMDL
MODEL 8
REMARK VINA RESULT:    -2.686     10.439     11.179
REMARK INTER + INTRA:          -3.541
REMARK INTER:                  -3.308
REMARK INTRA:                  -0.233
REMARK UNBOUND:                -0.384
REMARK SMILES [NH3+][C@H](CO)C(=O)[O-]
REMARK SMILES IDX 3 1 2 2 1 3 5 7 6 8 7 9 4 10
REMARK H PARENT 1 4 1 5 1 6 4 11
REMARK Flexibility Score: inf
ROOT
ATOM      1  C   UNL     1      21.770  22.567   5.474  1.00  0.00     0.227 C 
ENDROOT
BRANCH   1   2
ATOM      2  C   UNL     1      20.393  22.508   6.160  1.00  0.00     0.253 C 
BRANCH   2   3
ATOM      3  N   UNL     1      19.957  21.116   6.325  1.00  0.00    -0.348 N 
ATOM      4  H   UNL     1      20.631  20.459   5.868  1.00  0.00     0.345 HD
ATOM      5  H   UNL     1      19.012  20.990   5.893  1.00  0.00     0.345 HD
ATOM      6  H   UNL     1      19.885  20.885   7.343  1.00  0.00     0.345 HD
ENDBRANCH   2   3
BRANCH   2   7
ATOM      7  C   UNL     1      20.433  23.207   7.494  1.00  0.00     0.102 C 
ATOM      8  O   UNL     1      21.239  24.153   7.696  1.00  0.00    -0.544 OA
ATOM      9  O   UNL     1      19.565  22.818   8.507  1.00  0.00    -0.544 OA
ENDBRANCH   2   7
ENDBRANCH   1   2
BRANCH   1  10
ATOM     10  O   UNL     1      22.781  22.142   6.348  1.00  0.00    -0.390 OA
ATOM     11  H   UNL     1      23.633  22.191   5.842  1.00  0.00     0.210 HD
ENDBRANCH   1  10
TORSDOF 4
ENDMDL
MODEL 9
REMARK VINA RESULT:    -2.632      5.177      6.149
REMARK INTER + INTRA:          -3.478
REMARK INTER:                  -3.126
REMARK INTRA:                  -0.352
REMARK UNBOUND:                -0.384
REMARK SMILES [NH3+][C@H](CO)C(=O)[O-]
REMARK SMILES IDX 3 1 2 2 1 3 5 7 6 8 7 9 4 10
REMARK H PARENT 1 4 1 5 1 6 4 11
REMARK Flexibility Score: inf
ROOT
ATOM      1  C   UNL     1      21.497  25.265  10.260  1.00  0.00     0.227 C 
ENDROOT
BRANCH   1   2
ATOM      2  C   UNL     1      21.068  25.821  11.630  1.00  0.00     0.253 C 
BRANCH   2   3
ATOM      3  N   UNL     1      19.831  25.176  12.085  1.00  0.00    -0.348 N 
ATOM      4  H   UNL     1      19.047  25.868  12.133  1.00  0.00     0.345 HD
ATOM      5  H   UNL     1      19.978  24.762  13.034  1.00  0.00     0.345 HD
ATOM      6  H   UNL     1      19.570  24.405  11.428  1.00  0.00     0.345 HD
ENDBRANCH   2   3
BRANCH   2   7
ATOM      7  C   UNL     1      22.163  25.634  12.647  1.00  0.00     0.102 C 
ATOM      8  O   UNL     1      22.069  24.740  13.531  1.00  0.00    -0.544 OA
ATOM      9  O   UNL     1      23.293  26.441  12.606  1.00  0.00    -0.544 OA
ENDBRANCH   2   7
ENDBRANCH   1   2
BRANCH   1  10
ATOM     10  O   UNL     1      22.512  24.307  10.406  1.00  0.00    -0.390 OA
ATOM     11  H   UNL     1      23.169  24.476   9.683  1.00  0.00     0.210 HD
ENDBRANCH   1  10
TORSDOF 4
ENDMDL
