MODEL 1
REMARK VINA RESULT:    -3.945      0.000      0.000
REMARK INTER + INTRA:          -6.459
REMARK INTER:                  -6.021
REMARK INTRA:                  -0.439
REMARK UNBOUND:                -0.439
REMARK SMILES O=C([O-])CCCCCCCCC(=O)[O-]
REMARK SMILES IDX 7 1 6 2 5 3 4 4 2 5 1 6 3 7 8 8 9 9 10 10 11 11 12 12 13 13
REMARK SMILES IDX 14 14
REMARK H PARENT
REMARK Flexibility Score: inf
ROOT
ATOM      1  C   UNL     1     -11.062   9.310 -18.869  1.00  0.00     0.000 C 
ENDROOT
BRANCH   1   2
ATOM      2  C   UNL     1     -11.683   9.220 -20.270  1.00  0.00     0.000 C 
BRANCH   2   3
ATOM      3  C   UNL     1     -12.982   8.401 -20.244  1.00  0.00     0.006 C 
BRANCH   3   4
ATOM      4  C   UNL     1     -13.143   7.527 -21.494  1.00  0.00     0.053 C 
BRANCH   4   5
ATOM      5  C   UNL     1     -12.238   6.333 -21.457  1.00  0.00     0.041 C 
ATOM      6  O   UNL     1     -11.549   6.029 -22.467  1.00  0.00    -0.550 OA
ATOM      7  O   UNL     1     -12.181   5.539 -20.319  1.00  0.00    -0.550 OA
ENDBRANCH   4   5
ENDBRANCH   3   4
ENDBRANCH   2   3
ENDBRANCH   1   2
BRANCH   1   8
ATOM      8  C   UNL     1      -9.950   8.272 -18.647  1.00  0.00     0.000 C 
BRANCH   8   9
ATOM      9  C   UNL     1      -9.154   8.526 -17.354  1.00  0.00     0.000 C 
BRANCH   9  10
ATOM     10  C   UNL     1      -8.867  10.018 -17.122  1.00  0.00     0.006 C 
BRANCH  10  11
ATOM     11  C   UNL     1      -8.609  10.347 -15.646  1.00  0.00     0.053 C 
BRANCH  11  12
ATOM     12  C   UNL     1      -7.303  11.059 -15.490  1.00  0.00     0.041 C 
ATOM     13  O   UNL     1      -6.650  10.957 -14.418  1.00  0.00    -0.550 OA
ATOM     14  O   UNL     1      -6.830  11.877 -16.509  1.00  0.00    -0.550 OA
ENDBRANCH  11  12
ENDBRANCH  10  11
ENDBRANCH   9  10
ENDBRANCH   8   9
ENDBRANCH   1   8
TORSDOF 9
ENDMDL
MODEL 2
REMARK VINA RESULT:    -3.928      3.383      6.020
REMARK INTER + INTRA:          -6.433
REMARK INTER:                  -5.716
REMARK INTRA:                  -0.717
REMARK UNBOUND:                -0.439
REMARK SMILES O=C([O-])CCCCCCCCC(=O)[O-]
REMARK SMILES IDX 7 1 6 2 5 3 4 4 2 5 1 6 3 7 8 8 9 9 10 10 11 11 12 12 13 13
REMARK SMILES IDX 14 14
REMARK H PARENT
REMARK Flexibility Score: inf
ROOT
ATOM      1  C   UNL     1      -8.610   8.588 -17.893  1.00  0.00     0.000 C 
ENDROOT
BRANCH   1   2
ATOM      2  C   UNL     1      -7.421   7.805 -18.469  1.00  0.00     0.000 C 
BRANCH   2   3
ATOM      3  C   UNL     1      -7.623   7.522 -19.965  1.00  0.00     0.006 C 
BRANCH   3   4
ATOM      4  C   UNL     1      -7.162   6.113 -20.357  1.00  0.00     0.053 C 
BRANCH   4   5
ATOM      5  C   UNL     1      -7.931   5.054 -19.626  1.00  0.00     0.041 C 
ATOM      6  O   UNL     1      -7.336   4.259 -18.852  1.00  0.00    -0.550 OA
ATOM      7  O   UNL     1      -9.300   4.926 -19.827  1.00  0.00    -0.550 OA
ENDBRANCH   4   5
ENDBRANCH   3   4
ENDBRANCH   2   3
ENDBRANCH   1   2
BRANCH   1   8
ATOM      8  C   UNL     1      -9.958   8.119 -18.463  1.00  0.00     0.000 C 
BRANCH   8   9
ATOM      9  C   UNL     1     -10.876   9.293 -18.852  1.00  0.00     0.000 C 
BRANCH   9  10
ATOM     10  C   UNL     1     -12.133   8.833 -19.607  1.00  0.00     0.006 C 
BRANCH  10  11
ATOM     11  C   UNL     1     -12.209   7.308 -19.753  1.00  0.00     0.053 C 
BRANCH  11  12
ATOM     12  C   UNL     1     -12.525   6.933 -21.166  1.00  0.00     0.041 C 
ATOM     13  O   UNL     1     -13.284   7.661 -21.860  1.00  0.00    -0.550 OA
ATOM     14  O   UNL     1     -12.023   5.754 -21.703  1.00  0.00    -0.550 OA
ENDBRANCH  11  12
ENDBRANCH  10  11
ENDBRANCH   9  10
ENDBRANCH   8   9
ENDBRANCH   1   8
TORSDOF 9
ENDMDL
MODEL 3
REMARK VINA RESULT:    -3.922      1.337      6.972
REMARK INTER + INTRA:          -6.425
REMARK INTER:                  -5.949
REMARK INTRA:                  -0.476
REMARK UNBOUND:                -0.439
REMARK SMILES O=C([O-])CCCCCCCCC(=O)[O-]
REMARK SMILES IDX 7 1 6 2 5 3 4 4 2 5 1 6 3 7 8 8 9 9 10 10 11 11 12 12 13 13
REMARK SMILES IDX 14 14
REMARK H PARENT
REMARK Flexibility Score: inf
ROOT
ATOM      1  C   UNL     1     -11.552   9.163 -19.360  1.00  0.00     0.000 C 
ENDROOT
BRANCH   1   2
ATOM      2  C   UNL     1     -10.261   8.620 -18.731  1.00  0.00     0.000 C 
BRANCH   2   3
ATOM      3  C   UNL     1      -9.440   9.754 -18.099  1.00  0.00     0.006 C 
BRANCH   3   4
ATOM      4  C   UNL     1      -9.019   9.434 -16.659  1.00  0.00     0.053 C 
BRANCH   4   5
ATOM      5  C   UNL     1      -8.040  10.438 -16.130  1.00  0.00     0.041 C 
ATOM      6  O   UNL     1      -7.333  11.112 -16.924  1.00  0.00    -0.550 OA
ATOM      7  O   UNL     1      -7.887  10.604 -14.760  1.00  0.00    -0.550 OA
ENDBRANCH   4   5
ENDBRANCH   3   4
ENDBRANCH   2   3
ENDBRANCH   1   2
BRANCH   1   8
ATOM      8  C   UNL     1     -12.624   8.076 -19.541  1.00  0.00     0.000 C 
BRANCH   8   9
ATOM      9  C   UNL     1     -13.017   7.873 -21.016  1.00  0.00     0.000 C 
BRANCH   9  10
ATOM     10  C   UNL     1     -12.444   6.574 -21.605  1.00  0.00     0.006 C 
BRANCH  10  11
ATOM     11  C   UNL     1     -12.151   5.518 -20.531  1.00  0.00     0.053 C 
BRANCH  11  12
ATOM     12  C   UNL     1     -10.816   4.888 -20.769  1.00  0.00     0.041 C 
ATOM     13  O   UNL     1      -9.802   5.299 -20.146  1.00  0.00    -0.550 OA
ATOM     14  O   UNL     1     -10.681   3.879 -21.715  1.00  0.00    -0.550 OA
ENDBRANCH  11  12
ENDBRANCH  10  11
ENDBRANCH   9  10
ENDBRANCH   8   9
ENDBRANCH   1   8
TORSDOF 9
ENDMDL
MODEL 4
REMARK VINA RESULT:    -3.901      1.420      7.075
REMARK INTER + INTRA:          -6.392
REMARK INTER:                  -5.835
REMARK INTRA:                  -0.557
REMARK UNBOUND:                -0.439
REMARK SMILES O=C([O-])CCCCCCCCC(=O)[O-]
REMARK SMILES IDX 7 1 6 2 5 3 4 4 2 5 1 6 3 7 8 8 9 9 10 10 11 11 12 12 13 13
REMARK SMILES IDX 14 14
REMARK H PARENT
REMARK Flexibility Score: inf
ROOT
ATOM      1  C   UNL     1     -11.222   9.323 -18.888  1.00  0.00     0.000 C 
ENDROOT
BRANCH   1   2
ATOM      2  C   UNL     1      -9.925   8.541 -18.631  1.00  0.00     0.000 C 
BRANCH   2   3
ATOM      3  C   UNL     1      -9.332   8.899 -17.260  1.00  0.00     0.006 C 
BRANCH   3   4
ATOM      4  C   UNL     1      -8.356  10.079 -17.339  1.00  0.00     0.053 C 
BRANCH   4   5
ATOM      5  C   UNL     1      -8.177  10.742 -16.007  1.00  0.00     0.041 C 
ATOM      6  O   UNL     1      -8.641  10.208 -14.965  1.00  0.00    -0.550 OA
ATOM      7  O   UNL     1      -7.528  11.967 -15.922  1.00  0.00    -0.550 OA
ENDBRANCH   4   5
ENDBRANCH   3   4
ENDBRANCH   2   3
ENDBRANCH   1   2
BRANCH   1   8
ATOM      8  C   UNL     1     -12.348   8.436 -19.443  1.00  0.00     0.000 C 
BRANCH   8   9
ATOM      9  C   UNL     1     -11.969   6.943 -19.460  1.00  0.00     0.000 C 
BRANCH   9  10
ATOM     10  C   UNL     1     -12.326   6.260 -20.790  1.00  0.00     0.006 C 
BRANCH  10  11
ATOM     11  C   UNL     1     -12.532   7.264 -21.932  1.00  0.00     0.053 C 
BRANCH  11  12
ATOM     12  C   UNL     1     -11.292   7.373 -22.761  1.00  0.00     0.041 C 
ATOM     13  O   UNL     1     -10.414   8.230 -22.477  1.00  0.00    -0.550 OA
ATOM     14  O   UNL     1     -11.128   6.563 -23.878  1.00  0.00    -0.550 OA
ENDBRANCH  11  12
ENDBRANCH  10  11
ENDBRANCH   9  10
ENDBRANCH   8   9
ENDBRANCH   1   8
TORSDOF 9
ENDMDL
MODEL 5
REMARK VINA RESULT:    -3.893      2.302      3.704
REMARK INTER + INTRA:          -6.381
REMARK INTER:                  -5.452
REMARK INTRA:                  -0.928
REMARK UNBOUND:                -0.439
REMARK SMILES O=C([O-])CCCCCCCCC(=O)[O-]
REMARK SMILES IDX 7 1 6 2 5 3 4 4 2 5 1 6 3 7 8 8 9 9 10 10 11 11 12 12 13 13
REMARK SMILES IDX 14 14
REMARK H PARENT
REMARK Flexibility Score: inf
ROOT
ATOM      1  C   UNL     1     -12.861   7.487 -21.756  1.00  0.00     0.000 C 
ENDROOT
BRANCH   1   2
ATOM      2  C   UNL     1     -11.519   7.664 -22.482  1.00  0.00     0.000 C 
BRANCH   2   3
ATOM      3  C   UNL     1     -10.842   6.306 -22.722  1.00  0.00     0.006 C 
BRANCH   3   4
ATOM      4  C   UNL     1      -9.596   6.115 -21.848  1.00  0.00     0.053 C 
BRANCH   4   5
ATOM      5  C   UNL     1      -9.823   5.095 -20.773  1.00  0.00     0.041 C 
ATOM      6  O   UNL     1      -8.936   4.881 -19.905  1.00  0.00    -0.550 OA
ATOM      7  O   UNL     1     -11.001   4.360 -20.751  1.00  0.00    -0.550 OA
ENDBRANCH   4   5
ENDBRANCH   3   4
ENDBRANCH   2   3
ENDBRANCH   1   2
BRANCH   1   8
ATOM      8  C   UNL     1     -12.710   7.481 -20.227  1.00  0.00     0.000 C 
BRANCH   8   9
ATOM      9  C   UNL     1     -12.661   8.901 -19.632  1.00  0.00     0.000 C 
BRANCH   9  10
ATOM     10  C   UNL     1     -11.290   9.238 -19.025  1.00  0.00     0.006 C 
BRANCH  10  11
ATOM     11  C   UNL     1     -10.429   7.992 -18.782  1.00  0.00     0.053 C 
BRANCH  11  12
ATOM     12  C   UNL     1      -9.197   8.349 -18.013  1.00  0.00     0.041 C 
ATOM     13  O   UNL     1      -8.100   7.792 -18.279  1.00  0.00    -0.550 OA
ATOM     14  O   UNL     1      -9.270   9.261 -16.967  1.00  0.00    -0.550 OA
ENDBRANCH  11  12
ENDBRANCH  10  11
ENDBRANCH   9  10
ENDBRANCH   8   9
ENDBRANCH   1   8
TORSDOF 9
ENDMDL
MODEL 6
REMARK VINA RESULT:    -3.882      1.538      2.291
REMARK INTER + INTRA:          -6.363
REMARK INTER:                  -5.584
REMARK INTRA:                  -0.779
REMARK UNBOUND:                -0.439
REMARK SMILES O=C([O-])CCCCCCCCC(=O)[O-]
REMARK SMILES IDX 7 1 6 2 5 3 4 4 2 5 1 6 3 7 8 8 9 9 10 10 11 11 12 12 13 13
REMARK SMILES IDX 14 14
REMARK H PARENT
REMARK Flexibility Score: inf
ROOT
ATOM      1  C   UNL     1     -12.514   8.847 -19.399  1.00  0.00     0.000 C 
ENDROOT
BRANCH   1   2
ATOM      2  C   UNL     1     -12.643   7.456 -20.037  1.00  0.00     0.000 C 
BRANCH   2   3
ATOM      3  C   UNL     1     -13.053   7.565 -21.513  1.00  0.00     0.006 C 
BRANCH   3   4
ATOM      4  C   UNL     1     -12.030   6.911 -22.450  1.00  0.00     0.053 C 
BRANCH   4   5
ATOM      5  C   UNL     1     -10.762   7.706 -22.531  1.00  0.00     0.041 C 
ATOM      6  O   UNL     1      -9.652   7.153 -22.315  1.00  0.00    -0.550 OA
ATOM      7  O   UNL     1     -10.812   9.065 -22.813  1.00  0.00    -0.550 OA
ENDBRANCH   4   5
ENDBRANCH   3   4
ENDBRANCH   2   3
ENDBRANCH   1   2
BRANCH   1   8
ATOM      8  C   UNL     1     -11.067   9.187 -19.010  1.00  0.00     0.000 C 
BRANCH   8   9
ATOM      9  C   UNL     1     -10.208   7.932 -18.773  1.00  0.00     0.000 C 
BRANCH   9  10
ATOM     10  C   UNL     1      -8.923   8.237 -17.987  1.00  0.00     0.006 C 
BRANCH  10  11
ATOM     11  C   UNL     1      -9.145   9.265 -16.869  1.00  0.00     0.053 C 
BRANCH  11  12
ATOM     12  C   UNL     1      -8.009  10.238 -16.822  1.00  0.00     0.041 C 
ATOM     13  O   UNL     1      -7.557  10.736 -17.886  1.00  0.00    -0.550 OA
ATOM     14  O   UNL     1      -7.416  10.556 -15.606  1.00  0.00    -0.550 OA
ENDBRANCH  11  12
ENDBRANCH  10  11
ENDBRANCH   9  10
ENDBRANCH   8   9
ENDBRANCH   1   8
TORSDOF 9
ENDMDL
MODEL 7
REMARK VINA RESULT:    -3.844      3.463      4.130
REMARK INTER + INTRA:          -6.305
REMARK INTER:                  -5.546
REMARK INTRA:                  -0.758
REMARK UNBOUND:                -0.439
REMARK SMILES O=C([O-])CCCCCCCCC(=O)[O-]
REMARK SMILES IDX 7 1 6 2 5 3 4 4 2 5 1 6 3 7 8 8 9 9 10 10 11 11 12 12 13 13
REMARK SMILES IDX 14 14
REMARK H PARENT
REMARK Flexibility Score: inf
ROOT
ATOM      1  C   UNL     1     -11.433   9.183 -19.991  1.00  0.00     0.000 C 
ENDROOT
BRANCH   1   2
ATOM      2  C   UNL     1     -12.880   8.671 -19.997  1.00  0.00     0.000 C 
BRANCH   2   3
ATOM      3  C   UNL     1     -13.144   7.785 -21.224  1.00  0.00     0.006 C 
BRANCH   3   4
ATOM      4  C   UNL     1     -11.853   7.185 -21.795  1.00  0.00     0.053 C 
BRANCH   4   5
ATOM      5  C   UNL     1     -11.784   5.704 -21.573  1.00  0.00     0.041 C 
ATOM      6  O   UNL     1     -11.432   4.938 -22.508  1.00  0.00    -0.550 OA
ATOM      7  O   UNL     1     -12.141   5.169 -20.341  1.00  0.00    -0.550 OA
ENDBRANCH   4   5
ENDBRANCH   3   4
ENDBRANCH   2   3
ENDBRANCH   1   2
BRANCH   1   8
ATOM      8  C   UNL     1     -10.815   9.193 -18.583  1.00  0.00     0.000 C 
BRANCH   8   9
ATOM      9  C   UNL     1      -9.387   8.619 -18.560  1.00  0.00     0.000 C 
BRANCH   9  10
ATOM     10  C   UNL     1      -9.356   7.106 -18.826  1.00  0.00     0.006 C 
BRANCH  10  11
ATOM     11  C   UNL     1      -7.961   6.606 -19.225  1.00  0.00     0.053 C 
BRANCH  11  12
ATOM     12  C   UNL     1      -8.007   5.151 -19.571  1.00  0.00     0.041 C 
ATOM     13  O   UNL     1      -7.490   4.300 -18.800  1.00  0.00    -0.550 OA
ATOM     14  O   UNL     1      -8.576   4.738 -20.770  1.00  0.00    -0.550 OA
ENDBRANCH  11  12
ENDBRANCH  10  11
ENDBRANCH   9  10
ENDBRANCH   8   9
ENDBRANCH   1   8
TORSDOF 9
ENDMDL
MODEL 8
REMARK VINA RESULT:    -3.821      3.314      4.224
REMARK INTER + INTRA:          -6.271
REMARK INTER:                  -5.321
REMARK INTRA:                  -0.950
REMARK UNBOUND:                -0.439
REMARK SMILES O=C([O-])CCCCCCCCC(=O)[O-]
REMARK SMILES IDX 7 1 6 2 5 3 4 4 2 5 1 6 3 7 8 8 9 9 10 10 11 11 12 12 13 13
REMARK SMILES IDX 14 14
REMARK H PARENT
REMARK Flexibility Score: inf
ROOT
ATOM      1  C   UNL     1     -10.097   9.752 -18.158  1.00  0.00     0.000 C 
ENDROOT
BRANCH   1   2
ATOM      2  C   UNL     1     -10.648   9.325 -19.526  1.00  0.00     0.000 C 
BRANCH   2   3
ATOM      3  C   UNL     1     -12.066   8.749 -19.392  1.00  0.00     0.006 C 
BRANCH   3   4
ATOM      4  C   UNL     1     -12.088   7.222 -19.525  1.00  0.00     0.053 C 
BRANCH   4   5
ATOM      5  C   UNL     1     -12.506   6.790 -20.898  1.00  0.00     0.041 C 
ATOM      6  O   UNL     1     -13.202   7.554 -21.618  1.00  0.00    -0.550 OA
ATOM      7  O   UNL     1     -12.154   5.531 -21.367  1.00  0.00    -0.550 OA
ENDBRANCH   4   5
ENDBRANCH   3   4
ENDBRANCH   2   3
ENDBRANCH   1   2
BRANCH   1   8
ATOM      8  C   UNL     1      -9.129   8.717 -17.561  1.00  0.00     0.000 C 
BRANCH   8   9
ATOM      9  C   UNL     1      -7.747   8.742 -18.239  1.00  0.00     0.000 C 
BRANCH   9  10
ATOM     10  C   UNL     1      -7.263   7.339 -18.641  1.00  0.00     0.006 C 
BRANCH  10  11
ATOM     11  C   UNL     1      -7.261   7.129 -20.161  1.00  0.00     0.053 C 
BRANCH  11  12
ATOM     12  C   UNL     1      -8.497   6.404 -20.589  1.00  0.00     0.041 C 
ATOM     13  O   UNL     1      -9.056   6.694 -21.680  1.00  0.00    -0.550 OA
ATOM     14  O   UNL     1      -9.062   5.442 -19.761  1.00  0.00    -0.550 OA
ENDBRANCH  11  12
ENDBRANCH  10  11
ENDBRANCH   9  10
ENDBRANCH   8   9
ENDBRANCH   1   8
TORSDOF 9
ENDMDL
MODEL 9
REMARK VINA RESULT:    -3.798      3.433      6.181
REMARK INTER + INTRA:          -6.235
REMARK INTER:                  -5.316
REMARK INTRA:                  -0.919
REMARK UNBOUND:                -0.439
REMARK SMILES O=C([O-])CCCCCCCCC(=O)[O-]
REMARK SMILES IDX 7 1 6 2 5 3 4 4 2 5 1 6 3 7 8 8 9 9 10 10 11 11 12 12 13 13
REMARK SMILES IDX 14 14
REMARK H PARENT
REMARK Flexibility Score: inf
ROOT
ATOM      1  C   UNL     1     -10.999   9.284 -19.070  1.00  0.00     0.000 C 
ENDROOT
BRANCH   1   2
ATOM      2  C   UNL     1      -9.876   8.797 -18.143  1.00  0.00     0.000 C 
BRANCH   2   3
ATOM      3  C   UNL     1      -9.468   7.356 -18.484  1.00  0.00     0.006 C 
BRANCH   3   4
ATOM      4  C   UNL     1      -8.499   7.292 -19.671  1.00  0.00     0.053 C 
BRANCH   4   5
ATOM      5  C   UNL     1      -7.973   5.904 -19.884  1.00  0.00     0.041 C 
ATOM      6  O   UNL     1      -7.020   5.703 -20.682  1.00  0.00    -0.550 OA
ATOM      7  O   UNL     1      -8.559   4.831 -19.224  1.00  0.00    -0.550 OA
ENDBRANCH   4   5
ENDBRANCH   3   4
ENDBRANCH   2   3
ENDBRANCH   1   2
BRANCH   1   8
ATOM      8  C   UNL     1     -12.121   8.247 -19.235  1.00  0.00     0.000 C 
BRANCH   8   9
ATOM      9  C   UNL     1     -12.938   8.460 -20.522  1.00  0.00     0.000 C 
BRANCH   9  10
ATOM     10  C   UNL     1     -12.853   7.260 -21.479  1.00  0.00     0.006 C 
BRANCH  10  11
ATOM     11  C   UNL     1     -12.035   6.100 -20.899  1.00  0.00     0.053 C 
BRANCH  11  12
ATOM     12  C   UNL     1     -11.090   5.562 -21.926  1.00  0.00     0.041 C 
ATOM     13  O   UNL     1     -10.322   6.342 -22.550  1.00  0.00    -0.550 OA
ATOM     14  O   UNL     1     -11.091   4.207 -22.232  1.00  0.00    -0.550 OA
ENDBRANCH  11  12
ENDBRANCH  10  11
ENDBRANCH   9  10
ENDBRANCH   8   9
ENDBRANCH   1   8
TORSDOF 9
ENDMDL
