MODEL 1
REMARK VINA RESULT:    -2.792      0.000      0.000
REMARK INTER + INTRA:          -2.966
REMARK INTER:                  -2.956
REMARK INTRA:                  -0.010
REMARK UNBOUND:                -0.010
REMARK SMILES O=Cc1ccco1
REMARK SMILES IDX 5 1 6 2 7 3 3 4 4 5 2 6 1 7
REMARK H PARENT
REMARK Flexibility Score: inf
ROOT
ATOM      1  C   UNL     1     166.010 178.839 167.557  1.00  0.00     0.043 A 
ATOM      2  C   UNL     1     165.564 180.123 167.316  1.00  0.00     0.196 A 
ATOM      3  O   UNL     1     164.280 180.202 167.578  1.00  0.00    -0.462 OA
ATOM      4  C   UNL     1     163.862 179.025 167.981  1.00  0.00     0.166 A 
ATOM      5  C   UNL     1     164.912 178.126 167.988  1.00  0.00     0.054 A 
ENDROOT
BRANCH   4   6
ATOM      6  C   UNL     1     162.476 178.740 168.360  1.00  0.00     0.298 C 
ATOM      7  O   UNL     1     162.201 178.301 169.507  1.00  0.00    -0.294 OA
ENDBRANCH   4   6
TORSDOF 1
ENDMDL
MODEL 2
REMARK VINA RESULT:    -2.768     15.280     16.129
REMARK INTER + INTRA:          -2.940
REMARK INTER:                  -2.925
REMARK INTRA:                  -0.016
REMARK UNBOUND:                -0.010
REMARK SMILES O=Cc1ccco1
REMARK SMILES IDX 5 1 6 2 7 3 3 4 4 5 2 6 1 7
REMARK H PARENT
REMARK Flexibility Score: inf
ROOT
ATOM      1  C   UNL     1     161.403 161.555 167.586  1.00  0.00     0.043 A 
ATOM      2  C   UNL     1     161.116 162.139 166.369  1.00  0.00     0.196 A 
ATOM      3  O   UNL     1     160.712 163.375 166.555  1.00  0.00    -0.462 OA
ATOM      4  C   UNL     1     160.721 163.628 167.844  1.00  0.00     0.166 A 
ATOM      5  C   UNL     1     161.149 162.515 168.542  1.00  0.00     0.054 A 
ENDROOT
BRANCH   4   6
ATOM      6  C   UNL     1     160.327 164.914 168.423  1.00  0.00     0.298 C 
ATOM      7  O   UNL     1     160.305 165.957 167.717  1.00  0.00    -0.294 OA
ENDBRANCH   4   6
TORSDOF 1
ENDMDL
MODEL 3
REMARK VINA RESULT:    -2.756      1.647      2.022
REMARK INTER + INTRA:          -2.927
REMARK INTER:                  -2.916
REMARK INTRA:                  -0.011
REMARK UNBOUND:                -0.010
REMARK SMILES O=Cc1ccco1
REMARK SMILES IDX 5 1 6 2 7 3 3 4 4 5 2 6 1 7
REMARK H PARENT
REMARK Flexibility Score: inf
ROOT
ATOM      1  C   UNL     1     165.242 177.055 166.813  1.00  0.00     0.043 A 
ATOM      2  C   UNL     1     164.135 176.944 165.996  1.00  0.00     0.196 A 
ATOM      3  O   UNL     1     163.140 177.635 166.503  1.00  0.00    -0.462 OA
ATOM      4  C   UNL     1     163.546 178.195 167.619  1.00  0.00     0.166 A 
ATOM      5  C   UNL     1     164.865 177.863 167.863  1.00  0.00     0.054 A 
ENDROOT
BRANCH   4   6
ATOM      6  C   UNL     1     162.697 179.042 168.459  1.00  0.00     0.298 C 
ATOM      7  O   UNL     1     161.902 178.531 169.290  1.00  0.00    -0.294 OA
ENDBRANCH   4   6
TORSDOF 1
ENDMDL
MODEL 4
REMARK VINA RESULT:    -2.645      1.877      3.312
REMARK INTER + INTRA:          -2.810
REMARK INTER:                  -2.799
REMARK INTRA:                  -0.011
REMARK UNBOUND:                -0.010
REMARK SMILES O=Cc1ccco1
REMARK SMILES IDX 5 1 6 2 7 3 3 4 4 5 2 6 1 7
REMARK H PARENT
REMARK Flexibility Score: inf
ROOT
ATOM      1  C   UNL     1     161.662 178.487 169.045  1.00  0.00     0.043 A 
ATOM      2  C   UNL     1     161.537 178.678 167.684  1.00  0.00     0.196 A 
ATOM      3  O   UNL     1     162.687 178.440 167.096  1.00  0.00    -0.462 OA
ATOM      4  C   UNL     1     163.563 178.099 168.013  1.00  0.00     0.166 A 
ATOM      5  C   UNL     1     162.971 178.112 169.262  1.00  0.00     0.054 A 
ENDROOT
BRANCH   4   6
ATOM      6  C   UNL     1     164.958 177.762 167.720  1.00  0.00     0.298 C 
ATOM      7  O   UNL     1     165.255 176.660 167.191  1.00  0.00    -0.294 OA
ENDBRANCH   4   6
TORSDOF 1
ENDMDL
MODEL 5
REMARK VINA RESULT:    -2.621     10.061     10.619
REMARK INTER + INTRA:          -2.785
REMARK INTER:                  -2.770
REMARK INTRA:                  -0.014
REMARK UNBOUND:                -0.010
REMARK SMILES O=Cc1ccco1
REMARK SMILES IDX 5 1 6 2 7 3 3 4 4 5 2 6 1 7
REMARK H PARENT
REMARK Flexibility Score: inf
ROOT
ATOM      1  C   UNL     1     170.505 170.468 164.048  1.00  0.00     0.043 A 
ATOM      2  C   UNL     1     169.886 169.269 163.757  1.00  0.00     0.196 A 
ATOM      3  O   UNL     1     168.599 169.466 163.583  1.00  0.00    -0.462 OA
ATOM      4  C   UNL     1     168.345 170.744 163.747  1.00  0.00     0.166 A 
ATOM      5  C   UNL     1     169.511 171.424 164.042  1.00  0.00     0.054 A 
ENDROOT
BRANCH   4   6
ATOM      6  C   UNL     1     167.008 171.330 163.628  1.00  0.00     0.298 C 
ATOM      7  O   UNL     1     165.998 170.716 164.061  1.00  0.00    -0.294 OA
ENDBRANCH   4   6
TORSDOF 1
ENDMDL
MODEL 6
REMARK VINA RESULT:    -2.616     11.432     12.043
REMARK INTER + INTRA:          -2.779
REMARK INTER:                  -2.767
REMARK INTRA:                  -0.012
REMARK UNBOUND:                -0.010
REMARK SMILES O=Cc1ccco1
REMARK SMILES IDX 5 1 6 2 7 3 3 4 4 5 2 6 1 7
REMARK H PARENT
REMARK Flexibility Score: inf
ROOT
ATOM      1  C   UNL     1     169.046 171.385 163.817  1.00  0.00     0.043 A 
ATOM      2  C   UNL     1     170.420 171.254 163.801  1.00  0.00     0.196 A 
ATOM      3  O   UNL     1     170.743 169.981 163.811  1.00  0.00    -0.462 OA
ATOM      4  C   UNL     1     169.640 169.270 163.833  1.00  0.00     0.166 A 
ATOM      5  C   UNL     1     168.538 170.104 163.838  1.00  0.00     0.054 A 
ENDROOT
BRANCH   4   6
ATOM      6  C   UNL     1     169.616 167.805 163.851  1.00  0.00     0.298 C 
ATOM      7  O   UNL     1     170.050 167.144 162.872  1.00  0.00    -0.294 OA
ENDBRANCH   4   6
TORSDOF 1
ENDMDL
MODEL 7
REMARK VINA RESULT:    -2.572     11.319     11.921
REMARK INTER + INTRA:          -2.733
REMARK INTER:                  -2.718
REMARK INTRA:                  -0.015
REMARK UNBOUND:                -0.010
REMARK SMILES O=Cc1ccco1
REMARK SMILES IDX 5 1 6 2 7 3 3 4 4 5 2 6 1 7
REMARK H PARENT
REMARK Flexibility Score: inf
ROOT
ATOM      1  C   UNL     1     168.588 171.426 163.805  1.00  0.00     0.043 A 
ATOM      2  C   UNL     1     168.492 171.026 162.488  1.00  0.00     0.196 A 
ATOM      3  O   UNL     1     168.845 169.766 162.382  1.00  0.00    -0.462 OA
ATOM      4  C   UNL     1     169.169 169.320 163.574  1.00  0.00     0.166 A 
ATOM      5  C   UNL     1     169.025 170.325 164.510  1.00  0.00     0.054 A 
ENDROOT
BRANCH   4   6
ATOM      6  C   UNL     1     169.616 167.950 163.836  1.00  0.00     0.298 C 
ATOM      7  O   UNL     1     170.100 167.244 162.913  1.00  0.00    -0.294 OA
ENDBRANCH   4   6
TORSDOF 1
ENDMDL
MODEL 8
REMARK VINA RESULT:    -2.525     11.621     12.274
REMARK INTER + INTRA:          -2.683
REMARK INTER:                  -2.667
REMARK INTRA:                  -0.016
REMARK UNBOUND:                -0.010
REMARK SMILES O=Cc1ccco1
REMARK SMILES IDX 5 1 6 2 7 3 3 4 4 5 2 6 1 7
REMARK H PARENT
REMARK Flexibility Score: inf
ROOT
ATOM      1  C   UNL     1     170.263 167.474 163.001  1.00  0.00     0.043 A 
ATOM      2  C   UNL     1     170.966 168.493 162.390  1.00  0.00     0.196 A 
ATOM      3  O   UNL     1     170.571 169.651 162.869  1.00  0.00    -0.462 OA
ATOM      4  C   UNL     1     169.639 169.437 163.768  1.00  0.00     0.166 A 
ATOM      5  C   UNL     1     169.405 168.081 163.893  1.00  0.00     0.054 A 
ENDROOT
BRANCH   4   6
ATOM      6  C   UNL     1     168.966 170.503 164.512  1.00  0.00     0.298 C 
ATOM      7  O   UNL     1     169.007 171.694 164.106  1.00  0.00    -0.294 OA
ENDBRANCH   4   6
TORSDOF 1
ENDMDL
MODEL 9
REMARK VINA RESULT:    -2.504     10.238     10.863
REMARK INTER + INTRA:          -2.660
REMARK INTER:                  -2.648
REMARK INTRA:                  -0.012
REMARK UNBOUND:                -0.010
REMARK SMILES O=Cc1ccco1
REMARK SMILES IDX 5 1 6 2 7 3 3 4 4 5 2 6 1 7
REMARK H PARENT
REMARK Flexibility Score: inf
ROOT
ATOM      1  C   UNL     1     165.645 171.049 162.747  1.00  0.00     0.043 A 
ATOM      2  C   UNL     1     166.459 170.932 161.639  1.00  0.00     0.196 A 
ATOM      3  O   UNL     1     167.664 170.565 162.011  1.00  0.00    -0.462 OA
ATOM      4  C   UNL     1     167.677 170.436 163.317  1.00  0.00     0.166 A 
ATOM      5  C   UNL     1     166.430 170.729 163.835  1.00  0.00     0.054 A 
ENDROOT
BRANCH   4   6
ATOM      6  C   UNL     1     168.860 170.039 164.083  1.00  0.00     0.298 C 
ATOM      7  O   UNL     1     169.333 168.877 163.980  1.00  0.00    -0.294 OA
ENDBRANCH   4   6
TORSDOF 1
ENDMDL
