MODEL 1
REMARK VINA RESULT:    -2.971      0.000      0.000
REMARK INTER + INTRA:          -3.717
REMARK INTER:                  -3.492
REMARK INTRA:                  -0.225
REMARK UNBOUND:                -0.225
REMARK SMILES [NH3+][C@H](CO)C(=O)[O-]
REMARK SMILES IDX 3 1 2 2 1 3 5 7 6 8 7 9 4 10
REMARK H PARENT 1 4 1 5 1 6 4 11
REMARK Flexibility Score: inf
ROOT
ATOM      1  C   UNL     1     165.044 161.974 184.745  1.00  0.00     0.227 C 
ENDROOT
BRANCH   1   2
ATOM      2  C   UNL     1     163.543 161.651 184.845  1.00  0.00     0.253 C 
BRANCH   2   3
ATOM      3  N   UNL     1     163.268 160.307 184.326  1.00  0.00    -0.348 N 
ATOM      4  H   UNL     1     163.580 160.223 183.331  1.00  0.00     0.345 HD
ATOM      5  H   UNL     1     162.243 160.108 184.382  1.00  0.00     0.345 HD
ATOM      6  H   UNL     1     163.771 159.594 184.904  1.00  0.00     0.345 HD
ENDBRANCH   2   3
BRANCH   2   7
ATOM      7  C   UNL     1     163.072 161.767 186.270  1.00  0.00     0.102 C 
ATOM      8  O   UNL     1     161.839 161.787 186.530  1.00  0.00    -0.544 OA
ATOM      9  O   UNL     1     163.992 161.863 187.308  1.00  0.00    -0.544 OA
ENDBRANCH   2   7
ENDBRANCH   1   2
BRANCH   1  10
ATOM     10  O   UNL     1     165.819 160.879 185.158  1.00  0.00    -0.390 OA
ATOM     11  H   UNL     1     166.635 161.253 185.582  1.00  0.00     0.210 HD
ENDBRANCH   1  10
TORSDOF 4
ENDMDL
MODEL 2
REMARK VINA RESULT:    -2.944     14.799     15.490
REMARK INTER + INTRA:          -3.685
REMARK INTER:                  -3.355
REMARK INTRA:                  -0.330
REMARK UNBOUND:                -0.225
REMARK SMILES [NH3+][C@H](CO)C(=O)[O-]
REMARK SMILES IDX 3 1 2 2 1 3 5 7 6 8 7 9 4 10
REMARK H PARENT 1 4 1 5 1 6 4 11
REMARK Flexibility Score: inf
ROOT
ATOM      1  C   UNL     1     176.055 159.920 175.069  1.00  0.00     0.227 C 
ENDROOT
BRANCH   1   2
ATOM      2  C   UNL     1     174.916 160.744 175.696  1.00  0.00     0.253 C 
BRANCH   2   3
ATOM      3  N   UNL     1     174.694 160.340 177.089  1.00  0.00    -0.348 N 
ATOM      4  H   UNL     1     174.695 159.298 177.177  1.00  0.00     0.345 HD
ATOM      5  H   UNL     1     173.776 160.711 177.423  1.00  0.00     0.345 HD
ATOM      6  H   UNL     1     175.448 160.737 177.697  1.00  0.00     0.345 HD
ENDBRANCH   2   3
BRANCH   2   7
ATOM      7  C   UNL     1     175.226 162.216 175.622  1.00  0.00     0.102 C 
ATOM      8  O   UNL     1     175.167 162.820 174.519  1.00  0.00    -0.544 OA
ATOM      9  O   UNL     1     175.590 162.914 176.768  1.00  0.00    -0.544 OA
ENDBRANCH   2   7
ENDBRANCH   1   2
BRANCH   1  10
ATOM     10  O   UNL     1     177.253 160.649 175.062  1.00  0.00    -0.390 OA
ATOM     11  H   UNL     1     177.724 160.414 174.221  1.00  0.00     0.210 HD
ENDBRANCH   1  10
TORSDOF 4
ENDMDL
MODEL 3
REMARK VINA RESULT:    -2.943     16.101     16.634
REMARK INTER + INTRA:          -3.684
REMARK INTER:                  -3.290
REMARK INTRA:                  -0.394
REMARK UNBOUND:                -0.225
REMARK SMILES [NH3+][C@H](CO)C(=O)[O-]
REMARK SMILES IDX 3 1 2 2 1 3 5 7 6 8 7 9 4 10
REMARK H PARENT 1 4 1 5 1 6 4 11
REMARK Flexibility Score: inf
ROOT
ATOM      1  C   UNL     1     174.952 162.257 173.559  1.00  0.00     0.227 C 
ENDROOT
BRANCH   1   2
ATOM      2  C   UNL     1     175.361 160.777 173.660  1.00  0.00     0.253 C 
BRANCH   2   3
ATOM      3  N   UNL     1     176.170 160.384 172.501  1.00  0.00    -0.348 N 
ATOM      4  H   UNL     1     177.163 160.215 172.783  1.00  0.00     0.345 HD
ATOM      5  H   UNL     1     176.144 161.139 171.778  1.00  0.00     0.345 HD
ATOM      6  H   UNL     1     175.780 159.511 172.076  1.00  0.00     0.345 HD
ENDBRANCH   2   3
BRANCH   2   7
ATOM      7  C   UNL     1     176.119 160.524 174.936  1.00  0.00     0.102 C 
ATOM      8  O   UNL     1     177.378 160.565 174.943  1.00  0.00    -0.544 OA
ATOM      9  O   UNL     1     175.436 160.234 176.112  1.00  0.00    -0.544 OA
ENDBRANCH   2   7
ENDBRANCH   1   2
BRANCH   1  10
ATOM     10  O   UNL     1     175.373 162.970 174.692  1.00  0.00    -0.390 OA
ATOM     11  H   UNL     1     175.669 162.295 175.357  1.00  0.00     0.210 HD
ENDBRANCH   1  10
TORSDOF 4
ENDMDL
MODEL 4
REMARK VINA RESULT:    -2.874     11.103     11.933
REMARK INTER + INTRA:          -3.603
REMARK INTER:                  -3.380
REMARK INTRA:                  -0.223
REMARK UNBOUND:                -0.225
REMARK SMILES [NH3+][C@H](CO)C(=O)[O-]
REMARK SMILES IDX 3 1 2 2 1 3 5 7 6 8 7 9 4 10
REMARK H PARENT 1 4 1 5 1 6 4 11
REMARK Flexibility Score: inf
ROOT
ATOM      1  C   UNL     1     175.387 163.489 185.214  1.00  0.00     0.227 C 
ENDROOT
BRANCH   1   2
ATOM      2  C   UNL     1     174.849 162.439 184.226  1.00  0.00     0.253 C 
BRANCH   2   3
ATOM      3  N   UNL     1     175.395 162.667 182.883  1.00  0.00    -0.348 N 
ATOM      4  H   UNL     1     176.352 163.085 182.938  1.00  0.00     0.345 HD
ATOM      5  H   UNL     1     174.769 163.314 182.352  1.00  0.00     0.345 HD
ATOM      6  H   UNL     1     175.445 161.760 182.363  1.00  0.00     0.345 HD
ENDBRANCH   2   3
BRANCH   2   7
ATOM      7  C   UNL     1     175.186 161.049 184.697  1.00  0.00     0.102 C 
ATOM      8  O   UNL     1     176.336 160.575 184.499  1.00  0.00    -0.544 OA
ATOM      9  O   UNL     1     174.228 160.276 185.344  1.00  0.00    -0.544 OA
ENDBRANCH   2   7
ENDBRANCH   1   2
BRANCH   1  10
ATOM     10  O   UNL     1     176.789 163.472 185.246  1.00  0.00    -0.390 OA
ATOM     11  H   UNL     1     177.095 164.224 184.675  1.00  0.00     0.210 HD
ENDBRANCH   1  10
TORSDOF 4
ENDMDL
MODEL 5
REMARK VINA RESULT:    -2.846      1.692      1.973
REMARK INTER + INTRA:          -3.569
REMARK INTER:                  -3.344
REMARK INTRA:                  -0.225
REMARK UNBOUND:                -0.225
REMARK SMILES [NH3+][C@H](CO)C(=O)[O-]
REMARK SMILES IDX 3 1 2 2 1 3 5 7 6 8 7 9 4 10
REMARK H PARENT 1 4 1 5 1 6 4 11
REMARK Flexibility Score: inf
ROOT
ATOM      1  C   UNL     1     165.584 162.102 185.085  1.00  0.00     0.227 C 
ENDROOT
BRANCH   1   2
ATOM      2  C   UNL     1     164.407 162.251 184.106  1.00  0.00     0.253 C 
BRANCH   2   3
ATOM      3  N   UNL     1     164.768 161.731 182.782  1.00  0.00    -0.348 N 
ATOM      4  H   UNL     1     164.308 162.290 182.027  1.00  0.00     0.345 HD
ATOM      5  H   UNL     1     164.467 160.732 182.700  1.00  0.00     0.345 HD
ATOM      6  H   UNL     1     165.806 161.771 182.657  1.00  0.00     0.345 HD
ENDBRANCH   2   3
BRANCH   2   7
ATOM      7  C   UNL     1     163.189 161.538 184.632  1.00  0.00     0.102 C 
ATOM      8  O   UNL     1     163.098 160.286 184.539  1.00  0.00    -0.544 OA
ATOM      9  O   UNL     1     162.152 162.259 185.215  1.00  0.00    -0.544 OA
ENDBRANCH   2   7
ENDBRANCH   1   2
BRANCH   1  10
ATOM     10  O   UNL     1     166.002 160.765 185.164  1.00  0.00    -0.390 OA
ATOM     11  H   UNL     1     165.190 160.225 185.345  1.00  0.00     0.210 HD
ENDBRANCH   1  10
TORSDOF 4
ENDMDL
MODEL 6
REMARK VINA RESULT:    -2.834     18.515     18.987
REMARK INTER + INTRA:          -3.556
REMARK INTER:                  -3.340
REMARK INTRA:                  -0.215
REMARK UNBOUND:                -0.225
REMARK SMILES [NH3+][C@H](CO)C(=O)[O-]
REMARK SMILES IDX 3 1 2 2 1 3 5 7 6 8 7 9 4 10
REMARK H PARENT 1 4 1 5 1 6 4 11
REMARK Flexibility Score: inf
ROOT
ATOM      1  C   UNL     1     177.425 173.463 185.474  1.00  0.00     0.227 C 
ENDROOT
BRANCH   1   2
ATOM      2  C   UNL     1     177.870 172.646 184.247  1.00  0.00     0.253 C 
BRANCH   2   3
ATOM      3  N   UNL     1     177.495 173.333 183.006  1.00  0.00    -0.348 N 
ATOM      4  H   UNL     1     177.875 172.828 182.174  1.00  0.00     0.345 HD
ATOM      5  H   UNL     1     177.870 174.309 183.014  1.00  0.00     0.345 HD
ATOM      6  H   UNL     1     176.452 173.384 182.931  1.00  0.00     0.345 HD
ENDBRANCH   2   3
BRANCH   2   7
ATOM      7  C   UNL     1     179.356 172.407 184.283  1.00  0.00     0.102 C 
ATOM      8  O   UNL     1     180.125 173.272 184.779  1.00  0.00    -0.544 OA
ATOM      9  O   UNL     1     179.891 171.235 183.759  1.00  0.00    -0.544 OA
ENDBRANCH   2   7
ENDBRANCH   1   2
BRANCH   1  10
ATOM     10  O   UNL     1     177.547 174.839 185.229  1.00  0.00    -0.390 OA
ATOM     11  H   UNL     1     178.087 174.932 184.401  1.00  0.00     0.210 HD
ENDBRANCH   1  10
TORSDOF 4
ENDMDL
MODEL 7
REMARK VINA RESULT:    -2.818     16.762     16.989
REMARK INTER + INTRA:          -3.536
REMARK INTER:                  -3.255
REMARK INTRA:                  -0.282
REMARK UNBOUND:                -0.225
REMARK SMILES [NH3+][C@H](CO)C(=O)[O-]
REMARK SMILES IDX 3 1 2 2 1 3 5 7 6 8 7 9 4 10
REMARK H PARENT 1 4 1 5 1 6 4 11
REMARK Flexibility Score: inf
ROOT
ATOM      1  C   UNL     1     164.557 177.553 183.945  1.00  0.00     0.227 C 
ENDROOT
BRANCH   1   2
ATOM      2  C   UNL     1     165.084 177.670 185.385  1.00  0.00     0.253 C 
BRANCH   2   3
ATOM      3  N   UNL     1     166.400 178.318 185.403  1.00  0.00    -0.348 N 
ATOM      4  H   UNL     1     167.164 177.605 185.416  1.00  0.00     0.345 HD
ATOM      5  H   UNL     1     166.484 178.926 186.250  1.00  0.00     0.345 HD
ATOM      6  H   UNL     1     166.508 178.922 184.555  1.00  0.00     0.345 HD
ENDBRANCH   2   3
BRANCH   2   7
ATOM      7  C   UNL     1     164.112 178.437 186.243  1.00  0.00     0.102 C 
ATOM      8  O   UNL     1     164.467 179.512 186.795  1.00  0.00    -0.544 OA
ATOM      9  O   UNL     1     162.821 177.958 186.440  1.00  0.00    -0.544 OA
ENDBRANCH   2   7
ENDBRANCH   1   2
BRANCH   1  10
ATOM     10  O   UNL     1     163.673 178.602 183.650  1.00  0.00    -0.390 OA
ATOM     11  H   UNL     1     162.795 178.351 184.038  1.00  0.00     0.210 HD
ENDBRANCH   1  10
TORSDOF 4
ENDMDL
MODEL 8
REMARK VINA RESULT:    -2.801     20.255     20.487
REMARK INTER + INTRA:          -3.517
REMARK INTER:                  -3.283
REMARK INTRA:                  -0.234
REMARK UNBOUND:                -0.225
REMARK SMILES [NH3+][C@H](CO)C(=O)[O-]
REMARK SMILES IDX 3 1 2 2 1 3 5 7 6 8 7 9 4 10
REMARK H PARENT 1 4 1 5 1 6 4 11
REMARK Flexibility Score: inf
ROOT
ATOM      1  C   UNL     1     175.530 177.237 184.336  1.00  0.00     0.227 C 
ENDROOT
BRANCH   1   2
ATOM      2  C   UNL     1     176.127 176.601 185.603  1.00  0.00     0.253 C 
BRANCH   2   3
ATOM      3  N   UNL     1     177.174 175.635 185.251  1.00  0.00    -0.348 N 
ATOM      4  H   UNL     1     176.894 175.074 184.414  1.00  0.00     0.345 HD
ATOM      5  H   UNL     1     177.343 174.988 186.055  1.00  0.00     0.345 HD
ATOM      6  H   UNL     1     178.067 176.140 185.044  1.00  0.00     0.345 HD
ENDBRANCH   2   3
BRANCH   2   7
ATOM      7  C   UNL     1     176.682 177.663 186.516  1.00  0.00     0.102 C 
ATOM      8  O   UNL     1     177.754 177.459 187.146  1.00  0.00    -0.544 OA
ATOM      9  O   UNL     1     176.011 178.870 186.677  1.00  0.00    -0.544 OA
ENDBRANCH   2   7
ENDBRANCH   1   2
BRANCH   1  10
ATOM     10  O   UNL     1     176.447 178.113 183.737  1.00  0.00    -0.390 OA
ATOM     11  H   UNL     1     177.351 177.751 183.928  1.00  0.00     0.210 HD
ENDBRANCH   1  10
TORSDOF 4
ENDMDL
MODEL 9
REMARK VINA RESULT:    -0.583     11.406     11.713
REMARK INTER + INTRA:          -0.909
REMARK INTER:                  -0.682
REMARK INTRA:                  -0.227
REMARK UNBOUND:                -0.225
REMARK SMILES [NH3+][C@H](CO)C(=O)[O-]
REMARK SMILES IDX 3 1 2 2 1 3 5 7 6 8 7 9 4 10
REMARK H PARENT 1 4 1 5 1 6 4 11
REMARK Flexibility Score: inf
ROOT
ATOM      1  C   UNL     1     175.328 162.892 184.708  1.00  0.00     0.227 C 
ENDROOT
BRANCH   1   2
ATOM      2  C   UNL     1     175.162 161.376 184.911  1.00  0.00     0.253 C 
BRANCH   2   3
ATOM      3  N   UNL     1     176.362 160.661 184.462  1.00  0.00    -0.348 N 
ATOM      4  H   UNL     1     176.127 159.984 183.701  1.00  0.00     0.345 HD
ATOM      5  H   UNL     1     176.785 160.140 185.265  1.00  0.00     0.345 HD
ATOM      6  H   UNL     1     177.070 161.345 184.107  1.00  0.00     0.345 HD
ENDBRANCH   2   3
BRANCH   2   7
ATOM      7  C   UNL     1     174.879 161.064 186.357  1.00  0.00     0.102 C 
ATOM      8  O   UNL     1     174.677 159.875 186.720  1.00  0.00    -0.544 OA
ATOM      9  O   UNL     1     174.827 162.086 187.298  1.00  0.00    -0.544 OA
ENDBRANCH   2   7
ENDBRANCH   1   2
BRANCH   1  10
ATOM     10  O   UNL     1     176.548 163.336 185.238  1.00  0.00    -0.390 OA
ATOM     11  H   UNL     1     176.382 164.240 185.614  1.00  0.00     0.210 HD
ENDBRANCH   1  10
TORSDOF 4
ENDMDL
