MODEL 1
REMARK VINA RESULT:    -4.307      0.000      0.000
REMARK INTER + INTRA:          -5.799
REMARK INTER:                  -6.322
REMARK INTRA:                   0.522
REMARK UNBOUND:                 0.522
REMARK SMILES C=C1CC=CC(C)(C)CC=C(C)CCC1
REMARK SMILES IDX 2 1 1 2 15 3 14 4 13 5 11 6 12 7 10 8 3 10 4 11 5 12 6 13
REMARK SMILES IDX 7 14 8 15 9 16
REMARK H PARENT
REMARK Flexibility Score: 60.00
ROOT
ATOM      1  C   UNL     1      10.362  33.016  24.754  1.00  0.00    -0.074 C 
ATOM      2  C   UNL     1      10.493  32.579  26.018  1.00  0.00     0.008 C 
ENDROOT
BRANCH   1   3
ATOM      3  C   UNL     1       9.304  34.059  24.440  1.00  0.00     0.031 C 
BRANCH   3   4
ATOM      4  C   UNL     1       7.891  33.450  24.289  1.00  0.00     0.009 C 
BRANCH   4   5
ATOM      5  C   UNL     1       7.565  33.079  22.828  1.00  0.00     0.030 C 
BRANCH   5   6
ATOM      6  C   UNL     1       7.825  31.625  22.473  1.00  0.00    -0.077 C 
ATOM      7  C   UNL     1       7.171  30.554  23.311  1.00  0.00     0.039 C 
ATOM      8  C   UNL     1       8.677  31.220  21.497  1.00  0.00    -0.027 CG0
ATOM      9  G   UNL     1       9.353  32.085  20.451  1.00  0.00     0.000 G0
ENDBRANCH   5   6
ENDBRANCH   4   5
ENDBRANCH   3   4
ENDBRANCH   1   3
BRANCH   1  10
ATOM     10  C   UNL     1      11.132  32.323  23.647  1.00  0.00     0.057 C 
BRANCH  10  11
ATOM     11  C   UNL     1      11.651  33.259  22.581  1.00  0.00    -0.026 C 
ATOM     12  C   UNL     1      11.552  33.154  21.233  1.00  0.00    -0.024 C 
BRANCH  12  13
ATOM     13  C   UNL     1      10.908  32.054  20.380  1.00  0.00    -0.014 C 
ATOM     14  C   UNL     1      11.405  30.687  20.912  1.00  0.00     0.016 C 
ATOM     15  C   UNL     1      11.365  32.161  18.906  1.00  0.00     0.016 C 
BRANCH  13  16
ATOM     16  C   UNL     1       9.352  32.088  20.436  1.00  0.00     0.038 CG0
ATOM     17  G   UNL     1       8.691  31.222  21.492  1.00  0.00     0.000 G0
ENDBRANCH  13  16
ENDBRANCH  12  13
ENDBRANCH  10  11
ENDBRANCH   1  10
TORSDOF 0
ENDMDL
MODEL 2
REMARK VINA RESULT:    -4.227      0.853      1.151
REMARK INTER + INTRA:          -5.681
REMARK INTER:                  -5.987
REMARK INTRA:                   0.306
REMARK UNBOUND:                 0.522
REMARK SMILES C=C1CC=CC(C)(C)CC=C(C)CCC1
REMARK SMILES IDX 2 1 1 2 15 3 14 4 13 5 11 6 12 7 10 8 3 10 4 11 5 12 6 13
REMARK SMILES IDX 7 14 8 15 9 16
REMARK H PARENT
REMARK Flexibility Score: 60.00
ROOT
ATOM      1  C   UNL     1      10.263  33.050  24.689  1.00  0.00    -0.074 C 
ATOM      2  C   UNL     1      10.462  32.886  26.008  1.00  0.00     0.008 C 
ENDROOT
BRANCH   1   3
ATOM      3  C   UNL     1       8.951  33.645  24.211  1.00  0.00     0.031 C 
BRANCH   3   4
ATOM      4  C   UNL     1       7.773  32.648  24.305  1.00  0.00     0.009 C 
BRANCH   4   5
ATOM      5  C   UNL     1       7.814  31.584  23.189  1.00  0.00     0.030 C 
BRANCH   5   6
ATOM      6  C   UNL     1       7.810  32.149  21.779  1.00  0.00    -0.077 C 
ATOM      7  C   UNL     1       6.736  33.142  21.407  1.00  0.00     0.039 C 
ATOM      8  C   UNL     1       8.661  31.755  20.798  1.00  0.00    -0.027 CG0
ATOM      9  G   UNL     1       9.887  30.874  20.945  1.00  0.00     0.000 G0
ENDBRANCH   5   6
ENDBRANCH   4   5
ENDBRANCH   3   4
ENDBRANCH   1   3
BRANCH   1  10
ATOM     10  C   UNL     1      11.261  32.466  23.710  1.00  0.00     0.057 C 
BRANCH  10  11
ATOM     11  C   UNL     1      11.453  33.293  22.462  1.00  0.00    -0.026 C 
ATOM     12  C   UNL     1      11.446  32.894  21.165  1.00  0.00    -0.024 C 
BRANCH  12  13
ATOM     13  C   UNL     1      11.262  31.492  20.572  1.00  0.00    -0.014 C 
ATOM     14  C   UNL     1      12.394  30.590  21.123  1.00  0.00     0.016 C 
ATOM     15  C   UNL     1      11.414  31.520  19.033  1.00  0.00     0.016 C 
BRANCH  13  16
ATOM     16  C   UNL     1       9.886  30.863  20.939  1.00  0.00     0.038 CG0
ATOM     17  G   UNL     1       8.668  31.755  20.786  1.00  0.00     0.000 G0
ENDBRANCH  13  16
ENDBRANCH  12  13
ENDBRANCH  10  11
ENDBRANCH   1  10
TORSDOF 0
ENDMDL
MODEL 3
REMARK VINA RESULT:    -4.221      1.399      3.225
REMARK INTER + INTRA:          -5.672
REMARK INTER:                  -5.988
REMARK INTRA:                   0.316
REMARK UNBOUND:                 0.522
REMARK SMILES C=C1CC=CC(C)(C)CC=C(C)CCC1
REMARK SMILES IDX 2 1 1 2 15 3 14 4 13 5 11 6 12 7 10 8 3 10 4 11 5 12 6 13
REMARK SMILES IDX 7 14 8 15 9 16
REMARK H PARENT
REMARK Flexibility Score: 60.00
ROOT
ATOM      1  C   UNL     1       7.997  31.703  22.235  1.00  0.00    -0.074 C 
ATOM      2  C   UNL     1       7.570  30.660  22.969  1.00  0.00     0.008 C 
ENDROOT
BRANCH   1   3
ATOM      3  C   UNL     1       7.509  33.097  22.583  1.00  0.00     0.031 C 
BRANCH   3   4
ATOM      4  C   UNL     1       7.536  33.378  24.103  1.00  0.00     0.009 C 
BRANCH   4   5
ATOM      5  C   UNL     1       8.835  34.081  24.547  1.00  0.00     0.030 C 
BRANCH   5   6
ATOM      6  C   UNL     1      10.014  33.148  24.765  1.00  0.00    -0.077 C 
ATOM      7  C   UNL     1      10.135  32.444  26.095  1.00  0.00     0.039 C 
ATOM      8  C   UNL     1      11.019  32.968  23.871  1.00  0.00    -0.027 CG0
ATOM      9  G   UNL     1      11.071  33.459  22.437  1.00  0.00     0.000 G0
ENDBRANCH   5   6
ENDBRANCH   4   5
ENDBRANCH   3   4
ENDBRANCH   1   3
BRANCH   1  10
ATOM     10  C   UNL     1       8.793  31.443  20.972  1.00  0.00     0.057 C 
BRANCH  10  11
ATOM     11  C   UNL     1      10.068  30.666  21.198  1.00  0.00    -0.026 C 
ATOM     12  C   UNL     1      11.329  31.132  21.381  1.00  0.00    -0.024 C 
BRANCH  12  13
ATOM     13  C   UNL     1      11.849  32.575  21.395  1.00  0.00    -0.014 C 
ATOM     14  C   UNL     1      11.653  33.165  19.976  1.00  0.00     0.016 C 
ATOM     15  C   UNL     1      13.365  32.611  21.696  1.00  0.00     0.016 C 
BRANCH  13  16
ATOM     16  C   UNL     1      11.101  33.470  22.426  1.00  0.00     0.038 CG0
ATOM     17  G   UNL     1      11.028  32.953  23.850  1.00  0.00     0.000 G0
ENDBRANCH  13  16
ENDBRANCH  12  13
ENDBRANCH  10  11
ENDBRANCH   1  10
TORSDOF 0
ENDMDL
MODEL 4
REMARK VINA RESULT:    -4.197      0.996      3.616
REMARK INTER + INTRA:          -5.637
REMARK INTER:                  -5.815
REMARK INTRA:                   0.178
REMARK UNBOUND:                 0.522
REMARK SMILES C=C1CC=CC(C)(C)CC=C(C)CCC1
REMARK SMILES IDX 2 1 1 2 15 3 14 4 13 5 11 6 12 7 10 8 3 10 4 11 5 12 6 13
REMARK SMILES IDX 7 14 8 15 9 16
REMARK H PARENT
REMARK Flexibility Score: 60.00
ROOT
ATOM      1  C   UNL     1       9.730  32.785  25.034  1.00  0.00    -0.074 C 
ATOM      2  C   UNL     1      10.373  32.440  26.163  1.00  0.00     0.008 C 
ENDROOT
BRANCH   1   3
ATOM      3  C   UNL     1      10.335  33.849  24.137  1.00  0.00     0.031 C 
BRANCH   3   4
ATOM      4  C   UNL     1      11.608  33.361  23.407  1.00  0.00     0.009 C 
BRANCH   4   5
ATOM      5  C   UNL     1      11.333  32.144  22.500  1.00  0.00     0.030 C 
BRANCH   5   6
ATOM      6  C   UNL     1      10.662  32.480  21.179  1.00  0.00    -0.077 C 
ATOM      7  C   UNL     1      11.344  33.461  20.257  1.00  0.00     0.039 C 
ATOM      8  C   UNL     1       9.442  32.018  20.805  1.00  0.00    -0.027 CG0
ATOM      9  G   UNL     1       8.619  30.942  21.488  1.00  0.00     0.000 G0
ENDBRANCH   5   6
ENDBRANCH   4   5
ENDBRANCH   3   4
ENDBRANCH   1   3
BRANCH   1  10
ATOM     10  C   UNL     1       8.334  32.250  24.784  1.00  0.00     0.057 C 
BRANCH  10  11
ATOM     11  C   UNL     1       7.539  33.054  23.783  1.00  0.00    -0.026 C 
ATOM     12  C   UNL     1       7.037  32.665  22.584  1.00  0.00    -0.024 C 
BRANCH  12  13
ATOM     13  C   UNL     1       7.136  31.311  21.872  1.00  0.00    -0.014 C 
ATOM     14  C   UNL     1       6.286  31.389  20.579  1.00  0.00     0.016 C 
ATOM     15  C   UNL     1       6.533  30.184  22.744  1.00  0.00     0.016 C 
BRANCH  13  16
ATOM     16  C   UNL     1       8.600  30.938  21.496  1.00  0.00     0.038 CG0
ATOM     17  G   UNL     1       9.425  32.017  20.820  1.00  0.00     0.000 G0
ENDBRANCH  13  16
ENDBRANCH  12  13
ENDBRANCH  10  11
ENDBRANCH   1  10
TORSDOF 0
ENDMDL
MODEL 5
REMARK VINA RESULT:    -4.190      1.583      3.215
REMARK INTER + INTRA:          -5.627
REMARK INTER:                  -5.994
REMARK INTRA:                   0.367
REMARK UNBOUND:                 0.522
REMARK SMILES C=C1CC=CC(C)(C)CC=C(C)CCC1
REMARK SMILES IDX 2 1 1 2 15 3 14 4 13 5 11 6 12 7 10 8 3 10 4 11 5 12 6 13
REMARK SMILES IDX 7 14 8 15 9 16
REMARK H PARENT
REMARK Flexibility Score: 60.00
ROOT
ATOM      1  C   UNL     1      11.727  33.057  22.032  1.00  0.00    -0.074 C 
ATOM      2  C   UNL     1      13.056  33.252  21.974  1.00  0.00     0.008 C 
ENDROOT
BRANCH   1   3
ATOM      3  C   UNL     1      11.126  32.445  23.284  1.00  0.00     0.031 C 
BRANCH   3   4
ATOM      4  C   UNL     1      10.781  33.501  24.359  1.00  0.00     0.009 C 
BRANCH   4   5
ATOM      5  C   UNL     1       9.398  34.143  24.128  1.00  0.00     0.030 C 
BRANCH   5   6
ATOM      6  C   UNL     1       8.259  33.151  23.968  1.00  0.00    -0.077 C 
ATOM      7  C   UNL     1       7.890  32.287  25.149  1.00  0.00     0.039 C 
ATOM      8  C   UNL     1       7.601  32.928  22.802  1.00  0.00    -0.027 CG0
ATOM      9  G   UNL     1       7.700  33.737  21.523  1.00  0.00     0.000 G0
ENDBRANCH   5   6
ENDBRANCH   4   5
ENDBRANCH   3   4
ENDBRANCH   1   3
BRANCH   1  10
ATOM     10  C   UNL     1      10.892  33.272  20.785  1.00  0.00     0.057 C 
BRANCH  10  11
ATOM     11  C   UNL     1      10.124  32.049  20.343  1.00  0.00    -0.026 C 
ATOM     12  C   UNL     1       8.799  31.923  20.080  1.00  0.00    -0.024 C 
BRANCH  12  13
ATOM     13  C   UNL     1       7.679  32.966  20.168  1.00  0.00    -0.014 C 
ATOM     14  C   UNL     1       6.326  32.224  20.033  1.00  0.00     0.016 C 
ATOM     15  C   UNL     1       7.766  33.969  18.994  1.00  0.00     0.016 C 
BRANCH  13  16
ATOM     16  C   UNL     1       7.697  33.751  21.513  1.00  0.00     0.038 CG0
ATOM     17  G   UNL     1       7.606  32.926  22.783  1.00  0.00     0.000 G0
ENDBRANCH  13  16
ENDBRANCH  12  13
ENDBRANCH  10  11
ENDBRANCH   1  10
TORSDOF 0
ENDMDL
MODEL 6
REMARK VINA RESULT:    -4.043      1.779      2.813
REMARK INTER + INTRA:          -5.411
REMARK INTER:                  -5.683
REMARK INTRA:                   0.272
REMARK UNBOUND:                 0.522
REMARK SMILES C=C1CC=CC(C)(C)CC=C(C)CCC1
REMARK SMILES IDX 2 1 1 2 15 3 14 4 13 5 11 6 12 7 10 8 3 10 4 11 5 12 6 13
REMARK SMILES IDX 7 14 8 15 9 16
REMARK H PARENT
REMARK Flexibility Score: 60.00
ROOT
ATOM      1  C   UNL     1       9.727  33.733  23.609  1.00  0.00    -0.074 C 
ATOM      2  C   UNL     1       9.371  34.824  24.310  1.00  0.00     0.008 C 
ENDROOT
BRANCH   1   3
ATOM      3  C   UNL     1       8.643  32.812  23.079  1.00  0.00     0.031 C 
BRANCH   3   4
ATOM      4  C   UNL     1       7.866  33.426  21.892  1.00  0.00     0.009 C 
BRANCH   4   5
ATOM      5  C   UNL     1       8.790  34.171  20.908  1.00  0.00     0.030 C 
BRANCH   5   6
ATOM      6  C   UNL     1       9.240  33.345  19.715  1.00  0.00    -0.077 C 
ATOM      7  C   UNL     1       8.185  32.754  18.813  1.00  0.00     0.039 C 
ATOM      8  C   UNL     1      10.534  33.031  19.451  1.00  0.00    -0.027 CG0
ATOM      9  G   UNL     1      11.772  33.592  20.125  1.00  0.00     0.000 G0
ENDBRANCH   5   6
ENDBRANCH   4   5
ENDBRANCH   3   4
ENDBRANCH   1   3
BRANCH   1  10
ATOM     10  C   UNL     1      11.190  33.347  23.532  1.00  0.00     0.057 C 
BRANCH  10  11
ATOM     11  C   UNL     1      11.434  31.982  22.934  1.00  0.00    -0.026 C 
ATOM     12  C   UNL     1      12.094  31.657  21.794  1.00  0.00    -0.024 C 
BRANCH  12  13
ATOM     13  C   UNL     1      12.771  32.564  20.760  1.00  0.00    -0.014 C 
ATOM     14  C   UNL     1      13.351  31.661  19.642  1.00  0.00     0.016 C 
ATOM     15  C   UNL     1      13.961  33.326  21.390  1.00  0.00     0.016 C 
BRANCH  13  16
ATOM     16  C   UNL     1      11.785  33.589  20.126  1.00  0.00     0.038 CG0
ATOM     17  G   UNL     1      10.547  33.020  19.460  1.00  0.00     0.000 G0
ENDBRANCH  13  16
ENDBRANCH  12  13
ENDBRANCH  10  11
ENDBRANCH   1  10
TORSDOF 0
ENDMDL
MODEL 7
REMARK VINA RESULT:    -4.003      1.552      3.985
REMARK INTER + INTRA:          -5.353
REMARK INTER:                  -6.049
REMARK INTRA:                   0.696
REMARK UNBOUND:                 0.522
REMARK SMILES C=C1CC=CC(C)(C)CC=C(C)CCC1
REMARK SMILES IDX 2 1 1 2 15 3 14 4 13 5 11 6 12 7 10 8 3 10 4 11 5 12 6 13
REMARK SMILES IDX 7 14 8 15 9 16
REMARK H PARENT
REMARK Flexibility Score: 60.00
ROOT
ATOM      1  C   UNL     1      10.161  33.470  23.785  1.00  0.00    -0.074 C 
ATOM      2  C   UNL     1      10.335  33.825  25.069  1.00  0.00     0.008 C 
ENDROOT
BRANCH   1   3
ATOM      3  C   UNL     1      11.134  32.490  23.153  1.00  0.00     0.031 C 
BRANCH   3   4
ATOM      4  C   UNL     1      12.293  33.195  22.410  1.00  0.00     0.009 C 
BRANCH   4   5
ATOM      5  C   UNL     1      12.619  32.523  21.061  1.00  0.00     0.030 C 
BRANCH   5   6
ATOM      6  C   UNL     1      12.089  33.261  19.843  1.00  0.00    -0.077 C 
ATOM      7  C   UNL     1      13.041  34.137  19.066  1.00  0.00     0.039 C 
ATOM      8  C   UNL     1      10.789  33.253  19.453  1.00  0.00    -0.027 CG0
ATOM      9  G   UNL     1       9.676  32.370  19.986  1.00  0.00     0.000 G0
ENDBRANCH   5   6
ENDBRANCH   4   5
ENDBRANCH   3   4
ENDBRANCH   1   3
BRANCH   1  10
ATOM     10  C   UNL     1       9.126  34.195  22.949  1.00  0.00     0.057 C 
BRANCH  10  11
ATOM     11  C   UNL     1       7.924  33.352  22.592  1.00  0.00    -0.026 C 
ATOM     12  C   UNL     1       7.560  32.854  21.384  1.00  0.00    -0.024 C 
BRANCH  12  13
ATOM     13  C   UNL     1       8.236  33.007  20.017  1.00  0.00    -0.014 C 
ATOM     14  C   UNL     1       8.352  34.521  19.710  1.00  0.00     0.016 C 
ATOM     15  C   UNL     1       7.368  32.383  18.899  1.00  0.00     0.016 C 
BRANCH  13  16
ATOM     16  C   UNL     1       9.656  32.370  19.977  1.00  0.00     0.038 CG0
ATOM     17  G   UNL     1      10.781  33.244  19.455  1.00  0.00     0.000 G0
ENDBRANCH  13  16
ENDBRANCH  12  13
ENDBRANCH  10  11
ENDBRANCH   1  10
TORSDOF 0
ENDMDL
MODEL 8
REMARK VINA RESULT:    -3.983      1.576      4.164
REMARK INTER + INTRA:          -5.324
REMARK INTER:                  -5.521
REMARK INTRA:                   0.197
REMARK UNBOUND:                 0.522
REMARK SMILES C=C1CC=CC(C)(C)CC=C(C)CCC1
REMARK SMILES IDX 2 1 1 2 15 3 14 4 13 5 11 6 12 7 10 8 3 10 4 11 5 12 6 13
REMARK SMILES IDX 7 14 8 15 9 16
REMARK H PARENT
REMARK Flexibility Score: 60.00
ROOT
ATOM      1  C   UNL     1      13.369  32.688  21.630  1.00  0.00    -0.074 C 
ATOM      2  C   UNL     1      14.263  33.319  20.848  1.00  0.00     0.008 C 
ENDROOT
BRANCH   1   3
ATOM      3  C   UNL     1      13.512  31.194  21.854  1.00  0.00     0.031 C 
BRANCH   3   4
ATOM      4  C   UNL     1      13.383  30.379  20.547  1.00  0.00     0.009 C 
BRANCH   4   5
ATOM      5  C   UNL     1      11.995  30.534  19.893  1.00  0.00     0.030 C 
BRANCH   5   6
ATOM      6  C   UNL     1      10.876  29.791  20.602  1.00  0.00    -0.077 C 
ATOM      7  C   UNL     1      11.063  28.322  20.895  1.00  0.00     0.039 C 
ATOM      8  C   UNL     1       9.676  30.342  20.918  1.00  0.00    -0.027 CG0
ATOM      9  G   UNL     1       9.290  31.807  20.841  1.00  0.00     0.000 G0
ENDBRANCH   5   6
ENDBRANCH   4   5
ENDBRANCH   3   4
ENDBRANCH   1   3
BRANCH   1  10
ATOM     10  C   UNL     1      12.142  33.439  22.106  1.00  0.00     0.057 C 
BRANCH  10  11
ATOM     11  C   UNL     1      11.374  32.731  23.197  1.00  0.00    -0.026 C 
ATOM     12  C   UNL     1      10.069  32.361  23.219  1.00  0.00    -0.024 C 
BRANCH  12  13
ATOM     13  C   UNL     1       8.976  32.560  22.163  1.00  0.00    -0.014 C 
ATOM     14  C   UNL     1       8.858  34.079  21.882  1.00  0.00     0.016 C 
ATOM     15  C   UNL     1       7.602  32.090  22.696  1.00  0.00     0.016 C 
BRANCH  13  16
ATOM     16  C   UNL     1       9.288  31.818  20.831  1.00  0.00     0.038 CG0
ATOM     17  G   UNL     1       9.662  30.352  20.940  1.00  0.00     0.000 G0
ENDBRANCH  13  16
ENDBRANCH  12  13
ENDBRANCH  10  11
ENDBRANCH   1  10
TORSDOF 0
ENDMDL
MODEL 9
REMARK VINA RESULT:    -3.944      1.785      4.451
REMARK INTER + INTRA:          -5.266
REMARK INTER:                  -5.639
REMARK INTRA:                   0.372
REMARK UNBOUND:                 0.522
REMARK SMILES C=C1CC=CC(C)(C)CC=C(C)CCC1
REMARK SMILES IDX 2 1 1 2 15 3 14 4 13 5 11 6 12 7 10 8 3 10 4 11 5 12 6 13
REMARK SMILES IDX 7 14 8 15 9 16
REMARK H PARENT
REMARK Flexibility Score: 60.00
ROOT
ATOM      1  C   UNL     1      13.061  32.122  22.086  1.00  0.00    -0.074 C 
ATOM      2  C   UNL     1      13.866  31.048  21.993  1.00  0.00     0.008 C 
ENDROOT
BRANCH   1   3
ATOM      3  C   UNL     1      13.602  33.484  21.690  1.00  0.00     0.031 C 
BRANCH   3   4
ATOM      4  C   UNL     1      13.593  33.709  20.161  1.00  0.00     0.009 C 
BRANCH   4   5
ATOM      5  C   UNL     1      12.457  32.934  19.460  1.00  0.00     0.030 C 
BRANCH   5   6
ATOM      6  C   UNL     1      11.319  33.803  18.953  1.00  0.00    -0.077 C 
ATOM      7  C   UNL     1      11.649  34.947  18.027  1.00  0.00     0.039 C 
ATOM      8  C   UNL     1      10.027  33.670  19.346  1.00  0.00    -0.027 CG0
ATOM      9  G   UNL     1       9.426  32.542  20.162  1.00  0.00     0.000 G0
ENDBRANCH   5   6
ENDBRANCH   4   5
ENDBRANCH   3   4
ENDBRANCH   1   3
BRANCH   1  10
ATOM     10  C   UNL     1      11.711  31.979  22.759  1.00  0.00     0.057 C 
BRANCH  10  11
ATOM     11  C   UNL     1      10.974  33.285  22.939  1.00  0.00    -0.026 C 
ATOM     12  C   UNL     1       9.769  33.659  22.441  1.00  0.00    -0.024 C 
BRANCH  12  13
ATOM     13  C   UNL     1       8.800  32.890  21.536  1.00  0.00    -0.014 C 
ATOM     14  C   UNL     1       7.551  33.778  21.312  1.00  0.00     0.016 C 
ATOM     15  C   UNL     1       8.317  31.591  22.223  1.00  0.00     0.016 C 
BRANCH  13  16
ATOM     16  C   UNL     1       9.426  32.535  20.155  1.00  0.00     0.038 CG0
ATOM     17  G   UNL     1      10.020  33.684  19.362  1.00  0.00     0.000 G0
ENDBRANCH  13  16
ENDBRANCH  12  13
ENDBRANCH  10  11
ENDBRANCH   1  10
TORSDOF 0
ENDMDL
