MODEL 1
REMARK VINA RESULT:    38.890      0.000      0.000
REMARK INTER + INTRA:          46.973
REMARK INTER:                  46.847
REMARK INTRA:                   0.125
REMARK UNBOUND:                 0.125
REMARK SMILES O=c1c(O)c(-c2ccc(O)c(O)c2)oc2cc(O)cc(O)c12
REMARK SMILES IDX 5 1 3 2 2 3 1 4 22 5 20 6 19 7 17 8 16 9 15 10 14 11 6 12
REMARK SMILES IDX 7 13 8 14 9 15 13 16 11 17 10 18 12 20 4 22 21 24 18 26
REMARK H PARENT 10 19 12 21 4 23 21 25 18 27
REMARK Flexibility Score: inf
ROOT
ATOM      1  C   UNL     1      21.021   7.071  10.752  1.00  0.00     0.180 A 
ATOM      2  C   UNL     1      19.815   6.581  10.220  1.00  0.00     0.208 A 
ATOM      3  C   UNL     1      19.506   6.848   8.876  1.00  0.00     0.238 A 
ATOM      4  O   UNL     1      18.400   6.455   8.422  1.00  0.00    -0.285 OA
ATOM      5  C   UNL     1      20.413   7.584   8.077  1.00  0.00     0.111 A 
ATOM      6  C   UNL     1      20.221   7.877   6.694  1.00  0.00     0.134 A 
ATOM      7  C   UNL     1      21.121   8.725   6.036  1.00  0.00     0.093 A 
ATOM      8  C   UNL     1      22.240   9.236   6.691  1.00  0.00     0.123 A 
ATOM      9  C   UNL     1      22.470   8.907   8.028  1.00  0.00     0.094 A 
ATOM     10  C   UNL     1      21.570   8.094   8.721  1.00  0.00     0.146 A 
ATOM     11  O   UNL     1      21.820   7.813   9.995  1.00  0.00    -0.452 OA
ENDROOT
BRANCH   1  12
ATOM     12  C   UNL     1      21.428   6.810  12.151  1.00  0.00     0.025 A 
ATOM     13  C   UNL     1      22.750   6.454  12.475  1.00  0.00     0.016 A 
ATOM     14  C   UNL     1      23.117   6.235  13.805  1.00  0.00     0.051 A 
ATOM     15  C   UNL     1      22.176   6.383  14.831  1.00  0.00     0.157 A 
ATOM     16  C   UNL     1      20.493   6.977  13.186  1.00  0.00     0.062 A 
ATOM     17  C   UNL     1      20.862   6.757  14.521  1.00  0.00     0.158 A 
BRANCH  15  18
ATOM     18  O   UNL     1      22.538   6.164  16.159  1.00  0.00    -0.504 OA
ATOM     19  H   UNL     1      22.367   6.859  16.877  1.00  0.00     0.293 HD
ENDBRANCH  15  18
BRANCH  17  20
ATOM     20  O   UNL     1      19.929   6.909  15.546  1.00  0.00    -0.504 OA
ATOM     21  H   UNL     1      19.440   6.114  15.940  1.00  0.00     0.293 HD
ENDBRANCH  17  20
ENDBRANCH   1  12
BRANCH   2  22
ATOM     22  O   UNL     1      18.924   5.876  11.033  1.00  0.00    -0.502 OA
ATOM     23  H   UNL     1      18.481   5.014  10.735  1.00  0.00     0.293 HD
ENDBRANCH   2  22
BRANCH   6  24
ATOM     24  O   UNL     1      19.186   7.344   5.920  1.00  0.00    -0.507 OA
ATOM     25  H   UNL     1      18.240   7.207   6.241  1.00  0.00     0.293 HD
ENDBRANCH   6  24
BRANCH   8  26
ATOM     26  O   UNL     1      23.123  10.063   6.002  1.00  0.00    -0.508 OA
ATOM     27  H   UNL     1      23.133  10.103   4.989  1.00  0.00     0.293 HD
ENDBRANCH   8  26
TORSDOF 6
ENDMDL
