MODEL 1
REMARK VINA RESULT:    -4.696      0.000      0.000
REMARK INTER + INTRA:          -5.179
REMARK INTER:                  -5.108
REMARK INTRA:                  -0.071
REMARK UNBOUND:                -0.071
REMARK SMILES CCc1cccc(O)c1
REMARK SMILES IDX 3 1 9 2 7 3 6 4 5 5 4 6 2 7 1 8 8 9
REMARK H PARENT 8 10
REMARK Flexibility Score: inf
ROOT
ATOM      1  C   UNL     1     -14.246   5.945  33.984  1.00  0.00    -0.045 A 
ATOM      2  C   UNL     1     -14.315   7.319  34.269  1.00  0.00     0.049 A 
ATOM      3  C   UNL     1     -13.202   7.988  34.799  1.00  0.00     0.115 A 
ATOM      4  C   UNL     1     -12.017   7.286  35.036  1.00  0.00     0.046 A 
ATOM      5  C   UNL     1     -11.938   5.922  34.742  1.00  0.00     0.004 A 
ATOM      6  C   UNL     1     -13.045   5.253  34.213  1.00  0.00     0.004 A 
ENDROOT
BRANCH   1   7
ATOM      7  C   UNL     1     -15.429   5.234  33.385  1.00  0.00     0.032 C 
ATOM      8  C   UNL     1     -15.464   3.775  33.829  1.00  0.00     0.009 C 
ENDBRANCH   1   7
BRANCH   3   9
ATOM      9  O   UNL     1     -13.265   9.349  35.091  1.00  0.00    -0.508 OA
ATOM     10  H   UNL     1     -13.988   9.729  35.690  1.00  0.00     0.293 HD
ENDBRANCH   3   9
TORSDOF 2
ENDMDL
MODEL 2
REMARK VINA RESULT:    -4.659      2.920      5.363
REMARK INTER + INTRA:          -5.139
REMARK INTER:                  -5.069
REMARK INTRA:                  -0.070
REMARK UNBOUND:                -0.071
REMARK SMILES CCc1cccc(O)c1
REMARK SMILES IDX 3 1 9 2 7 3 6 4 5 5 4 6 2 7 1 8 8 9
REMARK H PARENT 8 10
REMARK Flexibility Score: inf
ROOT
ATOM      1  C   UNL     1      -9.646   8.812  36.152  1.00  0.00    -0.045 A 
ATOM      2  C   UNL     1     -10.855   9.501  35.964  1.00  0.00     0.049 A 
ATOM      3  C   UNL     1     -11.961   8.849  35.400  1.00  0.00     0.115 A 
ATOM      4  C   UNL     1     -11.861   7.503  35.032  1.00  0.00     0.046 A 
ATOM      5  C   UNL     1     -10.664   6.809  35.228  1.00  0.00     0.004 A 
ATOM      6  C   UNL     1      -9.561   7.457  35.791  1.00  0.00     0.004 A 
ENDROOT
BRANCH   1   7
ATOM      7  C   UNL     1      -8.470   9.503  36.788  1.00  0.00     0.032 C 
ATOM      8  C   UNL     1      -7.163   9.044  36.148  1.00  0.00     0.009 C 
ENDBRANCH   1   7
BRANCH   3   9
ATOM      9  O   UNL     1     -13.162   9.527  35.204  1.00  0.00    -0.508 OA
ATOM     10  H   UNL     1     -13.794   9.717  35.973  1.00  0.00     0.293 HD
ENDBRANCH   3   9
TORSDOF 2
ENDMDL
MODEL 3
REMARK VINA RESULT:    -4.655      4.448      6.622
REMARK INTER + INTRA:          -5.134
REMARK INTER:                  -5.082
REMARK INTRA:                  -0.052
REMARK UNBOUND:                -0.071
REMARK SMILES CCc1cccc(O)c1
REMARK SMILES IDX 3 1 9 2 7 3 6 4 5 5 4 6 2 7 1 8 8 9
REMARK H PARENT 8 10
REMARK Flexibility Score: inf
ROOT
ATOM      1  C   UNL     1      -8.068   9.006  36.162  1.00  0.00    -0.045 A 
ATOM      2  C   UNL     1      -8.740   8.023  35.417  1.00  0.00     0.049 A 
ATOM      3  C   UNL     1     -10.142   7.973  35.415  1.00  0.00     0.115 A 
ATOM      4  C   UNL     1     -10.872   8.912  36.150  1.00  0.00     0.046 A 
ATOM      5  C   UNL     1     -10.209   9.900  36.882  1.00  0.00     0.004 A 
ATOM      6  C   UNL     1      -8.812   9.953  36.885  1.00  0.00     0.004 A 
ENDROOT
BRANCH   1   7
ATOM      7  C   UNL     1      -6.565   9.081  36.138  1.00  0.00     0.032 C 
ATOM      8  C   UNL     1      -6.004   8.309  34.948  1.00  0.00     0.009 C 
ENDBRANCH   1   7
BRANCH   3   9
ATOM      9  O   UNL     1     -10.816   6.997  34.685  1.00  0.00    -0.508 OA
ATOM     10  H   UNL     1     -11.590   6.478  35.083  1.00  0.00     0.293 HD
ENDBRANCH   3   9
TORSDOF 2
ENDMDL
MODEL 4
REMARK VINA RESULT:    -4.628      2.684      3.252
REMARK INTER + INTRA:          -5.104
REMARK INTER:                  -5.053
REMARK INTRA:                  -0.051
REMARK UNBOUND:                -0.071
REMARK SMILES CCc1cccc(O)c1
REMARK SMILES IDX 3 1 9 2 7 3 6 4 5 5 4 6 2 7 1 8 8 9
REMARK H PARENT 8 10
REMARK Flexibility Score: inf
ROOT
ATOM      1  C   UNL     1     -13.649   4.631  34.345  1.00  0.00    -0.045 A 
ATOM      2  C   UNL     1     -13.277   3.656  35.286  1.00  0.00     0.049 A 
ATOM      3  C   UNL     1     -12.073   3.780  35.994  1.00  0.00     0.115 A 
ATOM      4  C   UNL     1     -11.244   4.883  35.768  1.00  0.00     0.046 A 
ATOM      5  C   UNL     1     -11.614   5.862  34.843  1.00  0.00     0.004 A 
ATOM      6  C   UNL     1     -12.814   5.742  34.137  1.00  0.00     0.004 A 
ENDROOT
BRANCH   1   7
ATOM      7  C   UNL     1     -14.956   4.516  33.609  1.00  0.00     0.032 C 
ATOM      8  C   UNL     1     -15.731   3.286  34.071  1.00  0.00     0.009 C 
ENDBRANCH   1   7
BRANCH   3   9
ATOM      9  O   UNL     1     -11.694   2.814  36.924  1.00  0.00    -0.508 OA
ATOM     10  H   UNL     1     -11.737   1.825  36.708  1.00  0.00     0.293 HD
ENDBRANCH   3   9
TORSDOF 2
ENDMDL
MODEL 5
REMARK VINA RESULT:    -4.585      4.708      6.288
REMARK INTER + INTRA:          -5.058
REMARK INTER:                  -4.988
REMARK INTRA:                  -0.070
REMARK UNBOUND:                -0.071
REMARK SMILES CCc1cccc(O)c1
REMARK SMILES IDX 3 1 9 2 7 3 6 4 5 5 4 6 2 7 1 8 8 9
REMARK H PARENT 8 10
REMARK Flexibility Score: inf
ROOT
ATOM      1  C   UNL     1      -8.962   7.660  35.512  1.00  0.00    -0.045 A 
ATOM      2  C   UNL     1      -7.915   7.231  34.680  1.00  0.00     0.049 A 
ATOM      3  C   UNL     1      -6.655   7.843  34.756  1.00  0.00     0.115 A 
ATOM      4  C   UNL     1      -6.440   8.879  35.670  1.00  0.00     0.046 A 
ATOM      5  C   UNL     1      -7.474   9.302  36.509  1.00  0.00     0.004 A 
ATOM      6  C   UNL     1      -8.730   8.692  36.436  1.00  0.00     0.004 A 
ENDROOT
BRANCH   1   7
ATOM      7  C   UNL     1     -10.305   6.982  35.455  1.00  0.00     0.032 C 
ATOM      8  C   UNL     1     -11.427   7.982  35.716  1.00  0.00     0.009 C 
ENDBRANCH   1   7
BRANCH   3   9
ATOM      9  O   UNL     1      -5.613   7.427  33.930  1.00  0.00    -0.508 OA
ATOM     10  H   UNL     1      -5.512   6.458  33.653  1.00  0.00     0.293 HD
ENDBRANCH   3   9
TORSDOF 2
ENDMDL
MODEL 6
REMARK VINA RESULT:    -4.583      4.247      6.433
REMARK INTER + INTRA:          -5.056
REMARK INTER:                  -5.004
REMARK INTRA:                  -0.051
REMARK UNBOUND:                -0.071
REMARK SMILES CCc1cccc(O)c1
REMARK SMILES IDX 3 1 9 2 7 3 6 4 5 5 4 6 2 7 1 8 8 9
REMARK H PARENT 8 10
REMARK Flexibility Score: inf
ROOT
ATOM      1  C   UNL     1      -8.582   7.735  35.583  1.00  0.00    -0.045 A 
ATOM      2  C   UNL     1      -7.917   7.066  34.543  1.00  0.00     0.049 A 
ATOM      3  C   UNL     1      -8.584   6.089  33.789  1.00  0.00     0.115 A 
ATOM      4  C   UNL     1      -9.921   5.788  34.070  1.00  0.00     0.046 A 
ATOM      5  C   UNL     1     -10.592   6.461  35.095  1.00  0.00     0.004 A 
ATOM      6  C   UNL     1      -9.929   7.435  35.846  1.00  0.00     0.004 A 
ENDROOT
BRANCH   1   7
ATOM      7  C   UNL     1      -7.876   8.806  36.370  1.00  0.00     0.032 C 
ATOM      8  C   UNL     1      -6.483   9.064  35.805  1.00  0.00     0.009 C 
ENDBRANCH   1   7
BRANCH   3   9
ATOM      9  O   UNL     1      -7.929   5.416  32.760  1.00  0.00    -0.508 OA
ATOM     10  H   UNL     1      -8.124   5.618  31.787  1.00  0.00     0.293 HD
ENDBRANCH   3   9
TORSDOF 2
ENDMDL
MODEL 7
REMARK VINA RESULT:    -4.516      1.800      2.794
REMARK INTER + INTRA:          -4.983
REMARK INTER:                  -4.908
REMARK INTRA:                  -0.075
REMARK UNBOUND:                -0.071
REMARK SMILES CCc1cccc(O)c1
REMARK SMILES IDX 3 1 9 2 7 3 6 4 5 5 4 6 2 7 1 8 8 9
REMARK H PARENT 8 10
REMARK Flexibility Score: inf
ROOT
ATOM      1  C   UNL     1     -12.375   6.279  34.715  1.00  0.00    -0.045 A 
ATOM      2  C   UNL     1     -11.157   6.312  35.413  1.00  0.00     0.049 A 
ATOM      3  C   UNL     1     -10.655   7.527  35.903  1.00  0.00     0.115 A 
ATOM      4  C   UNL     1     -11.377   8.708  35.702  1.00  0.00     0.046 A 
ATOM      5  C   UNL     1     -12.596   8.679  35.019  1.00  0.00     0.004 A 
ATOM      6  C   UNL     1     -13.097   7.470  34.531  1.00  0.00     0.004 A 
ENDROOT
BRANCH   1   7
ATOM      7  C   UNL     1     -12.929   4.971  34.218  1.00  0.00     0.032 C 
ATOM      8  C   UNL     1     -14.419   5.096  33.916  1.00  0.00     0.009 C 
ENDBRANCH   1   7
BRANCH   3   9
ATOM      9  O   UNL     1      -9.445   7.570  36.591  1.00  0.00    -0.508 OA
ATOM     10  H   UNL     1      -8.580   7.816  36.126  1.00  0.00     0.293 HD
ENDBRANCH   3   9
TORSDOF 2
ENDMDL
MODEL 8
REMARK VINA RESULT:    -4.479      2.545      4.859
REMARK INTER + INTRA:          -4.943
REMARK INTER:                  -4.867
REMARK INTRA:                  -0.076
REMARK UNBOUND:                -0.071
REMARK SMILES CCc1cccc(O)c1
REMARK SMILES IDX 3 1 9 2 7 3 6 4 5 5 4 6 2 7 1 8 8 9
REMARK H PARENT 8 10
REMARK Flexibility Score: inf
ROOT
ATOM      1  C   UNL     1     -10.381   7.463  35.405  1.00  0.00    -0.045 A 
ATOM      2  C   UNL     1     -10.925   6.399  34.667  1.00  0.00     0.049 A 
ATOM      3  C   UNL     1     -12.266   6.435  34.258  1.00  0.00     0.115 A 
ATOM      4  C   UNL     1     -13.061   7.539  34.578  1.00  0.00     0.046 A 
ATOM      5  C   UNL     1     -12.522   8.607  35.301  1.00  0.00     0.004 A 
ATOM      6  C   UNL     1     -11.185   8.574  35.709  1.00  0.00     0.004 A 
ENDROOT
BRANCH   1   7
ATOM      7  C   UNL     1      -8.933   7.440  35.816  1.00  0.00     0.032 C 
ATOM      8  C   UNL     1      -8.538   8.758  36.475  1.00  0.00     0.009 C 
ENDBRANCH   1   7
BRANCH   3   9
ATOM      9  O   UNL     1     -12.815   5.380  33.531  1.00  0.00    -0.508 OA
ATOM     10  H   UNL     1     -13.460   4.725  33.955  1.00  0.00     0.293 HD
ENDBRANCH   3   9
TORSDOF 2
ENDMDL
MODEL 9
REMARK VINA RESULT:    -4.461      3.485      4.975
REMARK INTER + INTRA:          -4.923
REMARK INTER:                  -4.872
REMARK INTRA:                  -0.051
REMARK UNBOUND:                -0.071
REMARK SMILES CCc1cccc(O)c1
REMARK SMILES IDX 3 1 9 2 7 3 6 4 5 5 4 6 2 7 1 8 8 9
REMARK H PARENT 8 10
REMARK Flexibility Score: inf
ROOT
ATOM      1  C   UNL     1     -10.400   8.192  35.771  1.00  0.00    -0.045 A 
ATOM      2  C   UNL     1     -10.381   9.371  36.533  1.00  0.00     0.049 A 
ATOM      3  C   UNL     1      -9.161   9.923  36.951  1.00  0.00     0.115 A 
ATOM      4  C   UNL     1      -7.959   9.299  36.600  1.00  0.00     0.046 A 
ATOM      5  C   UNL     1      -7.972   8.132  35.832  1.00  0.00     0.004 A 
ATOM      6  C   UNL     1      -9.186   7.582  35.413  1.00  0.00     0.004 A 
ENDROOT
BRANCH   1   7
ATOM      7  C   UNL     1     -11.707   7.618  35.294  1.00  0.00     0.032 C 
ATOM      8  C   UNL     1     -12.744   8.720  35.103  1.00  0.00     0.009 C 
ENDBRANCH   1   7
BRANCH   3   9
ATOM      9  O   UNL     1      -9.133  11.089  37.713  1.00  0.00    -0.508 OA
ATOM     10  H   UNL     1      -9.976  11.477  38.119  1.00  0.00     0.293 HD
ENDBRANCH   3   9
TORSDOF 2
ENDMDL
