MODEL 1
REMARK VINA RESULT:    -4.368      0.000      0.000
REMARK INTER + INTRA:          -5.497
REMARK INTER:                  -5.390
REMARK INTRA:                  -0.108
REMARK UNBOUND:                -0.108
REMARK SMILES CCCCCC(=O)[O-]
REMARK SMILES IDX 4 1 5 2 6 3 7 4 8 5 3 6 2 7 1 8
REMARK H PARENT
REMARK Flexibility Score: inf
ROOT
ATOM      1  C   UNL     1      20.748  10.116  12.269  1.00  0.00     0.006 C 
ENDROOT
BRANCH   1   2
ATOM      2  C   UNL     1      21.212  10.500  10.861  1.00  0.00     0.053 C 
BRANCH   2   3
ATOM      3  C   UNL     1      22.220  11.603  10.923  1.00  0.00     0.041 C 
ATOM      4  O   UNL     1      22.023  12.678  10.297  1.00  0.00    -0.550 OA
ATOM      5  O   UNL     1      23.353  11.465  11.714  1.00  0.00    -0.550 OA
ENDBRANCH   2   3
ENDBRANCH   1   2
BRANCH   1   6
ATOM      6  C   UNL     1      21.294   8.737  12.671  1.00  0.00     0.000 C 
BRANCH   6   7
ATOM      7  C   UNL     1      20.248   7.877  13.397  1.00  0.00    -0.003 C 
ATOM      8  C   UNL     1      19.287   8.708  14.249  1.00  0.00     0.004 C 
ENDBRANCH   6   7
ENDBRANCH   1   6
TORSDOF 4
ENDMDL
MODEL 2
REMARK VINA RESULT:    -4.341      0.101      1.148
REMARK INTER + INTRA:          -5.464
REMARK INTER:                  -5.363
REMARK INTRA:                  -0.101
REMARK UNBOUND:                -0.108
REMARK SMILES CCCCCC(=O)[O-]
REMARK SMILES IDX 4 1 5 2 6 3 7 4 8 5 3 6 2 7 1 8
REMARK H PARENT
REMARK Flexibility Score: inf
ROOT
ATOM      1  C   UNL     1      20.760  10.121  12.294  1.00  0.00     0.006 C 
ENDROOT
BRANCH   1   2
ATOM      2  C   UNL     1      21.254  10.451  10.883  1.00  0.00     0.053 C 
BRANCH   2   3
ATOM      3  C   UNL     1      22.278  11.540  10.926  1.00  0.00     0.041 C 
ATOM      4  O   UNL     1      23.302  11.419  11.649  1.00  0.00    -0.550 OA
ATOM      5  O   UNL     1      22.126  12.668  10.130  1.00  0.00    -0.550 OA
ENDBRANCH   2   3
ENDBRANCH   1   2
BRANCH   1   6
ATOM      6  C   UNL     1      21.278   8.749  12.751  1.00  0.00     0.000 C 
BRANCH   6   7
ATOM      7  C   UNL     1      20.172   7.875  13.365  1.00  0.00    -0.003 C 
ATOM      8  C   UNL     1      19.260   8.654  14.312  1.00  0.00     0.004 C 
ENDBRANCH   6   7
ENDBRANCH   1   6
TORSDOF 4
ENDMDL
MODEL 3
REMARK VINA RESULT:    -4.330      1.647      2.433
REMARK INTER + INTRA:          -5.450
REMARK INTER:                  -5.305
REMARK INTRA:                  -0.146
REMARK UNBOUND:                -0.108
REMARK SMILES CCCCCC(=O)[O-]
REMARK SMILES IDX 4 1 5 2 6 3 7 4 8 5 3 6 2 7 1 8
REMARK H PARENT
REMARK Flexibility Score: inf
ROOT
ATOM      1  C   UNL     1      21.409  10.143  11.771  1.00  0.00     0.006 C 
ENDROOT
BRANCH   1   2
ATOM      2  C   UNL     1      22.570   9.232  12.178  1.00  0.00     0.053 C 
BRANCH   2   3
ATOM      3  C   UNL     1      23.588   9.996  12.963  1.00  0.00     0.041 C 
ATOM      4  O   UNL     1      24.196   9.445  13.918  1.00  0.00    -0.550 OA
ATOM      5  O   UNL     1      23.902  11.302  12.608  1.00  0.00    -0.550 OA
ENDBRANCH   2   3
ENDBRANCH   1   2
BRANCH   1   6
ATOM      6  C   UNL     1      20.236  10.011  12.755  1.00  0.00     0.000 C 
BRANCH   6   7
ATOM      7  C   UNL     1      20.157   8.617  13.395  1.00  0.00    -0.003 C 
ATOM      8  C   UNL     1      19.153   8.550  14.546  1.00  0.00     0.004 C 
ENDBRANCH   6   7
ENDBRANCH   1   6
TORSDOF 4
ENDMDL
MODEL 4
REMARK VINA RESULT:    -4.320      1.319      1.440
REMARK INTER + INTRA:          -5.438
REMARK INTER:                  -5.243
REMARK INTRA:                  -0.195
REMARK UNBOUND:                -0.108
REMARK SMILES CCCCCC(=O)[O-]
REMARK SMILES IDX 4 1 5 2 6 3 7 4 8 5 3 6 2 7 1 8
REMARK H PARENT
REMARK Flexibility Score: inf
ROOT
ATOM      1  C   UNL     1      21.764   9.393  13.181  1.00  0.00     0.006 C 
ENDROOT
BRANCH   1   2
ATOM      2  C   UNL     1      22.484   9.707  11.867  1.00  0.00     0.053 C 
BRANCH   2   3
ATOM      3  C   UNL     1      21.818  10.845  11.162  1.00  0.00     0.041 C 
ATOM      4  O   UNL     1      20.577  10.820  10.949  1.00  0.00    -0.550 OA
ATOM      5  O   UNL     1      22.559  11.958  10.784  1.00  0.00    -0.550 OA
ENDBRANCH   2   3
ENDBRANCH   1   2
BRANCH   1   6
ATOM      6  C   UNL     1      20.963   8.087  13.070  1.00  0.00     0.000 C 
BRANCH   6   7
ATOM      7  C   UNL     1      19.536   8.221  13.624  1.00  0.00    -0.003 C 
ATOM      8  C   UNL     1      19.139   9.672  13.893  1.00  0.00     0.004 C 
ENDBRANCH   6   7
ENDBRANCH   1   6
TORSDOF 4
ENDMDL
MODEL 5
REMARK VINA RESULT:    -4.213      2.941      4.415
REMARK INTER + INTRA:          -5.306
REMARK INTER:                  -5.175
REMARK INTRA:                  -0.131
REMARK UNBOUND:                -0.108
REMARK SMILES CCCCCC(=O)[O-]
REMARK SMILES IDX 4 1 5 2 6 3 7 4 8 5 3 6 2 7 1 8
REMARK H PARENT
REMARK Flexibility Score: inf
ROOT
ATOM      1  C   UNL     1      21.791   9.363  13.081  1.00  0.00     0.006 C 
ENDROOT
BRANCH   1   2
ATOM      2  C   UNL     1      20.637   8.364  13.205  1.00  0.00     0.053 C 
BRANCH   2   3
ATOM      3  C   UNL     1      19.505   8.963  13.978  1.00  0.00     0.041 C 
ATOM      4  O   UNL     1      19.048  10.093  13.660  1.00  0.00    -0.550 OA
ATOM      5  O   UNL     1      18.921   8.251  15.018  1.00  0.00    -0.550 OA
ENDBRANCH   2   3
ENDBRANCH   1   2
BRANCH   1   6
ATOM      6  C   UNL     1      22.081   9.687  11.608  1.00  0.00     0.000 C 
BRANCH   6   7
ATOM      7  C   UNL     1      21.274  10.892  11.098  1.00  0.00    -0.003 C 
ATOM      8  C   UNL     1      22.124  11.876  10.294  1.00  0.00     0.004 C 
ENDBRANCH   6   7
ENDBRANCH   1   6
TORSDOF 4
ENDMDL
MODEL 6
REMARK VINA RESULT:    -4.168     13.530     14.107
REMARK INTER + INTRA:          -5.250
REMARK INTER:                  -5.188
REMARK INTRA:                  -0.062
REMARK UNBOUND:                -0.108
REMARK SMILES CCCCCC(=O)[O-]
REMARK SMILES IDX 4 1 5 2 6 3 7 4 8 5 3 6 2 7 1 8
REMARK H PARENT
REMARK Flexibility Score: inf
ROOT
ATOM      1  C   UNL     1       9.531  12.074   5.103  1.00  0.00     0.006 C 
ENDROOT
BRANCH   1   2
ATOM      2  C   UNL     1      10.244  10.777   4.708  1.00  0.00     0.053 C 
BRANCH   2   3
ATOM      3  C   UNL     1       9.433   9.588   5.114  1.00  0.00     0.041 C 
ATOM      4  O   UNL     1       9.735   8.441   4.692  1.00  0.00    -0.550 OA
ATOM      5  O   UNL     1       8.372   9.740   5.998  1.00  0.00    -0.550 OA
ENDBRANCH   2   3
ENDBRANCH   1   2
BRANCH   1   6
ATOM      6  C   UNL     1      10.544  13.159   5.501  1.00  0.00     0.000 C 
BRANCH   6   7
ATOM      7  C   UNL     1      10.911  14.082   4.329  1.00  0.00    -0.003 C 
ATOM      8  C   UNL     1      11.429  15.445   4.789  1.00  0.00     0.004 C 
ENDBRANCH   6   7
ENDBRANCH   1   6
TORSDOF 4
ENDMDL
MODEL 7
REMARK VINA RESULT:    -4.152     13.063     13.614
REMARK INTER + INTRA:          -5.231
REMARK INTER:                  -5.115
REMARK INTRA:                  -0.116
REMARK UNBOUND:                -0.108
REMARK SMILES CCCCCC(=O)[O-]
REMARK SMILES IDX 4 1 5 2 6 3 7 4 8 5 3 6 2 7 1 8
REMARK H PARENT
REMARK Flexibility Score: inf
ROOT
ATOM      1  C   UNL     1      10.224  11.630   4.753  1.00  0.00     0.006 C 
ENDROOT
BRANCH   1   2
ATOM      2  C   UNL     1      10.581  12.973   5.394  1.00  0.00     0.053 C 
BRANCH   2   3
ATOM      3  C   UNL     1      10.640  14.050   4.359  1.00  0.00     0.041 C 
ATOM      4  O   UNL     1       9.819  14.058   3.404  1.00  0.00    -0.550 OA
ATOM      5  O   UNL     1      11.571  15.075   4.474  1.00  0.00    -0.550 OA
ENDBRANCH   2   3
ENDBRANCH   1   2
BRANCH   1   6
ATOM      6  C   UNL     1       8.899  11.089   5.313  1.00  0.00     0.000 C 
BRANCH   6   7
ATOM      7  C   UNL     1       8.956   9.583   5.612  1.00  0.00    -0.003 C 
ATOM      8  C   UNL     1      10.056   8.865   4.830  1.00  0.00     0.004 C 
ENDBRANCH   6   7
ENDBRANCH   1   6
TORSDOF 4
ENDMDL
MODEL 8
REMARK VINA RESULT:    -3.686      2.035      2.570
REMARK INTER + INTRA:          -4.655
REMARK INTER:                  -4.589
REMARK INTRA:                  -0.066
REMARK UNBOUND:                -0.108
REMARK SMILES CCCCCC(=O)[O-]
REMARK SMILES IDX 4 1 5 2 6 3 7 4 8 5 3 6 2 7 1 8
REMARK H PARENT
REMARK Flexibility Score: inf
ROOT
ATOM      1  C   UNL     1      22.897  10.395  12.383  1.00  0.00     0.006 C 
ENDROOT
BRANCH   1   2
ATOM      2  C   UNL     1      24.137  11.102  12.939  1.00  0.00     0.053 C 
BRANCH   2   3
ATOM      3  C   UNL     1      24.763  11.965  11.891  1.00  0.00     0.041 C 
ATOM      4  O   UNL     1      26.005  11.916  11.689  1.00  0.00    -0.550 OA
ATOM      5  O   UNL     1      23.969  12.788  11.103  1.00  0.00    -0.550 OA
ENDBRANCH   2   3
ENDBRANCH   1   2
BRANCH   1   6
ATOM      6  C   UNL     1      22.355   9.367  13.387  1.00  0.00     0.000 C 
BRANCH   6   7
ATOM      7  C   UNL     1      20.985   8.805  12.974  1.00  0.00    -0.003 C 
ATOM      8  C   UNL     1      19.858   9.827  13.121  1.00  0.00     0.004 C 
ENDBRANCH   6   7
ENDBRANCH   1   6
TORSDOF 4
ENDMDL
