MODEL 1
REMARK VINA RESULT:    -7.764      0.000      0.000
REMARK INTER + INTRA:         -10.628
REMARK INTER:                  -9.806
REMARK INTRA:                  -0.822
REMARK UNBOUND:                -0.822
REMARK SMILES CC(C)[C@H](C)C=C[C@H](C)[C@H]1CC[C@@H]2C3=CC=C4C[C@H](O)CC[C@@]4(C)[C@@H]3CC[C@@]21C
REMARK SMILES IDX 8 1 9 2 7 3 6 4 4 5 5 6 2 7 1 8 3 9 10 10 11 11 28 12 12 13
REMARK SMILES IDX 13 14 27 15 29 16 14 17 26 18 25 19 15 20 23 21 16 22 17 23
REMARK SMILES IDX 22 24 24 25 18 26 21 27 19 28 20 29
REMARK H PARENT 20 30
REMARK Flexibility Score: inf
ROOT
ATOM      1  C   UNL     1      -1.297  20.824  49.129  1.00  0.00     0.012 C 
ATOM      2  C   UNL     1      -2.750  20.333  49.214  1.00  0.00     0.012 C 
ENDROOT
BRANCH   1   3
ATOM      3  C   UNL     1      -0.902  21.599  50.372  1.00  0.00    -0.028 C 
ATOM      4  C   UNL     1      -1.800  22.342  51.043  1.00  0.00    -0.028 C 
BRANCH   4   5
ATOM      5  C   UNL     1      -1.423  23.142  52.271  1.00  0.00     0.011 C 
ATOM      6  C   UNL     1       0.104  23.128  52.439  1.00  0.00     0.012 C 
BRANCH   5   7
ATOM      7  C   UNL     1      -2.036  24.573  52.200  1.00  0.00    -0.011 C 
ATOM      8  C   UNL     1      -3.324  24.598  51.361  1.00  0.00     0.008 C 
ATOM      9  C   UNL     1      -2.292  25.208  53.578  1.00  0.00     0.008 C 
ENDBRANCH   5   7
ENDBRANCH   4   5
ENDBRANCH   1   3
BRANCH   1  10
ATOM     10  C   UNL     1      -0.293  19.706  48.675  1.00  0.00     0.002 C 
ATOM     11  C   UNL     1      -0.862  18.305  48.871  1.00  0.00     0.005 C 
ATOM     12  C   UNL     1       0.376  19.687  47.248  1.00  0.00    -0.023 C 
ATOM     13  C   UNL     1       0.144  17.391  48.207  1.00  0.00     0.009 C 
ATOM     14  C   UNL     1       0.677  18.159  46.990  1.00  0.00     0.021 C 
ATOM     15  C   UNL     1       1.658  20.574  47.206  1.00  0.00     0.008 C 
ATOM     16  C   UNL     1      -0.580  20.183  46.134  1.00  0.00     0.012 C 
ATOM     17  C   UNL     1       2.124  17.757  46.714  1.00  0.00    -0.063 C 
ATOM     18  C   UNL     1       2.884  19.889  47.808  1.00  0.00     0.009 C 
ATOM     19  C   UNL     1       3.295  18.696  46.933  1.00  0.00     0.025 C 
ATOM     20  C   UNL     1       2.371  16.536  46.215  1.00  0.00    -0.000 C 
ATOM     21  C   UNL     1       4.573  17.927  47.440  1.00  0.00    -0.005 C 
ATOM     22  C   UNL     1       3.748  16.052  46.021  1.00  0.00    -0.000 C 
ATOM     23  C   UNL     1       4.801  16.709  46.535  1.00  0.00    -0.061 C 
ATOM     24  C   UNL     1       5.807  18.882  47.372  1.00  0.00     0.014 C 
ATOM     25  C   UNL     1       4.385  17.419  48.892  1.00  0.00     0.017 C 
ATOM     26  C   UNL     1       6.167  16.063  46.456  1.00  0.00     0.063 C 
ATOM     27  C   UNL     1       7.153  18.154  47.476  1.00  0.00     0.033 C 
ATOM     28  C   UNL     1       7.283  17.110  46.361  1.00  0.00     0.118 C 
BRANCH  28  29
ATOM     29  O   UNL     1       8.546  16.493  46.404  1.00  0.00    -0.393 OA
ATOM     30  H   UNL     1       8.401  15.515  46.497  1.00  0.00     0.210 HD
ENDBRANCH  28  29
ENDBRANCH   1  10
TORSDOF 5
ENDMDL
MODEL 2
REMARK VINA RESULT:    -7.558      1.425      2.146
REMARK INTER + INTRA:         -10.368
REMARK INTER:                  -9.007
REMARK INTRA:                  -1.361
REMARK UNBOUND:                -0.822
REMARK SMILES CC(C)[C@H](C)C=C[C@H](C)[C@H]1CC[C@@H]2C3=CC=C4C[C@H](O)CC[C@@]4(C)[C@@H]3CC[C@@]21C
REMARK SMILES IDX 8 1 9 2 7 3 6 4 4 5 5 6 2 7 1 8 3 9 10 10 11 11 28 12 12 13
REMARK SMILES IDX 13 14 27 15 29 16 14 17 26 18 25 19 15 20 23 21 16 22 17 23
REMARK SMILES IDX 22 24 24 25 18 26 21 27 19 28 20 29
REMARK H PARENT 20 30
REMARK Flexibility Score: inf
ROOT
ATOM      1  C   UNL     1      -1.274  20.841  49.125  1.00  0.00     0.012 C 
ATOM      2  C   UNL     1      -2.728  20.372  49.278  1.00  0.00     0.012 C 
ENDROOT
BRANCH   1   3
ATOM      3  C   UNL     1      -0.822  21.641  50.332  1.00  0.00    -0.028 C 
ATOM      4  C   UNL     1       0.479  21.904  50.545  1.00  0.00    -0.028 C 
BRANCH   4   5
ATOM      5  C   UNL     1       0.956  22.679  51.755  1.00  0.00     0.011 C 
ATOM      6  C   UNL     1       0.659  21.869  53.026  1.00  0.00     0.012 C 
BRANCH   5   7
ATOM      7  C   UNL     1       2.455  23.075  51.595  1.00  0.00    -0.011 C 
ATOM      8  C   UNL     1       3.251  22.817  52.883  1.00  0.00     0.008 C 
ATOM      9  C   UNL     1       3.151  22.400  50.401  1.00  0.00     0.008 C 
ENDBRANCH   5   7
ENDBRANCH   4   5
ENDBRANCH   1   3
BRANCH   1  10
ATOM     10  C   UNL     1      -0.302  19.699  48.662  1.00  0.00     0.002 C 
ATOM     11  C   UNL     1      -0.901  18.312  48.865  1.00  0.00     0.005 C 
ATOM     12  C   UNL     1       0.352  19.663  47.228  1.00  0.00    -0.023 C 
ATOM     13  C   UNL     1       0.075  17.374  48.191  1.00  0.00     0.009 C 
ATOM     14  C   UNL     1       0.614  18.128  46.968  1.00  0.00     0.021 C 
ATOM     15  C   UNL     1       1.655  20.519  47.172  1.00  0.00     0.008 C 
ATOM     16  C   UNL     1      -0.604  20.181  46.123  1.00  0.00     0.012 C 
ATOM     17  C   UNL     1       2.047  17.691  46.677  1.00  0.00    -0.063 C 
ATOM     18  C   UNL     1       2.870  19.806  47.762  1.00  0.00     0.009 C 
ATOM     19  C   UNL     1       3.243  18.603  46.883  1.00  0.00     0.025 C 
ATOM     20  C   UNL     1       2.260  16.465  46.176  1.00  0.00    -0.000 C 
ATOM     21  C   UNL     1       4.508  17.804  47.378  1.00  0.00    -0.005 C 
ATOM     22  C   UNL     1       3.623  15.948  45.969  1.00  0.00    -0.000 C 
ATOM     23  C   UNL     1       4.697  16.580  46.471  1.00  0.00    -0.061 C 
ATOM     24  C   UNL     1       5.763  18.728  47.296  1.00  0.00     0.014 C 
ATOM     25  C   UNL     1       4.322  17.301  48.832  1.00  0.00     0.017 C 
ATOM     26  C   UNL     1       6.045  15.901  46.379  1.00  0.00     0.063 C 
ATOM     27  C   UNL     1       7.092  17.969  47.387  1.00  0.00     0.033 C 
ATOM     28  C   UNL     1       7.186  16.922  46.271  1.00  0.00     0.118 C 
BRANCH  28  29
ATOM     29  O   UNL     1       8.433  16.274  46.301  1.00  0.00    -0.393 OA
ATOM     30  H   UNL     1       8.903  16.483  45.452  1.00  0.00     0.210 HD
ENDBRANCH  28  29
ENDBRANCH   1  10
TORSDOF 5
ENDMDL
MODEL 3
REMARK VINA RESULT:    -7.447      3.612      6.087
REMARK INTER + INTRA:         -10.227
REMARK INTER:                  -9.662
REMARK INTRA:                  -0.565
REMARK UNBOUND:                -0.822
REMARK SMILES CC(C)[C@H](C)C=C[C@H](C)[C@H]1CC[C@@H]2C3=CC=C4C[C@H](O)CC[C@@]4(C)[C@@H]3CC[C@@]21C
REMARK SMILES IDX 8 1 9 2 7 3 6 4 4 5 5 6 2 7 1 8 3 9 10 10 11 11 28 12 12 13
REMARK SMILES IDX 13 14 27 15 29 16 14 17 26 18 25 19 15 20 23 21 16 22 17 23
REMARK SMILES IDX 22 24 24 25 18 26 21 27 19 28 20 29
REMARK H PARENT 20 30
REMARK Flexibility Score: inf
ROOT
ATOM      1  C   UNL     1       2.767  19.089  48.078  1.00  0.00     0.012 C 
ATOM      2  C   UNL     1       2.663  20.577  48.442  1.00  0.00     0.012 C 
ENDROOT
BRANCH   1   3
ATOM      3  C   UNL     1       1.636  18.665  47.159  1.00  0.00    -0.028 C 
ATOM      4  C   UNL     1       0.498  18.146  47.652  1.00  0.00    -0.028 C 
BRANCH   4   5
ATOM      5  C   UNL     1      -0.634  17.693  46.754  1.00  0.00     0.011 C 
ATOM      6  C   UNL     1      -0.084  16.731  45.689  1.00  0.00     0.012 C 
BRANCH   5   7
ATOM      7  C   UNL     1      -1.799  17.098  47.601  1.00  0.00    -0.011 C 
ATOM      8  C   UNL     1      -1.275  16.291  48.798  1.00  0.00     0.008 C 
ATOM      9  C   UNL     1      -2.819  18.147  48.076  1.00  0.00     0.008 C 
ENDBRANCH   5   7
ENDBRANCH   4   5
ENDBRANCH   1   3
BRANCH   1  10
ATOM     10  C   UNL     1       4.209  18.663  47.626  1.00  0.00     0.002 C 
ATOM     11  C   UNL     1       5.182  18.586  48.797  1.00  0.00     0.005 C 
ATOM     12  C   UNL     1       4.488  17.371  46.768  1.00  0.00    -0.023 C 
ATOM     13  C   UNL     1       6.437  17.980  48.209  1.00  0.00     0.009 C 
ATOM     14  C   UNL     1       5.966  16.972  47.152  1.00  0.00     0.021 C 
ATOM     15  C   UNL     1       4.310  17.648  45.244  1.00  0.00     0.008 C 
ATOM     16  C   UNL     1       3.558  16.190  47.147  1.00  0.00     0.012 C 
ATOM     17  C   UNL     1       6.993  16.882  46.026  1.00  0.00    -0.063 C 
ATOM     18  C   UNL     1       5.514  18.346  44.614  1.00  0.00     0.009 C 
ATOM     19  C   UNL     1       6.726  17.403  44.626  1.00  0.00     0.025 C 
ATOM     20  C   UNL     1       8.166  16.277  46.267  1.00  0.00    -0.000 C 
ATOM     21  C   UNL     1       8.026  18.006  43.970  1.00  0.00    -0.005 C 
ATOM     22  C   UNL     1       9.235  16.246  45.255  1.00  0.00    -0.000 C 
ATOM     23  C   UNL     1       9.173  17.002  44.146  1.00  0.00    -0.061 C 
ATOM     24  C   UNL     1       7.765  18.258  42.452  1.00  0.00     0.014 C 
ATOM     25  C   UNL     1       8.439  19.333  44.657  1.00  0.00     0.017 C 
ATOM     26  C   UNL     1      10.383  17.060  43.241  1.00  0.00     0.063 C 
ATOM     27  C   UNL     1       9.045  18.483  41.637  1.00  0.00     0.033 C 
ATOM     28  C   UNL     1       9.984  17.279  41.776  1.00  0.00     0.118 C 
BRANCH  28  29
ATOM     29  O   UNL     1      11.125  17.444  40.972  1.00  0.00    -0.393 OA
ATOM     30  H   UNL     1      10.819  17.689  40.060  1.00  0.00     0.210 HD
ENDBRANCH  28  29
ENDBRANCH   1  10
TORSDOF 5
ENDMDL
MODEL 4
REMARK VINA RESULT:    -7.402      3.735      6.943
REMARK INTER + INTRA:         -10.171
REMARK INTER:                  -9.269
REMARK INTRA:                  -0.902
REMARK UNBOUND:                -0.822
REMARK SMILES CC(C)[C@H](C)C=C[C@H](C)[C@H]1CC[C@@H]2C3=CC=C4C[C@H](O)CC[C@@]4(C)[C@@H]3CC[C@@]21C
REMARK SMILES IDX 8 1 9 2 7 3 6 4 4 5 5 6 2 7 1 8 3 9 10 10 11 11 28 12 12 13
REMARK SMILES IDX 13 14 27 15 29 16 14 17 26 18 25 19 15 20 23 21 16 22 17 23
REMARK SMILES IDX 22 24 24 25 18 26 21 27 19 28 20 29
REMARK H PARENT 20 30
REMARK Flexibility Score: inf
ROOT
ATOM      1  C   UNL     1      -2.604  26.124  51.028  1.00  0.00     0.012 C 
ATOM      2  C   UNL     1      -1.664  27.265  51.445  1.00  0.00     0.012 C 
ENDROOT
BRANCH   1   3
ATOM      3  C   UNL     1      -3.848  26.658  50.343  1.00  0.00    -0.028 C 
ATOM      4  C   UNL     1      -3.762  27.393  49.221  1.00  0.00    -0.028 C 
BRANCH   4   5
ATOM      5  C   UNL     1      -4.988  27.956  48.533  1.00  0.00     0.011 C 
ATOM      6  C   UNL     1      -5.063  29.470  48.787  1.00  0.00     0.012 C 
BRANCH   5   7
ATOM      7  C   UNL     1      -4.994  27.569  47.023  1.00  0.00    -0.011 C 
ATOM      8  C   UNL     1      -3.907  26.532  46.699  1.00  0.00     0.008 C 
ATOM      9  C   UNL     1      -6.360  27.078  46.514  1.00  0.00     0.008 C 
ENDBRANCH   5   7
ENDBRANCH   4   5
ENDBRANCH   1   3
BRANCH   1  10
ATOM     10  C   UNL     1      -1.866  24.954  50.287  1.00  0.00     0.002 C 
ATOM     11  C   UNL     1      -0.735  25.458  49.397  1.00  0.00     0.005 C 
ATOM     12  C   UNL     1      -1.276  23.702  51.040  1.00  0.00    -0.023 C 
ATOM     13  C   UNL     1      -0.030  24.202  48.933  1.00  0.00     0.009 C 
ATOM     14  C   UNL     1      -0.097  23.218  50.109  1.00  0.00     0.021 C 
ATOM     15  C   UNL     1      -2.363  22.606  51.264  1.00  0.00     0.008 C 
ATOM     16  C   UNL     1      -0.678  24.065  52.423  1.00  0.00     0.012 C 
ATOM     17  C   UNL     1      -0.149  21.785  49.585  1.00  0.00    -0.063 C 
ATOM     18  C   UNL     1      -2.625  21.756  50.022  1.00  0.00     0.009 C 
ATOM     19  C   UNL     1      -1.383  20.911  49.700  1.00  0.00     0.025 C 
ATOM     20  C   UNL     1       0.957  21.256  49.038  1.00  0.00    -0.000 C 
ATOM     21  C   UNL     1      -1.547  19.965  48.451  1.00  0.00    -0.005 C 
ATOM     22  C   UNL     1       0.945  19.918  48.426  1.00  0.00    -0.000 C 
ATOM     23  C   UNL     1      -0.206  19.266  48.188  1.00  0.00    -0.061 C 
ATOM     24  C   UNL     1      -2.652  18.903  48.752  1.00  0.00     0.014 C 
ATOM     25  C   UNL     1      -1.927  20.769  47.181  1.00  0.00     0.017 C 
ATOM     26  C   UNL     1      -0.158  17.980  47.393  1.00  0.00     0.063 C 
ATOM     27  C   UNL     1      -2.641  17.714  47.784  1.00  0.00     0.033 C 
ATOM     28  C   UNL     1      -1.277  17.016  47.810  1.00  0.00     0.118 C 
BRANCH  28  29
ATOM     29  O   UNL     1      -1.284  15.880  46.983  1.00  0.00    -0.393 OA
ATOM     30  H   UNL     1      -0.382  15.468  47.027  1.00  0.00     0.210 HD
ENDBRANCH  28  29
ENDBRANCH   1  10
TORSDOF 5
ENDMDL
MODEL 5
REMARK VINA RESULT:    -7.386      3.684      8.343
REMARK INTER + INTRA:         -10.151
REMARK INTER:                  -8.704
REMARK INTRA:                  -1.447
REMARK UNBOUND:                -0.822
REMARK SMILES CC(C)[C@H](C)C=C[C@H](C)[C@H]1CC[C@@H]2C3=CC=C4C[C@H](O)CC[C@@]4(C)[C@@H]3CC[C@@]21C
REMARK SMILES IDX 8 1 9 2 7 3 6 4 4 5 5 6 2 7 1 8 3 9 10 10 11 11 28 12 12 13
REMARK SMILES IDX 13 14 27 15 29 16 14 17 26 18 25 19 15 20 23 21 16 22 17 23
REMARK SMILES IDX 22 24 24 25 18 26 21 27 19 28 20 29
REMARK H PARENT 20 30
REMARK Flexibility Score: inf
ROOT
ATOM      1  C   UNL     1       1.722  18.980  47.048  1.00  0.00     0.012 C 
ATOM      2  C   UNL     1       3.077  18.270  46.909  1.00  0.00     0.012 C 
ENDROOT
BRANCH   1   3
ATOM      3  C   UNL     1       0.600  17.986  47.282  1.00  0.00    -0.028 C 
ATOM      4  C   UNL     1      -0.658  18.252  46.888  1.00  0.00    -0.028 C 
BRANCH   4   5
ATOM      5  C   UNL     1      -1.798  17.287  47.133  1.00  0.00     0.011 C 
ATOM      6  C   UNL     1      -1.231  15.875  47.350  1.00  0.00     0.012 C 
BRANCH   5   7
ATOM      7  C   UNL     1      -2.700  17.791  48.300  1.00  0.00    -0.011 C 
ATOM      8  C   UNL     1      -2.014  17.616  49.664  1.00  0.00     0.008 C 
ATOM      9  C   UNL     1      -3.178  19.243  48.132  1.00  0.00     0.008 C 
ENDBRANCH   5   7
ENDBRANCH   4   5
ENDBRANCH   1   3
BRANCH   1  10
ATOM     10  C   UNL     1       1.764  20.205  48.028  1.00  0.00     0.002 C 
ATOM     11  C   UNL     1       3.173  20.493  48.533  1.00  0.00     0.005 C 
ATOM     12  C   UNL     1       1.158  21.612  47.663  1.00  0.00    -0.023 C 
ATOM     13  C   UNL     1       3.047  21.798  49.288  1.00  0.00     0.009 C 
ATOM     14  C   UNL     1       2.001  22.627  48.530  1.00  0.00     0.021 C 
ATOM     15  C   UNL     1      -0.370  21.674  47.972  1.00  0.00     0.008 C 
ATOM     16  C   UNL     1       1.355  21.978  46.170  1.00  0.00     0.012 C 
ATOM     17  C   UNL     1       1.246  23.527  49.505  1.00  0.00    -0.063 C 
ATOM     18  C   UNL     1      -0.677  21.907  49.450  1.00  0.00     0.009 C 
ATOM     19  C   UNL     1      -0.213  23.313  49.861  1.00  0.00     0.025 C 
ATOM     20  C   UNL     1       1.884  24.580  50.038  1.00  0.00    -0.000 C 
ATOM     21  C   UNL     1      -0.507  23.681  51.365  1.00  0.00    -0.005 C 
ATOM     22  C   UNL     1       1.244  25.427  51.059  1.00  0.00    -0.000 C 
ATOM     23  C   UNL     1       0.099  25.060  51.658  1.00  0.00    -0.061 C 
ATOM     24  C   UNL     1      -2.051  23.717  51.592  1.00  0.00     0.014 C 
ATOM     25  C   UNL     1       0.140  22.656  52.332  1.00  0.00     0.017 C 
ATOM     26  C   UNL     1      -0.405  25.883  52.822  1.00  0.00     0.063 C 
ATOM     27  C   UNL     1      -2.465  24.419  52.890  1.00  0.00     0.033 C 
ATOM     28  C   UNL     1      -1.936  25.858  52.910  1.00  0.00     0.118 C 
BRANCH  28  29
ATOM     29  O   UNL     1      -2.377  26.533  54.063  1.00  0.00    -0.393 OA
ATOM     30  H   UNL     1      -2.579  27.470  53.806  1.00  0.00     0.210 HD
ENDBRANCH  28  29
ENDBRANCH   1  10
TORSDOF 5
ENDMDL
MODEL 6
REMARK VINA RESULT:    -7.285      3.259      8.086
REMARK INTER + INTRA:         -10.024
REMARK INTER:                  -9.150
REMARK INTRA:                  -0.874
REMARK UNBOUND:                -0.822
REMARK SMILES CC(C)[C@H](C)C=C[C@H](C)[C@H]1CC[C@@H]2C3=CC=C4C[C@H](O)CC[C@@]4(C)[C@@H]3CC[C@@]21C
REMARK SMILES IDX 8 1 9 2 7 3 6 4 4 5 5 6 2 7 1 8 3 9 10 10 11 11 28 12 12 13
REMARK SMILES IDX 13 14 27 15 29 16 14 17 26 18 25 19 15 20 23 21 16 22 17 23
REMARK SMILES IDX 22 24 24 25 18 26 21 27 19 28 20 29
REMARK H PARENT 20 30
REMARK Flexibility Score: inf
ROOT
ATOM      1  C   UNL     1      -1.370  16.345  46.750  1.00  0.00     0.012 C 
ATOM      2  C   UNL     1      -1.777  16.175  45.279  1.00  0.00     0.012 C 
ENDROOT
BRANCH   1   3
ATOM      3  C   UNL     1       0.062  15.897  46.981  1.00  0.00    -0.028 C 
ATOM      4  C   UNL     1       1.085  16.474  46.326  1.00  0.00    -0.028 C 
BRANCH   4   5
ATOM      5  C   UNL     1       2.518  16.029  46.522  1.00  0.00     0.011 C 
ATOM      6  C   UNL     1       3.195  15.875  45.151  1.00  0.00     0.012 C 
BRANCH   5   7
ATOM      7  C   UNL     1       3.264  16.997  47.489  1.00  0.00    -0.011 C 
ATOM      8  C   UNL     1       4.596  16.402  47.972  1.00  0.00     0.008 C 
ATOM      9  C   UNL     1       3.495  18.401  46.904  1.00  0.00     0.008 C 
ENDBRANCH   5   7
ENDBRANCH   4   5
ENDBRANCH   1   3
BRANCH   1  10
ATOM     10  C   UNL     1      -1.747  17.750  47.338  1.00  0.00     0.002 C 
ATOM     11  C   UNL     1      -3.255  17.936  47.466  1.00  0.00     0.005 C 
ATOM     12  C   UNL     1      -1.144  18.303  48.684  1.00  0.00    -0.023 C 
ATOM     13  C   UNL     1      -3.414  19.238  48.219  1.00  0.00     0.009 C 
ATOM     14  C   UNL     1      -2.249  19.298  49.216  1.00  0.00     0.021 C 
ATOM     15  C   UNL     1       0.234  18.996  48.450  1.00  0.00     0.008 C 
ATOM     16  C   UNL     1      -0.944  17.194  49.748  1.00  0.00     0.012 C 
ATOM     17  C   UNL     1      -1.842  20.750  49.454  1.00  0.00    -0.063 C 
ATOM     18  C   UNL     1       0.110  20.416  47.904  1.00  0.00     0.009 C 
ATOM     19  C   UNL     1      -0.527  21.327  48.964  1.00  0.00     0.025 C 
ATOM     20  C   UNL     1      -2.660  21.542  50.165  1.00  0.00    -0.000 C 
ATOM     21  C   UNL     1      -0.679  22.832  48.523  1.00  0.00    -0.005 C 
ATOM     22  C   UNL     1      -2.373  22.975  50.345  1.00  0.00    -0.000 C 
ATOM     23  C   UNL     1      -1.418  23.594  49.631  1.00  0.00    -0.061 C 
ATOM     24  C   UNL     1       0.739  23.448  48.306  1.00  0.00     0.014 C 
ATOM     25  C   UNL     1      -1.508  22.955  47.219  1.00  0.00     0.017 C 
ATOM     26  C   UNL     1      -1.300  25.098  49.732  1.00  0.00     0.063 C 
ATOM     27  C   UNL     1       0.740  24.980  48.244  1.00  0.00     0.033 C 
ATOM     28  C   UNL     1       0.147  25.566  49.531  1.00  0.00     0.118 C 
BRANCH  28  29
ATOM     29  O   UNL     1       0.215  26.970  49.515  1.00  0.00    -0.393 OA
ATOM     30  H   UNL     1       0.969  27.230  48.922  1.00  0.00     0.210 HD
ENDBRANCH  28  29
ENDBRANCH   1  10
TORSDOF 5
ENDMDL
MODEL 7
REMARK VINA RESULT:    -7.096      3.723      8.945
REMARK INTER + INTRA:          -9.785
REMARK INTER:                  -8.939
REMARK INTRA:                  -0.845
REMARK UNBOUND:                -0.822
REMARK SMILES CC(C)[C@H](C)C=C[C@H](C)[C@H]1CC[C@@H]2C3=CC=C4C[C@H](O)CC[C@@]4(C)[C@@H]3CC[C@@]21C
REMARK SMILES IDX 8 1 9 2 7 3 6 4 4 5 5 6 2 7 1 8 3 9 10 10 11 11 28 12 12 13
REMARK SMILES IDX 13 14 27 15 29 16 14 17 26 18 25 19 15 20 23 21 16 22 17 23
REMARK SMILES IDX 22 24 24 25 18 26 21 27 19 28 20 29
REMARK H PARENT 20 30
REMARK Flexibility Score: inf
ROOT
ATOM      1  C   UNL     1       5.970  17.604  45.320  1.00  0.00     0.012 C 
ATOM      2  C   UNL     1       6.393  16.265  44.699  1.00  0.00     0.012 C 
ENDROOT
BRANCH   1   3
ATOM      3  C   UNL     1       6.419  18.775  44.466  1.00  0.00    -0.028 C 
ATOM      4  C   UNL     1       6.815  18.596  43.193  1.00  0.00    -0.028 C 
BRANCH   4   5
ATOM      5  C   UNL     1       7.291  19.745  42.330  1.00  0.00     0.011 C 
ATOM      6  C   UNL     1       8.681  19.414  41.764  1.00  0.00     0.012 C 
BRANCH   5   7
ATOM      7  C   UNL     1       6.230  20.085  41.240  1.00  0.00    -0.011 C 
ATOM      8  C   UNL     1       5.113  20.981  41.795  1.00  0.00     0.008 C 
ATOM      9  C   UNL     1       6.827  20.712  39.968  1.00  0.00     0.008 C 
ENDBRANCH   5   7
ENDBRANCH   4   5
ENDBRANCH   1   3
BRANCH   1  10
ATOM     10  C   UNL     1       4.466  17.628  45.771  1.00  0.00     0.002 C 
ATOM     11  C   UNL     1       3.633  16.566  45.061  1.00  0.00     0.005 C 
ATOM     12  C   UNL     1       4.027  17.558  47.283  1.00  0.00    -0.023 C 
ATOM     13  C   UNL     1       2.291  16.610  45.757  1.00  0.00     0.009 C 
ATOM     14  C   UNL     1       2.586  16.916  47.232  1.00  0.00     0.021 C 
ATOM     15  C   UNL     1       4.040  18.970  47.947  1.00  0.00     0.008 C 
ATOM     16  C   UNL     1       4.937  16.629  48.127  1.00  0.00     0.012 C 
ATOM     17  C   UNL     1       1.433  17.711  47.839  1.00  0.00    -0.063 C 
ATOM     18  C   UNL     1       2.806  19.805  47.610  1.00  0.00     0.009 C 
ATOM     19  C   UNL     1       1.560  19.168  48.243  1.00  0.00     0.025 C 
ATOM     20  C   UNL     1       0.268  17.086  48.068  1.00  0.00    -0.000 C 
ATOM     21  C   UNL     1       0.223  19.963  47.988  1.00  0.00    -0.005 C 
ATOM     22  C   UNL     1      -0.912  17.818  48.558  1.00  0.00    -0.000 C 
ATOM     23  C   UNL     1      -0.942  19.161  48.583  1.00  0.00    -0.061 C 
ATOM     24  C   UNL     1       0.318  21.360  48.678  1.00  0.00     0.014 C 
ATOM     25  C   UNL     1      -0.043  20.145  46.472  1.00  0.00     0.017 C 
ATOM     26  C   UNL     1      -2.246  19.849  48.923  1.00  0.00     0.063 C 
ATOM     27  C   UNL     1      -1.036  22.066  48.824  1.00  0.00     0.033 C 
ATOM     28  C   UNL     1      -2.009  21.193  49.624  1.00  0.00     0.118 C 
BRANCH  28  29
ATOM     29  O   UNL     1      -3.227  21.866  49.828  1.00  0.00    -0.393 OA
ATOM     30  H   UNL     1      -3.849  21.236  50.275  1.00  0.00     0.210 HD
ENDBRANCH  28  29
ENDBRANCH   1  10
TORSDOF 5
ENDMDL
MODEL 8
REMARK VINA RESULT:    -7.080      5.747      9.388
REMARK INTER + INTRA:          -9.764
REMARK INTER:                  -8.609
REMARK INTRA:                  -1.155
REMARK UNBOUND:                -0.822
REMARK SMILES CC(C)[C@H](C)C=C[C@H](C)[C@H]1CC[C@@H]2C3=CC=C4C[C@H](O)CC[C@@]4(C)[C@@H]3CC[C@@]21C
REMARK SMILES IDX 8 1 9 2 7 3 6 4 4 5 5 6 2 7 1 8 3 9 10 10 11 11 28 12 12 13
REMARK SMILES IDX 13 14 27 15 29 16 14 17 26 18 25 19 15 20 23 21 16 22 17 23
REMARK SMILES IDX 22 24 24 25 18 26 21 27 19 28 20 29
REMARK H PARENT 20 30
REMARK Flexibility Score: inf
ROOT
ATOM      1  C   UNL     1       7.983  19.324  45.808  1.00  0.00     0.012 C 
ATOM      2  C   UNL     1       9.251  19.969  46.387  1.00  0.00     0.012 C 
ENDROOT
BRANCH   1   3
ATOM      3  C   UNL     1       6.875  19.259  46.843  1.00  0.00    -0.028 C 
ATOM      4  C   UNL     1       6.571  18.107  47.465  1.00  0.00    -0.028 C 
BRANCH   4   5
ATOM      5  C   UNL     1       5.455  18.013  48.483  1.00  0.00     0.011 C 
ATOM      6  C   UNL     1       4.947  19.426  48.813  1.00  0.00     0.012 C 
BRANCH   5   7
ATOM      7  C   UNL     1       4.341  17.044  47.984  1.00  0.00    -0.011 C 
ATOM      8  C   UNL     1       3.236  17.792  47.222  1.00  0.00     0.008 C 
ATOM      9  C   UNL     1       4.870  15.875  47.135  1.00  0.00     0.008 C 
ENDBRANCH   5   7
ENDBRANCH   4   5
ENDBRANCH   1   3
BRANCH   1  10
ATOM     10  C   UNL     1       7.576  19.907  44.409  1.00  0.00     0.002 C 
ATOM     11  C   UNL     1       8.764  20.015  43.460  1.00  0.00     0.005 C 
ATOM     12  C   UNL     1       6.405  19.308  43.542  1.00  0.00    -0.023 C 
ATOM     13  C   UNL     1       8.154  20.398  42.130  1.00  0.00     0.009 C 
ATOM     14  C   UNL     1       6.802  19.676  42.059  1.00  0.00     0.021 C 
ATOM     15  C   UNL     1       5.023  19.896  43.965  1.00  0.00     0.008 C 
ATOM     16  C   UNL     1       6.315  17.764  43.646  1.00  0.00     0.012 C 
ATOM     17  C   UNL     1       5.812  20.505  41.244  1.00  0.00    -0.063 C 
ATOM     18  C   UNL     1       4.758  21.286  43.390  1.00  0.00     0.009 C 
ATOM     19  C   UNL     1       4.613  21.198  41.863  1.00  0.00     0.025 C 
ATOM     20  C   UNL     1       5.981  20.592  39.916  1.00  0.00    -0.000 C 
ATOM     21  C   UNL     1       4.305  22.573  41.159  1.00  0.00    -0.005 C 
ATOM     22  C   UNL     1       5.122  21.454  39.088  1.00  0.00    -0.000 C 
ATOM     23  C   UNL     1       4.290  22.352  39.641  1.00  0.00    -0.061 C 
ATOM     24  C   UNL     1       2.913  23.095  41.637  1.00  0.00     0.014 C 
ATOM     25  C   UNL     1       5.396  23.627  41.481  1.00  0.00     0.017 C 
ATOM     26  C   UNL     1       3.574  23.329  38.735  1.00  0.00     0.063 C 
ATOM     27  C   UNL     1       2.340  24.211  40.756  1.00  0.00     0.033 C 
ATOM     28  C   UNL     1       2.209  23.733  39.306  1.00  0.00     0.118 C 
BRANCH  28  29
ATOM     29  O   UNL     1       1.612  24.725  38.508  1.00  0.00    -0.393 OA
ATOM     30  H   UNL     1       1.271  25.435  39.112  1.00  0.00     0.210 HD
ENDBRANCH  28  29
ENDBRANCH   1  10
TORSDOF 5
ENDMDL
MODEL 9
REMARK VINA RESULT:    -6.969      3.284      8.229
REMARK INTER + INTRA:          -9.624
REMARK INTER:                  -8.254
REMARK INTRA:                  -1.371
REMARK UNBOUND:                -0.822
REMARK SMILES CC(C)[C@H](C)C=C[C@H](C)[C@H]1CC[C@@H]2C3=CC=C4C[C@H](O)CC[C@@]4(C)[C@@H]3CC[C@@]21C
REMARK SMILES IDX 8 1 9 2 7 3 6 4 4 5 5 6 2 7 1 8 3 9 10 10 11 11 28 12 12 13
REMARK SMILES IDX 13 14 27 15 29 16 14 17 26 18 25 19 15 20 23 21 16 22 17 23
REMARK SMILES IDX 22 24 24 25 18 26 21 27 19 28 20 29
REMARK H PARENT 20 30
REMARK Flexibility Score: inf
ROOT
ATOM      1  C   UNL     1       8.042  17.507  46.518  1.00  0.00     0.012 C 
ATOM      2  C   UNL     1       8.606  16.448  45.560  1.00  0.00     0.012 C 
ENDROOT
BRANCH   1   3
ATOM      3  C   UNL     1       8.878  18.773  46.494  1.00  0.00    -0.028 C 
ATOM      4  C   UNL     1       8.327  19.975  46.739  1.00  0.00    -0.028 C 
BRANCH   4   5
ATOM      5  C   UNL     1       9.135  21.254  46.697  1.00  0.00     0.011 C 
ATOM      6  C   UNL     1       9.155  21.795  45.259  1.00  0.00     0.012 C 
BRANCH   5   7
ATOM      7  C   UNL     1       8.600  22.274  47.747  1.00  0.00    -0.011 C 
ATOM      8  C   UNL     1       7.286  21.797  48.383  1.00  0.00     0.008 C 
ATOM      9  C   UNL     1       9.620  22.627  48.844  1.00  0.00     0.008 C 
ENDBRANCH   5   7
ENDBRANCH   4   5
ENDBRANCH   1   3
BRANCH   1  10
ATOM     10  C   UNL     1       6.492  17.711  46.372  1.00  0.00     0.002 C 
ATOM     11  C   UNL     1       5.962  17.173  45.048  1.00  0.00     0.005 C 
ATOM     12  C   UNL     1       5.461  17.227  47.461  1.00  0.00    -0.023 C 
ATOM     13  C   UNL     1       4.457  17.274  45.173  1.00  0.00     0.009 C 
ATOM     14  C   UNL     1       4.133  16.982  46.644  1.00  0.00     0.021 C 
ATOM     15  C   UNL     1       5.290  18.284  48.595  1.00  0.00     0.008 C 
ATOM     16  C   UNL     1       5.874  15.886  48.120  1.00  0.00     0.012 C 
ATOM     17  C   UNL     1       2.887  17.756  47.066  1.00  0.00    -0.063 C 
ATOM     18  C   UNL     1       4.366  19.437  48.209  1.00  0.00     0.009 C 
ATOM     19  C   UNL     1       2.931  18.918  48.040  1.00  0.00     0.025 C 
ATOM     20  C   UNL     1       1.693  17.368  46.591  1.00  0.00    -0.000 C 
ATOM     21  C   UNL     1       1.877  20.030  47.671  1.00  0.00    -0.005 C 
ATOM     22  C   UNL     1       0.468  18.133  46.879  1.00  0.00    -0.000 C 
ATOM     23  C   UNL     1       0.519  19.356  47.432  1.00  0.00    -0.061 C 
ATOM     24  C   UNL     1       1.769  21.047  48.850  1.00  0.00     0.014 C 
ATOM     25  C   UNL     1       2.278  20.776  46.372  1.00  0.00     0.017 C 
ATOM     26  C   UNL     1      -0.759  20.159  47.532  1.00  0.00     0.063 C 
ATOM     27  C   UNL     1       0.527  21.944  48.776  1.00  0.00     0.033 C 
ATOM     28  C   UNL     1      -0.746  21.091  48.750  1.00  0.00     0.118 C 
BRANCH  28  29
ATOM     29  O   UNL     1      -1.891  21.908  48.760  1.00  0.00    -0.393 OA
ATOM     30  H   UNL     1      -1.613  22.814  49.055  1.00  0.00     0.210 HD
ENDBRANCH  28  29
ENDBRANCH   1  10
TORSDOF 5
ENDMDL
