MODEL 1
REMARK VINA RESULT:    -4.849      0.000      0.000
REMARK INTER + INTRA:          -5.633
REMARK INTER:                  -5.557
REMARK INTRA:                  -0.075
REMARK UNBOUND:                -0.075
REMARK SMILES COc1cc(C(=O)[O-])ccc1O
REMARK SMILES IDX 5 1 9 2 4 3 10 4 3 5 11 6 6 7 7 8 8 9 2 10 1 11 12 12
REMARK H PARENT 12 13
REMARK Flexibility Score: inf
ROOT
ATOM      1  C   UNL     1      -8.020  11.252  24.813  1.00  0.00     0.001 A 
ATOM      2  C   UNL     1      -7.016  12.034  25.408  1.00  0.00     0.014 A 
ATOM      3  C   UNL     1      -7.999   9.858  24.994  1.00  0.00     0.060 A 
ATOM      4  C   UNL     1      -6.011  11.433  26.168  1.00  0.00     0.051 A 
ATOM      5  C   UNL     1      -6.987   9.248  25.761  1.00  0.00     0.161 A 
ATOM      6  C   UNL     1      -5.993  10.044  26.346  1.00  0.00     0.157 A 
ENDROOT
BRANCH   1   7
ATOM      7  C   UNL     1      -9.088  11.886  24.006  1.00  0.00     0.072 C 
ATOM      8  O   UNL     1      -8.960  12.011  22.759  1.00  0.00    -0.545 OA
ATOM      9  O   UNL     1     -10.248  12.352  24.613  1.00  0.00    -0.545 OA
ENDBRANCH   1   7
BRANCH   5  10
ATOM     10  O   UNL     1      -6.934   7.860  25.963  1.00  0.00    -0.493 OA
ATOM     11  C   UNL     1      -7.627   6.901  25.169  1.00  0.00     0.278 C 
ENDBRANCH   5  10
BRANCH   6  12
ATOM     12  O   UNL     1      -4.989   9.447  27.107  1.00  0.00    -0.504 OA
ATOM     13  H   UNL     1      -4.209   8.968  26.673  1.00  0.00     0.293 HD
ENDBRANCH   6  12
TORSDOF 3
ENDMDL
MODEL 2
REMARK VINA RESULT:    -4.849      5.395      7.114
REMARK INTER + INTRA:          -5.633
REMARK INTER:                  -5.542
REMARK INTRA:                  -0.091
REMARK UNBOUND:                -0.075
REMARK SMILES COc1cc(C(=O)[O-])ccc1O
REMARK SMILES IDX 5 1 9 2 4 3 10 4 3 5 11 6 6 7 7 8 8 9 2 10 1 11 12 12
REMARK H PARENT 12 13
REMARK Flexibility Score: inf
ROOT
ATOM      1  C   UNL     1     -12.884  16.294  25.677  1.00  0.00     0.001 A 
ATOM      2  C   UNL     1     -13.032  16.579  27.045  1.00  0.00     0.014 A 
ATOM      3  C   UNL     1     -11.847  15.437  25.266  1.00  0.00     0.060 A 
ATOM      4  C   UNL     1     -12.163  16.019  27.981  1.00  0.00     0.051 A 
ATOM      5  C   UNL     1     -10.968  14.870  26.208  1.00  0.00     0.161 A 
ATOM      6  C   UNL     1     -11.132  15.166  27.568  1.00  0.00     0.157 A 
ENDROOT
BRANCH   1   7
ATOM      7  C   UNL     1     -13.805  16.886  24.680  1.00  0.00     0.072 C 
ATOM      8  O   UNL     1     -14.021  16.305  23.583  1.00  0.00    -0.545 OA
ATOM      9  O   UNL     1     -14.445  18.092  24.940  1.00  0.00    -0.545 OA
ENDBRANCH   1   7
BRANCH   5  10
ATOM     10  O   UNL     1      -9.922  14.011  25.834  1.00  0.00    -0.493 OA
ATOM     11  C   UNL     1     -10.073  12.874  24.990  1.00  0.00     0.278 C 
ENDBRANCH   5  10
BRANCH   6  12
ATOM     12  O   UNL     1     -10.265  14.607  28.506  1.00  0.00    -0.504 OA
ATOM     13  H   UNL     1     -10.321  13.629  28.763  1.00  0.00     0.293 HD
ENDBRANCH   6  12
TORSDOF 3
ENDMDL
MODEL 3
REMARK VINA RESULT:    -4.671      9.041     10.883
REMARK INTER + INTRA:          -5.429
REMARK INTER:                  -5.341
REMARK INTRA:                  -0.088
REMARK UNBOUND:                -0.075
REMARK SMILES COc1cc(C(=O)[O-])ccc1O
REMARK SMILES IDX 5 1 9 2 4 3 10 4 3 5 11 6 6 7 7 8 8 9 2 10 1 11 12 12
REMARK H PARENT 12 13
REMARK Flexibility Score: inf
ROOT
ATOM      1  C   UNL     1     -14.639  17.312  24.681  1.00  0.00     0.001 A 
ATOM      2  C   UNL     1     -15.525  18.391  24.521  1.00  0.00     0.014 A 
ATOM      3  C   UNL     1     -14.538  16.353  23.658  1.00  0.00     0.060 A 
ATOM      4  C   UNL     1     -16.293  18.509  23.362  1.00  0.00     0.051 A 
ATOM      5  C   UNL     1     -15.311  16.469  22.486  1.00  0.00     0.161 A 
ATOM      6  C   UNL     1     -16.190  17.551  22.345  1.00  0.00     0.157 A 
ENDROOT
BRANCH   1   7
ATOM      7  C   UNL     1     -13.822  17.185  25.910  1.00  0.00     0.072 C 
ATOM      8  O   UNL     1     -13.109  16.164  26.102  1.00  0.00    -0.545 OA
ATOM      9  O   UNL     1     -13.828  18.191  26.868  1.00  0.00    -0.545 OA
ENDBRANCH   1   7
BRANCH   5  10
ATOM     10  O   UNL     1     -15.237  15.530  21.445  1.00  0.00    -0.493 OA
ATOM     11  C   UNL     1     -14.035  14.907  21.003  1.00  0.00     0.278 C 
ENDBRANCH   5  10
BRANCH   6  12
ATOM     12  O   UNL     1     -16.958  17.671  21.188  1.00  0.00    -0.504 OA
ATOM     13  H   UNL     1     -17.053  18.556  20.704  1.00  0.00     0.293 HD
ENDBRANCH   6  12
TORSDOF 3
ENDMDL
MODEL 4
REMARK VINA RESULT:    -4.656      7.888      9.787
REMARK INTER + INTRA:          -5.412
REMARK INTER:                  -5.308
REMARK INTRA:                  -0.104
REMARK UNBOUND:                -0.075
REMARK SMILES COc1cc(C(=O)[O-])ccc1O
REMARK SMILES IDX 5 1 9 2 4 3 10 4 3 5 11 6 6 7 7 8 8 9 2 10 1 11 12 12
REMARK H PARENT 12 13
REMARK Flexibility Score: inf
ROOT
ATOM      1  C   UNL     1     -12.549  17.069  27.811  1.00  0.00     0.001 A 
ATOM      2  C   UNL     1     -11.768  16.142  27.100  1.00  0.00     0.014 A 
ATOM      3  C   UNL     1     -12.304  18.443  27.640  1.00  0.00     0.060 A 
ATOM      4  C   UNL     1     -10.764  16.581  26.236  1.00  0.00     0.051 A 
ATOM      5  C   UNL     1     -11.291  18.889  26.769  1.00  0.00     0.161 A 
ATOM      6  C   UNL     1     -10.523  17.950  26.069  1.00  0.00     0.157 A 
ENDROOT
BRANCH   1   7
ATOM      7  C   UNL     1     -13.616  16.607  28.728  1.00  0.00     0.072 C 
ATOM      8  O   UNL     1     -13.912  15.385  28.804  1.00  0.00    -0.545 OA
ATOM      9  O   UNL     1     -14.308  17.517  29.520  1.00  0.00    -0.545 OA
ENDBRANCH   1   7
BRANCH   5  10
ATOM     10  O   UNL     1     -11.018  20.253  26.574  1.00  0.00    -0.493 OA
ATOM     11  C   UNL     1     -11.812  21.130  25.781  1.00  0.00     0.278 C 
ENDBRANCH   5  10
BRANCH   6  12
ATOM     12  O   UNL     1      -9.519  18.385  25.205  1.00  0.00    -0.504 OA
ATOM     13  H   UNL     1      -9.523  18.141  24.222  1.00  0.00     0.293 HD
ENDBRANCH   6  12
TORSDOF 3
ENDMDL
MODEL 5
REMARK VINA RESULT:    -4.649      6.780      8.880
REMARK INTER + INTRA:          -5.404
REMARK INTER:                  -5.311
REMARK INTRA:                  -0.093
REMARK UNBOUND:                -0.075
REMARK SMILES COc1cc(C(=O)[O-])ccc1O
REMARK SMILES IDX 5 1 9 2 4 3 10 4 3 5 11 6 6 7 7 8 8 9 2 10 1 11 12 12
REMARK H PARENT 12 13
REMARK Flexibility Score: inf
ROOT
ATOM      1  C   UNL     1     -13.181  17.052  27.947  1.00  0.00     0.001 A 
ATOM      2  C   UNL     1     -12.856  18.383  27.635  1.00  0.00     0.014 A 
ATOM      3  C   UNL     1     -12.652  16.016  27.157  1.00  0.00     0.060 A 
ATOM      4  C   UNL     1     -12.020  18.672  26.556  1.00  0.00     0.051 A 
ATOM      5  C   UNL     1     -11.806  16.303  26.067  1.00  0.00     0.161 A 
ATOM      6  C   UNL     1     -11.495  17.637  25.771  1.00  0.00     0.157 A 
ENDROOT
BRANCH   1   7
ATOM      7  C   UNL     1     -14.068  16.742  29.091  1.00  0.00     0.072 C 
ATOM      8  O   UNL     1     -14.521  17.665  29.819  1.00  0.00    -0.545 OA
ATOM      9  O   UNL     1     -14.415  15.427  29.379  1.00  0.00    -0.545 OA
ENDBRANCH   1   7
BRANCH   5  10
ATOM     10  O   UNL     1     -11.260  15.295  25.257  1.00  0.00    -0.493 OA
ATOM     11  C   UNL     1     -10.561  14.155  25.747  1.00  0.00     0.278 C 
ENDBRANCH   5  10
BRANCH   6  12
ATOM     12  O   UNL     1     -10.658  17.928  24.694  1.00  0.00    -0.504 OA
ATOM     13  H   UNL     1      -9.867  18.553  24.791  1.00  0.00     0.293 HD
ENDBRANCH   6  12
TORSDOF 3
ENDMDL
MODEL 6
REMARK VINA RESULT:    -4.640      7.442      9.897
REMARK INTER + INTRA:          -5.394
REMARK INTER:                  -5.313
REMARK INTRA:                  -0.081
REMARK UNBOUND:                -0.075
REMARK SMILES COc1cc(C(=O)[O-])ccc1O
REMARK SMILES IDX 5 1 9 2 4 3 10 4 3 5 11 6 6 7 7 8 8 9 2 10 1 11 12 12
REMARK H PARENT 12 13
REMARK Flexibility Score: inf
ROOT
ATOM      1  C   UNL     1     -11.645  16.896  27.332  1.00  0.00     0.001 A 
ATOM      2  C   UNL     1     -10.621  16.831  26.372  1.00  0.00     0.014 A 
ATOM      3  C   UNL     1     -12.199  18.147  27.657  1.00  0.00     0.060 A 
ATOM      4  C   UNL     1     -10.161  17.993  25.751  1.00  0.00     0.051 A 
ATOM      5  C   UNL     1     -11.737  19.322  27.032  1.00  0.00     0.161 A 
ATOM      6  C   UNL     1     -10.714  19.237  26.078  1.00  0.00     0.157 A 
ENDROOT
BRANCH   1   7
ATOM      7  C   UNL     1     -12.137  15.665  27.992  1.00  0.00     0.072 C 
ATOM      8  O   UNL     1     -13.256  15.652  28.571  1.00  0.00    -0.545 OA
ATOM      9  O   UNL     1     -11.370  14.506  27.983  1.00  0.00    -0.545 OA
ENDBRANCH   1   7
BRANCH   5  10
ATOM     10  O   UNL     1     -12.266  20.587  27.333  1.00  0.00    -0.493 OA
ATOM     11  C   UNL     1     -13.195  20.846  28.381  1.00  0.00     0.278 C 
ENDBRANCH   5  10
BRANCH   6  12
ATOM     12  O   UNL     1     -10.253  20.396  25.456  1.00  0.00    -0.504 OA
ATOM     13  H   UNL     1      -9.955  21.203  25.991  1.00  0.00     0.293 HD
ENDBRANCH   6  12
TORSDOF 3
ENDMDL
MODEL 7
REMARK VINA RESULT:    -4.595      6.069      8.787
REMARK INTER + INTRA:          -5.341
REMARK INTER:                  -5.264
REMARK INTRA:                  -0.078
REMARK UNBOUND:                -0.075
REMARK SMILES COc1cc(C(=O)[O-])ccc1O
REMARK SMILES IDX 5 1 9 2 4 3 10 4 3 5 11 6 6 7 7 8 8 9 2 10 1 11 12 12
REMARK H PARENT 12 13
REMARK Flexibility Score: inf
ROOT
ATOM      1  C   UNL     1     -11.083  16.007  26.264  1.00  0.00     0.001 A 
ATOM      2  C   UNL     1     -10.182  17.085  26.300  1.00  0.00     0.014 A 
ATOM      3  C   UNL     1     -12.394  16.227  25.804  1.00  0.00     0.060 A 
ATOM      4  C   UNL     1     -10.583  18.356  25.886  1.00  0.00     0.051 A 
ATOM      5  C   UNL     1     -12.802  17.509  25.385  1.00  0.00     0.161 A 
ATOM      6  C   UNL     1     -11.890  18.571  25.429  1.00  0.00     0.157 A 
ENDROOT
BRANCH   1   7
ATOM      7  C   UNL     1     -10.660  14.657  26.702  1.00  0.00     0.072 C 
ATOM      8  O   UNL     1     -10.062  13.884  25.907  1.00  0.00    -0.545 OA
ATOM      9  O   UNL     1     -10.917  14.224  27.997  1.00  0.00    -0.545 OA
ENDBRANCH   1   7
BRANCH   5  10
ATOM     10  O   UNL     1     -14.103  17.765  24.922  1.00  0.00    -0.493 OA
ATOM     11  C   UNL     1     -14.926  16.812  24.256  1.00  0.00     0.278 C 
ENDBRANCH   5  10
BRANCH   6  12
ATOM     12  O   UNL     1     -12.288  19.841  25.015  1.00  0.00    -0.504 OA
ATOM     13  H   UNL     1     -13.180  19.995  24.560  1.00  0.00     0.293 HD
ENDBRANCH   6  12
TORSDOF 3
ENDMDL
MODEL 8
REMARK VINA RESULT:    -4.590      1.922      2.116
REMARK INTER + INTRA:          -5.336
REMARK INTER:                  -5.233
REMARK INTRA:                  -0.102
REMARK UNBOUND:                -0.075
REMARK SMILES COc1cc(C(=O)[O-])ccc1O
REMARK SMILES IDX 5 1 9 2 4 3 10 4 3 5 11 6 6 7 7 8 8 9 2 10 1 11 12 12
REMARK H PARENT 12 13
REMARK Flexibility Score: inf
ROOT
ATOM      1  C   UNL     1      -8.621  11.975  24.523  1.00  0.00     0.001 A 
ATOM      2  C   UNL     1      -7.695  12.194  25.556  1.00  0.00     0.014 A 
ATOM      3  C   UNL     1      -8.301  11.065  23.500  1.00  0.00     0.060 A 
ATOM      4  C   UNL     1      -6.474  11.517  25.567  1.00  0.00     0.051 A 
ATOM      5  C   UNL     1      -7.070  10.379  23.507  1.00  0.00     0.161 A 
ATOM      6  C   UNL     1      -6.159  10.611  24.546  1.00  0.00     0.157 A 
ENDROOT
BRANCH   1   7
ATOM      7  C   UNL     1      -9.917  12.691  24.508  1.00  0.00     0.072 C 
ATOM      8  O   UNL     1     -10.651  12.667  23.485  1.00  0.00    -0.545 OA
ATOM      9  O   UNL     1     -10.342  13.401  25.625  1.00  0.00    -0.545 OA
ENDBRANCH   1   7
BRANCH   5  10
ATOM     10  O   UNL     1      -6.717   9.464  22.503  1.00  0.00    -0.493 OA
ATOM     11  C   UNL     1      -7.164   8.113  22.447  1.00  0.00     0.278 C 
ENDBRANCH   5  10
BRANCH   6  12
ATOM     12  O   UNL     1      -4.940   9.935  24.560  1.00  0.00    -0.504 OA
ATOM     13  H   UNL     1      -4.373   9.881  25.397  1.00  0.00     0.293 HD
ENDBRANCH   6  12
TORSDOF 3
ENDMDL
MODEL 9
REMARK VINA RESULT:    -4.530      8.680     11.115
REMARK INTER + INTRA:          -5.267
REMARK INTER:                  -5.169
REMARK INTRA:                  -0.098
REMARK UNBOUND:                -0.075
REMARK SMILES COc1cc(C(=O)[O-])ccc1O
REMARK SMILES IDX 5 1 9 2 4 3 10 4 3 5 11 6 6 7 7 8 8 9 2 10 1 11 12 12
REMARK H PARENT 12 13
REMARK Flexibility Score: inf
ROOT
ATOM      1  C   UNL     1     -16.700  17.668  23.323  1.00  0.00     0.001 A 
ATOM      2  C   UNL     1     -16.595  17.175  22.011  1.00  0.00     0.014 A 
ATOM      3  C   UNL     1     -15.685  17.369  24.249  1.00  0.00     0.060 A 
ATOM      4  C   UNL     1     -15.499  16.397  21.634  1.00  0.00     0.051 A 
ATOM      5  C   UNL     1     -14.577  16.585  23.872  1.00  0.00     0.161 A 
ATOM      6  C   UNL     1     -14.491  16.100  22.560  1.00  0.00     0.157 A 
ENDROOT
BRANCH   1   7
ATOM      7  C   UNL     1     -17.861  18.494  23.726  1.00  0.00     0.072 C 
ATOM      8  O   UNL     1     -17.729  19.410  24.581  1.00  0.00    -0.545 OA
ATOM      9  O   UNL     1     -19.113  18.271  23.166  1.00  0.00    -0.545 OA
ENDBRANCH   1   7
BRANCH   5  10
ATOM     10  O   UNL     1     -13.545  16.265  24.770  1.00  0.00    -0.493 OA
ATOM     11  C   UNL     1     -12.457  17.126  25.089  1.00  0.00     0.278 C 
ENDBRANCH   5  10
BRANCH   6  12
ATOM     12  O   UNL     1     -13.397  15.324  22.180  1.00  0.00    -0.504 OA
ATOM     13  H   UNL     1     -13.122  15.233  21.209  1.00  0.00     0.293 HD
ENDBRANCH   6  12
TORSDOF 3
ENDMDL
