MODEL 1
REMARK VINA RESULT:    -4.918      0.000      0.000
REMARK INTER + INTRA:          -9.316
REMARK INTER:                  -8.369
REMARK INTRA:                  -0.947
REMARK UNBOUND:                -0.947
REMARK SMILES CCCCCCCCCCCCCC(=O)[O-]
REMARK SMILES IDX 8 1 9 2 10 3 11 4 12 5 13 6 14 7 15 8 16 9 7 10 6 11 5 12
REMARK SMILES IDX 4 13 3 14 2 15 1 16
REMARK H PARENT
REMARK Flexibility Score: inf
ROOT
ATOM      1  C   UNL     1      18.586   7.751  48.622  1.00  0.00     0.000 C 
ENDROOT
BRANCH   1   2
ATOM      2  C   UNL     1      17.526   6.997  49.440  1.00  0.00     0.000 C 
BRANCH   2   3
ATOM      3  C   UNL     1      16.350   7.915  49.794  1.00  0.00     0.000 C 
BRANCH   3   4
ATOM      4  C   UNL     1      15.008   7.207  49.549  1.00  0.00     0.000 C 
BRANCH   4   5
ATOM      5  C   UNL     1      14.692   7.029  48.053  1.00  0.00     0.006 C 
BRANCH   5   6
ATOM      6  C   UNL     1      14.933   8.286  47.201  1.00  0.00     0.053 C 
BRANCH   6   7
ATOM      7  C   UNL     1      15.766   7.992  45.992  1.00  0.00     0.041 C 
ATOM      8  O   UNL     1      15.401   8.395  44.856  1.00  0.00    -0.550 OA
ATOM      9  O   UNL     1      16.930   7.244  46.115  1.00  0.00    -0.550 OA
ENDBRANCH   6   7
ENDBRANCH   5   6
ENDBRANCH   4   5
ENDBRANCH   3   4
ENDBRANCH   2   3
ENDBRANCH   1   2
BRANCH   1  10
ATOM     10  C   UNL     1      19.717   8.314  49.497  1.00  0.00     0.000 C 
BRANCH  10  11
ATOM     11  C   UNL     1      19.949   9.818  49.268  1.00  0.00    -0.000 C 
BRANCH  11  12
ATOM     12  C   UNL     1      19.584  10.666  50.497  1.00  0.00    -0.000 C 
BRANCH  12  13
ATOM     13  C   UNL     1      18.251  10.242  51.132  1.00  0.00    -0.000 C 
BRANCH  13  14
ATOM     14  C   UNL     1      18.429   9.929  52.625  1.00  0.00    -0.000 C 
BRANCH  14  15
ATOM     15  C   UNL     1      18.798   8.458  52.880  1.00  0.00    -0.003 C 
ATOM     16  C   UNL     1      20.036   8.303  53.761  1.00  0.00     0.004 C 
ENDBRANCH  14  15
ENDBRANCH  13  14
ENDBRANCH  12  13
ENDBRANCH  11  12
ENDBRANCH  10  11
ENDBRANCH   1  10
TORSDOF 12
ENDMDL
MODEL 2
REMARK VINA RESULT:    -4.697      2.260      3.716
REMARK INTER + INTRA:          -8.939
REMARK INTER:                  -8.378
REMARK INTRA:                  -0.560
REMARK UNBOUND:                -0.947
REMARK SMILES CCCCCCCCCCCCCC(=O)[O-]
REMARK SMILES IDX 8 1 9 2 10 3 11 4 12 5 13 6 14 7 15 8 16 9 7 10 6 11 5 12
REMARK SMILES IDX 4 13 3 14 2 15 1 16
REMARK H PARENT
REMARK Flexibility Score: inf
ROOT
ATOM      1  C   UNL     1      18.673   9.598  51.298  1.00  0.00     0.000 C 
ENDROOT
BRANCH   1   2
ATOM      2  C   UNL     1      17.418   9.350  50.447  1.00  0.00     0.000 C 
BRANCH   2   3
ATOM      3  C   UNL     1      17.348   7.890  49.984  1.00  0.00     0.000 C 
BRANCH   3   4
ATOM      4  C   UNL     1      15.922   7.335  50.127  1.00  0.00     0.000 C 
BRANCH   4   5
ATOM      5  C   UNL     1      15.268   7.013  48.771  1.00  0.00     0.006 C 
BRANCH   5   6
ATOM      6  C   UNL     1      15.352   8.151  47.741  1.00  0.00     0.053 C 
BRANCH   6   7
ATOM      7  C   UNL     1      16.142   7.755  46.533  1.00  0.00     0.041 C 
ATOM      8  O   UNL     1      17.166   7.031  46.653  1.00  0.00    -0.550 OA
ATOM      9  O   UNL     1      15.768   8.213  45.276  1.00  0.00    -0.550 OA
ENDBRANCH   6   7
ENDBRANCH   5   6
ENDBRANCH   4   5
ENDBRANCH   3   4
ENDBRANCH   2   3
ENDBRANCH   1   2
BRANCH   1  10
ATOM     10  C   UNL     1      19.923   8.917  50.719  1.00  0.00     0.000 C 
BRANCH  10  11
ATOM     11  C   UNL     1      20.350   9.516  49.367  1.00  0.00    -0.000 C 
BRANCH  11  12
ATOM     12  C   UNL     1      20.491  11.045  49.417  1.00  0.00    -0.000 C 
BRANCH  12  13
ATOM     13  C   UNL     1      21.929  11.515  49.152  1.00  0.00    -0.000 C 
BRANCH  13  14
ATOM     14  C   UNL     1      22.169  12.911  49.747  1.00  0.00    -0.000 C 
BRANCH  14  15
ATOM     15  C   UNL     1      23.095  13.773  48.875  1.00  0.00    -0.003 C 
ATOM     16  C   UNL     1      23.895  12.950  47.867  1.00  0.00     0.004 C 
ENDBRANCH  14  15
ENDBRANCH  13  14
ENDBRANCH  12  13
ENDBRANCH  11  12
ENDBRANCH  10  11
ENDBRANCH   1  10
TORSDOF 12
ENDMDL
MODEL 3
REMARK VINA RESULT:    -4.549      4.123      7.221
REMARK INTER + INTRA:          -8.687
REMARK INTER:                  -7.958
REMARK INTRA:                  -0.728
REMARK UNBOUND:                -0.947
REMARK SMILES CCCCCCCCCCCCCC(=O)[O-]
REMARK SMILES IDX 8 1 9 2 10 3 11 4 12 5 13 6 14 7 15 8 16 9 7 10 6 11 5 12
REMARK SMILES IDX 4 13 3 14 2 15 1 16
REMARK H PARENT
REMARK Flexibility Score: inf
ROOT
ATOM      1  C   UNL     1      18.788   9.678  51.179  1.00  0.00     0.000 C 
ENDROOT
BRANCH   1   2
ATOM      2  C   UNL     1      19.953   8.917  50.525  1.00  0.00     0.000 C 
BRANCH   2   3
ATOM      3  C   UNL     1      20.521   9.701  49.335  1.00  0.00     0.000 C 
BRANCH   3   4
ATOM      4  C   UNL     1      20.790  11.164  49.718  1.00  0.00     0.000 C 
BRANCH   4   5
ATOM      5  C   UNL     1      21.974  11.775  48.947  1.00  0.00     0.006 C 
BRANCH   5   6
ATOM      6  C   UNL     1      22.946  12.586  49.818  1.00  0.00     0.053 C 
BRANCH   6   7
ATOM      7  C   UNL     1      24.285  12.742  49.167  1.00  0.00     0.041 C 
ATOM      8  O   UNL     1      24.722  11.850  48.392  1.00  0.00    -0.550 OA
ATOM      9  O   UNL     1      25.066  13.858  49.439  1.00  0.00    -0.550 OA
ENDBRANCH   6   7
ENDBRANCH   5   6
ENDBRANCH   4   5
ENDBRANCH   3   4
ENDBRANCH   2   3
ENDBRANCH   1   2
BRANCH   1  10
ATOM     10  C   UNL     1      17.454   9.453  50.450  1.00  0.00     0.000 C 
BRANCH  10  11
ATOM     11  C   UNL     1      17.347   8.048  49.831  1.00  0.00    -0.000 C 
BRANCH  11  12
ATOM     12  C   UNL     1      15.933   7.458  49.946  1.00  0.00    -0.000 C 
BRANCH  12  13
ATOM     13  C   UNL     1      15.464   6.789  48.645  1.00  0.00    -0.000 C 
BRANCH  13  14
ATOM     14  C   UNL     1      16.410   7.125  47.483  1.00  0.00    -0.000 C 
BRANCH  14  15
ATOM     15  C   UNL     1      15.765   8.060  46.448  1.00  0.00    -0.003 C 
ATOM     16  C   UNL     1      14.267   8.251  46.676  1.00  0.00     0.004 C 
ENDBRANCH  14  15
ENDBRANCH  13  14
ENDBRANCH  12  13
ENDBRANCH  11  12
ENDBRANCH  10  11
ENDBRANCH   1  10
TORSDOF 12
ENDMDL
MODEL 4
REMARK VINA RESULT:    -4.539      5.010      7.334
REMARK INTER + INTRA:          -8.670
REMARK INTER:                  -7.910
REMARK INTRA:                  -0.760
REMARK UNBOUND:                -0.947
REMARK SMILES CCCCCCCCCCCCCC(=O)[O-]
REMARK SMILES IDX 8 1 9 2 10 3 11 4 12 5 13 6 14 7 15 8 16 9 7 10 6 11 5 12
REMARK SMILES IDX 4 13 3 14 2 15 1 16
REMARK H PARENT
REMARK Flexibility Score: inf
ROOT
ATOM      1  C   UNL     1      20.654  10.911  49.551  1.00  0.00     0.000 C 
ENDROOT
BRANCH   1   2
ATOM      2  C   UNL     1      21.926  11.615  49.054  1.00  0.00     0.000 C 
BRANCH   2   3
ATOM      3  C   UNL     1      22.196  12.893  49.857  1.00  0.00     0.000 C 
BRANCH   3   4
ATOM      4  C   UNL     1      23.224  13.784  49.142  1.00  0.00     0.000 C 
BRANCH   4   5
ATOM      5  C   UNL     1      23.842  13.107  47.904  1.00  0.00     0.006 C 
BRANCH   5   6
ATOM      6  C   UNL     1      25.202  13.685  47.480  1.00  0.00     0.053 C 
BRANCH   6   7
ATOM      7  C   UNL     1      25.756  12.986  46.277  1.00  0.00     0.041 C 
ATOM      8  O   UNL     1      26.735  13.475  45.654  1.00  0.00    -0.550 OA
ATOM      9  O   UNL     1      25.172  11.810  45.825  1.00  0.00    -0.550 OA
ENDBRANCH   6   7
ENDBRANCH   5   6
ENDBRANCH   4   5
ENDBRANCH   3   4
ENDBRANCH   2   3
ENDBRANCH   1   2
BRANCH   1  10
ATOM     10  C   UNL     1      20.572   9.446  49.093  1.00  0.00     0.000 C 
BRANCH  10  11
ATOM     11  C   UNL     1      19.295   8.742  49.586  1.00  0.00    -0.000 C 
BRANCH  11  12
ATOM     12  C   UNL     1      18.130   9.720  49.807  1.00  0.00    -0.000 C 
BRANCH  12  13
ATOM     13  C   UNL     1      17.627   9.721  51.259  1.00  0.00    -0.000 C 
BRANCH  13  14
ATOM     14  C   UNL     1      18.328   8.630  52.083  1.00  0.00    -0.000 C 
BRANCH  14  15
ATOM     15  C   UNL     1      19.032   9.193  53.329  1.00  0.00    -0.003 C 
ATOM     16  C   UNL     1      20.112   8.258  53.870  1.00  0.00     0.004 C 
ENDBRANCH  14  15
ENDBRANCH  13  14
ENDBRANCH  12  13
ENDBRANCH  11  12
ENDBRANCH  10  11
ENDBRANCH   1  10
TORSDOF 12
ENDMDL
MODEL 5
REMARK VINA RESULT:    -4.510      3.211      4.376
REMARK INTER + INTRA:          -8.622
REMARK INTER:                  -8.005
REMARK INTRA:                  -0.617
REMARK UNBOUND:                -0.947
REMARK SMILES CCCCCCCCCCCCCC(=O)[O-]
REMARK SMILES IDX 8 1 9 2 10 3 11 4 12 5 13 6 14 7 15 8 16 9 7 10 6 11 5 12
REMARK SMILES IDX 4 13 3 14 2 15 1 16
REMARK H PARENT
REMARK Flexibility Score: inf
ROOT
ATOM      1  C   UNL     1      19.973   9.703  50.074  1.00  0.00     0.000 C 
ENDROOT
BRANCH   1   2
ATOM      2  C   UNL     1      18.808  10.358  50.832  1.00  0.00     0.000 C 
BRANCH   2   3
ATOM      3  C   UNL     1      17.607   9.408  50.920  1.00  0.00     0.000 C 
BRANCH   3   4
ATOM      4  C   UNL     1      17.833   8.155  50.060  1.00  0.00     0.000 C 
BRANCH   4   5
ATOM      5  C   UNL     1      16.550   7.328  49.861  1.00  0.00     0.006 C 
BRANCH   5   6
ATOM      6  C   UNL     1      16.342   6.816  48.427  1.00  0.00     0.053 C 
BRANCH   6   7
ATOM      7  C   UNL     1      15.297   7.603  47.698  1.00  0.00     0.041 C 
ATOM      8  O   UNL     1      14.108   7.190  47.653  1.00  0.00    -0.550 OA
ATOM      9  O   UNL     1      15.642   8.777  47.042  1.00  0.00    -0.550 OA
ENDBRANCH   6   7
ENDBRANCH   5   6
ENDBRANCH   4   5
ENDBRANCH   3   4
ENDBRANCH   2   3
ENDBRANCH   1   2
BRANCH   1  10
ATOM     10  C   UNL     1      20.615  10.648  49.047  1.00  0.00     0.000 C 
BRANCH  10  11
ATOM     11  C   UNL     1      21.678  11.569  49.674  1.00  0.00    -0.000 C 
BRANCH  11  12
ATOM     12  C   UNL     1      22.422  12.411  48.625  1.00  0.00    -0.000 C 
BRANCH  12  13
ATOM     13  C   UNL     1      22.932  13.745  49.191  1.00  0.00    -0.000 C 
BRANCH  13  14
ATOM     14  C   UNL     1      22.790  13.782  50.720  1.00  0.00    -0.000 C 
BRANCH  14  15
ATOM     15  C   UNL     1      24.148  13.758  51.440  1.00  0.00    -0.003 C 
ATOM     16  C   UNL     1      25.111  14.826  50.923  1.00  0.00     0.004 C 
ENDBRANCH  14  15
ENDBRANCH  13  14
ENDBRANCH  12  13
ENDBRANCH  11  12
ENDBRANCH  10  11
ENDBRANCH   1  10
TORSDOF 12
ENDMDL
MODEL 6
REMARK VINA RESULT:    -4.504      8.231      9.251
REMARK INTER + INTRA:          -8.611
REMARK INTER:                  -8.079
REMARK INTRA:                  -0.532
REMARK UNBOUND:                -0.947
REMARK SMILES CCCCCCCCCCCCCC(=O)[O-]
REMARK SMILES IDX 8 1 9 2 10 3 11 4 12 5 13 6 14 7 15 8 16 9 7 10 6 11 5 12
REMARK SMILES IDX 4 13 3 14 2 15 1 16
REMARK H PARENT
REMARK Flexibility Score: inf
ROOT
ATOM      1  C   UNL     1      18.043  -1.306  47.782  1.00  0.00     0.000 C 
ENDROOT
BRANCH   1   2
ATOM      2  C   UNL     1      16.760  -1.404  46.942  1.00  0.00     0.000 C 
BRANCH   2   3
ATOM      3  C   UNL     1      15.523  -1.521  47.840  1.00  0.00     0.000 C 
BRANCH   3   4
ATOM      4  C   UNL     1      14.964  -0.133  48.191  1.00  0.00     0.000 C 
BRANCH   4   5
ATOM      5  C   UNL     1      14.994   0.841  46.998  1.00  0.00     0.006 C 
BRANCH   5   6
ATOM      6  C   UNL     1      13.687   1.621  46.786  1.00  0.00     0.053 C 
BRANCH   6   7
ATOM      7  C   UNL     1      13.000   1.227  45.515  1.00  0.00     0.041 C 
ATOM      8  O   UNL     1      12.354   2.081  44.852  1.00  0.00    -0.550 OA
ATOM      9  O   UNL     1      13.047  -0.090  45.078  1.00  0.00    -0.550 OA
ENDBRANCH   6   7
ENDBRANCH   5   6
ENDBRANCH   4   5
ENDBRANCH   3   4
ENDBRANCH   2   3
ENDBRANCH   1   2
BRANCH   1  10
ATOM     10  C   UNL     1      19.196  -0.630  47.024  1.00  0.00     0.000 C 
BRANCH  10  11
ATOM     11  C   UNL     1      19.956   0.390  47.890  1.00  0.00    -0.000 C 
BRANCH  11  12
ATOM     12  C   UNL     1      21.330   0.754  47.304  1.00  0.00    -0.000 C 
BRANCH  12  13
ATOM     13  C   UNL     1      22.404   0.939  48.387  1.00  0.00    -0.000 C 
BRANCH  13  14
ATOM     14  C   UNL     1      23.559  -0.053  48.189  1.00  0.00    -0.000 C 
BRANCH  14  15
ATOM     15  C   UNL     1      24.541  -0.059  49.372  1.00  0.00    -0.003 C 
ATOM     16  C   UNL     1      25.129  -1.442  49.646  1.00  0.00     0.004 C 
ENDBRANCH  14  15
ENDBRANCH  13  14
ENDBRANCH  12  13
ENDBRANCH  11  12
ENDBRANCH  10  11
ENDBRANCH   1  10
TORSDOF 12
ENDMDL
MODEL 7
REMARK VINA RESULT:    -4.494      3.383      4.871
REMARK INTER + INTRA:          -8.595
REMARK INTER:                  -8.057
REMARK INTRA:                  -0.538
REMARK UNBOUND:                -0.947
REMARK SMILES CCCCCCCCCCCCCC(=O)[O-]
REMARK SMILES IDX 8 1 9 2 10 3 11 4 12 5 13 6 14 7 15 8 16 9 7 10 6 11 5 12
REMARK SMILES IDX 4 13 3 14 2 15 1 16
REMARK H PARENT
REMARK Flexibility Score: inf
ROOT
ATOM      1  C   UNL     1      19.157  10.388  50.091  1.00  0.00     0.000 C 
ENDROOT
BRANCH   1   2
ATOM      2  C   UNL     1      19.097   9.393  51.261  1.00  0.00     0.000 C 
BRANCH   2   3
ATOM      3  C   UNL     1      17.972   8.371  51.056  1.00  0.00     0.000 C 
BRANCH   3   4
ATOM      4  C   UNL     1      17.238   8.621  49.730  1.00  0.00     0.000 C 
BRANCH   4   5
ATOM      5  C   UNL     1      16.842   7.318  49.012  1.00  0.00     0.006 C 
BRANCH   5   6
ATOM      6  C   UNL     1      16.303   7.519  47.586  1.00  0.00     0.053 C 
BRANCH   6   7
ATOM      7  C   UNL     1      14.807   7.473  47.542  1.00  0.00     0.041 C 
ATOM      8  O   UNL     1      14.174   8.185  46.717  1.00  0.00    -0.550 OA
ATOM      9  O   UNL     1      14.109   6.667  48.432  1.00  0.00    -0.550 OA
ENDBRANCH   6   7
ENDBRANCH   5   6
ENDBRANCH   4   5
ENDBRANCH   3   4
ENDBRANCH   2   3
ENDBRANCH   1   2
BRANCH   1  10
ATOM     10  C   UNL     1      20.508  10.360  49.361  1.00  0.00     0.000 C 
BRANCH  10  11
ATOM     11  C   UNL     1      21.440  11.506  49.796  1.00  0.00    -0.000 C 
BRANCH  11  12
ATOM     12  C   UNL     1      22.127  12.193  48.606  1.00  0.00    -0.000 C 
BRANCH  12  13
ATOM     13  C   UNL     1      22.935  13.431  49.023  1.00  0.00    -0.000 C 
BRANCH  13  14
ATOM     14  C   UNL     1      23.997  13.775  47.968  1.00  0.00    -0.000 C 
BRANCH  14  15
ATOM     15  C   UNL     1      24.521  12.532  47.231  1.00  0.00    -0.003 C 
ATOM     16  C   UNL     1      25.600  12.865  46.201  1.00  0.00     0.004 C 
ENDBRANCH  14  15
ENDBRANCH  13  14
ENDBRANCH  12  13
ENDBRANCH  11  12
ENDBRANCH  10  11
ENDBRANCH   1  10
TORSDOF 12
ENDMDL
MODEL 8
REMARK VINA RESULT:    -4.480      5.068      8.089
REMARK INTER + INTRA:          -8.570
REMARK INTER:                  -8.140
REMARK INTRA:                  -0.430
REMARK UNBOUND:                -0.947
REMARK SMILES CCCCCCCCCCCCCC(=O)[O-]
REMARK SMILES IDX 8 1 9 2 10 3 11 4 12 5 13 6 14 7 15 8 16 9 7 10 6 11 5 12
REMARK SMILES IDX 4 13 3 14 2 15 1 16
REMARK H PARENT
REMARK Flexibility Score: inf
ROOT
ATOM      1  C   UNL     1      20.409   9.615  49.791  1.00  0.00     0.000 C 
ENDROOT
BRANCH   1   2
ATOM      2  C   UNL     1      20.630  10.986  49.133  1.00  0.00     0.000 C 
BRANCH   2   3
ATOM      3  C   UNL     1      21.917  11.641  49.648  1.00  0.00     0.000 C 
BRANCH   3   4
ATOM      4  C   UNL     1      22.481  12.630  48.616  1.00  0.00     0.000 C 
BRANCH   4   5
ATOM      5  C   UNL     1      23.190  13.832  49.266  1.00  0.00     0.006 C 
BRANCH   5   6
ATOM      6  C   UNL     1      23.167  13.824  50.803  1.00  0.00     0.053 C 
BRANCH   6   7
ATOM      7  C   UNL     1      24.513  14.127  51.385  1.00  0.00     0.041 C 
ATOM      8  O   UNL     1      25.480  14.418  50.631  1.00  0.00    -0.550 OA
ATOM      9  O   UNL     1      24.710  14.056  52.758  1.00  0.00    -0.550 OA
ENDBRANCH   6   7
ENDBRANCH   5   6
ENDBRANCH   4   5
ENDBRANCH   3   4
ENDBRANCH   2   3
ENDBRANCH   1   2
BRANCH   1  10
ATOM     10  C   UNL     1      19.120   9.561  50.625  1.00  0.00     0.000 C 
BRANCH  10  11
ATOM     11  C   UNL     1      18.460   8.170  50.605  1.00  0.00    -0.000 C 
BRANCH  11  12
ATOM     12  C   UNL     1      16.956   8.235  50.295  1.00  0.00    -0.000 C 
BRANCH  12  13
ATOM     13  C   UNL     1      16.468   7.026  49.481  1.00  0.00    -0.000 C 
BRANCH  13  14
ATOM     14  C   UNL     1      14.943   7.067  49.299  1.00  0.00    -0.000 C 
BRANCH  14  15
ATOM     15  C   UNL     1      14.526   7.096  47.820  1.00  0.00    -0.003 C 
ATOM     16  C   UNL     1      15.103   8.292  47.065  1.00  0.00     0.004 C 
ENDBRANCH  14  15
ENDBRANCH  13  14
ENDBRANCH  12  13
ENDBRANCH  11  12
ENDBRANCH  10  11
ENDBRANCH   1  10
TORSDOF 12
ENDMDL
MODEL 9
REMARK VINA RESULT:    -4.302      8.247      9.823
REMARK INTER + INTRA:          -8.267
REMARK INTER:                  -7.539
REMARK INTRA:                  -0.728
REMARK UNBOUND:                -0.947
REMARK SMILES CCCCCCCCCCCCCC(=O)[O-]
REMARK SMILES IDX 8 1 9 2 10 3 11 4 12 5 13 6 14 7 15 8 16 9 7 10 6 11 5 12
REMARK SMILES IDX 4 13 3 14 2 15 1 16
REMARK H PARENT
REMARK Flexibility Score: inf
ROOT
ATOM      1  C   UNL     1      15.610  -0.010  47.879  1.00  0.00     0.000 C 
ENDROOT
BRANCH   1   2
ATOM      2  C   UNL     1      14.490   0.805  48.545  1.00  0.00     0.000 C 
BRANCH   2   3
ATOM      3  C   UNL     1      13.822   1.747  47.537  1.00  0.00     0.000 C 
BRANCH   3   4
ATOM      4  C   UNL     1      12.943   0.963  46.550  1.00  0.00     0.000 C 
BRANCH   4   5
ATOM      5  C   UNL     1      12.653   1.746  45.257  1.00  0.00     0.006 C 
BRANCH   5   6
ATOM      6  C   UNL     1      11.250   1.508  44.675  1.00  0.00     0.053 C 
BRANCH   6   7
ATOM      7  C   UNL     1      11.224   0.342  43.736  1.00  0.00     0.041 C 
ATOM      8  O   UNL     1      12.260   0.018  43.097  1.00  0.00    -0.550 OA
ATOM      9  O   UNL     1      10.047  -0.369  43.542  1.00  0.00    -0.550 OA
ENDBRANCH   6   7
ENDBRANCH   5   6
ENDBRANCH   4   5
ENDBRANCH   3   4
ENDBRANCH   2   3
ENDBRANCH   1   2
BRANCH   1  10
ATOM     10  C   UNL     1      15.350  -1.524  47.932  1.00  0.00     0.000 C 
BRANCH  10  11
ATOM     11  C   UNL     1      16.556  -2.349  47.450  1.00  0.00    -0.000 C 
BRANCH  11  12
ATOM     12  C   UNL     1      17.897  -1.644  47.714  1.00  0.00    -0.000 C 
BRANCH  12  13
ATOM     13  C   UNL     1      18.826  -1.665  46.491  1.00  0.00    -0.000 C 
BRANCH  13  14
ATOM     14  C   UNL     1      20.069  -0.795  46.732  1.00  0.00    -0.000 C 
BRANCH  14  15
ATOM     15  C   UNL     1      19.853   0.249  47.839  1.00  0.00    -0.003 C 
ATOM     16  C   UNL     1      21.149   0.938  48.263  1.00  0.00     0.004 C 
ENDBRANCH  14  15
ENDBRANCH  13  14
ENDBRANCH  12  13
ENDBRANCH  11  12
ENDBRANCH  10  11
ENDBRANCH   1  10
TORSDOF 12
ENDMDL
