MODEL 1
REMARK VINA RESULT:    33.915      0.000      0.000
REMARK INTER + INTRA:          36.889
REMARK INTER:                  36.889
REMARK INTRA:                   0.000
REMARK UNBOUND:                 0.000
REMARK SMILES Cc1cc(O)c2c(c1)C(=O)c1cc(O)cc(O)c1C2=O
REMARK SMILES IDX 1 1 2 2 8 3 7 4 6 5 4 6 3 7 19 8 20 9 18 10 11 11 9 12 10 13
REMARK SMILES IDX 12 14 13 15 15 16 16 17 5 18 17 20 14 22
REMARK H PARENT 5 19 17 21 14 23
REMARK Flexibility Score: inf
ROOT
ATOM      1  C   UNL     1       4.238   0.640   4.127  1.00  0.00     0.044 C 
ATOM      2  C   UNL     1       3.671   0.138   2.830  1.00  0.00    -0.047 A 
ATOM      3  C   UNL     1       2.303  -0.129   2.717  1.00  0.00     0.016 A 
ATOM      4  C   UNL     1       1.768  -0.626   1.517  1.00  0.00     0.038 A 
ATOM      5  C   UNL     1       2.616  -0.858   0.411  1.00  0.00     0.076 A 
ATOM      6  C   UNL     1       4.014  -0.665   0.560  1.00  0.00     0.127 A 
ATOM      7  C   UNL     1       4.520  -0.151   1.757  1.00  0.00     0.050 A 
ATOM      8  C   UNL     1       1.995  -1.241  -0.883  1.00  0.00     0.201 C 
ATOM      9  O   UNL     1       2.550  -0.914  -1.965  1.00  0.00    -0.288 OA
ATOM     10  C   UNL     1       0.634  -1.838  -0.900  1.00  0.00     0.076 A 
ATOM     11  C   UNL     1      -0.211  -1.606   0.209  1.00  0.00     0.041 A 
ATOM     12  C   UNL     1       0.318  -0.914   1.408  1.00  0.00     0.194 C 
ATOM     13  O   UNL     1      -0.463  -0.594   2.346  1.00  0.00    -0.289 OA
ATOM     14  C   UNL     1      -1.548  -2.037   0.170  1.00  0.00     0.059 A 
ATOM     15  C   UNL     1      -2.045  -2.707  -0.951  1.00  0.00     0.120 A 
ATOM     16  C   UNL     1      -1.204  -2.974  -2.030  1.00  0.00     0.093 A 
ATOM     17  C   UNL     1       0.137  -2.574  -2.008  1.00  0.00     0.131 A 
ENDROOT
BRANCH   6  18
ATOM     18  O   UNL     1       4.933  -1.003  -0.436  1.00  0.00    -0.507 OA
ATOM     19  H   UNL     1       5.513  -1.829  -0.404  1.00  0.00     0.293 HD
ENDBRANCH   6  18
BRANCH  17  20
ATOM     20  O   UNL     1       0.941  -2.956  -3.084  1.00  0.00    -0.507 OA
ATOM     21  H   UNL     1       0.587  -3.413  -3.912  1.00  0.00     0.293 HD
ENDBRANCH  17  20
BRANCH  15  22
ATOM     22  O   UNL     1      -3.374  -3.124  -0.998  1.00  0.00    -0.508 OA
ATOM     23  H   UNL     1      -3.637  -4.081  -0.791  1.00  0.00     0.293 HD
ENDBRANCH  15  22
TORSDOF 3
ENDMDL
MODEL 2
REMARK VINA RESULT:    34.630      1.386      1.710
REMARK INTER + INTRA:          37.667
REMARK INTER:                  37.667
REMARK INTRA:                   0.000
REMARK UNBOUND:                 0.000
REMARK SMILES Cc1cc(O)c2c(c1)C(=O)c1cc(O)cc(O)c1C2=O
REMARK SMILES IDX 1 1 2 2 8 3 7 4 6 5 4 6 3 7 19 8 20 9 18 10 11 11 9 12 10 13
REMARK SMILES IDX 12 14 13 15 15 16 16 17 5 18 17 20 14 22
REMARK H PARENT 5 19 17 21 14 23
REMARK Flexibility Score: inf
ROOT
ATOM      1  C   UNL     1       6.746  -1.231   2.977  1.00  0.00     0.044 C 
ATOM      2  C   UNL     1       5.693  -1.212   1.907  1.00  0.00    -0.047 A 
ATOM      3  C   UNL     1       4.338  -1.252   2.252  1.00  0.00     0.016 A 
ATOM      4  C   UNL     1       3.346  -1.263   1.257  1.00  0.00     0.038 A 
ATOM      5  C   UNL     1       3.716  -1.234  -0.106  1.00  0.00     0.076 A 
ATOM      6  C   UNL     1       5.092  -1.279  -0.450  1.00  0.00     0.127 A 
ATOM      7  C   UNL     1       6.061  -1.246   0.558  1.00  0.00     0.050 A 
ATOM      8  C   UNL     1       2.642  -1.097  -1.123  1.00  0.00     0.201 C 
ATOM      9  O   UNL     1       2.882  -0.514  -2.213  1.00  0.00    -0.288 OA
ATOM     10  C   UNL     1       1.247  -1.478  -0.779  1.00  0.00     0.076 A 
ATOM     11  C   UNL     1       0.881  -1.510   0.586  1.00  0.00     0.041 A 
ATOM     12  C   UNL     1       1.913  -1.314   1.632  1.00  0.00     0.194 C 
ATOM     13  O   UNL     1       1.572  -1.215   2.843  1.00  0.00    -0.289 OA
ATOM     14  C   UNL     1      -0.460  -1.731   0.945  1.00  0.00     0.059 A 
ATOM     15  C   UNL     1      -1.432  -1.935  -0.039  1.00  0.00     0.120 A 
ATOM     16  C   UNL     1      -1.068  -1.946  -1.384  1.00  0.00     0.093 A 
ATOM     17  C   UNL     1       0.263  -1.748  -1.767  1.00  0.00     0.131 A 
ENDROOT
BRANCH   6  18
ATOM     18  O   UNL     1       5.537  -1.392  -1.768  1.00  0.00    -0.507 OA
ATOM     19  H   UNL     1       6.335  -1.949  -2.043  1.00  0.00     0.293 HD
ENDBRANCH   6  18
BRANCH  17  20
ATOM     20  O   UNL     1       0.568  -1.863  -3.125  1.00  0.00    -0.507 OA
ATOM     21  H   UNL     1       1.399  -1.474  -3.546  1.00  0.00     0.293 HD
ENDBRANCH  17  20
BRANCH  15  22
ATOM     22  O   UNL     1      -2.765  -2.142   0.313  1.00  0.00    -0.508 OA
ATOM     23  H   UNL     1      -3.032  -2.852   0.984  1.00  0.00     0.293 HD
ENDBRANCH  15  22
TORSDOF 3
ENDMDL
MODEL 3
REMARK VINA RESULT:    34.737      1.736      6.269
REMARK INTER + INTRA:          37.783
REMARK INTER:                  37.783
REMARK INTRA:                   0.000
REMARK UNBOUND:                 0.000
REMARK SMILES Cc1cc(O)c2c(c1)C(=O)c1cc(O)cc(O)c1C2=O
REMARK SMILES IDX 1 1 2 2 8 3 7 4 6 5 4 6 3 7 19 8 20 9 18 10 11 11 9 12 10 13
REMARK SMILES IDX 12 14 13 15 15 16 16 17 5 18 17 20 14 22
REMARK H PARENT 5 19 17 21 14 23
REMARK Flexibility Score: inf
ROOT
ATOM      1  C   UNL     1      -1.748  -2.117  -3.125  1.00  0.00     0.044 C 
ATOM      2  C   UNL     1      -0.902  -2.010  -1.890  1.00  0.00    -0.047 A 
ATOM      3  C   UNL     1       0.429  -1.592  -1.983  1.00  0.00     0.016 A 
ATOM      4  C   UNL     1       1.237  -1.516  -0.836  1.00  0.00     0.038 A 
ATOM      5  C   UNL     1       0.704  -1.863   0.425  1.00  0.00     0.076 A 
ATOM      6  C   UNL     1      -0.621  -2.366   0.500  1.00  0.00     0.127 A 
ATOM      7  C   UNL     1      -1.412  -2.413  -0.652  1.00  0.00     0.050 A 
ATOM      8  C   UNL     1       1.540  -1.629   1.630  1.00  0.00     0.201 C 
ATOM      9  O   UNL     1       0.990  -1.366   2.732  1.00  0.00    -0.288 OA
ATOM     10  C   UNL     1       3.016  -1.520   1.495  1.00  0.00     0.076 A 
ATOM     11  C   UNL     1       3.547  -1.176   0.231  1.00  0.00     0.041 A 
ATOM     12  C   UNL     1       2.650  -1.080  -0.945  1.00  0.00     0.194 C 
ATOM     13  O   UNL     1       3.096  -0.651  -2.045  1.00  0.00    -0.289 OA
ATOM     14  C   UNL     1       4.924  -0.929   0.095  1.00  0.00     0.059 A 
ATOM     15  C   UNL     1       5.775  -1.037   1.198  1.00  0.00     0.120 A 
ATOM     16  C   UNL     1       5.262  -1.417   2.437  1.00  0.00     0.093 A 
ATOM     17  C   UNL     1       3.899  -1.687   2.595  1.00  0.00     0.131 A 
ENDROOT
BRANCH   6  18
ATOM     18  O   UNL     1      -1.174  -2.860   1.683  1.00  0.00    -0.507 OA
ATOM     19  H   UNL     1      -0.669  -2.913   2.557  1.00  0.00     0.293 HD
ENDBRANCH   6  18
BRANCH  17  20
ATOM     20  O   UNL     1       3.473  -2.150   3.841  1.00  0.00    -0.507 OA
ATOM     21  H   UNL     1       4.018  -2.060   4.687  1.00  0.00     0.293 HD
ENDBRANCH  17  20
BRANCH  15  22
ATOM     22  O   UNL     1       7.139  -0.781   1.070  1.00  0.00    -0.508 OA
ATOM     23  H   UNL     1       7.799  -1.517   0.847  1.00  0.00     0.293 HD
ENDBRANCH  15  22
TORSDOF 3
ENDMDL
