MODEL 1
REMARK VINA RESULT:    -3.281      0.000      0.000
REMARK INTER + INTRA:          -5.962
REMARK INTER:                  -5.007
REMARK INTRA:                  -0.955
REMARK UNBOUND:                -0.955
REMARK SMILES CCCCCCCCCCC(=O)[O-]
REMARK SMILES IDX 7 1 8 2 9 3 10 4 11 5 12 6 13 7 6 8 5 9 4 10 3 11 2 12 1 13
REMARK H PARENT
REMARK Flexibility Score: inf
ROOT
ATOM      1  C   UNL     1     -93.872 145.994 242.663  1.00  0.00     0.000 C 
ENDROOT
BRANCH   1   2
ATOM      2  C   UNL     1     -93.617 147.413 242.134  1.00  0.00     0.000 C 
BRANCH   2   3
ATOM      3  C   UNL     1     -94.903 148.251 242.039  1.00  0.00     0.006 C 
BRANCH   3   4
ATOM      4  C   UNL     1     -96.079 147.614 242.791  1.00  0.00     0.053 C 
BRANCH   4   5
ATOM      5  C   UNL     1     -96.829 148.655 243.562  1.00  0.00     0.041 C 
ATOM      6  O   UNL     1     -97.180 149.727 243.003  1.00  0.00    -0.550 OA
ATOM      7  O   UNL     1     -97.183 148.420 244.884  1.00  0.00    -0.550 OA
ENDBRANCH   4   5
ENDBRANCH   3   4
ENDBRANCH   2   3
ENDBRANCH   1   2
BRANCH   1   8
ATOM      8  C   UNL     1     -93.241 144.943 241.737  1.00  0.00     0.000 C 
BRANCH   8   9
ATOM      9  C   UNL     1     -92.055 145.496 240.930  1.00  0.00    -0.000 C 
BRANCH   9  10
ATOM     10  C   UNL     1     -92.231 145.303 239.414  1.00  0.00    -0.000 C 
BRANCH  10  11
ATOM     11  C   UNL     1     -93.702 145.386 238.976  1.00  0.00    -0.000 C 
BRANCH  11  12
ATOM     12  C   UNL     1     -93.938 146.444 237.888  1.00  0.00    -0.003 C 
ATOM     13  C   UNL     1     -94.585 147.697 238.471  1.00  0.00     0.004 C 
ENDBRANCH  11  12
ENDBRANCH  10  11
ENDBRANCH   9  10
ENDBRANCH   8   9
ENDBRANCH   1   8
TORSDOF 9
ENDMDL
MODEL 2
REMARK VINA RESULT:    -3.215      1.236      1.847
REMARK INTER + INTRA:          -5.862
REMARK INTER:                  -4.781
REMARK INTRA:                  -1.080
REMARK UNBOUND:                -0.955
REMARK SMILES CCCCCCCCCCC(=O)[O-]
REMARK SMILES IDX 7 1 8 2 9 3 10 4 11 5 12 6 13 7 6 8 5 9 4 10 3 11 2 12 1 13
REMARK H PARENT
REMARK Flexibility Score: inf
ROOT
ATOM      1  C   UNL     1     -95.412 145.653 243.081  1.00  0.00     0.000 C 
ENDROOT
BRANCH   1   2
ATOM      2  C   UNL     1     -96.283 146.731 242.419  1.00  0.00     0.000 C 
BRANCH   2   3
ATOM      3  C   UNL     1     -95.846 148.157 242.791  1.00  0.00     0.006 C 
BRANCH   3   4
ATOM      4  C   UNL     1     -97.012 149.155 242.775  1.00  0.00     0.053 C 
BRANCH   4   5
ATOM      5  C   UNL     1     -97.816 149.037 244.033  1.00  0.00     0.041 C 
ATOM      6  O   UNL     1     -97.261 148.692 245.108  1.00  0.00    -0.550 OA
ATOM      7  O   UNL     1     -99.167 149.358 244.026  1.00  0.00    -0.550 OA
ENDBRANCH   4   5
ENDBRANCH   3   4
ENDBRANCH   2   3
ENDBRANCH   1   2
BRANCH   1   8
ATOM      8  C   UNL     1     -93.919 145.973 242.908  1.00  0.00     0.000 C 
BRANCH   8   9
ATOM      9  C   UNL     1     -93.209 145.004 241.950  1.00  0.00    -0.000 C 
BRANCH   9  10
ATOM     10  C   UNL     1     -92.459 145.733 240.821  1.00  0.00    -0.000 C 
BRANCH  10  11
ATOM     11  C   UNL     1     -93.073 147.104 240.495  1.00  0.00    -0.000 C 
BRANCH  11  12
ATOM     12  C   UNL     1     -94.095 147.039 239.351  1.00  0.00    -0.003 C 
ATOM     13  C   UNL     1     -94.800 148.381 239.168  1.00  0.00     0.004 C 
ENDBRANCH  11  12
ENDBRANCH  10  11
ENDBRANCH   9  10
ENDBRANCH   8   9
ENDBRANCH   1   8
TORSDOF 9
ENDMDL
MODEL 3
REMARK VINA RESULT:    -3.184      1.420      1.903
REMARK INTER + INTRA:          -5.815
REMARK INTER:                  -4.681
REMARK INTRA:                  -1.133
REMARK UNBOUND:                -0.955
REMARK SMILES CCCCCCCCCCC(=O)[O-]
REMARK SMILES IDX 7 1 8 2 9 3 10 4 11 5 12 6 13 7 6 8 5 9 4 10 3 11 2 12 1 13
REMARK H PARENT
REMARK Flexibility Score: inf
ROOT
ATOM      1  C   UNL     1     -94.873 146.378 242.398  1.00  0.00     0.000 C 
ENDROOT
BRANCH   1   2
ATOM      2  C   UNL     1     -96.148 147.232 242.468  1.00  0.00     0.000 C 
BRANCH   2   3
ATOM      3  C   UNL     1     -95.859 148.699 242.825  1.00  0.00     0.006 C 
BRANCH   3   4
ATOM      4  C   UNL     1     -97.140 149.520 243.029  1.00  0.00     0.053 C 
BRANCH   4   5
ATOM      5  C   UNL     1     -97.953 148.947 244.148  1.00  0.00     0.041 C 
ATOM      6  O   UNL     1     -99.103 148.489 243.925  1.00  0.00    -0.550 OA
ATOM      7  O   UNL     1     -97.419 148.875 245.428  1.00  0.00    -0.550 OA
ENDBRANCH   4   5
ENDBRANCH   3   4
ENDBRANCH   2   3
ENDBRANCH   1   2
BRANCH   1   8
ATOM      8  C   UNL     1     -93.627 147.265 242.250  1.00  0.00     0.000 C 
BRANCH   8   9
ATOM      9  C   UNL     1     -92.984 147.161 240.858  1.00  0.00    -0.000 C 
BRANCH   9  10
ATOM     10  C   UNL     1     -93.727 146.179 239.936  1.00  0.00    -0.000 C 
BRANCH  10  11
ATOM     11  C   UNL     1     -94.341 146.871 238.708  1.00  0.00    -0.000 C 
BRANCH  11  12
ATOM     12  C   UNL     1     -94.743 148.327 238.987  1.00  0.00    -0.003 C 
ATOM     13  C   UNL     1     -96.256 148.504 238.904  1.00  0.00     0.004 C 
ENDBRANCH  11  12
ENDBRANCH  10  11
ENDBRANCH   9  10
ENDBRANCH   8   9
ENDBRANCH   1   8
TORSDOF 9
ENDMDL
MODEL 4
REMARK VINA RESULT:    -3.173      1.582      2.437
REMARK INTER + INTRA:          -5.797
REMARK INTER:                  -4.583
REMARK INTRA:                  -1.214
REMARK UNBOUND:                -0.955
REMARK SMILES CCCCCCCCCCC(=O)[O-]
REMARK SMILES IDX 7 1 8 2 9 3 10 4 11 5 12 6 13 7 6 8 5 9 4 10 3 11 2 12 1 13
REMARK H PARENT
REMARK Flexibility Score: inf
ROOT
ATOM      1  C   UNL     1     -93.733 147.453 242.198  1.00  0.00     0.000 C 
ENDROOT
BRANCH   1   2
ATOM      2  C   UNL     1     -94.860 146.474 242.561  1.00  0.00     0.000 C 
BRANCH   2   3
ATOM      3  C   UNL     1     -96.170 147.189 242.930  1.00  0.00     0.006 C 
BRANCH   3   4
ATOM      4  C   UNL     1     -96.056 148.716 242.832  1.00  0.00     0.053 C 
BRANCH   4   5
ATOM      5  C   UNL     1     -97.353 149.360 243.215  1.00  0.00     0.041 C 
ATOM      6  O   UNL     1     -98.056 149.935 242.344  1.00  0.00    -0.550 OA
ATOM      7  O   UNL     1     -97.806 149.282 244.525  1.00  0.00    -0.550 OA
ENDBRANCH   4   5
ENDBRANCH   3   4
ENDBRANCH   2   3
ENDBRANCH   1   2
BRANCH   1   8
ATOM      8  C   UNL     1     -92.925 146.936 240.997  1.00  0.00     0.000 C 
BRANCH   8   9
ATOM      9  C   UNL     1     -93.732 146.942 239.689  1.00  0.00    -0.000 C 
BRANCH   9  10
ATOM     10  C   UNL     1     -94.455 148.279 239.447  1.00  0.00    -0.000 C 
BRANCH  10  11
ATOM     11  C   UNL     1     -95.689 148.128 238.543  1.00  0.00    -0.000 C 
BRANCH  11  12
ATOM     12  C   UNL     1     -96.989 148.559 239.237  1.00  0.00    -0.003 C 
ATOM     13  C   UNL     1     -97.803 147.346 239.681  1.00  0.00     0.004 C 
ENDBRANCH  11  12
ENDBRANCH  10  11
ENDBRANCH   9  10
ENDBRANCH   8   9
ENDBRANCH   1   8
TORSDOF 9
ENDMDL
MODEL 5
REMARK VINA RESULT:    -3.149      3.052      6.168
REMARK INTER + INTRA:          -5.760
REMARK INTER:                  -4.996
REMARK INTRA:                  -0.764
REMARK UNBOUND:                -0.955
REMARK SMILES CCCCCCCCCCC(=O)[O-]
REMARK SMILES IDX 7 1 8 2 9 3 10 4 11 5 12 6 13 7 6 8 5 9 4 10 3 11 2 12 1 13
REMARK H PARENT
REMARK Flexibility Score: inf
ROOT
ATOM      1  C   UNL     1     -96.330 146.460 242.867  1.00  0.00     0.000 C 
ENDROOT
BRANCH   1   2
ATOM      2  C   UNL     1     -95.289 145.332 242.900  1.00  0.00     0.000 C 
BRANCH   2   3
ATOM      3  C   UNL     1     -93.849 145.848 242.748  1.00  0.00     0.006 C 
BRANCH   3   4
ATOM      4  C   UNL     1     -92.952 144.875 241.971  1.00  0.00     0.053 C 
BRANCH   4   5
ATOM      5  C   UNL     1     -92.315 145.570 240.808  1.00  0.00     0.041 C 
ATOM      6  O   UNL     1     -91.324 145.055 240.228  1.00  0.00    -0.550 OA
ATOM      7  O   UNL     1     -92.846 146.763 240.335  1.00  0.00    -0.550 OA
ENDBRANCH   4   5
ENDBRANCH   3   4
ENDBRANCH   2   3
ENDBRANCH   1   2
BRANCH   1   8
ATOM      8  C   UNL     1     -95.722 147.749 242.291  1.00  0.00     0.000 C 
BRANCH   8   9
ATOM      9  C   UNL     1     -96.076 148.996 243.117  1.00  0.00    -0.000 C 
BRANCH   9  10
ATOM     10  C   UNL     1     -97.522 149.467 242.882  1.00  0.00    -0.000 C 
BRANCH  10  11
ATOM     11  C   UNL     1     -98.426 149.226 244.102  1.00  0.00    -0.000 C 
BRANCH  11  12
ATOM     12  C   UNL     1     -97.632 148.885 245.371  1.00  0.00    -0.003 C 
ATOM     13  C   UNL     1     -98.056 147.533 245.938  1.00  0.00     0.004 C 
ENDBRANCH  11  12
ENDBRANCH  10  11
ENDBRANCH   9  10
ENDBRANCH   8   9
ENDBRANCH   1   8
TORSDOF 9
ENDMDL
MODEL 6
REMARK VINA RESULT:    -3.118      2.343      5.138
REMARK INTER + INTRA:          -5.714
REMARK INTER:                  -4.809
REMARK INTRA:                  -0.905
REMARK UNBOUND:                -0.955
REMARK SMILES CCCCCCCCCCC(=O)[O-]
REMARK SMILES IDX 7 1 8 2 9 3 10 4 11 5 12 6 13 7 6 8 5 9 4 10 3 11 2 12 1 13
REMARK H PARENT
REMARK Flexibility Score: inf
ROOT
ATOM      1  C   UNL     1     -93.551 147.320 241.819  1.00  0.00     0.000 C 
ENDROOT
BRANCH   1   2
ATOM      2  C   UNL     1     -93.005 146.563 240.599  1.00  0.00     0.000 C 
BRANCH   2   3
ATOM      3  C   UNL     1     -93.786 146.871 239.312  1.00  0.00     0.006 C 
BRANCH   3   4
ATOM      4  C   UNL     1     -94.467 148.245 239.349  1.00  0.00     0.053 C 
BRANCH   4   5
ATOM      5  C   UNL     1     -95.898 148.129 238.925  1.00  0.00     0.041 C 
ATOM      6  O   UNL     1     -96.391 148.965 238.124  1.00  0.00    -0.550 OA
ATOM      7  O   UNL     1     -96.673 147.069 239.378  1.00  0.00    -0.550 OA
ENDBRANCH   4   5
ENDBRANCH   3   4
ENDBRANCH   2   3
ENDBRANCH   1   2
BRANCH   1   8
ATOM      8  C   UNL     1     -94.534 146.444 242.611  1.00  0.00     0.000 C 
BRANCH   8   9
ATOM      9  C   UNL     1     -95.897 147.121 242.824  1.00  0.00    -0.000 C 
BRANCH   9  10
ATOM     10  C   UNL     1     -95.803 148.657 242.811  1.00  0.00    -0.000 C 
BRANCH  10  11
ATOM     11  C   UNL     1     -97.066 149.330 243.372  1.00  0.00    -0.000 C 
BRANCH  11  12
ATOM     12  C   UNL     1     -97.846 148.421 244.332  1.00  0.00    -0.003 C 
ATOM     13  C   UNL     1     -97.565 148.788 245.787  1.00  0.00     0.004 C 
ENDBRANCH  11  12
ENDBRANCH  10  11
ENDBRANCH   9  10
ENDBRANCH   8   9
ENDBRANCH   1   8
TORSDOF 9
ENDMDL
MODEL 7
REMARK VINA RESULT:    -3.117      2.974      5.237
REMARK INTER + INTRA:          -5.712
REMARK INTER:                  -5.000
REMARK INTRA:                  -0.712
REMARK UNBOUND:                -0.955
REMARK SMILES CCCCCCCCCCC(=O)[O-]
REMARK SMILES IDX 7 1 8 2 9 3 10 4 11 5 12 6 13 7 6 8 5 9 4 10 3 11 2 12 1 13
REMARK H PARENT
REMARK Flexibility Score: inf
ROOT
ATOM      1  C   UNL     1     -93.995 146.844 239.476  1.00  0.00     0.000 C 
ENDROOT
BRANCH   1   2
ATOM      2  C   UNL     1     -94.399 148.323 239.392  1.00  0.00     0.000 C 
BRANCH   2   3
ATOM      3  C   UNL     1     -95.287 148.628 238.175  1.00  0.00     0.006 C 
BRANCH   3   4
ATOM      4  C   UNL     1     -94.803 149.849 237.382  1.00  0.00     0.053 C 
BRANCH   4   5
ATOM      5  C   UNL     1     -95.966 150.691 236.960  1.00  0.00     0.041 C 
ATOM      6  O   UNL     1     -97.092 150.533 237.501  1.00  0.00    -0.550 OA
ATOM      7  O   UNL     1     -95.795 151.683 236.003  1.00  0.00    -0.550 OA
ENDBRANCH   4   5
ENDBRANCH   3   4
ENDBRANCH   2   3
ENDBRANCH   1   2
BRANCH   1   8
ATOM      8  C   UNL     1     -93.057 146.599 240.668  1.00  0.00     0.000 C 
BRANCH   8   9
ATOM      9  C   UNL     1     -93.567 147.239 241.969  1.00  0.00    -0.000 C 
BRANCH   9  10
ATOM     10  C   UNL     1     -94.663 146.401 242.650  1.00  0.00    -0.000 C 
BRANCH  10  11
ATOM     11  C   UNL     1     -95.980 147.176 242.819  1.00  0.00    -0.000 C 
BRANCH  11  12
ATOM     12  C   UNL     1     -95.778 148.698 242.804  1.00  0.00    -0.003 C 
ATOM     13  C   UNL     1     -97.075 149.427 243.143  1.00  0.00     0.004 C 
ENDBRANCH  11  12
ENDBRANCH  10  11
ENDBRANCH   9  10
ENDBRANCH   8   9
ENDBRANCH   1   8
TORSDOF 9
ENDMDL
MODEL 8
REMARK VINA RESULT:    -3.114      3.263      4.952
REMARK INTER + INTRA:          -5.707
REMARK INTER:                  -4.451
REMARK INTRA:                  -1.256
REMARK UNBOUND:                -0.955
REMARK SMILES CCCCCCCCCCC(=O)[O-]
REMARK SMILES IDX 7 1 8 2 9 3 10 4 11 5 12 6 13 7 6 8 5 9 4 10 3 11 2 12 1 13
REMARK H PARENT
REMARK Flexibility Score: inf
ROOT
ATOM      1  C   UNL     1     -92.465 145.914 240.733  1.00  0.00     0.000 C 
ENDROOT
BRANCH   1   2
ATOM      2  C   UNL     1     -93.082 147.303 240.955  1.00  0.00     0.000 C 
BRANCH   2   3
ATOM      3  C   UNL     1     -93.945 147.765 239.769  1.00  0.00     0.006 C 
BRANCH   3   4
ATOM      4  C   UNL     1     -94.527 146.591 238.971  1.00  0.00     0.053 C 
BRANCH   4   5
ATOM      5  C   UNL     1     -94.127 146.690 237.532  1.00  0.00     0.041 C 
ATOM      6  O   UNL     1     -93.049 146.173 237.137  1.00  0.00    -0.550 OA
ATOM      7  O   UNL     1     -94.968 147.310 236.618  1.00  0.00    -0.550 OA
ENDBRANCH   4   5
ENDBRANCH   3   4
ENDBRANCH   2   3
ENDBRANCH   1   2
BRANCH   1   8
ATOM      8  C   UNL     1     -92.896 144.941 241.841  1.00  0.00     0.000 C 
BRANCH   8   9
ATOM      9  C   UNL     1     -93.947 145.542 242.787  1.00  0.00    -0.000 C 
BRANCH   9  10
ATOM     10  C   UNL     1     -95.357 144.978 242.538  1.00  0.00    -0.000 C 
BRANCH  10  11
ATOM     11  C   UNL     1     -96.390 146.079 242.248  1.00  0.00    -0.000 C 
BRANCH  11  12
ATOM     12  C   UNL     1     -96.339 147.224 243.270  1.00  0.00    -0.003 C 
ATOM     13  C   UNL     1     -96.268 148.580 242.573  1.00  0.00     0.004 C 
ENDBRANCH  11  12
ENDBRANCH  10  11
ENDBRANCH   9  10
ENDBRANCH   8   9
ENDBRANCH   1   8
TORSDOF 9
ENDMDL
MODEL 9
REMARK VINA RESULT:    -3.066      4.069      5.745
REMARK INTER + INTRA:          -5.634
REMARK INTER:                  -5.236
REMARK INTRA:                  -0.398
REMARK UNBOUND:                -0.955
REMARK SMILES CCCCCCCCCCC(=O)[O-]
REMARK SMILES IDX 7 1 8 2 9 3 10 4 11 5 12 6 13 7 6 8 5 9 4 10 3 11 2 12 1 13
REMARK H PARENT
REMARK Flexibility Score: inf
ROOT
ATOM      1  C   UNL     1     -94.472 148.128 239.072  1.00  0.00     0.000 C 
ENDROOT
BRANCH   1   2
ATOM      2  C   UNL     1     -95.247 147.915 240.381  1.00  0.00     0.000 C 
BRANCH   2   3
ATOM      3  C   UNL     1     -94.379 147.299 241.490  1.00  0.00     0.006 C 
BRANCH   3   4
ATOM      4  C   UNL     1     -92.918 147.110 241.059  1.00  0.00     0.053 C 
BRANCH   4   5
ATOM      5  C   UNL     1     -92.530 145.667 241.155  1.00  0.00     0.041 C 
ATOM      6  O   UNL     1     -93.086 144.916 241.998  1.00  0.00    -0.550 OA
ATOM      7  O   UNL     1     -91.588 145.141 240.279  1.00  0.00    -0.550 OA
ENDBRANCH   4   5
ENDBRANCH   3   4
ENDBRANCH   2   3
ENDBRANCH   1   2
BRANCH   1   8
ATOM      8  C   UNL     1     -95.357 148.811 238.017  1.00  0.00     0.000 C 
BRANCH   8   9
ATOM      9  C   UNL     1     -94.771 150.140 237.517  1.00  0.00    -0.000 C 
BRANCH   9  10
ATOM     10  C   UNL     1     -95.116 150.421 236.044  1.00  0.00    -0.000 C 
BRANCH  10  11
ATOM     11  C   UNL     1     -96.035 151.643 235.876  1.00  0.00    -0.000 C 
BRANCH  11  12
ATOM     12  C   UNL     1     -96.682 152.083 237.197  1.00  0.00    -0.003 C 
ATOM     13  C   UNL     1     -96.500 153.581 237.426  1.00  0.00     0.004 C 
ENDBRANCH  11  12
ENDBRANCH  10  11
ENDBRANCH   9  10
ENDBRANCH   8   9
ENDBRANCH   1   8
TORSDOF 9
ENDMDL
