MODEL 1
REMARK VINA RESULT:    -4.737      0.000      0.000
REMARK INTER + INTRA:          -6.589
REMARK INTER:                  -6.398
REMARK INTRA:                  -0.191
REMARK UNBOUND:                -0.191
REMARK SMILES CCCCCCC=CC(=O)[O-]
REMARK SMILES IDX 5 1 6 2 7 3 8 4 9 5 10 6 11 7 4 8 3 9 2 10 1 11
REMARK H PARENT
REMARK Flexibility Score: inf
ROOT
ATOM      1  C   UNL     1       0.933  -2.830  -3.678  1.00  0.00     0.004 C 
ENDROOT
BRANCH   1   2
ATOM      2  C   UNL     1       0.333  -3.523  -2.445  1.00  0.00     0.027 C 
BRANCH   2   3
ATOM      3  C   UNL     1      -1.084  -3.952  -2.700  1.00  0.00    -0.025 C 
ATOM      4  C   UNL     1      -1.366  -4.992  -3.491  1.00  0.00     0.020 C 
BRANCH   4   5
ATOM      5  C   UNL     1      -2.747  -5.432  -3.739  1.00  0.00     0.064 C 
ATOM      6  O   UNL     1      -3.705  -4.767  -3.267  1.00  0.00    -0.545 OA
ATOM      7  O   UNL     1      -3.011  -6.575  -4.486  1.00  0.00    -0.545 OA
ENDBRANCH   4   5
ENDBRANCH   2   3
ENDBRANCH   1   2
BRANCH   1   8
ATOM      8  C   UNL     1       2.012  -3.681  -4.365  1.00  0.00     0.000 C 
BRANCH   8   9
ATOM      9  C   UNL     1       3.037  -2.827  -5.132  1.00  0.00    -0.000 C 
BRANCH   9  10
ATOM     10  C   UNL     1       4.449  -3.432  -5.098  1.00  0.00    -0.003 C 
ATOM     11  C   UNL     1       5.273  -3.078  -6.336  1.00  0.00     0.004 C 
ENDBRANCH   9  10
ENDBRANCH   8   9
ENDBRANCH   1   8
TORSDOF 6
ENDMDL
MODEL 2
REMARK VINA RESULT:    -4.628      3.717      6.449
REMARK INTER + INTRA:          -6.442
REMARK INTER:                  -6.229
REMARK INTRA:                  -0.213
REMARK UNBOUND:                -0.191
REMARK SMILES CCCCCCC=CC(=O)[O-]
REMARK SMILES IDX 5 1 6 2 7 3 8 4 9 5 10 6 11 7 4 8 3 9 2 10 1 11
REMARK H PARENT
REMARK Flexibility Score: inf
ROOT
ATOM      1  C   UNL     1       0.499  -3.559  -2.566  1.00  0.00     0.004 C 
ENDROOT
BRANCH   1   2
ATOM      2  C   UNL     1       1.082  -2.772  -3.750  1.00  0.00     0.027 C 
BRANCH   2   3
ATOM      3  C   UNL     1       2.273  -3.476  -4.334  1.00  0.00    -0.025 C 
ATOM      4  C   UNL     1       3.274  -2.796  -4.904  1.00  0.00     0.020 C 
BRANCH   4   5
ATOM      5  C   UNL     1       4.454  -3.470  -5.468  1.00  0.00     0.064 C 
ATOM      6  O   UNL     1       5.180  -2.862  -6.295  1.00  0.00    -0.545 OA
ATOM      7  O   UNL     1       4.777  -4.772  -5.102  1.00  0.00    -0.545 OA
ENDBRANCH   4   5
ENDBRANCH   2   3
ENDBRANCH   1   2
BRANCH   1   8
ATOM      8  C   UNL     1      -1.025  -3.728  -2.665  1.00  0.00     0.000 C 
BRANCH   8   9
ATOM      9  C   UNL     1      -1.432  -4.872  -3.610  1.00  0.00    -0.000 C 
BRANCH   9  10
ATOM     10  C   UNL     1      -2.901  -5.288  -3.434  1.00  0.00    -0.003 C 
ATOM     11  C   UNL     1      -3.094  -6.313  -2.317  1.00  0.00     0.004 C 
ENDBRANCH   9  10
ENDBRANCH   8   9
ENDBRANCH   1   8
TORSDOF 6
ENDMDL
MODEL 3
REMARK VINA RESULT:    -4.598      3.215      5.509
REMARK INTER + INTRA:          -6.402
REMARK INTER:                  -5.741
REMARK INTRA:                  -0.661
REMARK UNBOUND:                -0.191
REMARK SMILES CCCCCCC=CC(=O)[O-]
REMARK SMILES IDX 5 1 6 2 7 3 8 4 9 5 10 6 11 7 4 8 3 9 2 10 1 11
REMARK H PARENT
REMARK Flexibility Score: inf
ROOT
ATOM      1  C   UNL     1       0.073  -4.708  -1.529  1.00  0.00     0.004 C 
ENDROOT
BRANCH   1   2
ATOM      2  C   UNL     1      -0.384  -3.264  -1.783  1.00  0.00     0.027 C 
BRANCH   2   3
ATOM      3  C   UNL     1       0.083  -2.775  -3.125  1.00  0.00    -0.025 C 
ATOM      4  C   UNL     1       1.261  -3.153  -3.633  1.00  0.00     0.020 C 
BRANCH   4   5
ATOM      5  C   UNL     1       1.726  -2.693  -4.950  1.00  0.00     0.064 C 
ATOM      6  O   UNL     1       2.450  -3.446  -5.651  1.00  0.00    -0.545 OA
ATOM      7  O   UNL     1       1.378  -1.437  -5.434  1.00  0.00    -0.545 OA
ENDBRANCH   4   5
ENDBRANCH   2   3
ENDBRANCH   1   2
BRANCH   1   8
ATOM      8  C   UNL     1      -1.058  -5.728  -1.728  1.00  0.00     0.000 C 
BRANCH   8   9
ATOM      9  C   UNL     1      -1.027  -6.382  -3.120  1.00  0.00    -0.000 C 
BRANCH   9  10
ATOM     10  C   UNL     1      -2.161  -5.887  -4.029  1.00  0.00    -0.003 C 
ATOM     11  C   UNL     1      -3.205  -5.062  -3.275  1.00  0.00     0.004 C 
ENDBRANCH   9  10
ENDBRANCH   8   9
ENDBRANCH   1   8
TORSDOF 6
ENDMDL
MODEL 4
REMARK VINA RESULT:    -4.444      1.673      2.328
REMARK INTER + INTRA:          -6.193
REMARK INTER:                  -5.567
REMARK INTRA:                  -0.626
REMARK UNBOUND:                -0.191
REMARK SMILES CCCCCCC=CC(=O)[O-]
REMARK SMILES IDX 5 1 6 2 7 3 8 4 9 5 10 6 11 7 4 8 3 9 2 10 1 11
REMARK H PARENT
REMARK Flexibility Score: inf
ROOT
ATOM      1  C   UNL     1       0.366  -2.574  -3.292  1.00  0.00     0.004 C 
ENDROOT
BRANCH   1   2
ATOM      2  C   UNL     1      -0.785  -2.958  -2.350  1.00  0.00     0.027 C 
BRANCH   2   3
ATOM      3  C   UNL     1      -1.226  -4.375  -2.584  1.00  0.00    -0.025 C 
ATOM      4  C   UNL     1      -2.379  -4.654  -3.200  1.00  0.00     0.020 C 
BRANCH   4   5
ATOM      5  C   UNL     1      -2.818  -6.036  -3.448  1.00  0.00     0.064 C 
ATOM      6  O   UNL     1      -2.973  -6.435  -4.631  1.00  0.00    -0.545 OA
ATOM      7  O   UNL     1      -3.067  -6.908  -2.394  1.00  0.00    -0.545 OA
ENDBRANCH   4   5
ENDBRANCH   2   3
ENDBRANCH   1   2
BRANCH   1   8
ATOM      8  C   UNL     1       1.238  -3.778  -3.680  1.00  0.00     0.000 C 
BRANCH   8   9
ATOM      9  C   UNL     1       1.944  -3.585  -5.033  1.00  0.00    -0.000 C 
BRANCH   9  10
ATOM     10  C   UNL     1       1.136  -4.161  -6.206  1.00  0.00    -0.003 C 
ATOM     11  C   UNL     1       0.290  -5.369  -5.803  1.00  0.00     0.004 C 
ENDBRANCH   9  10
ENDBRANCH   8   9
ENDBRANCH   1   8
TORSDOF 6
ENDMDL
MODEL 5
REMARK VINA RESULT:    -4.426      2.285      3.464
REMARK INTER + INTRA:          -6.169
REMARK INTER:                  -5.660
REMARK INTRA:                  -0.509
REMARK UNBOUND:                -0.191
REMARK SMILES CCCCCCC=CC(=O)[O-]
REMARK SMILES IDX 5 1 6 2 7 3 8 4 9 5 10 6 11 7 4 8 3 9 2 10 1 11
REMARK H PARENT
REMARK Flexibility Score: inf
ROOT
ATOM      1  C   UNL     1       3.769  -2.759  -4.799  1.00  0.00     0.004 C 
ENDROOT
BRANCH   1   2
ATOM      2  C   UNL     1       2.366  -3.269  -5.162  1.00  0.00     0.027 C 
BRANCH   2   3
ATOM      3  C   UNL     1       1.375  -2.941  -4.082  1.00  0.00    -0.025 C 
ATOM      4  C   UNL     1       0.780  -3.901  -3.366  1.00  0.00     0.020 C 
BRANCH   4   5
ATOM      5  C   UNL     1      -0.182  -3.596  -2.297  1.00  0.00     0.064 C 
ATOM      6  O   UNL     1      -0.275  -4.365  -1.306  1.00  0.00    -0.545 OA
ATOM      7  O   UNL     1      -0.994  -2.469  -2.365  1.00  0.00    -0.545 OA
ENDBRANCH   4   5
ENDBRANCH   2   3
ENDBRANCH   1   2
BRANCH   1   8
ATOM      8  C   UNL     1       4.880  -3.502  -5.557  1.00  0.00     0.000 C 
BRANCH   8   9
ATOM      9  C   UNL     1       4.454  -4.914  -5.995  1.00  0.00    -0.000 C 
BRANCH   9  10
ATOM     10  C   UNL     1       4.979  -6.007  -5.051  1.00  0.00    -0.003 C 
ATOM     11  C   UNL     1       3.859  -6.716  -4.289  1.00  0.00     0.004 C 
ENDBRANCH   9  10
ENDBRANCH   8   9
ENDBRANCH   1   8
TORSDOF 6
ENDMDL
MODEL 6
REMARK VINA RESULT:    -4.379      3.885      6.098
REMARK INTER + INTRA:          -6.105
REMARK INTER:                  -5.777
REMARK INTRA:                  -0.328
REMARK UNBOUND:                -0.191
REMARK SMILES CCCCCCC=CC(=O)[O-]
REMARK SMILES IDX 5 1 6 2 7 3 8 4 9 5 10 6 11 7 4 8 3 9 2 10 1 11
REMARK H PARENT
REMARK Flexibility Score: inf
ROOT
ATOM      1  C   UNL     1       1.807  -2.632  -4.910  1.00  0.00     0.004 C 
ENDROOT
BRANCH   1   2
ATOM      2  C   UNL     1       3.303  -2.440  -5.201  1.00  0.00     0.027 C 
BRANCH   2   3
ATOM      3  C   UNL     1       4.062  -3.721  -5.005  1.00  0.00    -0.025 C 
ATOM      4  C   UNL     1       4.133  -4.645  -5.969  1.00  0.00     0.020 C 
BRANCH   4   5
ATOM      5  C   UNL     1       4.884  -5.898  -5.797  1.00  0.00     0.064 C 
ATOM      6  O   UNL     1       5.131  -6.319  -4.637  1.00  0.00    -0.545 OA
ATOM      7  O   UNL     1       5.327  -6.624  -6.896  1.00  0.00    -0.545 OA
ENDBRANCH   4   5
ENDBRANCH   2   3
ENDBRANCH   1   2
BRANCH   1   8
ATOM      8  C   UNL     1       1.556  -3.431  -3.622  1.00  0.00     0.000 C 
BRANCH   8   9
ATOM      9  C   UNL     1       0.274  -4.279  -3.694  1.00  0.00    -0.000 C 
BRANCH   9  10
ATOM     10  C   UNL     1      -0.703  -3.969  -2.550  1.00  0.00    -0.003 C 
ATOM     11  C   UNL     1      -0.890  -2.468  -2.324  1.00  0.00     0.004 C 
ENDBRANCH   9  10
ENDBRANCH   8   9
ENDBRANCH   1   8
TORSDOF 6
ENDMDL
MODEL 7
REMARK VINA RESULT:    -4.271      3.513      5.325
REMARK INTER + INTRA:          -5.960
REMARK INTER:                  -5.269
REMARK INTRA:                  -0.691
REMARK UNBOUND:                -0.191
REMARK SMILES CCCCCCC=CC(=O)[O-]
REMARK SMILES IDX 5 1 6 2 7 3 8 4 9 5 10 6 11 7 4 8 3 9 2 10 1 11
REMARK H PARENT
REMARK Flexibility Score: inf
ROOT
ATOM      1  C   UNL     1      -0.373  -3.396  -2.087  1.00  0.00     0.004 C 
ENDROOT
BRANCH   1   2
ATOM      2  C   UNL     1       0.203  -2.620  -3.281  1.00  0.00     0.027 C 
BRANCH   2   3
ATOM      3  C   UNL     1       1.595  -3.081  -3.606  1.00  0.00    -0.025 C 
ATOM      4  C   UNL     1       1.906  -3.562  -4.815  1.00  0.00     0.020 C 
BRANCH   4   5
ATOM      5  C   UNL     1       3.268  -4.004  -5.152  1.00  0.00     0.064 C 
ATOM      6  O   UNL     1       4.126  -3.156  -5.507  1.00  0.00    -0.545 OA
ATOM      7  O   UNL     1       3.621  -5.347  -5.088  1.00  0.00    -0.545 OA
ENDBRANCH   4   5
ENDBRANCH   2   3
ENDBRANCH   1   2
BRANCH   1   8
ATOM      8  C   UNL     1      -1.205  -4.613  -2.520  1.00  0.00     0.000 C 
BRANCH   8   9
ATOM      9  C   UNL     1      -0.843  -5.885  -1.734  1.00  0.00    -0.000 C 
BRANCH   9  10
ATOM     10  C   UNL     1       0.641  -5.933  -1.341  1.00  0.00    -0.003 C 
ATOM     11  C   UNL     1       1.511  -6.609  -2.400  1.00  0.00     0.004 C 
ENDBRANCH   9  10
ENDBRANCH   8   9
ENDBRANCH   1   8
TORSDOF 6
ENDMDL
MODEL 8
REMARK VINA RESULT:    -4.208      2.540      3.668
REMARK INTER + INTRA:          -5.874
REMARK INTER:                  -5.350
REMARK INTRA:                  -0.524
REMARK UNBOUND:                -0.191
REMARK SMILES CCCCCCC=CC(=O)[O-]
REMARK SMILES IDX 5 1 6 2 7 3 8 4 9 5 10 6 11 7 4 8 3 9 2 10 1 11
REMARK H PARENT
REMARK Flexibility Score: inf
ROOT
ATOM      1  C   UNL     1      -1.405  -5.399  -2.025  1.00  0.00     0.004 C 
ENDROOT
BRANCH   1   2
ATOM      2  C   UNL     1      -2.370  -4.936  -3.127  1.00  0.00     0.027 C 
BRANCH   2   3
ATOM      3  C   UNL     1      -2.678  -6.055  -4.081  1.00  0.00    -0.025 C 
ATOM      4  C   UNL     1      -2.524  -7.335  -3.729  1.00  0.00     0.020 C 
BRANCH   4   5
ATOM      5  C   UNL     1      -2.835  -8.441  -4.647  1.00  0.00     0.064 C 
ATOM      6  O   UNL     1      -4.034  -8.768  -4.842  1.00  0.00    -0.545 OA
ATOM      7  O   UNL     1      -1.823  -9.134  -5.302  1.00  0.00    -0.545 OA
ENDBRANCH   4   5
ENDBRANCH   2   3
ENDBRANCH   1   2
BRANCH   1   8
ATOM      8  C   UNL     1      -0.350  -4.336  -1.682  1.00  0.00     0.000 C 
BRANCH   8   9
ATOM      9  C   UNL     1      -0.438  -3.100  -2.593  1.00  0.00    -0.000 C 
BRANCH   9  10
ATOM     10  C   UNL     1       0.829  -2.900  -3.439  1.00  0.00    -0.003 C 
ATOM     11  C   UNL     1       0.912  -3.870  -4.617  1.00  0.00     0.004 C 
ENDBRANCH   9  10
ENDBRANCH   8   9
ENDBRANCH   1   8
TORSDOF 6
ENDMDL
MODEL 9
REMARK VINA RESULT:    -4.183      2.466      2.752
REMARK INTER + INTRA:          -5.841
REMARK INTER:                  -5.590
REMARK INTRA:                  -0.251
REMARK UNBOUND:                -0.191
REMARK SMILES CCCCCCC=CC(=O)[O-]
REMARK SMILES IDX 5 1 6 2 7 3 8 4 9 5 10 6 11 7 4 8 3 9 2 10 1 11
REMARK H PARENT
REMARK Flexibility Score: inf
ROOT
ATOM      1  C   UNL     1       0.299  -2.840  -3.187  1.00  0.00     0.004 C 
ENDROOT
BRANCH   1   2
ATOM      2  C   UNL     1      -0.454  -3.462  -2.002  1.00  0.00     0.027 C 
BRANCH   2   3
ATOM      3  C   UNL     1       0.035  -4.854  -1.719  1.00  0.00    -0.025 C 
ATOM      4  C   UNL     1      -0.816  -5.867  -1.523  1.00  0.00     0.020 C 
BRANCH   4   5
ATOM      5  C   UNL     1      -0.352  -7.237  -1.259  1.00  0.00     0.064 C 
ATOM      6  O   UNL     1       0.448  -7.787  -2.059  1.00  0.00    -0.545 OA
ATOM      7  O   UNL     1      -0.786  -7.936  -0.138  1.00  0.00    -0.545 OA
ENDBRANCH   4   5
ENDBRANCH   2   3
ENDBRANCH   1   2
BRANCH   1   8
ATOM      8  C   UNL     1       1.497  -3.691  -3.636  1.00  0.00     0.000 C 
BRANCH   8   9
ATOM      9  C   UNL     1       2.107  -3.200  -4.961  1.00  0.00    -0.000 C 
BRANCH   9  10
ATOM     10  C   UNL     1       3.579  -2.787  -4.814  1.00  0.00    -0.003 C 
ATOM     11  C   UNL     1       4.545  -3.845  -5.348  1.00  0.00     0.004 C 
ENDBRANCH   9  10
ENDBRANCH   8   9
ENDBRANCH   1   8
TORSDOF 6
ENDMDL
