MODEL 1
REMARK VINA RESULT:    -3.614      0.000      0.000
REMARK INTER + INTRA:          -3.893
REMARK INTER:                  -3.826
REMARK INTRA:                  -0.067
REMARK UNBOUND:                -0.067
REMARK SMILES CC(=O)c1cccc(C)c1
REMARK SMILES IDX 9 1 8 2 10 3 4 4 5 5 6 6 7 7 2 8 3 9 1 10
REMARK H PARENT
REMARK Flexibility Score: inf
ROOT
ATOM      1  C   UNL     1      -0.367  25.380  31.880  1.00  0.00     0.044 C 
ATOM      2  C   UNL     1       0.125  23.999  32.200  1.00  0.00    -0.050 A 
ATOM      3  C   UNL     1      -0.750  22.903  32.131  1.00  0.00     0.015 A 
ATOM      4  C   UNL     1      -0.310  21.607  32.465  1.00  0.00     0.017 A 
ATOM      5  C   UNL     1       1.024  21.432  32.883  1.00  0.00     0.012 A 
ATOM      6  C   UNL     1       1.890  22.525  32.969  1.00  0.00     0.001 A 
ATOM      7  C   UNL     1       1.443  23.805  32.636  1.00  0.00     0.003 A 
ENDROOT
BRANCH   4   8
ATOM      8  C   UNL     1      -1.250  20.457  32.376  1.00  0.00     0.159 C 
ATOM      9  O   UNL     1      -1.508  19.944  31.254  1.00  0.00    -0.295 OA
ATOM     10  C   UNL     1      -1.910  19.876  33.591  1.00  0.00     0.093 C 
ENDBRANCH   4   8
TORSDOF 1
ENDMDL
MODEL 2
REMARK VINA RESULT:    -3.491      1.734      3.820
REMARK INTER + INTRA:          -3.763
REMARK INTER:                  -3.685
REMARK INTRA:                  -0.077
REMARK UNBOUND:                -0.067
REMARK SMILES CC(=O)c1cccc(C)c1
REMARK SMILES IDX 9 1 8 2 10 3 4 4 5 5 6 6 7 7 2 8 3 9 1 10
REMARK H PARENT
REMARK Flexibility Score: inf
ROOT
ATOM      1  C   UNL     1      -0.923  19.875  33.122  1.00  0.00     0.044 C 
ATOM      2  C   UNL     1      -0.214  21.194  33.017  1.00  0.00    -0.050 A 
ATOM      3  C   UNL     1      -0.936  22.363  32.725  1.00  0.00     0.015 A 
ATOM      4  C   UNL     1      -0.278  23.601  32.587  1.00  0.00     0.017 A 
ATOM      5  C   UNL     1       1.122  23.642  32.736  1.00  0.00     0.012 A 
ATOM      6  C   UNL     1       1.842  22.477  33.010  1.00  0.00     0.001 A 
ATOM      7  C   UNL     1       1.180  21.256  33.143  1.00  0.00     0.003 A 
ENDROOT
BRANCH   4   8
ATOM      8  C   UNL     1      -1.061  24.830  32.287  1.00  0.00     0.159 C 
ATOM      9  O   UNL     1      -2.320  24.799  32.337  1.00  0.00    -0.295 OA
ATOM     10  C   UNL     1      -0.396  26.124  31.924  1.00  0.00     0.093 C 
ENDBRANCH   4   8
TORSDOF 1
ENDMDL
MODEL 3
REMARK VINA RESULT:    -3.480      1.636      2.934
REMARK INTER + INTRA:          -3.750
REMARK INTER:                  -3.680
REMARK INTRA:                  -0.070
REMARK UNBOUND:                -0.067
REMARK SMILES CC(=O)c1cccc(C)c1
REMARK SMILES IDX 9 1 8 2 10 3 4 4 5 5 6 6 7 7 2 8 3 9 1 10
REMARK H PARENT
REMARK Flexibility Score: inf
ROOT
ATOM      1  C   UNL     1       1.901  19.875  33.145  1.00  0.00     0.044 C 
ATOM      2  C   UNL     1       1.196  21.191  32.993  1.00  0.00    -0.050 A 
ATOM      3  C   UNL     1      -0.206  21.251  33.032  1.00  0.00     0.015 A 
ATOM      4  C   UNL     1      -0.881  22.475  32.853  1.00  0.00     0.017 A 
ATOM      5  C   UNL     1      -0.121  23.638  32.622  1.00  0.00     0.012 A 
ATOM      6  C   UNL     1       1.273  23.577  32.566  1.00  0.00     0.001 A 
ATOM      7  C   UNL     1       1.931  22.358  32.743  1.00  0.00     0.003 A 
ENDROOT
BRANCH   4   8
ATOM      8  C   UNL     1      -2.367  22.520  32.908  1.00  0.00     0.159 C 
ATOM      9  O   UNL     1      -3.019  22.939  31.913  1.00  0.00    -0.295 OA
ATOM     10  C   UNL     1      -3.130  22.077  34.121  1.00  0.00     0.093 C 
ENDBRANCH   4   8
TORSDOF 1
ENDMDL
MODEL 4
REMARK VINA RESULT:    -3.407      1.553      2.457
REMARK INTER + INTRA:          -3.673
REMARK INTER:                  -3.595
REMARK INTRA:                  -0.078
REMARK UNBOUND:                -0.067
REMARK SMILES CC(=O)c1cccc(C)c1
REMARK SMILES IDX 9 1 8 2 10 3 4 4 5 5 6 6 7 7 2 8 3 9 1 10
REMARK H PARENT
REMARK Flexibility Score: inf
ROOT
ATOM      1  C   UNL     1      -3.293  24.005  32.810  1.00  0.00     0.044 C 
ATOM      2  C   UNL     1      -1.835  23.692  32.637  1.00  0.00    -0.050 A 
ATOM      3  C   UNL     1      -1.338  22.426  32.985  1.00  0.00     0.015 A 
ATOM      4  C   UNL     1       0.035  22.132  32.863  1.00  0.00     0.017 A 
ATOM      5  C   UNL     1       0.903  23.138  32.396  1.00  0.00     0.012 A 
ATOM      6  C   UNL     1       0.411  24.403  32.067  1.00  0.00     0.001 A 
ATOM      7  C   UNL     1      -0.950  24.684  32.193  1.00  0.00     0.003 A 
ENDROOT
BRANCH   4   8
ATOM      8  C   UNL     1       0.541  20.781  33.227  1.00  0.00     0.159 C 
ATOM      9  O   UNL     1      -0.271  19.875  33.558  1.00  0.00    -0.295 OA
ATOM     10  C   UNL     1       2.004  20.452  33.213  1.00  0.00     0.093 C 
ENDBRANCH   4   8
TORSDOF 1
ENDMDL
MODEL 5
REMARK VINA RESULT:    -3.381      1.899      4.016
REMARK INTER + INTRA:          -3.646
REMARK INTER:                  -3.570
REMARK INTRA:                  -0.076
REMARK UNBOUND:                -0.067
REMARK SMILES CC(=O)c1cccc(C)c1
REMARK SMILES IDX 9 1 8 2 10 3 4 4 5 5 6 6 7 7 2 8 3 9 1 10
REMARK H PARENT
REMARK Flexibility Score: inf
ROOT
ATOM      1  C   UNL     1       2.260  20.420  33.202  1.00  0.00     0.044 C 
ATOM      2  C   UNL     1       0.822  20.832  33.092  1.00  0.00    -0.050 A 
ATOM      3  C   UNL     1       0.483  22.186  32.938  1.00  0.00     0.015 A 
ATOM      4  C   UNL     1      -0.865  22.590  32.870  1.00  0.00     0.017 A 
ATOM      5  C   UNL     1      -1.870  21.608  32.971  1.00  0.00     0.012 A 
ATOM      6  C   UNL     1      -1.535  20.263  33.142  1.00  0.00     0.001 A 
ATOM      7  C   UNL     1      -0.196  19.875  33.209  1.00  0.00     0.003 A 
ENDROOT
BRANCH   4   8
ATOM      8  C   UNL     1      -1.203  24.028  32.697  1.00  0.00     0.159 C 
ATOM      9  O   UNL     1      -2.289  24.476  33.154  1.00  0.00    -0.295 OA
ATOM     10  C   UNL     1      -0.284  24.979  31.988  1.00  0.00     0.093 C 
ENDBRANCH   4   8
TORSDOF 1
ENDMDL
MODEL 6
REMARK VINA RESULT:    -3.303      1.994      2.909
REMARK INTER + INTRA:          -3.563
REMARK INTER:                  -3.491
REMARK INTRA:                  -0.072
REMARK UNBOUND:                -0.067
REMARK SMILES CC(=O)c1cccc(C)c1
REMARK SMILES IDX 9 1 8 2 10 3 4 4 5 5 6 6 7 7 2 8 3 9 1 10
REMARK H PARENT
REMARK Flexibility Score: inf
ROOT
ATOM      1  C   UNL     1      -0.535  26.450  31.658  1.00  0.00     0.044 C 
ATOM      2  C   UNL     1      -0.807  25.095  32.243  1.00  0.00    -0.050 A 
ATOM      3  C   UNL     1       0.198  24.115  32.255  1.00  0.00     0.015 A 
ATOM      4  C   UNL     1      -0.056  22.827  32.767  1.00  0.00     0.017 A 
ATOM      5  C   UNL     1      -1.344  22.537  33.258  1.00  0.00     0.012 A 
ATOM      6  C   UNL     1      -2.349  23.506  33.230  1.00  0.00     0.001 A 
ATOM      7  C   UNL     1      -2.087  24.778  32.719  1.00  0.00     0.003 A 
ENDROOT
BRANCH   4   8
ATOM      8  C   UNL     1       1.025  21.805  32.780  1.00  0.00     0.159 C 
ATOM      9  O   UNL     1       2.197  22.136  33.108  1.00  0.00    -0.295 OA
ATOM     10  C   UNL     1       0.768  20.374  32.412  1.00  0.00     0.093 C 
ENDBRANCH   4   8
TORSDOF 1
ENDMDL
MODEL 7
REMARK VINA RESULT:    -3.218      2.216      2.969
REMARK INTER + INTRA:          -3.473
REMARK INTER:                  -3.395
REMARK INTRA:                  -0.078
REMARK UNBOUND:                -0.067
REMARK SMILES CC(=O)c1cccc(C)c1
REMARK SMILES IDX 9 1 8 2 10 3 4 4 5 5 6 6 7 7 2 8 3 9 1 10
REMARK H PARENT
REMARK Flexibility Score: inf
ROOT
ATOM      1  C   UNL     1       1.468  23.553  32.419  1.00  0.00     0.044 C 
ATOM      2  C   UNL     1       0.405  22.527  32.679  1.00  0.00    -0.050 A 
ATOM      3  C   UNL     1      -0.811  22.903  33.273  1.00  0.00     0.015 A 
ATOM      4  C   UNL     1      -1.803  21.943  33.556  1.00  0.00     0.017 A 
ATOM      5  C   UNL     1      -1.547  20.594  33.243  1.00  0.00     0.012 A 
ATOM      6  C   UNL     1      -0.331  20.217  32.668  1.00  0.00     0.001 A 
ATOM      7  C   UNL     1       0.645  21.176  32.393  1.00  0.00     0.003 A 
ENDROOT
BRANCH   4   8
ATOM      8  C   UNL     1      -3.089  22.362  34.177  1.00  0.00     0.159 C 
ATOM      9  O   UNL     1      -3.830  21.502  34.724  1.00  0.00    -0.295 OA
ATOM     10  C   UNL     1      -3.540  23.793  34.176  1.00  0.00     0.093 C 
ENDBRANCH   4   8
TORSDOF 1
ENDMDL
MODEL 8
REMARK VINA RESULT:    -3.145     16.664     18.358
REMARK INTER + INTRA:          -3.396
REMARK INTER:                  -3.321
REMARK INTRA:                  -0.075
REMARK UNBOUND:                -0.067
REMARK SMILES CC(=O)c1cccc(C)c1
REMARK SMILES IDX 9 1 8 2 10 3 4 4 5 5 6 6 7 7 2 8 3 9 1 10
REMARK H PARENT
REMARK Flexibility Score: inf
ROOT
ATOM      1  C   UNL     1     -12.583  20.179  46.340  1.00  0.00     0.044 C 
ATOM      2  C   UNL     1     -11.694  21.373  46.152  1.00  0.00    -0.050 A 
ATOM      3  C   UNL     1     -11.881  22.524  46.934  1.00  0.00     0.015 A 
ATOM      4  C   UNL     1     -11.077  23.665  46.742  1.00  0.00     0.017 A 
ATOM      5  C   UNL     1     -10.087  23.634  45.741  1.00  0.00     0.012 A 
ATOM      6  C   UNL     1      -9.911  22.496  44.951  1.00  0.00     0.001 A 
ATOM      7  C   UNL     1     -10.715  21.371  45.149  1.00  0.00     0.003 A 
ENDROOT
BRANCH   4   8
ATOM      8  C   UNL     1     -11.285  24.872  47.587  1.00  0.00     0.159 C 
ATOM      9  O   UNL     1     -11.096  26.019  47.099  1.00  0.00    -0.295 OA
ATOM     10  C   UNL     1     -11.718  24.772  49.020  1.00  0.00     0.093 C 
ENDBRANCH   4   8
TORSDOF 1
ENDMDL
MODEL 9
REMARK VINA RESULT:    -3.093      2.081      2.869
REMARK INTER + INTRA:          -3.340
REMARK INTER:                  -3.265
REMARK INTRA:                  -0.075
REMARK UNBOUND:                -0.067
REMARK SMILES CC(=O)c1cccc(C)c1
REMARK SMILES IDX 9 1 8 2 10 3 4 4 5 5 6 6 7 7 2 8 3 9 1 10
REMARK H PARENT
REMARK Flexibility Score: inf
ROOT
ATOM      1  C   UNL     1      -3.723  23.564  33.318  1.00  0.00     0.044 C 
ATOM      2  C   UNL     1      -2.264  23.574  32.970  1.00  0.00    -0.050 A 
ATOM      3  C   UNL     1      -1.462  22.455  33.251  1.00  0.00     0.015 A 
ATOM      4  C   UNL     1      -0.083  22.465  32.964  1.00  0.00     0.017 A 
ATOM      5  C   UNL     1       0.481  23.626  32.399  1.00  0.00     0.012 A 
ATOM      6  C   UNL     1      -0.312  24.745  32.135  1.00  0.00     0.001 A 
ATOM      7  C   UNL     1      -1.677  24.724  32.425  1.00  0.00     0.003 A 
ENDROOT
BRANCH   4   8
ATOM      8  C   UNL     1       0.747  21.267  33.260  1.00  0.00     0.159 C 
ATOM      9  O   UNL     1       1.947  21.409  33.620  1.00  0.00    -0.295 OA
ATOM     10  C   UNL     1       0.201  19.875  33.144  1.00  0.00     0.093 C 
ENDBRANCH   4   8
TORSDOF 1
ENDMDL
