MODEL 1
REMARK VINA RESULT:    -4.168      0.000      0.000
REMARK INTER + INTRA:          -5.099
REMARK INTER:                  -5.021
REMARK INTRA:                  -0.077
REMARK UNBOUND:                -0.077
REMARK SMILES CC[C@@H](C)[C@H]([NH3+])C(=O)[O-]
REMARK SMILES IDX 3 1 4 2 5 3 6 4 7 8 8 9 9 10 2 11 1 12
REMARK H PARENT 6 5 6 6 6 7
REMARK Flexibility Score: inf
ROOT
ATOM      1  C   UNL     1      -0.653  21.388  22.616  1.00  0.00     0.050 C 
ATOM      2  C   UNL     1      -1.295  20.796  23.887  1.00  0.00     0.014 C 
ENDROOT
BRANCH   1   3
ATOM      3  C   UNL     1      -1.450  20.982  21.334  1.00  0.00     0.230 C 
BRANCH   3   4
ATOM      4  N   UNL     1      -2.902  21.132  21.514  1.00  0.00    -0.350 N 
ATOM      5  H   UNL     1      -3.308  20.257  21.922  1.00  0.00     0.345 HD
ATOM      6  H   UNL     1      -3.116  21.933  22.151  1.00  0.00     0.345 HD
ATOM      7  H   UNL     1      -3.369  21.281  20.591  1.00  0.00     0.345 HD
ENDBRANCH   3   4
BRANCH   3   8
ATOM      8  C   UNL     1      -1.148  19.556  20.943  1.00  0.00     0.099 C 
ATOM      9  O   UNL     1      -0.099  19.284  20.302  1.00  0.00    -0.544 OA
ATOM     10  O   UNL     1      -2.030  18.536  21.279  1.00  0.00    -0.544 OA
ENDBRANCH   3   8
ENDBRANCH   1   3
BRANCH   1  11
ATOM     11  C   UNL     1      -0.555  22.935  22.735  1.00  0.00     0.006 C 
ATOM     12  C   UNL     1      -0.566  23.431  24.182  1.00  0.00     0.004 C 
ENDBRANCH   1  11
TORSDOF 4
ENDMDL
MODEL 2
REMARK VINA RESULT:    -4.147     10.401     11.093
REMARK INTER + INTRA:          -5.073
REMARK INTER:                  -5.115
REMARK INTRA:                   0.042
REMARK UNBOUND:                -0.077
REMARK SMILES CC[C@@H](C)[C@H]([NH3+])C(=O)[O-]
REMARK SMILES IDX 3 1 4 2 5 3 6 4 7 8 8 9 9 10 2 11 1 12
REMARK H PARENT 6 5 6 6 6 7
REMARK Flexibility Score: inf
ROOT
ATOM      1  C   UNL     1       6.459  25.441  17.304  1.00  0.00     0.050 C 
ATOM      2  C   UNL     1       5.502  24.240  17.162  1.00  0.00     0.014 C 
ENDROOT
BRANCH   1   3
ATOM      3  C   UNL     1       5.832  26.742  16.704  1.00  0.00     0.230 C 
BRANCH   3   4
ATOM      4  N   UNL     1       4.781  26.446  15.717  1.00  0.00    -0.350 N 
ATOM      5  H   UNL     1       3.836  26.567  16.151  1.00  0.00     0.345 HD
ATOM      6  H   UNL     1       4.860  27.083  14.891  1.00  0.00     0.345 HD
ATOM      7  H   UNL     1       4.846  25.451  15.404  1.00  0.00     0.345 HD
ENDBRANCH   3   4
BRANCH   3   8
ATOM      8  C   UNL     1       6.891  27.597  16.053  1.00  0.00     0.099 C 
ATOM      9  O   UNL     1       6.601  28.326  15.069  1.00  0.00    -0.544 OA
ATOM     10  O   UNL     1       8.197  27.578  16.529  1.00  0.00    -0.544 OA
ENDBRANCH   3   8
ENDBRANCH   1   3
BRANCH   1  11
ATOM     11  C   UNL     1       6.836  25.652  18.797  1.00  0.00     0.006 C 
ATOM     12  C   UNL     1       7.401  24.395  19.460  1.00  0.00     0.004 C 
ENDBRANCH   1  11
TORSDOF 4
ENDMDL
MODEL 3
REMARK VINA RESULT:    -4.137      8.662      9.890
REMARK INTER + INTRA:          -5.061
REMARK INTER:                  -4.972
REMARK INTRA:                  -0.090
REMARK UNBOUND:                -0.077
REMARK SMILES CC[C@@H](C)[C@H]([NH3+])C(=O)[O-]
REMARK SMILES IDX 3 1 4 2 5 3 6 4 7 8 8 9 9 10 2 11 1 12
REMARK H PARENT 6 5 6 6 6 7
REMARK Flexibility Score: inf
ROOT
ATOM      1  C   UNL     1       3.696  25.575  27.101  1.00  0.00     0.050 C 
ATOM      2  C   UNL     1       4.450  25.266  25.792  1.00  0.00     0.014 C 
ENDROOT
BRANCH   1   3
ATOM      3  C   UNL     1       4.617  26.310  28.128  1.00  0.00     0.230 C 
BRANCH   3   4
ATOM      4  N   UNL     1       5.209  27.534  27.565  1.00  0.00    -0.350 N 
ATOM      5  H   UNL     1       4.627  28.367  27.821  1.00  0.00     0.345 HD
ATOM      6  H   UNL     1       6.180  27.675  27.925  1.00  0.00     0.345 HD
ATOM      7  H   UNL     1       5.222  27.484  26.521  1.00  0.00     0.345 HD
ENDBRANCH   3   4
BRANCH   3   8
ATOM      8  C   UNL     1       5.725  25.402  28.603  1.00  0.00     0.099 C 
ATOM      9  O   UNL     1       5.452  24.297  29.139  1.00  0.00    -0.544 OA
ATOM     10  O   UNL     1       7.054  25.785  28.459  1.00  0.00    -0.544 OA
ENDBRANCH   3   8
ENDBRANCH   1   3
BRANCH   1  11
ATOM     11  C   UNL     1       2.425  26.418  26.803  1.00  0.00     0.006 C 
ATOM     12  C   UNL     1       1.147  25.580  26.736  1.00  0.00     0.004 C 
ENDBRANCH   1  11
TORSDOF 4
ENDMDL
MODEL 4
REMARK VINA RESULT:    -4.137     14.653     15.235
REMARK INTER + INTRA:          -5.061
REMARK INTER:                  -4.973
REMARK INTRA:                  -0.088
REMARK UNBOUND:                -0.077
REMARK SMILES CC[C@@H](C)[C@H]([NH3+])C(=O)[O-]
REMARK SMILES IDX 3 1 4 2 5 3 6 4 7 8 8 9 9 10 2 11 1 12
REMARK H PARENT 6 5 6 6 6 7
REMARK Flexibility Score: inf
ROOT
ATOM      1  C   UNL     1      13.156  19.603  20.608  1.00  0.00     0.050 C 
ATOM      2  C   UNL     1      13.996  18.366  20.983  1.00  0.00     0.014 C 
ENDROOT
BRANCH   1   3
ATOM      3  C   UNL     1      13.671  20.884  21.342  1.00  0.00     0.230 C 
BRANCH   3   4
ATOM      4  N   UNL     1      15.108  21.110  21.119  1.00  0.00    -0.350 N 
ATOM      5  H   UNL     1      15.672  20.486  21.742  1.00  0.00     0.345 HD
ATOM      6  H   UNL     1      15.363  20.916  20.123  1.00  0.00     0.345 HD
ATOM      7  H   UNL     1      15.363  22.093  21.364  1.00  0.00     0.345 HD
ENDBRANCH   3   4
BRANCH   3   8
ATOM      8  C   UNL     1      13.412  20.794  22.826  1.00  0.00     0.099 C 
ATOM      9  O   UNL     1      12.232  20.808  23.265  1.00  0.00    -0.544 OA
ATOM     10  O   UNL     1      14.475  20.705  23.717  1.00  0.00    -0.544 OA
ENDBRANCH   3   8
ENDBRANCH   1   3
BRANCH   1  11
ATOM     11  C   UNL     1      13.165  19.812  19.068  1.00  0.00     0.006 C 
ATOM     12  C   UNL     1      12.120  18.966  18.338  1.00  0.00     0.004 C 
ENDBRANCH   1  11
TORSDOF 4
ENDMDL
MODEL 5
REMARK VINA RESULT:    -4.133      1.694      2.167
REMARK INTER + INTRA:          -5.056
REMARK INTER:                  -4.970
REMARK INTRA:                  -0.086
REMARK UNBOUND:                -0.077
REMARK SMILES CC[C@@H](C)[C@H]([NH3+])C(=O)[O-]
REMARK SMILES IDX 3 1 4 2 5 3 6 4 7 8 8 9 9 10 2 11 1 12
REMARK H PARENT 6 5 6 6 6 7
REMARK Flexibility Score: inf
ROOT
ATOM      1  C   UNL     1      -0.777  22.421  22.913  1.00  0.00     0.050 C 
ATOM      2  C   UNL     1       0.618  22.035  22.381  1.00  0.00     0.014 C 
ENDROOT
BRANCH   1   3
ATOM      3  C   UNL     1      -1.640  21.153  23.217  1.00  0.00     0.230 C 
BRANCH   3   4
ATOM      4  N   UNL     1      -0.884  20.133  23.959  1.00  0.00    -0.350 N 
ATOM      5  H   UNL     1      -0.089  20.577  24.475  1.00  0.00     0.345 HD
ATOM      6  H   UNL     1      -1.501  19.641  24.645  1.00  0.00     0.345 HD
ATOM      7  H   UNL     1      -0.466  19.439  23.299  1.00  0.00     0.345 HD
ENDBRANCH   3   4
BRANCH   3   8
ATOM      8  C   UNL     1      -2.167  20.544  21.941  1.00  0.00     0.099 C 
ATOM      9  O   UNL     1      -2.668  21.276  21.048  1.00  0.00    -0.544 OA
ATOM     10  O   UNL     1      -2.111  19.168  21.747  1.00  0.00    -0.544 OA
ENDBRANCH   3   8
ENDBRANCH   1   3
BRANCH   1  11
ATOM     11  C   UNL     1      -0.641  23.309  24.181  1.00  0.00     0.006 C 
ATOM     12  C   UNL     1       0.615  24.182  24.174  1.00  0.00     0.004 C 
ENDBRANCH   1  11
TORSDOF 4
ENDMDL
MODEL 6
REMARK VINA RESULT:    -4.124     14.209     14.806
REMARK INTER + INTRA:          -5.046
REMARK INTER:                  -4.922
REMARK INTRA:                  -0.124
REMARK UNBOUND:                -0.077
REMARK SMILES CC[C@@H](C)[C@H]([NH3+])C(=O)[O-]
REMARK SMILES IDX 3 1 4 2 5 3 6 4 7 8 8 9 9 10 2 11 1 12
REMARK H PARENT 6 5 6 6 6 7
REMARK Flexibility Score: inf
ROOT
ATOM      1  C   UNL     1      13.140  19.107  20.293  1.00  0.00     0.050 C 
ATOM      2  C   UNL     1      14.054  18.359  21.285  1.00  0.00     0.014 C 
ENDROOT
BRANCH   1   3
ATOM      3  C   UNL     1      13.496  20.628  20.228  1.00  0.00     0.230 C 
BRANCH   3   4
ATOM      4  N   UNL     1      14.714  20.945  20.990  1.00  0.00    -0.350 N 
ATOM      5  H   UNL     1      15.556  20.879  20.370  1.00  0.00     0.345 HD
ATOM      6  H   UNL     1      14.661  21.911  21.387  1.00  0.00     0.345 HD
ATOM      7  H   UNL     1      14.851  20.252  21.761  1.00  0.00     0.345 HD
ENDBRANCH   3   4
BRANCH   3   8
ATOM      8  C   UNL     1      12.357  21.470  20.748  1.00  0.00     0.099 C 
ATOM      9  O   UNL     1      11.316  21.624  20.058  1.00  0.00    -0.544 OA
ATOM     10  O   UNL     1      12.454  22.088  21.990  1.00  0.00    -0.544 OA
ENDBRANCH   3   8
ENDBRANCH   1   3
BRANCH   1  11
ATOM     11  C   UNL     1      13.235  18.460  18.884  1.00  0.00     0.006 C 
ATOM     12  C   UNL     1      12.017  18.747  18.004  1.00  0.00     0.004 C 
ENDBRANCH   1  11
TORSDOF 4
ENDMDL
MODEL 7
REMARK VINA RESULT:    -4.109     14.979     15.592
REMARK INTER + INTRA:          -5.027
REMARK INTER:                  -4.960
REMARK INTRA:                  -0.068
REMARK UNBOUND:                -0.077
REMARK SMILES CC[C@@H](C)[C@H]([NH3+])C(=O)[O-]
REMARK SMILES IDX 3 1 4 2 5 3 6 4 7 8 8 9 9 10 2 11 1 12
REMARK H PARENT 6 5 6 6 6 7
REMARK Flexibility Score: inf
ROOT
ATOM      1  C   UNL     1      13.471  20.876  20.899  1.00  0.00     0.050 C 
ATOM      2  C   UNL     1      12.263  21.507  20.178  1.00  0.00     0.014 C 
ENDROOT
BRANCH   1   3
ATOM      3  C   UNL     1      13.618  21.428  22.354  1.00  0.00     0.230 C 
BRANCH   3   4
ATOM      4  N   UNL     1      13.738  22.895  22.380  1.00  0.00    -0.350 N 
ATOM      5  H   UNL     1      14.567  23.178  22.955  1.00  0.00     0.345 HD
ATOM      6  H   UNL     1      13.851  23.274  21.413  1.00  0.00     0.345 HD
ATOM      7  H   UNL     1      12.897  23.320  22.832  1.00  0.00     0.345 HD
ENDBRANCH   3   4
BRANCH   3   8
ATOM      8  C   UNL     1      14.818  20.824  23.040  1.00  0.00     0.099 C 
ATOM      9  O   UNL     1      14.711  20.346  24.199  1.00  0.00    -0.544 OA
ATOM     10  O   UNL     1      16.052  20.800  22.400  1.00  0.00    -0.544 OA
ENDBRANCH   3   8
ENDBRANCH   1   3
BRANCH   1  11
ATOM     11  C   UNL     1      13.341  19.328  20.910  1.00  0.00     0.006 C 
ATOM     12  C   UNL     1      13.384  18.707  19.512  1.00  0.00     0.004 C 
ENDBRANCH   1  11
TORSDOF 4
ENDMDL
MODEL 8
REMARK VINA RESULT:    -4.075     13.595     14.076
REMARK INTER + INTRA:          -4.986
REMARK INTER:                  -4.922
REMARK INTRA:                  -0.064
REMARK UNBOUND:                -0.077
REMARK SMILES CC[C@@H](C)[C@H]([NH3+])C(=O)[O-]
REMARK SMILES IDX 3 1 4 2 5 3 6 4 7 8 8 9 9 10 2 11 1 12
REMARK H PARENT 6 5 6 6 6 7
REMARK Flexibility Score: inf
ROOT
ATOM      1  C   UNL     1      11.773  19.870  20.004  1.00  0.00     0.050 C 
ATOM      2  C   UNL     1      12.096  21.377  20.028  1.00  0.00     0.014 C 
ENDROOT
BRANCH   1   3
ATOM      3  C   UNL     1      12.712  19.103  19.018  1.00  0.00     0.230 C 
BRANCH   3   4
ATOM      4  N   UNL     1      13.831  19.939  18.555  1.00  0.00    -0.350 N 
ATOM      5  H   UNL     1      14.448  19.391  17.909  1.00  0.00     0.345 HD
ATOM      6  H   UNL     1      13.478  20.784  18.051  1.00  0.00     0.345 HD
ATOM      7  H   UNL     1      14.425  20.231  19.364  1.00  0.00     0.345 HD
ENDBRANCH   3   4
BRANCH   3   8
ATOM      8  C   UNL     1      11.942  18.605  17.819  1.00  0.00     0.099 C 
ATOM      9  O   UNL     1      10.944  19.246  17.397  1.00  0.00    -0.544 OA
ATOM     10  O   UNL     1      12.323  17.431  17.180  1.00  0.00    -0.544 OA
ENDBRANCH   3   8
ENDBRANCH   1   3
BRANCH   1  11
ATOM     11  C   UNL     1      11.878  19.276  21.436  1.00  0.00     0.006 C 
ATOM     12  C   UNL     1      13.278  18.760  21.775  1.00  0.00     0.004 C 
ENDBRANCH   1  11
TORSDOF 4
ENDMDL
MODEL 9
REMARK VINA RESULT:    -4.048     14.700     15.296
REMARK INTER + INTRA:          -4.953
REMARK INTER:                  -4.868
REMARK INTRA:                  -0.085
REMARK UNBOUND:                -0.077
REMARK SMILES CC[C@@H](C)[C@H]([NH3+])C(=O)[O-]
REMARK SMILES IDX 3 1 4 2 5 3 6 4 7 8 8 9 9 10 2 11 1 12
REMARK H PARENT 6 5 6 6 6 7
REMARK Flexibility Score: inf
ROOT
ATOM      1  C   UNL     1      13.346  19.934  20.052  1.00  0.00     0.050 C 
ATOM      2  C   UNL     1      12.043  20.652  20.458  1.00  0.00     0.014 C 
ENDROOT
BRANCH   1   3
ATOM      3  C   UNL     1      14.115  19.401  21.304  1.00  0.00     0.230 C 
BRANCH   3   4
ATOM      4  N   UNL     1      13.282  18.513  22.130  1.00  0.00    -0.350 N 
ATOM      5  H   UNL     1      13.305  17.538  21.748  1.00  0.00     0.345 HD
ATOM      6  H   UNL     1      13.624  18.498  23.118  1.00  0.00     0.345 HD
ATOM      7  H   UNL     1      12.284  18.824  22.105  1.00  0.00     0.345 HD
ENDBRANCH   3   4
BRANCH   3   8
ATOM      8  C   UNL     1      14.611  20.543  22.156  1.00  0.00     0.099 C 
ATOM      9  O   UNL     1      15.241  21.498  21.631  1.00  0.00    -0.544 OA
ATOM     10  O   UNL     1      14.384  20.543  23.528  1.00  0.00    -0.544 OA
ENDBRANCH   3   8
ENDBRANCH   1   3
BRANCH   1  11
ATOM     11  C   UNL     1      13.034  18.775  19.065  1.00  0.00     0.006 C 
ATOM     12  C   UNL     1      11.879  19.088  18.111  1.00  0.00     0.004 C 
ENDBRANCH   1  11
TORSDOF 4
ENDMDL
