MODEL 1
REMARK VINA RESULT:    -5.591      0.000      0.000
REMARK INTER + INTRA:          -5.918
REMARK INTER:                  -5.918
REMARK INTRA:                   0.000
REMARK UNBOUND:                 0.000
REMARK SMILES O=c1ccc2cc(O)c(O)cc2o1
REMARK SMILES IDX 4 1 3 2 2 3 1 4 13 5 12 6 11 7 9 8 7 9 6 10 5 11 8 12 10 14
REMARK H PARENT 8 13 10 15
REMARK Flexibility Score: inf
ROOT
ATOM      1  C   UNL     1     131.465 134.752 123.597  1.00  0.00     0.019 A 
ATOM      2  C   UNL     1     131.562 133.430 124.031  1.00  0.00     0.094 A 
ATOM      3  C   UNL     1     130.490 132.562 123.803  1.00  0.00     0.336 A 
ATOM      4  O   UNL     1     130.558 131.365 124.187  1.00  0.00    -0.246 OA
ATOM      5  O   UNL     1     129.394 132.992 123.183  1.00  0.00    -0.423 OA
ATOM      6  C   UNL     1     129.260 134.245 122.754  1.00  0.00     0.142 A 
ATOM      7  C   UNL     1     128.084 134.641 122.109  1.00  0.00     0.098 A 
ATOM      8  C   UNL     1     127.938 135.960 121.655  1.00  0.00     0.161 A 
ATOM      9  C   UNL     1     128.973 136.887 121.848  1.00  0.00     0.158 A 
ATOM     10  C   UNL     1     130.155 136.496 122.495  1.00  0.00     0.062 A 
ATOM     11  C   UNL     1     130.301 135.178 122.948  1.00  0.00     0.022 A 
ENDROOT
BRANCH   9  12
ATOM     12  O   UNL     1     128.819 138.196 121.393  1.00  0.00    -0.504 OA
ATOM     13  H   UNL     1     129.480 138.924 121.639  1.00  0.00     0.293 HD
ENDBRANCH   9  12
BRANCH   8  14
ATOM     14  O   UNL     1     126.767 136.357 121.010  1.00  0.00    -0.504 OA
ATOM     15  H   UNL     1     125.858 136.026 121.311  1.00  0.00     0.293 HD
ENDBRANCH   8  14
TORSDOF 2
ENDMDL
MODEL 2
REMARK VINA RESULT:    -5.548      1.936      2.397
REMARK INTER + INTRA:          -5.872
REMARK INTER:                  -5.872
REMARK INTRA:                   0.000
REMARK UNBOUND:                 0.000
REMARK SMILES O=c1ccc2cc(O)c(O)cc2o1
REMARK SMILES IDX 4 1 3 2 2 3 1 4 13 5 12 6 11 7 9 8 7 9 6 10 5 11 8 12 10 14
REMARK H PARENT 8 13 10 15
REMARK Flexibility Score: inf
ROOT
ATOM      1  C   UNL     1     129.625 133.311 123.576  1.00  0.00     0.019 A 
ATOM      2  C   UNL     1     130.479 132.464 122.870  1.00  0.00     0.094 A 
ATOM      3  C   UNL     1     131.166 132.966 121.760  1.00  0.00     0.336 A 
ATOM      4  O   UNL     1     131.942 132.218 121.110  1.00  0.00    -0.246 OA
ATOM      5  O   UNL     1     131.004 134.232 121.384  1.00  0.00    -0.423 OA
ATOM      6  C   UNL     1     130.198 135.073 122.028  1.00  0.00     0.142 A 
ATOM      7  C   UNL     1     130.067 136.393 121.587  1.00  0.00     0.098 A 
ATOM      8  C   UNL     1     129.219 137.283 122.263  1.00  0.00     0.161 A 
ATOM      9  C   UNL     1     128.499 136.850 123.385  1.00  0.00     0.158 A 
ATOM     10  C   UNL     1     128.626 135.526 123.833  1.00  0.00     0.062 A 
ATOM     11  C   UNL     1     129.473 134.637 123.158  1.00  0.00     0.022 A 
ENDROOT
BRANCH   9  12
ATOM     12  O   UNL     1     127.659 137.741 124.051  1.00  0.00    -0.504 OA
ATOM     13  H   UNL     1     126.892 138.202 123.575  1.00  0.00     0.293 HD
ENDBRANCH   9  12
BRANCH   8  14
ATOM     14  O   UNL     1     129.088 138.600 121.825  1.00  0.00    -0.504 OA
ATOM     15  H   UNL     1     129.302 138.866 120.870  1.00  0.00     0.293 HD
ENDBRANCH   8  14
TORSDOF 2
ENDMDL
MODEL 3
REMARK VINA RESULT:    -5.390      1.922      4.781
REMARK INTER + INTRA:          -5.706
REMARK INTER:                  -5.706
REMARK INTRA:                   0.000
REMARK UNBOUND:                 0.000
REMARK SMILES O=c1ccc2cc(O)c(O)cc2o1
REMARK SMILES IDX 4 1 3 2 2 3 1 4 13 5 12 6 11 7 9 8 7 9 6 10 5 11 8 12 10 14
REMARK H PARENT 8 13 10 15
REMARK Flexibility Score: inf
ROOT
ATOM      1  C   UNL     1     128.462 134.345 124.267  1.00  0.00     0.019 A 
ATOM      2  C   UNL     1     127.999 135.635 124.013  1.00  0.00     0.094 A 
ATOM      3  C   UNL     1     128.546 136.352 122.945  1.00  0.00     0.336 A 
ATOM      4  O   UNL     1     128.142 137.519 122.698  1.00  0.00    -0.246 OA
ATOM      5  O   UNL     1     129.494 135.810 122.184  1.00  0.00    -0.423 OA
ATOM      6  C   UNL     1     129.965 134.583 122.393  1.00  0.00     0.142 A 
ATOM      7  C   UNL     1     130.963 134.066 121.562  1.00  0.00     0.098 A 
ATOM      8  C   UNL     1     131.462 132.772 121.778  1.00  0.00     0.161 A 
ATOM      9  C   UNL     1     130.960 131.994 122.830  1.00  0.00     0.158 A 
ATOM     10  C   UNL     1     129.958 132.508 123.669  1.00  0.00     0.062 A 
ATOM     11  C   UNL     1     129.460 133.799 123.453  1.00  0.00     0.022 A 
ENDROOT
BRANCH   9  12
ATOM     12  O   UNL     1     131.461 130.710 123.038  1.00  0.00    -0.504 OA
ATOM     13  H   UNL     1     131.191 129.933 122.446  1.00  0.00     0.293 HD
ENDBRANCH   9  12
BRANCH   8  14
ATOM     14  O   UNL     1     132.456 132.254 120.950  1.00  0.00    -0.504 OA
ATOM     15  H   UNL     1     132.324 132.175 119.948  1.00  0.00     0.293 HD
ENDBRANCH   8  14
TORSDOF 2
ENDMDL
MODEL 4
REMARK VINA RESULT:    -5.383      1.233      2.299
REMARK INTER + INTRA:          -5.697
REMARK INTER:                  -5.697
REMARK INTRA:                   0.000
REMARK UNBOUND:                 0.000
REMARK SMILES O=c1ccc2cc(O)c(O)cc2o1
REMARK SMILES IDX 4 1 3 2 2 3 1 4 13 5 12 6 11 7 9 8 7 9 6 10 5 11 8 12 10 14
REMARK H PARENT 8 13 10 15
REMARK Flexibility Score: inf
ROOT
ATOM      1  C   UNL     1     128.896 133.176 123.936  1.00  0.00     0.019 A 
ATOM      2  C   UNL     1     130.045 132.814 124.638  1.00  0.00     0.094 A 
ATOM      3  C   UNL     1     131.154 133.665 124.608  1.00  0.00     0.336 A 
ATOM      4  O   UNL     1     132.201 133.357 125.235  1.00  0.00    -0.246 OA
ATOM      5  O   UNL     1     131.111 134.803 123.919  1.00  0.00    -0.423 OA
ATOM      6  C   UNL     1     130.036 135.186 123.235  1.00  0.00     0.142 A 
ATOM      7  C   UNL     1     130.049 136.393 122.529  1.00  0.00     0.098 A 
ATOM      8  C   UNL     1     128.918 136.801 121.806  1.00  0.00     0.161 A 
ATOM      9  C   UNL     1     127.769 135.998 121.791  1.00  0.00     0.158 A 
ATOM     10  C   UNL     1     127.749 134.785 122.498  1.00  0.00     0.062 A 
ATOM     11  C   UNL     1     128.879 134.378 123.220  1.00  0.00     0.022 A 
ENDROOT
BRANCH   9  12
ATOM     12  O   UNL     1     126.649 136.411 121.071  1.00  0.00    -0.504 OA
ATOM     13  H   UNL     1     125.949 135.750 120.754  1.00  0.00     0.293 HD
ENDBRANCH   9  12
BRANCH   8  14
ATOM     14  O   UNL     1     128.928 138.004 121.102  1.00  0.00    -0.504 OA
ATOM     15  H   UNL     1     129.514 138.135 120.285  1.00  0.00     0.293 HD
ENDBRANCH   8  14
TORSDOF 2
ENDMDL
MODEL 5
REMARK VINA RESULT:    -5.376      6.380      7.285
REMARK INTER + INTRA:          -5.690
REMARK INTER:                  -5.690
REMARK INTRA:                   0.000
REMARK UNBOUND:                 0.000
REMARK SMILES O=c1ccc2cc(O)c(O)cc2o1
REMARK SMILES IDX 4 1 3 2 2 3 1 4 13 5 12 6 11 7 9 8 7 9 6 10 5 11 8 12 10 14
REMARK H PARENT 8 13 10 15
REMARK Flexibility Score: inf
ROOT
ATOM      1  C   UNL     1     126.248 133.456 130.339  1.00  0.00     0.019 A 
ATOM      2  C   UNL     1     126.651 132.776 131.488  1.00  0.00     0.094 A 
ATOM      3  C   UNL     1     127.978 132.344 131.588  1.00  0.00     0.336 A 
ATOM      4  O   UNL     1     128.362 131.728 132.617  1.00  0.00    -0.246 OA
ATOM      5  O   UNL     1     128.840 132.579 130.602  1.00  0.00    -0.423 OA
ATOM      6  C   UNL     1     128.496 133.223 129.490  1.00  0.00     0.142 A 
ATOM      7  C   UNL     1     129.445 133.441 128.486  1.00  0.00     0.098 A 
ATOM      8  C   UNL     1     129.088 134.120 127.312  1.00  0.00     0.161 A 
ATOM      9  C   UNL     1     127.775 134.583 127.141  1.00  0.00     0.158 A 
ATOM     10  C   UNL     1     126.818 134.368 128.145  1.00  0.00     0.062 A 
ATOM     11  C   UNL     1     127.175 133.690 129.318  1.00  0.00     0.022 A 
ENDROOT
BRANCH   9  12
ATOM     12  O   UNL     1     127.429 135.257 125.971  1.00  0.00    -0.504 OA
ATOM     13  H   UNL     1     126.498 135.191 125.577  1.00  0.00     0.293 HD
ENDBRANCH   9  12
BRANCH   8  14
ATOM     14  O   UNL     1     130.032 134.340 126.310  1.00  0.00    -0.504 OA
ATOM     15  H   UNL     1     130.954 134.705 126.521  1.00  0.00     0.293 HD
ENDBRANCH   8  14
TORSDOF 2
ENDMDL
MODEL 6
REMARK VINA RESULT:    -5.349      2.486      3.798
REMARK INTER + INTRA:          -5.662
REMARK INTER:                  -5.662
REMARK INTRA:                   0.000
REMARK UNBOUND:                 0.000
REMARK SMILES O=c1ccc2cc(O)c(O)cc2o1
REMARK SMILES IDX 4 1 3 2 2 3 1 4 13 5 12 6 11 7 9 8 7 9 6 10 5 11 8 12 10 14
REMARK H PARENT 8 13 10 15
REMARK Flexibility Score: inf
ROOT
ATOM      1  C   UNL     1     131.715 130.897 123.771  1.00  0.00     0.019 A 
ATOM      2  C   UNL     1     132.144 130.407 122.537  1.00  0.00     0.094 A 
ATOM      3  C   UNL     1     131.932 131.180 121.391  1.00  0.00     0.336 A 
ATOM      4  O   UNL     1     132.312 130.757 120.268  1.00  0.00    -0.246 OA
ATOM      5  O   UNL     1     131.330 132.364 121.479  1.00  0.00    -0.423 OA
ATOM      6  C   UNL     1     130.905 132.867 122.635  1.00  0.00     0.142 A 
ATOM      7  C   UNL     1     130.278 134.116 122.666  1.00  0.00     0.098 A 
ATOM      8  C   UNL     1     129.828 134.651 123.882  1.00  0.00     0.161 A 
ATOM      9  C   UNL     1     130.007 133.933 125.073  1.00  0.00     0.158 A 
ATOM     10  C   UNL     1     130.636 132.678 125.049  1.00  0.00     0.062 A 
ATOM     11  C   UNL     1     131.085 132.144 123.834  1.00  0.00     0.022 A 
ENDROOT
BRANCH   9  12
ATOM     12  O   UNL     1     129.558 134.472 126.277  1.00  0.00    -0.504 OA
ATOM     13  H   UNL     1     129.545 133.925 127.131  1.00  0.00     0.293 HD
ENDBRANCH   9  12
BRANCH   8  14
ATOM     14  O   UNL     1     129.204 135.897 123.916  1.00  0.00    -0.504 OA
ATOM     15  H   UNL     1     129.739 136.758 123.925  1.00  0.00     0.293 HD
ENDBRANCH   8  14
TORSDOF 2
ENDMDL
MODEL 7
REMARK VINA RESULT:    -5.302      2.353      5.140
REMARK INTER + INTRA:          -5.612
REMARK INTER:                  -5.612
REMARK INTRA:                   0.000
REMARK UNBOUND:                 0.000
REMARK SMILES O=c1ccc2cc(O)c(O)cc2o1
REMARK SMILES IDX 4 1 3 2 2 3 1 4 13 5 12 6 11 7 9 8 7 9 6 10 5 11 8 12 10 14
REMARK H PARENT 8 13 10 15
REMARK Flexibility Score: inf
ROOT
ATOM      1  C   UNL     1     129.208 132.621 124.739  1.00  0.00     0.019 A 
ATOM      2  C   UNL     1     128.189 133.495 124.361  1.00  0.00     0.094 A 
ATOM      3  C   UNL     1     128.251 134.105 123.105  1.00  0.00     0.336 A 
ATOM      4  O   UNL     1     127.341 134.897 122.745  1.00  0.00    -0.246 OA
ATOM      5  O   UNL     1     129.267 133.855 122.283  1.00  0.00    -0.423 OA
ATOM      6  C   UNL     1     130.261 133.029 122.604  1.00  0.00     0.142 A 
ATOM      7  C   UNL     1     131.304 132.804 121.701  1.00  0.00     0.098 A 
ATOM      8  C   UNL     1     132.352 131.935 122.035  1.00  0.00     0.161 A 
ATOM      9  C   UNL     1     132.357 131.287 123.278  1.00  0.00     0.158 A 
ATOM     10  C   UNL     1     131.313 131.507 124.190  1.00  0.00     0.062 A 
ATOM     11  C   UNL     1     130.265 132.376 123.856  1.00  0.00     0.022 A 
ENDROOT
BRANCH   9  12
ATOM     12  O   UNL     1     133.403 130.424 123.602  1.00  0.00    -0.504 OA
ATOM     13  H   UNL     1     134.053 130.091 122.898  1.00  0.00     0.293 HD
ENDBRANCH   9  12
BRANCH   8  14
ATOM     14  O   UNL     1     133.393 131.709 121.136  1.00  0.00    -0.504 OA
ATOM     15  H   UNL     1     133.485 132.250 120.283  1.00  0.00     0.293 HD
ENDBRANCH   8  14
TORSDOF 2
ENDMDL
MODEL 8
REMARK VINA RESULT:    -5.277      2.395      3.520
REMARK INTER + INTRA:          -5.586
REMARK INTER:                  -5.586
REMARK INTRA:                   0.000
REMARK UNBOUND:                 0.000
REMARK SMILES O=c1ccc2cc(O)c(O)cc2o1
REMARK SMILES IDX 4 1 3 2 2 3 1 4 13 5 12 6 11 7 9 8 7 9 6 10 5 11 8 12 10 14
REMARK H PARENT 8 13 10 15
REMARK Flexibility Score: inf
ROOT
ATOM      1  C   UNL     1     131.898 132.281 120.986  1.00  0.00     0.019 A 
ATOM      2  C   UNL     1     132.283 130.943 121.057  1.00  0.00     0.094 A 
ATOM      3  C   UNL     1     132.076 130.240 122.248  1.00  0.00     0.336 A 
ATOM      4  O   UNL     1     132.415 129.031 122.333  1.00  0.00    -0.246 OA
ATOM      5  O   UNL     1     131.522 130.843 123.298  1.00  0.00    -0.423 OA
ATOM      6  C   UNL     1     131.142 132.118 123.273  1.00  0.00     0.142 A 
ATOM      7  C   UNL     1     130.565 132.698 124.407  1.00  0.00     0.098 A 
ATOM      8  C   UNL     1     130.163 134.042 124.386  1.00  0.00     0.161 A 
ATOM      9  C   UNL     1     130.339 134.808 123.225  1.00  0.00     0.158 A 
ATOM     10  C   UNL     1     130.917 134.232 122.083  1.00  0.00     0.062 A 
ATOM     11  C   UNL     1     131.319 132.889 122.104  1.00  0.00     0.022 A 
ENDROOT
BRANCH   9  12
ATOM     12  O   UNL     1     129.936 136.143 123.212  1.00  0.00    -0.504 OA
ATOM     13  H   UNL     1     129.048 136.432 123.605  1.00  0.00     0.293 HD
ENDBRANCH   9  12
BRANCH   8  14
ATOM     14  O   UNL     1     129.587 134.622 125.515  1.00  0.00    -0.504 OA
ATOM     15  H   UNL     1     128.611 134.895 125.531  1.00  0.00     0.293 HD
ENDBRANCH   8  14
TORSDOF 2
ENDMDL
MODEL 9
REMARK VINA RESULT:    -5.256      2.627      3.944
REMARK INTER + INTRA:          -5.563
REMARK INTER:                  -5.563
REMARK INTRA:                   0.000
REMARK UNBOUND:                 0.000
REMARK SMILES O=c1ccc2cc(O)c(O)cc2o1
REMARK SMILES IDX 4 1 3 2 2 3 1 4 13 5 12 6 11 7 9 8 7 9 6 10 5 11 8 12 10 14
REMARK H PARENT 8 13 10 15
REMARK Flexibility Score: inf
ROOT
ATOM      1  C   UNL     1     128.303 135.444 123.576  1.00  0.00     0.019 A 
ATOM      2  C   UNL     1     127.724 135.248 124.830  1.00  0.00     0.094 A 
ATOM      3  C   UNL     1     128.248 134.261 125.671  1.00  0.00     0.336 A 
ATOM      4  O   UNL     1     127.740 134.068 126.806  1.00  0.00    -0.246 OA
ATOM      5  O   UNL     1     129.282 133.521 125.279  1.00  0.00    -0.423 OA
ATOM      6  C   UNL     1     129.863 133.674 124.091  1.00  0.00     0.142 A 
ATOM      7  C   UNL     1     130.946 132.866 123.732  1.00  0.00     0.098 A 
ATOM      8  C   UNL     1     131.562 133.024 122.482  1.00  0.00     0.161 A 
ATOM      9  C   UNL     1     131.091 133.995 121.586  1.00  0.00     0.158 A 
ATOM     10  C   UNL     1     130.004 134.809 121.940  1.00  0.00     0.062 A 
ATOM     11  C   UNL     1     129.389 134.651 123.189  1.00  0.00     0.022 A 
ENDROOT
BRANCH   9  12
ATOM     12  O   UNL     1     131.709 134.145 120.346  1.00  0.00    -0.504 OA
ATOM     13  H   UNL     1     131.392 133.633 119.530  1.00  0.00     0.293 HD
ENDBRANCH   9  12
BRANCH   8  14
ATOM     14  O   UNL     1     132.643 132.221 122.122  1.00  0.00    -0.504 OA
ATOM     15  H   UNL     1     133.507 132.620 121.774  1.00  0.00     0.293 HD
ENDBRANCH   8  14
TORSDOF 2
ENDMDL
