MODEL 1
REMARK VINA RESULT:    -3.217      0.000      0.000
REMARK INTER + INTRA:          -5.811
REMARK INTER:                  -4.910
REMARK INTRA:                  -0.901
REMARK UNBOUND:                -0.901
REMARK SMILES CCCCCCCCCCC(=O)[O-]
REMARK SMILES IDX 7 1 8 2 9 3 10 4 11 5 12 6 13 7 6 8 5 9 4 10 3 11 2 12 1 13
REMARK H PARENT
REMARK Flexibility Score: inf
ROOT
ATOM      1  C   UNL     1      16.630  19.211  49.156  1.00  0.00     0.000 C 
ENDROOT
BRANCH   1   2
ATOM      2  C   UNL     1      17.236  18.406  47.997  1.00  0.00     0.000 C 
BRANCH   2   3
ATOM      3  C   UNL     1      16.757  18.893  46.622  1.00  0.00     0.006 C 
BRANCH   3   4
ATOM      4  C   UNL     1      16.334  17.742  45.700  1.00  0.00     0.053 C 
BRANCH   4   5
ATOM      5  C   UNL     1      14.948  17.290  46.031  1.00  0.00     0.041 C 
ATOM      6  O   UNL     1      14.603  16.097  45.821  1.00  0.00    -0.550 OA
ATOM      7  O   UNL     1      14.021  18.198  46.526  1.00  0.00    -0.550 OA
ENDBRANCH   4   5
ENDBRANCH   3   4
ENDBRANCH   2   3
ENDBRANCH   1   2
BRANCH   1   8
ATOM      8  C   UNL     1      15.383  18.511  49.718  1.00  0.00     0.000 C 
BRANCH   8   9
ATOM      9  C   UNL     1      15.408  18.376  51.251  1.00  0.00    -0.000 C 
BRANCH   9  10
ATOM     10  C   UNL     1      16.039  17.075  51.780  1.00  0.00    -0.000 C 
BRANCH  10  11
ATOM     11  C   UNL     1      17.385  17.304  52.482  1.00  0.00    -0.000 C 
BRANCH  11  12
ATOM     12  C   UNL     1      18.549  17.169  51.494  1.00  0.00    -0.003 C 
ATOM     13  C   UNL     1      19.504  18.354  51.602  1.00  0.00     0.004 C 
ENDBRANCH  11  12
ENDBRANCH  10  11
ENDBRANCH   9  10
ENDBRANCH   8   9
ENDBRANCH   1   8
TORSDOF 9
ENDMDL
MODEL 2
REMARK VINA RESULT:    -3.202     12.411     13.816
REMARK INTER + INTRA:          -5.788
REMARK INTER:                  -4.576
REMARK INTRA:                  -1.212
REMARK UNBOUND:                -0.901
REMARK SMILES CCCCCCCCCCC(=O)[O-]
REMARK SMILES IDX 7 1 8 2 9 3 10 4 11 5 12 6 13 7 6 8 5 9 4 10 3 11 2 12 1 13
REMARK H PARENT
REMARK Flexibility Score: inf
ROOT
ATOM      1  C   UNL     1      19.629  27.790  55.535  1.00  0.00     0.000 C 
ENDROOT
BRANCH   1   2
ATOM      2  C   UNL     1      19.689  28.683  54.286  1.00  0.00     0.000 C 
BRANCH   2   3
ATOM      3  C   UNL     1      19.034  30.055  54.508  1.00  0.00     0.006 C 
BRANCH   3   4
ATOM      4  C   UNL     1      17.909  30.342  53.505  1.00  0.00     0.053 C 
BRANCH   4   5
ATOM      5  C   UNL     1      16.666  29.606  53.891  1.00  0.00     0.041 C 
ATOM      6  O   UNL     1      16.031  28.940  53.030  1.00  0.00    -0.550 OA
ATOM      7  O   UNL     1      16.181  29.693  55.189  1.00  0.00    -0.550 OA
ENDBRANCH   4   5
ENDBRANCH   3   4
ENDBRANCH   2   3
ENDBRANCH   1   2
BRANCH   1   8
ATOM      8  C   UNL     1      19.177  28.594  56.763  1.00  0.00     0.000 C 
BRANCH   8   9
ATOM      9  C   UNL     1      20.047  28.332  58.006  1.00  0.00    -0.000 C 
BRANCH   9  10
ATOM     10  C   UNL     1      20.722  29.582  58.602  1.00  0.00    -0.000 C 
BRANCH  10  11
ATOM     11  C   UNL     1      21.380  30.472  57.538  1.00  0.00    -0.000 C 
BRANCH  11  12
ATOM     12  C   UNL     1      22.611  29.785  56.934  1.00  0.00    -0.003 C 
ATOM     13  C   UNL     1      22.867  30.267  55.509  1.00  0.00     0.004 C 
ENDBRANCH  11  12
ENDBRANCH  10  11
ENDBRANCH   9  10
ENDBRANCH   8   9
ENDBRANCH   1   8
TORSDOF 9
ENDMDL
MODEL 3
REMARK VINA RESULT:    -3.165      2.858      5.199
REMARK INTER + INTRA:          -5.731
REMARK INTER:                  -4.536
REMARK INTRA:                  -1.194
REMARK UNBOUND:                -0.901
REMARK SMILES CCCCCCCCCCC(=O)[O-]
REMARK SMILES IDX 7 1 8 2 9 3 10 4 11 5 12 6 13 7 6 8 5 9 4 10 3 11 2 12 1 13
REMARK H PARENT
REMARK Flexibility Score: inf
ROOT
ATOM      1  C   UNL     1      15.995  19.703  49.407  1.00  0.00     0.000 C 
ENDROOT
BRANCH   1   2
ATOM      2  C   UNL     1      17.469  19.269  49.392  1.00  0.00     0.000 C 
BRANCH   2   3
ATOM      3  C   UNL     1      17.642  17.754  49.583  1.00  0.00     0.006 C 
BRANCH   3   4
ATOM      4  C   UNL     1      18.296  17.399  50.925  1.00  0.00     0.053 C 
BRANCH   4   5
ATOM      5  C   UNL     1      17.267  17.344  52.008  1.00  0.00     0.041 C 
ATOM      6  O   UNL     1      17.549  17.738  53.171  1.00  0.00    -0.550 OA
ATOM      7  O   UNL     1      16.010  16.812  51.747  1.00  0.00    -0.550 OA
ENDBRANCH   4   5
ENDBRANCH   3   4
ENDBRANCH   2   3
ENDBRANCH   1   2
BRANCH   1   8
ATOM      8  C   UNL     1      15.083  18.564  48.927  1.00  0.00     0.000 C 
BRANCH   8   9
ATOM      9  C   UNL     1      14.348  18.893  47.615  1.00  0.00    -0.000 C 
BRANCH   9  10
ATOM     10  C   UNL     1      14.460  17.817  46.519  1.00  0.00    -0.000 C 
BRANCH  10  11
ATOM     11  C   UNL     1      15.913  17.489  46.149  1.00  0.00    -0.000 C 
BRANCH  11  12
ATOM     12  C   UNL     1      16.609  18.706  45.527  1.00  0.00    -0.003 C 
ATOM     13  C   UNL     1      18.114  18.664  45.770  1.00  0.00     0.004 C 
ENDBRANCH  11  12
ENDBRANCH  10  11
ENDBRANCH   9  10
ENDBRANCH   8   9
ENDBRANCH   1   8
TORSDOF 9
ENDMDL
MODEL 4
REMARK VINA RESULT:    -3.144     12.897     14.619
REMARK INTER + INTRA:          -5.698
REMARK INTER:                  -4.552
REMARK INTRA:                  -1.146
REMARK UNBOUND:                -0.901
REMARK SMILES CCCCCCCCCCC(=O)[O-]
REMARK SMILES IDX 7 1 8 2 9 3 10 4 11 5 12 6 13 7 6 8 5 9 4 10 3 11 2 12 1 13
REMARK H PARENT
REMARK Flexibility Score: inf
ROOT
ATOM      1  C   UNL     1      19.558  27.826  55.263  1.00  0.00     0.000 C 
ENDROOT
BRANCH   1   2
ATOM      2  C   UNL     1      20.708  28.818  55.028  1.00  0.00     0.000 C 
BRANCH   2   3
ATOM      3  C   UNL     1      20.563  30.101  55.861  1.00  0.00     0.006 C 
BRANCH   3   4
ATOM      4  C   UNL     1      21.679  30.259  56.902  1.00  0.00     0.053 C 
BRANCH   4   5
ATOM      5  C   UNL     1      21.146  30.023  58.279  1.00  0.00     0.041 C 
ATOM      6  O   UNL     1      20.890  28.852  58.667  1.00  0.00    -0.550 OA
ATOM      7  O   UNL     1      20.887  31.099  59.118  1.00  0.00    -0.550 OA
ENDBRANCH   4   5
ENDBRANCH   3   4
ENDBRANCH   2   3
ENDBRANCH   1   2
BRANCH   1   8
ATOM      8  C   UNL     1      18.476  28.443  56.161  1.00  0.00     0.000 C 
BRANCH   8   9
ATOM      9  C   UNL     1      17.051  28.227  55.621  1.00  0.00    -0.000 C 
BRANCH   9  10
ATOM     10  C   UNL     1      16.348  29.499  55.113  1.00  0.00    -0.000 C 
BRANCH  10  11
ATOM     11  C   UNL     1      17.003  30.082  53.852  1.00  0.00    -0.000 C 
BRANCH  11  12
ATOM     12  C   UNL     1      17.039  29.044  52.724  1.00  0.00    -0.003 C 
ATOM     13  C   UNL     1      18.336  29.142  51.927  1.00  0.00     0.004 C 
ENDBRANCH  11  12
ENDBRANCH  10  11
ENDBRANCH   9  10
ENDBRANCH   8   9
ENDBRANCH   1   8
TORSDOF 9
ENDMDL
MODEL 5
REMARK VINA RESULT:    -3.086      1.365      1.933
REMARK INTER + INTRA:          -5.610
REMARK INTER:                  -4.374
REMARK INTRA:                  -1.236
REMARK UNBOUND:                -0.901
REMARK SMILES CCCCCCCCCCC(=O)[O-]
REMARK SMILES IDX 7 1 8 2 9 3 10 4 11 5 12 6 13 7 6 8 5 9 4 10 3 11 2 12 1 13
REMARK H PARENT
REMARK Flexibility Score: inf
ROOT
ATOM      1  C   UNL     1      15.064  19.479  50.219  1.00  0.00     0.000 C 
ENDROOT
BRANCH   1   2
ATOM      2  C   UNL     1      15.407  18.527  49.063  1.00  0.00     0.000 C 
BRANCH   2   3
ATOM      3  C   UNL     1      16.476  19.102  48.120  1.00  0.00     0.006 C 
BRANCH   3   4
ATOM      4  C   UNL     1      17.211  18.014  47.326  1.00  0.00     0.053 C 
BRANCH   4   5
ATOM      5  C   UNL     1      16.658  17.916  45.940  1.00  0.00     0.041 C 
ATOM      6  O   UNL     1      15.587  17.287  45.728  1.00  0.00    -0.550 OA
ATOM      7  O   UNL     1      17.349  18.478  44.874  1.00  0.00    -0.550 OA
ENDBRANCH   4   5
ENDBRANCH   3   4
ENDBRANCH   2   3
ENDBRANCH   1   2
BRANCH   1   8
ATOM      8  C   UNL     1      15.383  18.831  51.575  1.00  0.00     0.000 C 
BRANCH   8   9
ATOM      9  C   UNL     1      15.863  17.374  51.448  1.00  0.00    -0.000 C 
BRANCH   9  10
ATOM     10  C   UNL     1      17.250  17.091  52.056  1.00  0.00    -0.000 C 
BRANCH  10  11
ATOM     11  C   UNL     1      18.401  17.382  51.082  1.00  0.00    -0.000 C 
BRANCH  11  12
ATOM     12  C   UNL     1      19.243  18.569  51.567  1.00  0.00    -0.003 C 
ATOM     13  C   UNL     1      18.938  19.827  50.761  1.00  0.00     0.004 C 
ENDBRANCH  11  12
ENDBRANCH  10  11
ENDBRANCH   9  10
ENDBRANCH   8   9
ENDBRANCH   1   8
TORSDOF 9
ENDMDL
MODEL 6
REMARK VINA RESULT:    -3.085     12.852     14.715
REMARK INTER + INTRA:          -5.609
REMARK INTER:                  -4.872
REMARK INTRA:                  -0.738
REMARK UNBOUND:                -0.901
REMARK SMILES CCCCCCCCCCC(=O)[O-]
REMARK SMILES IDX 7 1 8 2 9 3 10 4 11 5 12 6 13 7 6 8 5 9 4 10 3 11 2 12 1 13
REMARK H PARENT
REMARK Flexibility Score: inf
ROOT
ATOM      1  C   UNL     1      20.359  30.267  55.069  1.00  0.00     0.000 C 
ENDROOT
BRANCH   1   2
ATOM      2  C   UNL     1      21.205  29.413  56.026  1.00  0.00     0.000 C 
BRANCH   2   3
ATOM      3  C   UNL     1      21.722  30.212  57.232  1.00  0.00     0.006 C 
BRANCH   3   4
ATOM      4  C   UNL     1      20.918  29.940  58.511  1.00  0.00     0.053 C 
BRANCH   4   5
ATOM      5  C   UNL     1      20.871  28.472  58.794  1.00  0.00     0.041 C 
ATOM      6  O   UNL     1      19.763  27.878  58.873  1.00  0.00    -0.550 OA
ATOM      7  O   UNL     1      22.047  27.770  59.020  1.00  0.00    -0.550 OA
ENDBRANCH   4   5
ENDBRANCH   3   4
ENDBRANCH   2   3
ENDBRANCH   1   2
BRANCH   1   8
ATOM      8  C   UNL     1      19.097  29.510  54.629  1.00  0.00     0.000 C 
BRANCH   8   9
ATOM      9  C   UNL     1      18.388  28.793  55.793  1.00  0.00    -0.000 C 
BRANCH   9  10
ATOM     10  C   UNL     1      16.852  28.903  55.786  1.00  0.00    -0.000 C 
BRANCH  10  11
ATOM     11  C   UNL     1      16.308  29.606  54.535  1.00  0.00    -0.000 C 
BRANCH  11  12
ATOM     12  C   UNL     1      15.328  28.700  53.779  1.00  0.00    -0.003 C 
ATOM     13  C   UNL     1      15.870  28.328  52.403  1.00  0.00     0.004 C 
ENDBRANCH  11  12
ENDBRANCH  10  11
ENDBRANCH   9  10
ENDBRANCH   8   9
ENDBRANCH   1   8
TORSDOF 9
ENDMDL
MODEL 7
REMARK VINA RESULT:    -3.079      1.366      2.389
REMARK INTER + INTRA:          -5.600
REMARK INTER:                  -4.633
REMARK INTRA:                  -0.967
REMARK UNBOUND:                -0.901
REMARK SMILES CCCCCCCCCCC(=O)[O-]
REMARK SMILES IDX 7 1 8 2 9 3 10 4 11 5 12 6 13 7 6 8 5 9 4 10 3 11 2 12 1 13
REMARK H PARENT
REMARK Flexibility Score: inf
ROOT
ATOM      1  C   UNL     1      16.928  19.910  48.980  1.00  0.00     0.000 C 
ENDROOT
BRANCH   1   2
ATOM      2  C   UNL     1      15.398  19.822  48.883  1.00  0.00     0.000 C 
BRANCH   2   3
ATOM      3  C   UNL     1      14.905  18.403  48.558  1.00  0.00     0.006 C 
BRANCH   3   4
ATOM      4  C   UNL     1      14.256  18.306  47.171  1.00  0.00     0.053 C 
BRANCH   4   5
ATOM      5  C   UNL     1      15.095  17.470  46.259  1.00  0.00     0.041 C 
ATOM      6  O   UNL     1      16.241  17.864  45.913  1.00  0.00    -0.550 OA
ATOM      7  O   UNL     1      14.595  16.278  45.752  1.00  0.00    -0.550 OA
ENDBRANCH   4   5
ENDBRANCH   3   4
ENDBRANCH   2   3
ENDBRANCH   1   2
BRANCH   1   8
ATOM      8  C   UNL     1      17.542  18.527  49.245  1.00  0.00     0.000 C 
BRANCH   8   9
ATOM      9  C   UNL     1      18.160  18.402  50.649  1.00  0.00    -0.000 C 
BRANCH   9  10
ATOM     10  C   UNL     1      17.840  17.088  51.385  1.00  0.00    -0.000 C 
BRANCH  10  11
ATOM     11  C   UNL     1      16.423  17.062  51.976  1.00  0.00    -0.000 C 
BRANCH  11  12
ATOM     12  C   UNL     1      16.124  18.358  52.739  1.00  0.00    -0.003 C 
ATOM     13  C   UNL     1      16.431  18.207  54.225  1.00  0.00     0.004 C 
ENDBRANCH  11  12
ENDBRANCH  10  11
ENDBRANCH   9  10
ENDBRANCH   8   9
ENDBRANCH   1   8
TORSDOF 9
ENDMDL
MODEL 8
REMARK VINA RESULT:    -3.064     12.597     14.402
REMARK INTER + INTRA:          -5.576
REMARK INTER:                  -4.748
REMARK INTRA:                  -0.829
REMARK UNBOUND:                -0.901
REMARK SMILES CCCCCCCCCCC(=O)[O-]
REMARK SMILES IDX 7 1 8 2 9 3 10 4 11 5 12 6 13 7 6 8 5 9 4 10 3 11 2 12 1 13
REMARK H PARENT
REMARK Flexibility Score: inf
ROOT
ATOM      1  C   UNL     1      19.379  28.371  54.425  1.00  0.00     0.000 C 
ENDROOT
BRANCH   1   2
ATOM      2  C   UNL     1      19.325  27.622  55.765  1.00  0.00     0.000 C 
BRANCH   2   3
ATOM      3  C   UNL     1      19.064  28.555  56.957  1.00  0.00     0.006 C 
BRANCH   3   4
ATOM      4  C   UNL     1      20.210  28.546  57.978  1.00  0.00     0.053 C 
BRANCH   4   5
ATOM      5  C   UNL     1      20.922  29.861  57.976  1.00  0.00     0.041 C 
ATOM      6  O   UNL     1      21.541  30.244  56.948  1.00  0.00    -0.550 OA
ATOM      7  O   UNL     1      20.943  30.641  59.125  1.00  0.00    -0.550 OA
ENDBRANCH   4   5
ENDBRANCH   3   4
ENDBRANCH   2   3
ENDBRANCH   1   2
BRANCH   1   8
ATOM      8  C   UNL     1      18.815  29.793  54.570  1.00  0.00     0.000 C 
BRANCH   8   9
ATOM      9  C   UNL     1      17.410  29.948  53.962  1.00  0.00    -0.000 C 
BRANCH   9  10
ATOM     10  C   UNL     1      16.249  29.576  54.903  1.00  0.00    -0.000 C 
BRANCH  10  11
ATOM     11  C   UNL     1      15.565  28.257  54.518  1.00  0.00    -0.000 C 
BRANCH  11  12
ATOM     12  C   UNL     1      15.109  28.282  53.055  1.00  0.00    -0.003 C 
ATOM     13  C   UNL     1      13.606  28.048  52.942  1.00  0.00     0.004 C 
ENDBRANCH  11  12
ENDBRANCH  10  11
ENDBRANCH   9  10
ENDBRANCH   8   9
ENDBRANCH   1   8
TORSDOF 9
ENDMDL
MODEL 9
REMARK VINA RESULT:    -3.033     12.844     14.508
REMARK INTER + INTRA:          -5.529
REMARK INTER:                  -4.624
REMARK INTRA:                  -0.905
REMARK UNBOUND:                -0.901
REMARK SMILES CCCCCCCCCCC(=O)[O-]
REMARK SMILES IDX 7 1 8 2 9 3 10 4 11 5 12 6 13 7 6 8 5 9 4 10 3 11 2 12 1 13
REMARK H PARENT
REMARK Flexibility Score: inf
ROOT
ATOM      1  C   UNL     1      19.989  28.806  54.056  1.00  0.00     0.000 C 
ENDROOT
BRANCH   1   2
ATOM      2  C   UNL     1      20.075  29.972  55.052  1.00  0.00     0.000 C 
BRANCH   2   3
ATOM      3  C   UNL     1      21.495  30.178  55.602  1.00  0.00     0.006 C 
BRANCH   3   4
ATOM      4  C   UNL     1      21.784  29.310  56.834  1.00  0.00     0.053 C 
BRANCH   4   5
ATOM      5  C   UNL     1      20.963  29.768  57.998  1.00  0.00     0.041 C 
ATOM      6  O   UNL     1      20.012  29.059  58.421  1.00  0.00    -0.550 OA
ATOM      7  O   UNL     1      21.218  31.000  58.586  1.00  0.00    -0.550 OA
ENDBRANCH   4   5
ENDBRANCH   3   4
ENDBRANCH   2   3
ENDBRANCH   1   2
BRANCH   1   8
ATOM      8  C   UNL     1      18.939  29.088  52.970  1.00  0.00     0.000 C 
BRANCH   8   9
ATOM      9  C   UNL     1      17.906  30.148  53.393  1.00  0.00    -0.000 C 
BRANCH   9  10
ATOM     10  C   UNL     1      16.506  29.597  53.720  1.00  0.00    -0.000 C 
BRANCH  10  11
ATOM     11  C   UNL     1      16.215  29.555  55.226  1.00  0.00    -0.000 C 
BRANCH  11  12
ATOM     12  C   UNL     1      16.827  28.304  55.868  1.00  0.00    -0.003 C 
ATOM     13  C   UNL     1      16.488  27.051  55.067  1.00  0.00     0.004 C 
ENDBRANCH  11  12
ENDBRANCH  10  11
ENDBRANCH   9  10
ENDBRANCH   8   9
ENDBRANCH   1   8
TORSDOF 9
ENDMDL
