MODEL 1
REMARK VINA RESULT:    -5.285      0.000      0.000
REMARK INTER + INTRA:          -6.368
REMARK INTER:                  -6.057
REMARK INTRA:                  -0.311
REMARK UNBOUND:                -0.311
REMARK SMILES COc1ccc(C(C)=O)c(O)c1
REMARK SMILES IDX 6 1 10 2 12 3 3 4 4 5 5 6 7 7 8 8 9 9 11 10 2 12 1 13
REMARK H PARENT 11 11
REMARK Flexibility Score: inf
ROOT
ATOM      1  C   UNL     1     -16.498   5.010  -0.688  1.00  0.00     0.059 A 
ATOM      2  C   UNL     1     -16.894   4.571   0.599  1.00  0.00     0.130 A 
ATOM      3  C   UNL     1     -16.602   5.356   1.721  1.00  0.00     0.093 A 
ATOM      4  C   UNL     1     -15.895   6.556   1.598  1.00  0.00     0.122 A 
ATOM      5  C   UNL     1     -15.476   6.977   0.326  1.00  0.00     0.047 A 
ATOM      6  C   UNL     1     -15.775   6.212  -0.803  1.00  0.00     0.019 A 
ENDROOT
BRANCH   1   7
ATOM      7  C   UNL     1     -16.853   4.262  -1.917  1.00  0.00     0.163 C 
ATOM      8  C   UNL     1     -16.096   4.467  -3.193  1.00  0.00     0.093 C 
ATOM      9  O   UNL     1     -17.857   3.501  -1.922  1.00  0.00    -0.294 OA
ENDBRANCH   1   7
BRANCH   2  10
ATOM     10  O   UNL     1     -17.547   3.354   0.806  1.00  0.00    -0.507 OA
ATOM     11  H   UNL     1     -18.538   3.279   0.989  1.00  0.00     0.293 HD
ENDBRANCH   2  10
BRANCH   4  12
ATOM     12  O   UNL     1     -15.628   7.293   2.762  1.00  0.00    -0.497 OA
ATOM     13  C   UNL     1     -16.608   8.024   3.492  1.00  0.00     0.278 C 
ENDBRANCH   4  12
TORSDOF 3
ENDMDL
MODEL 2
REMARK VINA RESULT:    -5.269      1.440      4.460
REMARK INTER + INTRA:          -6.351
REMARK INTER:                  -6.023
REMARK INTRA:                  -0.327
REMARK UNBOUND:                -0.311
REMARK SMILES COc1ccc(C(C)=O)c(O)c1
REMARK SMILES IDX 6 1 10 2 12 3 3 4 4 5 5 6 7 7 8 8 9 9 11 10 2 12 1 13
REMARK H PARENT 11 11
REMARK Flexibility Score: inf
ROOT
ATOM      1  C   UNL     1     -16.876   5.515   0.675  1.00  0.00     0.059 A 
ATOM      2  C   UNL     1     -17.244   4.204   0.287  1.00  0.00     0.130 A 
ATOM      3  C   UNL     1     -16.933   3.747  -1.000  1.00  0.00     0.093 A 
ATOM      4  C   UNL     1     -16.293   4.577  -1.925  1.00  0.00     0.122 A 
ATOM      5  C   UNL     1     -15.954   5.888  -1.550  1.00  0.00     0.047 A 
ATOM      6  C   UNL     1     -16.243   6.350  -0.264  1.00  0.00     0.019 A 
ENDROOT
BRANCH   1   7
ATOM      7  C   UNL     1     -17.103   6.021   2.049  1.00  0.00     0.163 C 
ATOM      8  C   UNL     1     -16.106   6.914   2.721  1.00  0.00     0.093 C 
ATOM      9  O   UNL     1     -18.109   5.634   2.703  1.00  0.00    -0.294 OA
ENDBRANCH   1   7
BRANCH   2  10
ATOM     10  O   UNL     1     -17.942   3.341   1.134  1.00  0.00    -0.507 OA
ATOM     11  H   UNL     1     -18.121   3.542   2.108  1.00  0.00     0.293 HD
ENDBRANCH   2  10
BRANCH   4  12
ATOM     12  O   UNL     1     -16.015   4.063  -3.200  1.00  0.00    -0.497 OA
ATOM     13  C   UNL     1     -15.375   4.795  -4.240  1.00  0.00     0.278 C 
ENDBRANCH   4  12
TORSDOF 3
ENDMDL
MODEL 3
REMARK VINA RESULT:    -5.243      2.708      4.593
REMARK INTER + INTRA:          -6.321
REMARK INTER:                  -5.981
REMARK INTRA:                  -0.339
REMARK UNBOUND:                -0.311
REMARK SMILES COc1ccc(C(C)=O)c(O)c1
REMARK SMILES IDX 6 1 10 2 12 3 3 4 4 5 5 6 7 7 8 8 9 9 11 10 2 12 1 13
REMARK H PARENT 11 11
REMARK Flexibility Score: inf
ROOT
ATOM      1  C   UNL     1     -18.518   5.015  -0.226  1.00  0.00     0.059 A 
ATOM      2  C   UNL     1     -18.352   3.700  -0.723  1.00  0.00     0.130 A 
ATOM      3  C   UNL     1     -17.400   3.449  -1.719  1.00  0.00     0.093 A 
ATOM      4  C   UNL     1     -16.629   4.485  -2.257  1.00  0.00     0.122 A 
ATOM      5  C   UNL     1     -16.815   5.794  -1.785  1.00  0.00     0.047 A 
ATOM      6  C   UNL     1     -17.750   6.054  -0.781  1.00  0.00     0.019 A 
ENDROOT
BRANCH   1   7
ATOM      7  C   UNL     1     -19.450   5.322   0.885  1.00  0.00     0.163 C 
ATOM      8  C   UNL     1     -20.260   6.582   0.890  1.00  0.00     0.093 C 
ATOM      9  O   UNL     1     -19.510   4.558   1.885  1.00  0.00    -0.294 OA
ENDBRANCH   1   7
BRANCH   2  10
ATOM     10  O   UNL     1     -19.129   2.627  -0.280  1.00  0.00    -0.507 OA
ATOM     11  H   UNL     1     -19.267   1.782  -0.817  1.00  0.00     0.293 HD
ENDBRANCH   2  10
BRANCH   4  12
ATOM     12  O   UNL     1     -15.697   4.170  -3.258  1.00  0.00    -0.497 OA
ATOM     13  C   UNL     1     -15.531   4.909  -4.463  1.00  0.00     0.278 C 
ENDBRANCH   4  12
TORSDOF 3
ENDMDL
MODEL 4
REMARK VINA RESULT:    -5.151      1.624      5.100
REMARK INTER + INTRA:          -6.215
REMARK INTER:                  -5.882
REMARK INTRA:                  -0.333
REMARK UNBOUND:                -0.311
REMARK SMILES COc1ccc(C(C)=O)c(O)c1
REMARK SMILES IDX 6 1 10 2 12 3 3 4 4 5 5 6 7 7 8 8 9 9 11 10 2 12 1 13
REMARK H PARENT 11 11
REMARK Flexibility Score: inf
ROOT
ATOM      1  C   UNL     1     -16.024   6.291   0.576  1.00  0.00     0.059 A 
ATOM      2  C   UNL     1     -15.416   6.821  -0.588  1.00  0.00     0.130 A 
ATOM      3  C   UNL     1     -15.539   6.141  -1.807  1.00  0.00     0.093 A 
ATOM      4  C   UNL     1     -16.227   4.927  -1.889  1.00  0.00     0.122 A 
ATOM      5  C   UNL     1     -16.805   4.386  -0.728  1.00  0.00     0.047 A 
ATOM      6  C   UNL     1     -16.703   5.062   0.489  1.00  0.00     0.019 A 
ENDROOT
BRANCH   1   7
ATOM      7  C   UNL     1     -15.996   7.009   1.872  1.00  0.00     0.163 C 
ATOM      8  C   UNL     1     -17.192   7.025   2.773  1.00  0.00     0.093 C 
ATOM      9  O   UNL     1     -14.985   7.688   2.193  1.00  0.00    -0.294 OA
ENDBRANCH   1   7
BRANCH   2  10
ATOM     10  O   UNL     1     -14.660   7.995  -0.571  1.00  0.00    -0.507 OA
ATOM     11  H   UNL     1     -13.670   8.015  -0.365  1.00  0.00     0.293 HD
ENDBRANCH   2  10
BRANCH   4  12
ATOM     12  O   UNL     1     -16.310   4.292  -3.138  1.00  0.00    -0.497 OA
ATOM     13  C   UNL     1     -15.623   4.727  -4.307  1.00  0.00     0.278 C 
ENDBRANCH   4  12
TORSDOF 3
ENDMDL
MODEL 5
REMARK VINA RESULT:    -5.118     11.970     13.745
REMARK INTER + INTRA:          -6.177
REMARK INTER:                  -6.023
REMARK INTRA:                  -0.155
REMARK UNBOUND:                -0.311
REMARK SMILES COc1ccc(C(C)=O)c(O)c1
REMARK SMILES IDX 6 1 10 2 12 3 3 4 4 5 5 6 7 7 8 8 9 9 11 10 2 12 1 13
REMARK H PARENT 11 11
REMARK Flexibility Score: inf
ROOT
ATOM      1  C   UNL     1     -19.793  -7.195  -1.580  1.00  0.00     0.059 A 
ATOM      2  C   UNL     1     -19.965  -5.806  -1.799  1.00  0.00     0.130 A 
ATOM      3  C   UNL     1     -21.114  -5.343  -2.451  1.00  0.00     0.093 A 
ATOM      4  C   UNL     1     -22.085  -6.232  -2.922  1.00  0.00     0.122 A 
ATOM      5  C   UNL     1     -21.900  -7.612  -2.731  1.00  0.00     0.047 A 
ATOM      6  C   UNL     1     -20.767  -8.085  -2.068  1.00  0.00     0.019 A 
ENDROOT
BRANCH   1   7
ATOM      7  C   UNL     1     -18.639  -7.733  -0.823  1.00  0.00     0.163 C 
ATOM      8  C   UNL     1     -17.308  -7.934  -1.479  1.00  0.00     0.093 C 
ATOM      9  O   UNL     1     -18.790  -8.108   0.371  1.00  0.00    -0.294 OA
ENDBRANCH   1   7
BRANCH   2  10
ATOM     10  O   UNL     1     -19.009  -4.863  -1.414  1.00  0.00    -0.507 OA
ATOM     11  H   UNL     1     -18.621  -4.813  -0.482  1.00  0.00     0.293 HD
ENDBRANCH   2  10
BRANCH   4  12
ATOM     12  O   UNL     1     -23.210  -5.706  -3.573  1.00  0.00    -0.497 OA
ATOM     13  C   UNL     1     -23.914  -6.365  -4.622  1.00  0.00     0.278 C 
ENDBRANCH   4  12
TORSDOF 3
ENDMDL
MODEL 6
REMARK VINA RESULT:    -5.079      3.194      5.154
REMARK INTER + INTRA:          -6.132
REMARK INTER:                  -5.790
REMARK INTRA:                  -0.343
REMARK UNBOUND:                -0.311
REMARK SMILES COc1ccc(C(C)=O)c(O)c1
REMARK SMILES IDX 6 1 10 2 12 3 3 4 4 5 5 6 7 7 8 8 9 9 11 10 2 12 1 13
REMARK H PARENT 11 11
REMARK Flexibility Score: inf
ROOT
ATOM      1  C   UNL     1     -19.403   5.314   0.202  1.00  0.00     0.059 A 
ATOM      2  C   UNL     1     -19.060   4.297  -0.722  1.00  0.00     0.130 A 
ATOM      3  C   UNL     1     -18.930   4.609  -2.081  1.00  0.00     0.093 A 
ATOM      4  C   UNL     1     -19.166   5.905  -2.550  1.00  0.00     0.122 A 
ATOM      5  C   UNL     1     -19.536   6.907  -1.638  1.00  0.00     0.047 A 
ATOM      6  C   UNL     1     -19.652   6.613  -0.278  1.00  0.00     0.019 A 
ENDROOT
BRANCH   1   7
ATOM      7  C   UNL     1     -19.471   5.059   1.660  1.00  0.00     0.163 C 
ATOM      8  C   UNL     1     -18.821   5.987   2.639  1.00  0.00     0.093 C 
ATOM      9  O   UNL     1     -20.012   4.005   2.089  1.00  0.00    -0.294 OA
ENDBRANCH   1   7
BRANCH   2  10
ATOM     10  O   UNL     1     -18.871   2.968  -0.338  1.00  0.00    -0.507 OA
ATOM     11  H   UNL     1     -19.631   2.315  -0.204  1.00  0.00     0.293 HD
ENDBRANCH   2  10
BRANCH   4  12
ATOM     12  O   UNL     1     -19.027   6.151  -3.925  1.00  0.00    -0.497 OA
ATOM     13  C   UNL     1     -19.335   7.391  -4.554  1.00  0.00     0.278 C 
ENDBRANCH   4  12
TORSDOF 3
ENDMDL
MODEL 7
REMARK VINA RESULT:    -5.058     11.956     13.400
REMARK INTER + INTRA:          -6.109
REMARK INTER:                  -5.771
REMARK INTRA:                  -0.338
REMARK UNBOUND:                -0.311
REMARK SMILES COc1ccc(C(C)=O)c(O)c1
REMARK SMILES IDX 6 1 10 2 12 3 3 4 4 5 5 6 7 7 8 8 9 9 11 10 2 12 1 13
REMARK H PARENT 11 11
REMARK Flexibility Score: inf
ROOT
ATOM      1  C   UNL     1     -21.784  -6.321  -2.147  1.00  0.00     0.059 A 
ATOM      2  C   UNL     1     -20.726  -5.398  -2.330  1.00  0.00     0.130 A 
ATOM      3  C   UNL     1     -19.402  -5.852  -2.335  1.00  0.00     0.093 A 
ATOM      4  C   UNL     1     -19.101  -7.202  -2.130  1.00  0.00     0.122 A 
ATOM      5  C   UNL     1     -20.149  -8.113  -1.919  1.00  0.00     0.047 A 
ATOM      6  C   UNL     1     -21.475  -7.676  -1.928  1.00  0.00     0.019 A 
ENDROOT
BRANCH   1   7
ATOM      7  C   UNL     1     -23.206  -5.909  -2.216  1.00  0.00     0.163 C 
ATOM      8  C   UNL     1     -24.191  -6.664  -3.055  1.00  0.00     0.093 C 
ATOM      9  O   UNL     1     -23.587  -4.861  -1.629  1.00  0.00    -0.294 OA
ENDBRANCH   1   7
BRANCH   2  10
ATOM     10  O   UNL     1     -20.945  -4.027  -2.478  1.00  0.00    -0.507 OA
ATOM     11  H   UNL     1     -21.815  -3.636  -2.814  1.00  0.00     0.293 HD
ENDBRANCH   2  10
BRANCH   4  12
ATOM     12  O   UNL     1     -17.754  -7.593  -2.140  1.00  0.00    -0.497 OA
ATOM     13  C   UNL     1     -16.924  -7.649  -0.983  1.00  0.00     0.278 C 
ENDBRANCH   4  12
TORSDOF 3
ENDMDL
MODEL 8
REMARK VINA RESULT:    -5.006     11.306     12.517
REMARK INTER + INTRA:          -6.049
REMARK INTER:                  -5.873
REMARK INTRA:                  -0.176
REMARK UNBOUND:                -0.311
REMARK SMILES COc1ccc(C(C)=O)c(O)c1
REMARK SMILES IDX 6 1 10 2 12 3 3 4 4 5 5 6 7 7 8 8 9 9 11 10 2 12 1 13
REMARK H PARENT 11 11
REMARK Flexibility Score: inf
ROOT
ATOM      1  C   UNL     1     -16.235  -7.115   0.280  1.00  0.00     0.059 A 
ATOM      2  C   UNL     1     -15.961  -5.732   0.404  1.00  0.00     0.130 A 
ATOM      3  C   UNL     1     -14.710  -5.310   0.871  1.00  0.00     0.093 A 
ATOM      4  C   UNL     1     -13.732  -6.236   1.249  1.00  0.00     0.122 A 
ATOM      5  C   UNL     1     -14.014  -7.608   1.153  1.00  0.00     0.047 A 
ATOM      6  C   UNL     1     -15.252  -8.041   0.674  1.00  0.00     0.019 A 
ENDROOT
BRANCH   1   7
ATOM      7  C   UNL     1     -17.510  -7.616  -0.287  1.00  0.00     0.163 C 
ATOM      8  C   UNL     1     -17.672  -7.827  -1.761  1.00  0.00     0.093 C 
ATOM      9  O   UNL     1     -18.505  -7.791   0.465  1.00  0.00    -0.294 OA
ENDBRANCH   1   7
BRANCH   2  10
ATOM     10  O   UNL     1     -16.910  -4.751   0.107  1.00  0.00    -0.507 OA
ATOM     11  H   UNL     1     -16.667  -3.812  -0.179  1.00  0.00     0.293 HD
ENDBRANCH   2  10
BRANCH   4  12
ATOM     12  O   UNL     1     -12.501  -5.750   1.715  1.00  0.00    -0.497 OA
ATOM     13  C   UNL     1     -11.614  -6.482   2.556  1.00  0.00     0.278 C 
ENDBRANCH   4  12
TORSDOF 3
ENDMDL
MODEL 9
REMARK VINA RESULT:    -4.944      3.116      3.717
REMARK INTER + INTRA:          -5.978
REMARK INTER:                  -5.706
REMARK INTRA:                  -0.272
REMARK UNBOUND:                -0.311
REMARK SMILES COc1ccc(C(C)=O)c(O)c1
REMARK SMILES IDX 6 1 10 2 12 3 3 4 4 5 5 6 7 7 8 8 9 9 11 10 2 12 1 13
REMARK H PARENT 11 11
REMARK Flexibility Score: inf
ROOT
ATOM      1  C   UNL     1     -17.633   5.400  -2.055  1.00  0.00     0.059 A 
ATOM      2  C   UNL     1     -19.016   5.155  -2.230  1.00  0.00     0.130 A 
ATOM      3  C   UNL     1     -19.948   6.126  -1.843  1.00  0.00     0.093 A 
ATOM      4  C   UNL     1     -19.538   7.326  -1.254  1.00  0.00     0.122 A 
ATOM      5  C   UNL     1     -18.167   7.557  -1.054  1.00  0.00     0.047 A 
ATOM      6  C   UNL     1     -17.227   6.604  -1.451  1.00  0.00     0.019 A 
ENDROOT
BRANCH   1   7
ATOM      7  C   UNL     1     -16.601   4.445  -2.523  1.00  0.00     0.163 C 
ATOM      8  C   UNL     1     -15.825   4.697  -3.779  1.00  0.00     0.093 C 
ATOM      9  O   UNL     1     -16.422   3.361  -1.906  1.00  0.00    -0.294 OA
ENDBRANCH   1   7
BRANCH   2  10
ATOM     10  O   UNL     1     -19.504   3.954  -2.751  1.00  0.00    -0.507 OA
ATOM     11  H   UNL     1     -19.431   3.069  -2.269  1.00  0.00     0.293 HD
ENDBRANCH   2  10
BRANCH   4  12
ATOM     12  O   UNL     1     -20.521   8.255  -0.883  1.00  0.00    -0.497 OA
ATOM     13  C   UNL     1     -20.268   9.633  -0.627  1.00  0.00     0.278 C 
ENDBRANCH   4  12
TORSDOF 3
ENDMDL
