MODEL 1
REMARK VINA RESULT:    -3.633      0.000      0.000
REMARK INTER + INTRA:          -4.489
REMARK INTER:                  -4.270
REMARK INTRA:                  -0.219
REMARK UNBOUND:                -0.219
REMARK SMILES [NH3+][C@@H](CO)C(=O)[O-]
REMARK SMILES IDX 3 1 2 2 1 3 5 7 6 8 7 9 4 10
REMARK H PARENT 1 4 1 5 1 6 4 11
REMARK Flexibility Score: inf
ROOT
ATOM      1  C   UNL     1       2.646  -2.551 -22.146  1.00  0.00     0.227 C 
ENDROOT
BRANCH   1   2
ATOM      2  C   UNL     1       1.862  -1.307 -21.702  1.00  0.00     0.253 C 
BRANCH   2   3
ATOM      3  N   UNL     1       0.481  -1.661 -21.359  1.00  0.00    -0.348 N 
ATOM      4  H   UNL     1       0.437  -2.122 -20.421  1.00  0.00     0.345 HD
ATOM      5  H   UNL     1       0.091  -2.311 -22.080  1.00  0.00     0.345 HD
ATOM      6  H   UNL     1      -0.112  -0.799 -21.342  1.00  0.00     0.345 HD
ENDBRANCH   2   3
BRANCH   2   7
ATOM      7  C   UNL     1       1.877  -0.259 -22.784  1.00  0.00     0.102 C 
ATOM      8  O   UNL     1       0.803   0.282 -23.157  1.00  0.00    -0.544 OA
ATOM      9  O   UNL     1       3.077   0.126 -23.371  1.00  0.00    -0.544 OA
ENDBRANCH   2   7
ENDBRANCH   1   2
BRANCH   1  10
ATOM     10  O   UNL     1       2.784  -2.559 -23.541  1.00  0.00    -0.390 OA
ATOM     11  H   UNL     1       2.084  -1.947 -23.889  1.00  0.00     0.210 HD
ENDBRANCH   1  10
TORSDOF 4
ENDMDL
MODEL 2
REMARK VINA RESULT:    -3.231      1.786      2.150
REMARK INTER + INTRA:          -4.016
REMARK INTER:                  -3.808
REMARK INTRA:                  -0.208
REMARK UNBOUND:                -0.219
REMARK SMILES [NH3+][C@@H](CO)C(=O)[O-]
REMARK SMILES IDX 3 1 2 2 1 3 5 7 6 8 7 9 4 10
REMARK H PARENT 1 4 1 5 1 6 4 11
REMARK Flexibility Score: inf
ROOT
ATOM      1  C   UNL     1       0.988  -1.884 -21.471  1.00  0.00     0.227 C 
ENDROOT
BRANCH   1   2
ATOM      2  C   UNL     1       2.077  -1.871 -22.555  1.00  0.00     0.253 C 
BRANCH   2   3
ATOM      3  N   UNL     1       3.263  -2.607 -22.106  1.00  0.00    -0.348 N 
ATOM      4  H   UNL     1       3.750  -3.057 -22.916  1.00  0.00     0.345 HD
ATOM      5  H   UNL     1       2.984  -3.345 -21.420  1.00  0.00     0.345 HD
ATOM      6  H   UNL     1       3.927  -1.953 -21.630  1.00  0.00     0.345 HD
ENDBRANCH   2   3
BRANCH   2   7
ATOM      7  C   UNL     1       2.447  -0.456 -22.915  1.00  0.00     0.102 C 
ATOM      8  O   UNL     1       2.364   0.459 -22.053  1.00  0.00    -0.544 OA
ATOM      9  O   UNL     1       2.893  -0.152 -24.196  1.00  0.00    -0.544 OA
ENDBRANCH   2   7
ENDBRANCH   1   2
BRANCH   1  10
ATOM     10  O   UNL     1       0.022  -0.907 -21.750  1.00  0.00    -0.390 OA
ATOM     11  H   UNL     1       0.320  -0.085 -21.279  1.00  0.00     0.210 HD
ENDBRANCH   1  10
TORSDOF 4
ENDMDL
MODEL 3
REMARK VINA RESULT:    -3.186      1.778      2.273
REMARK INTER + INTRA:          -3.963
REMARK INTER:                  -3.957
REMARK INTRA:                  -0.005
REMARK UNBOUND:                -0.219
REMARK SMILES [NH3+][C@@H](CO)C(=O)[O-]
REMARK SMILES IDX 3 1 2 2 1 3 5 7 6 8 7 9 4 10
REMARK H PARENT 1 4 1 5 1 6 4 11
REMARK Flexibility Score: inf
ROOT
ATOM      1  C   UNL     1       1.696  -1.457 -22.178  1.00  0.00     0.227 C 
ENDROOT
BRANCH   1   2
ATOM      2  C   UNL     1       1.886   0.058 -22.351  1.00  0.00     0.253 C 
BRANCH   2   3
ATOM      3  N   UNL     1       0.616   0.765 -22.155  1.00  0.00    -0.348 N 
ATOM      4  H   UNL     1      -0.192   0.106 -22.235  1.00  0.00     0.345 HD
ATOM      5  H   UNL     1       0.516   1.520 -22.872  1.00  0.00     0.345 HD
ATOM      6  H   UNL     1       0.601   1.209 -21.208  1.00  0.00     0.345 HD
ENDBRANCH   2   3
BRANCH   2   7
ATOM      7  C   UNL     1       2.450   0.368 -23.712  1.00  0.00     0.102 C 
ATOM      8  O   UNL     1       3.685   0.244 -23.930  1.00  0.00    -0.544 OA
ATOM      9  O   UNL     1       1.612   0.782 -24.741  1.00  0.00    -0.544 OA
ENDBRANCH   2   7
ENDBRANCH   1   2
BRANCH   1  10
ATOM     10  O   UNL     1       0.577  -1.711 -21.373  1.00  0.00    -0.390 OA
ATOM     11  H   UNL     1       0.672  -1.124 -20.578  1.00  0.00     0.210 HD
ENDBRANCH   1  10
TORSDOF 4
ENDMDL
MODEL 4
REMARK VINA RESULT:    -3.182      5.529      6.060
REMARK INTER + INTRA:          -3.959
REMARK INTER:                  -3.751
REMARK INTRA:                  -0.208
REMARK UNBOUND:                -0.219
REMARK SMILES [NH3+][C@@H](CO)C(=O)[O-]
REMARK SMILES IDX 3 1 2 2 1 3 5 7 6 8 7 9 4 10
REMARK H PARENT 1 4 1 5 1 6 4 11
REMARK Flexibility Score: inf
ROOT
ATOM      1  C   UNL     1       4.341  -5.023 -22.035  1.00  0.00     0.227 C 
ENDROOT
BRANCH   1   2
ATOM      2  C   UNL     1       4.624  -5.450 -23.483  1.00  0.00     0.253 C 
BRANCH   2   3
ATOM      3  N   UNL     1       4.262  -4.379 -24.418  1.00  0.00    -0.348 N 
ATOM      4  H   UNL     1       3.228  -4.219 -24.418  1.00  0.00     0.345 HD
ATOM      5  H   UNL     1       4.570  -4.633 -25.385  1.00  0.00     0.345 HD
ATOM      6  H   UNL     1       4.745  -3.492 -24.144  1.00  0.00     0.345 HD
ENDBRANCH   2   3
BRANCH   2   7
ATOM      7  C   UNL     1       3.871  -6.711 -23.819  1.00  0.00     0.102 C 
ATOM      8  O   UNL     1       3.155  -7.272 -22.948  1.00  0.00    -0.544 OA
ATOM      9  O   UNL     1       3.953  -7.257 -25.095  1.00  0.00    -0.544 OA
ENDBRANCH   2   7
ENDBRANCH   1   2
BRANCH   1  10
ATOM     10  O   UNL     1       5.151  -5.751 -21.153  1.00  0.00    -0.390 OA
ATOM     11  H   UNL     1       5.050  -6.704 -21.411  1.00  0.00     0.210 HD
ENDBRANCH   1  10
TORSDOF 4
ENDMDL
MODEL 5
REMARK VINA RESULT:    -3.168      7.041      8.061
REMARK INTER + INTRA:          -3.942
REMARK INTER:                  -3.933
REMARK INTRA:                  -0.009
REMARK UNBOUND:                -0.219
REMARK SMILES [NH3+][C@@H](CO)C(=O)[O-]
REMARK SMILES IDX 3 1 2 2 1 3 5 7 6 8 7 9 4 10
REMARK H PARENT 1 4 1 5 1 6 4 11
REMARK Flexibility Score: inf
ROOT
ATOM      1  C   UNL     1      -3.158   3.195 -22.547  1.00  0.00     0.227 C 
ENDROOT
BRANCH   1   2
ATOM      2  C   UNL     1      -4.296   3.399 -21.535  1.00  0.00     0.253 C 
BRANCH   2   3
ATOM      3  N   UNL     1      -3.861   3.027 -20.184  1.00  0.00    -0.348 N 
ATOM      4  H   UNL     1      -4.638   3.157 -19.495  1.00  0.00     0.345 HD
ATOM      5  H   UNL     1      -3.046   3.617 -19.899  1.00  0.00     0.345 HD
ATOM      6  H   UNL     1      -3.560   2.025 -20.173  1.00  0.00     0.345 HD
ENDBRANCH   2   3
BRANCH   2   7
ATOM      7  C   UNL     1      -5.507   2.595 -21.932  1.00  0.00     0.102 C 
ATOM      8  O   UNL     1      -5.773   1.516 -21.339  1.00  0.00    -0.544 OA
ATOM      9  O   UNL     1      -6.344   3.042 -22.948  1.00  0.00    -0.544 OA
ENDBRANCH   2   7
ENDBRANCH   1   2
BRANCH   1  10
ATOM     10  O   UNL     1      -2.482   4.405 -22.758  1.00  0.00    -0.390 OA
ATOM     11  H   UNL     1      -3.182   5.079 -22.957  1.00  0.00     0.210 HD
ENDBRANCH   1  10
TORSDOF 4
ENDMDL
MODEL 6
REMARK VINA RESULT:    -3.134      2.027      3.261
REMARK INTER + INTRA:          -3.903
REMARK INTER:                  -3.705
REMARK INTRA:                  -0.198
REMARK UNBOUND:                -0.219
REMARK SMILES [NH3+][C@@H](CO)C(=O)[O-]
REMARK SMILES IDX 3 1 2 2 1 3 5 7 6 8 7 9 4 10
REMARK H PARENT 1 4 1 5 1 6 4 11
REMARK Flexibility Score: inf
ROOT
ATOM      1  C   UNL     1       0.493   0.377 -22.865  1.00  0.00     0.227 C 
ENDROOT
BRANCH   1   2
ATOM      2  C   UNL     1       1.844  -0.140 -22.348  1.00  0.00     0.253 C 
BRANCH   2   3
ATOM      3  N   UNL     1       2.922   0.211 -23.279  1.00  0.00    -0.348 N 
ATOM      4  H   UNL     1       3.762   0.559 -22.761  1.00  0.00     0.345 HD
ATOM      5  H   UNL     1       2.594   0.953 -23.939  1.00  0.00     0.345 HD
ATOM      6  H   UNL     1       3.193  -0.630 -23.840  1.00  0.00     0.345 HD
ENDBRANCH   2   3
BRANCH   2   7
ATOM      7  C   UNL     1       1.797  -1.631 -22.144  1.00  0.00     0.102 C 
ATOM      8  O   UNL     1       2.496  -2.391 -22.866  1.00  0.00    -0.544 OA
ATOM      9  O   UNL     1       0.991  -2.179 -21.153  1.00  0.00    -0.544 OA
ENDBRANCH   2   7
ENDBRANCH   1   2
BRANCH   1  10
ATOM     10  O   UNL     1      -0.552  -0.184 -22.118  1.00  0.00    -0.390 OA
ATOM     11  H   UNL     1      -0.412  -1.166 -22.143  1.00  0.00     0.210 HD
ENDBRANCH   1  10
TORSDOF 4
ENDMDL
MODEL 7
REMARK VINA RESULT:    -3.131      1.697      2.806
REMARK INTER + INTRA:          -3.898
REMARK INTER:                  -3.684
REMARK INTRA:                  -0.214
REMARK UNBOUND:                -0.219
REMARK SMILES [NH3+][C@@H](CO)C(=O)[O-]
REMARK SMILES IDX 3 1 2 2 1 3 5 7 6 8 7 9 4 10
REMARK H PARENT 1 4 1 5 1 6 4 11
REMARK Flexibility Score: inf
ROOT
ATOM      1  C   UNL     1       2.239   0.126 -23.896  1.00  0.00     0.227 C 
ENDROOT
BRANCH   1   2
ATOM      2  C   UNL     1       1.518  -0.181 -22.575  1.00  0.00     0.253 C 
BRANCH   2   3
ATOM      3  N   UNL     1       2.024   0.677 -21.498  1.00  0.00    -0.348 N 
ATOM      4  H   UNL     1       2.436   1.557 -21.886  1.00  0.00     0.345 HD
ATOM      5  H   UNL     1       2.756   0.166 -20.952  1.00  0.00     0.345 HD
ATOM      6  H   UNL     1       1.244   0.924 -20.846  1.00  0.00     0.345 HD
ENDBRANCH   2   3
BRANCH   2   7
ATOM      7  C   UNL     1       1.684  -1.632 -22.207  1.00  0.00     0.102 C 
ATOM      8  O   UNL     1       2.523  -2.347 -22.815  1.00  0.00    -0.544 OA
ATOM      9  O   UNL     1       0.920  -2.189 -21.187  1.00  0.00    -0.544 OA
ENDBRANCH   2   7
ENDBRANCH   1   2
BRANCH   1  10
ATOM     10  O   UNL     1       3.627   0.075 -23.708  1.00  0.00    -0.390 OA
ATOM     11  H   UNL     1       3.805  -0.762 -23.206  1.00  0.00     0.210 HD
ENDBRANCH   1  10
TORSDOF 4
ENDMDL
MODEL 8
REMARK VINA RESULT:    -3.061      7.760      8.631
REMARK INTER + INTRA:          -3.816
REMARK INTER:                  -3.613
REMARK INTRA:                  -0.204
REMARK UNBOUND:                -0.219
REMARK SMILES [NH3+][C@@H](CO)C(=O)[O-]
REMARK SMILES IDX 3 1 2 2 1 3 5 7 6 8 7 9 4 10
REMARK H PARENT 1 4 1 5 1 6 4 11
REMARK Flexibility Score: inf
ROOT
ATOM      1  C   UNL     1      -4.504   2.458 -21.233  1.00  0.00     0.227 C 
ENDROOT
BRANCH   1   2
ATOM      2  C   UNL     1      -4.418   3.318 -22.504  1.00  0.00     0.253 C 
BRANCH   2   3
ATOM      3  N   UNL     1      -3.118   3.991 -22.586  1.00  0.00    -0.348 N 
ATOM      4  H   UNL     1      -3.071   4.792 -21.913  1.00  0.00     0.345 HD
ATOM      5  H   UNL     1      -2.963   4.349 -23.556  1.00  0.00     0.345 HD
ATOM      6  H   UNL     1      -2.353   3.313 -22.362  1.00  0.00     0.345 HD
ENDBRANCH   2   3
BRANCH   2   7
ATOM      7  C   UNL     1      -5.532   4.332 -22.532  1.00  0.00     0.102 C 
ATOM      8  O   UNL     1      -6.258   4.503 -21.518  1.00  0.00    -0.544 OA
ATOM      9  O   UNL     1      -5.759   5.092 -23.674  1.00  0.00    -0.544 OA
ENDBRANCH   2   7
ENDBRANCH   1   2
BRANCH   1  10
ATOM     10  O   UNL     1      -3.844   3.098 -20.175  1.00  0.00    -0.390 OA
ATOM     11  H   UNL     1      -3.681   4.030 -20.477  1.00  0.00     0.210 HD
ENDBRANCH   1  10
TORSDOF 4
ENDMDL
MODEL 9
REMARK VINA RESULT:    -3.016      7.502      8.456
REMARK INTER + INTRA:          -3.764
REMARK INTER:                  -3.354
REMARK INTRA:                  -0.409
REMARK UNBOUND:                -0.219
REMARK SMILES [NH3+][C@@H](CO)C(=O)[O-]
REMARK SMILES IDX 3 1 2 2 1 3 5 7 6 8 7 9 4 10
REMARK H PARENT 1 4 1 5 1 6 4 11
REMARK Flexibility Score: inf
ROOT
ATOM      1  C   UNL     1      -3.379   3.751 -22.884  1.00  0.00     0.227 C 
ENDROOT
BRANCH   1   2
ATOM      2  C   UNL     1      -4.905   3.639 -22.745  1.00  0.00     0.253 C 
BRANCH   2   3
ATOM      3  N   UNL     1      -5.535   4.957 -22.875  1.00  0.00    -0.348 N 
ATOM      4  H   UNL     1      -6.577   4.875 -22.851  1.00  0.00     0.345 HD
ATOM      5  H   UNL     1      -5.245   5.402 -23.776  1.00  0.00     0.345 HD
ATOM      6  H   UNL     1      -5.224   5.576 -22.090  1.00  0.00     0.345 HD
ENDBRANCH   2   3
BRANCH   2   7
ATOM      7  C   UNL     1      -5.271   3.015 -21.424  1.00  0.00     0.102 C 
ATOM      8  O   UNL     1      -5.487   1.776 -21.348  1.00  0.00    -0.544 OA
ATOM      9  O   UNL     1      -5.364   3.798 -20.279  1.00  0.00    -0.544 OA
ENDBRANCH   2   7
ENDBRANCH   1   2
BRANCH   1  10
ATOM     10  O   UNL     1      -2.754   3.226 -21.744  1.00  0.00    -0.390 OA
ATOM     11  H   UNL     1      -1.894   2.841 -22.055  1.00  0.00     0.210 HD
ENDBRANCH   1  10
TORSDOF 4
ENDMDL
