MODEL 1
REMARK VINA RESULT:    -5.970      0.000      0.000
REMARK INTER + INTRA:          -6.145
REMARK INTER:                  -6.145
REMARK INTRA:                   0.000
REMARK UNBOUND:                 0.000
REMARK SMILES CC1(C)CC[C@]2(C)CC[C@]3(C)C(=CC[C@@H]4[C@]5(C)CC[C@@H](O)C(C)(C)[C@@H]5CC[C@@]43C)[C@@H]2C1
REMARK SMILES IDX 1 1 2 2 4 3 5 4 6 5 8 6 9 7 10 8 12 9 13 10 14 11 15 12
REMARK SMILES IDX 28 13 27 14 26 15 25 16 16 17 18 18 19 19 20 20 22 21 23 22
REMARK SMILES IDX 24 23 17 24 29 25 30 26 31 27 11 28 7 29 3 30 21 31
REMARK H PARENT 21 32
REMARK Flexibility Score: inf
ROOT
ATOM      1  C   UNL     1      11.902 -35.729  45.670  1.00  0.00     0.011 C 
ATOM      2  C   UNL     1      10.484 -36.062  45.154  1.00  0.00    -0.035 C 
ATOM      3  C   UNL     1       9.554 -34.875  45.484  1.00  0.00     0.007 C 
ATOM      4  C   UNL     1       8.100 -35.149  45.093  1.00  0.00     0.008 C 
ATOM      5  C   UNL     1       7.498 -36.434  45.747  1.00  0.00    -0.026 C 
ATOM      6  C   UNL     1       7.083 -36.150  47.237  1.00  0.00     0.008 C 
ATOM      7  C   UNL     1       7.723 -37.046  48.331  1.00  0.00     0.012 C 
ATOM      8  C   UNL     1       7.802 -38.597  48.041  1.00  0.00    -0.006 C 
ATOM      9  C   UNL     1       8.014 -38.797  46.532  1.00  0.00    -0.064 C 
ATOM     10  C   UNL     1       7.821 -40.010  45.995  1.00  0.00    -0.027 C 
ATOM     11  C   UNL     1       7.537 -41.192  46.858  1.00  0.00     0.032 C 
ATOM     12  C   UNL     1       6.444 -40.906  47.938  1.00  0.00     0.006 C 
ATOM     13  C   UNL     1       6.502 -39.427  48.554  1.00  0.00    -0.020 C 
ATOM     14  C   UNL     1       5.211 -38.678  48.181  1.00  0.00     0.008 C 
ATOM     15  C   UNL     1       3.904 -39.382  48.543  1.00  0.00     0.005 C 
ATOM     16  C   UNL     1       3.865 -40.943  48.444  1.00  0.00     0.003 C 
ATOM     17  C   UNL     1       5.014 -41.509  47.519  1.00  0.00    -0.025 C 
ATOM     18  C   UNL     1       4.633 -41.201  46.032  1.00  0.00     0.010 C 
ATOM     19  C   UNL     1       3.219 -41.671  45.631  1.00  0.00     0.033 C 
ATOM     20  C   UNL     1       2.107 -41.151  46.556  1.00  0.00     0.120 C 
ATOM     21  C   UNL     1       2.392 -41.431  48.070  1.00  0.00    -0.006 C 
ATOM     22  C   UNL     1       1.337 -40.673  48.935  1.00  0.00     0.014 C 
ATOM     23  C   UNL     1       2.168 -42.936  48.402  1.00  0.00     0.014 C 
ATOM     24  C   UNL     1       5.155 -43.063  47.702  1.00  0.00     0.012 C 
ATOM     25  C   UNL     1       6.518 -39.523  50.120  1.00  0.00     0.012 C 
ATOM     26  C   UNL     1       8.472 -37.650  45.625  1.00  0.00     0.022 C 
ATOM     27  C   UNL     1       9.966 -37.317  45.890  1.00  0.00     0.015 C 
ATOM     28  C   UNL     1       9.078 -39.119  48.780  1.00  0.00     0.017 C 
ATOM     29  C   UNL     1       6.221 -36.760  44.918  1.00  0.00     0.012 C 
ATOM     30  C   UNL     1      10.584 -36.310  43.630  1.00  0.00     0.011 C 
ENDROOT
BRANCH  20  31
ATOM     31  O   UNL     1       0.891 -41.738  46.162  1.00  0.00    -0.393 OA
ATOM     32  H   UNL     1       1.112 -42.507  45.574  1.00  0.00     0.210 HD
ENDBRANCH  20  31
TORSDOF 1
ENDMDL
MODEL 2
REMARK VINA RESULT:    -5.510      8.666     12.255
REMARK INTER + INTRA:          -5.671
REMARK INTER:                  -5.671
REMARK INTRA:                   0.000
REMARK UNBOUND:                 0.000
REMARK SMILES CC1(C)CC[C@]2(C)CC[C@]3(C)C(=CC[C@@H]4[C@]5(C)CC[C@@H](O)C(C)(C)[C@@H]5CC[C@@]43C)[C@@H]2C1
REMARK SMILES IDX 1 1 2 2 4 3 5 4 6 5 8 6 9 7 10 8 12 9 13 10 14 11 15 12
REMARK SMILES IDX 28 13 27 14 26 15 25 16 16 17 18 18 19 19 20 20 22 21 23 22
REMARK SMILES IDX 24 23 17 24 29 25 30 26 31 27 11 28 7 29 3 30 21 31
REMARK H PARENT 21 32
REMARK Flexibility Score: inf
ROOT
ATOM      1  C   UNL     1       2.040 -41.617  44.187  1.00  0.00     0.011 C 
ATOM      2  C   UNL     1       1.225 -42.218  43.020  1.00  0.00    -0.035 C 
ATOM      3  C   UNL     1      -0.155 -42.652  43.561  1.00  0.00     0.007 C 
ATOM      4  C   UNL     1      -1.005 -43.346  42.495  1.00  0.00     0.008 C 
ATOM      5  C   UNL     1      -0.321 -44.595  41.852  1.00  0.00    -0.026 C 
ATOM      6  C   UNL     1      -0.435 -45.839  42.807  1.00  0.00     0.008 C 
ATOM      7  C   UNL     1       0.890 -46.522  43.239  1.00  0.00     0.012 C 
ATOM      8  C   UNL     1       1.981 -46.754  42.121  1.00  0.00    -0.006 C 
ATOM      9  C   UNL     1       1.898 -45.594  41.116  1.00  0.00    -0.064 C 
ATOM     10  C   UNL     1       2.511 -45.707  39.928  1.00  0.00    -0.027 C 
ATOM     11  C   UNL     1       3.380 -46.880  39.625  1.00  0.00     0.032 C 
ATOM     12  C   UNL     1       2.721 -48.241  40.017  1.00  0.00     0.006 C 
ATOM     13  C   UNL     1       1.849 -48.185  41.361  1.00  0.00    -0.020 C 
ATOM     14  C   UNL     1       0.377 -48.469  41.016  1.00  0.00     0.008 C 
ATOM     15  C   UNL     1       0.113 -49.755  40.234  1.00  0.00     0.005 C 
ATOM     16  C   UNL     1       1.181 -50.200  39.181  1.00  0.00     0.003 C 
ATOM     17  C   UNL     1       2.115 -49.005  38.739  1.00  0.00    -0.025 C 
ATOM     18  C   UNL     1       1.285 -48.064  37.802  1.00  0.00     0.010 C 
ATOM     19  C   UNL     1       0.599 -48.789  36.625  1.00  0.00     0.033 C 
ATOM     20  C   UNL     1      -0.278 -49.977  37.055  1.00  0.00     0.120 C 
ATOM     21  C   UNL     1       0.475 -50.986  37.984  1.00  0.00    -0.006 C 
ATOM     22  C   UNL     1      -0.549 -52.020  38.548  1.00  0.00     0.014 C 
ATOM     23  C   UNL     1       1.487 -51.840  37.163  1.00  0.00     0.014 C 
ATOM     24  C   UNL     1       3.364 -49.542  37.952  1.00  0.00     0.012 C 
ATOM     25  C   UNL     1       2.307 -49.340  42.320  1.00  0.00     0.012 C 
ATOM     26  C   UNL     1       1.158 -44.294  41.447  1.00  0.00     0.022 C 
ATOM     27  C   UNL     1       1.962 -43.465  42.485  1.00  0.00     0.015 C 
ATOM     28  C   UNL     1       3.370 -46.672  42.838  1.00  0.00     0.017 C 
ATOM     29  C   UNL     1      -1.124 -44.881  40.549  1.00  0.00     0.012 C 
ATOM     30  C   UNL     1       1.099 -41.131  41.925  1.00  0.00     0.011 C 
ENDROOT
BRANCH  20  31
ATOM     31  O   UNL     1      -0.749 -50.623  35.897  1.00  0.00    -0.393 OA
ATOM     32  H   UNL     1      -0.197 -51.438  35.769  1.00  0.00     0.210 HD
ENDBRANCH  20  31
TORSDOF 1
ENDMDL
MODEL 3
REMARK VINA RESULT:    -5.448      7.831     11.728
REMARK INTER + INTRA:          -5.607
REMARK INTER:                  -5.607
REMARK INTRA:                   0.000
REMARK UNBOUND:                 0.000
REMARK SMILES CC1(C)CC[C@]2(C)CC[C@]3(C)C(=CC[C@@H]4[C@]5(C)CC[C@@H](O)C(C)(C)[C@@H]5CC[C@@]43C)[C@@H]2C1
REMARK SMILES IDX 1 1 2 2 4 3 5 4 6 5 8 6 9 7 10 8 12 9 13 10 14 11 15 12
REMARK SMILES IDX 28 13 27 14 26 15 25 16 16 17 18 18 19 19 20 20 22 21 23 22
REMARK SMILES IDX 24 23 17 24 29 25 30 26 31 27 11 28 7 29 3 30 21 31
REMARK H PARENT 21 32
REMARK Flexibility Score: inf
ROOT
ATOM      1  C   UNL     1       1.331 -45.384  49.069  1.00  0.00     0.011 C 
ATOM      2  C   UNL     1       1.109 -44.912  47.615  1.00  0.00    -0.035 C 
ATOM      3  C   UNL     1      -0.399 -44.999  47.298  1.00  0.00     0.007 C 
ATOM      4  C   UNL     1      -0.710 -44.638  45.844  1.00  0.00     0.008 C 
ATOM      5  C   UNL     1       0.057 -45.507  44.796  1.00  0.00    -0.026 C 
ATOM      6  C   UNL     1      -0.632 -46.911  44.634  1.00  0.00     0.008 C 
ATOM      7  C   UNL     1       0.246 -48.163  44.901  1.00  0.00     0.012 C 
ATOM      8  C   UNL     1       1.705 -48.165  44.296  1.00  0.00    -0.006 C 
ATOM      9  C   UNL     1       2.236 -46.723  44.310  1.00  0.00    -0.064 C 
ATOM     10  C   UNL     1       3.324 -46.415  43.587  1.00  0.00    -0.027 C 
ATOM     11  C   UNL     1       4.099 -47.476  42.883  1.00  0.00     0.032 C 
ATOM     12  C   UNL     1       3.190 -48.464  42.084  1.00  0.00     0.006 C 
ATOM     13  C   UNL     1       1.796 -48.798  42.802  1.00  0.00    -0.020 C 
ATOM     14  C   UNL     1       0.644 -48.269  41.930  1.00  0.00     0.008 C 
ATOM     15  C   UNL     1       0.645 -48.730  40.473  1.00  0.00     0.005 C 
ATOM     16  C   UNL     1       2.030 -48.919  39.770  1.00  0.00     0.003 C 
ATOM     17  C   UNL     1       3.186 -48.136  40.511  1.00  0.00    -0.025 C 
ATOM     18  C   UNL     1       3.008 -46.611  40.204  1.00  0.00     0.010 C 
ATOM     19  C   UNL     1       2.891 -46.277  38.703  1.00  0.00     0.033 C 
ATOM     20  C   UNL     1       1.791 -47.070  37.976  1.00  0.00     0.120 C 
ATOM     21  C   UNL     1       1.898 -48.614  38.209  1.00  0.00    -0.006 C 
ATOM     22  C   UNL     1       0.623 -49.304  37.631  1.00  0.00     0.014 C 
ATOM     23  C   UNL     1       3.079 -49.214  37.389  1.00  0.00     0.014 C 
ATOM     24  C   UNL     1       4.592 -48.605  39.990  1.00  0.00     0.012 C 
ATOM     25  C   UNL     1       1.614 -50.355  42.872  1.00  0.00     0.012 C 
ATOM     26  C   UNL     1       1.574 -45.629  45.153  1.00  0.00     0.022 C 
ATOM     27  C   UNL     1       1.872 -45.856  46.661  1.00  0.00     0.015 C 
ATOM     28  C   UNL     1       2.586 -49.012  45.274  1.00  0.00     0.017 C 
ATOM     29  C   UNL     1      -0.055 -44.728  43.453  1.00  0.00     0.012 C 
ATOM     30  C   UNL     1       1.638 -43.461  47.506  1.00  0.00     0.011 C 
ENDROOT
BRANCH  20  31
ATOM     31  O   UNL     1       1.861 -46.768  36.603  1.00  0.00    -0.393 OA
ATOM     32  H   UNL     1       2.719 -46.293  36.449  1.00  0.00     0.210 HD
ENDBRANCH  20  31
TORSDOF 1
ENDMDL
MODEL 4
REMARK VINA RESULT:    -5.369      2.453      7.577
REMARK INTER + INTRA:          -5.526
REMARK INTER:                  -5.526
REMARK INTRA:                   0.000
REMARK UNBOUND:                 0.000
REMARK SMILES CC1(C)CC[C@]2(C)CC[C@]3(C)C(=CC[C@@H]4[C@]5(C)CC[C@@H](O)C(C)(C)[C@@H]5CC[C@@]43C)[C@@H]2C1
REMARK SMILES IDX 1 1 2 2 4 3 5 4 6 5 8 6 9 7 10 8 12 9 13 10 14 11 15 12
REMARK SMILES IDX 28 13 27 14 26 15 25 16 16 17 18 18 19 19 20 20 22 21 23 22
REMARK SMILES IDX 24 23 17 24 29 25 30 26 31 27 11 28 7 29 3 30 21 31
REMARK H PARENT 21 32
REMARK Flexibility Score: inf
ROOT
ATOM      1  C   UNL     1      -1.125 -41.950  49.035  1.00  0.00     0.011 C 
ATOM      2  C   UNL     1      -0.283 -40.899  48.278  1.00  0.00    -0.035 C 
ATOM      3  C   UNL     1      -0.293 -41.256  46.776  1.00  0.00     0.007 C 
ATOM      4  C   UNL     1       0.593 -40.322  45.950  1.00  0.00     0.008 C 
ATOM      5  C   UNL     1       2.080 -40.272  46.427  1.00  0.00    -0.026 C 
ATOM      6  C   UNL     1       2.866 -41.533  45.913  1.00  0.00     0.008 C 
ATOM      7  C   UNL     1       3.549 -42.425  46.984  1.00  0.00     0.012 C 
ATOM      8  C   UNL     1       4.333 -41.690  48.142  1.00  0.00    -0.006 C 
ATOM      9  C   UNL     1       3.611 -40.370  48.454  1.00  0.00    -0.064 C 
ATOM     10  C   UNL     1       4.236 -39.435  49.185  1.00  0.00    -0.027 C 
ATOM     11  C   UNL     1       5.561 -39.712  49.810  1.00  0.00     0.032 C 
ATOM     12  C   UNL     1       6.570 -40.379  48.823  1.00  0.00     0.006 C 
ATOM     13  C   UNL     1       5.901 -41.424  47.807  1.00  0.00    -0.020 C 
ATOM     14  C   UNL     1       6.055 -40.895  46.370  1.00  0.00     0.008 C 
ATOM     15  C   UNL     1       7.477 -40.534  45.942  1.00  0.00     0.005 C 
ATOM     16  C   UNL     1       8.430 -39.925  47.022  1.00  0.00     0.003 C 
ATOM     17  C   UNL     1       7.635 -39.321  48.247  1.00  0.00    -0.025 C 
ATOM     18  C   UNL     1       6.973 -37.981  47.779  1.00  0.00     0.010 C 
ATOM     19  C   UNL     1       7.953 -36.988  47.121  1.00  0.00     0.033 C 
ATOM     20  C   UNL     1       8.755 -37.590  45.955  1.00  0.00     0.120 C 
ATOM     21  C   UNL     1       9.471 -38.929  46.334  1.00  0.00    -0.006 C 
ATOM     22  C   UNL     1      10.060 -39.574  45.041  1.00  0.00     0.014 C 
ATOM     23  C   UNL     1      10.710 -38.654  47.238  1.00  0.00     0.014 C 
ATOM     24  C   UNL     1       8.607 -39.024  49.445  1.00  0.00     0.012 C 
ATOM     25  C   UNL     1       6.694 -42.777  47.865  1.00  0.00     0.012 C 
ATOM     26  C   UNL     1       2.180 -40.103  47.977  1.00  0.00     0.022 C 
ATOM     27  C   UNL     1       1.172 -40.960  48.792  1.00  0.00     0.015 C 
ATOM     28  C   UNL     1       4.220 -42.611  49.403  1.00  0.00     0.017 C 
ATOM     29  C   UNL     1       2.682 -38.996  45.768  1.00  0.00     0.012 C 
ATOM     30  C   UNL     1      -0.912 -39.511  48.545  1.00  0.00     0.011 C 
ENDROOT
BRANCH  20  31
ATOM     31  O   UNL     1       9.689 -36.632  45.518  1.00  0.00    -0.393 OA
ATOM     32  H   UNL     1      10.557 -36.850  45.949  1.00  0.00     0.210 HD
ENDBRANCH  20  31
TORSDOF 1
ENDMDL
MODEL 5
REMARK VINA RESULT:    -5.299      1.888      3.436
REMARK INTER + INTRA:          -5.454
REMARK INTER:                  -5.454
REMARK INTRA:                   0.000
REMARK UNBOUND:                 0.000
REMARK SMILES CC1(C)CC[C@]2(C)CC[C@]3(C)C(=CC[C@@H]4[C@]5(C)CC[C@@H](O)C(C)(C)[C@@H]5CC[C@@]43C)[C@@H]2C1
REMARK SMILES IDX 1 1 2 2 4 3 5 4 6 5 8 6 9 7 10 8 12 9 13 10 14 11 15 12
REMARK SMILES IDX 28 13 27 14 26 15 25 16 16 17 18 18 19 19 20 20 22 21 23 22
REMARK SMILES IDX 24 23 17 24 29 25 30 26 31 27 11 28 7 29 3 30 21 31
REMARK H PARENT 21 32
REMARK Flexibility Score: inf
ROOT
ATOM      1  C   UNL     1      12.749 -34.878  47.494  1.00  0.00     0.011 C 
ATOM      2  C   UNL     1      12.000 -35.984  46.718  1.00  0.00    -0.035 C 
ATOM      3  C   UNL     1      11.888 -35.553  45.240  1.00  0.00     0.007 C 
ATOM      4  C   UNL     1      11.078 -36.545  44.404  1.00  0.00     0.008 C 
ATOM      5  C   UNL     1       9.634 -36.801  44.945  1.00  0.00    -0.026 C 
ATOM      6  C   UNL     1       8.677 -35.621  44.541  1.00  0.00     0.008 C 
ATOM      7  C   UNL     1       7.950 -34.875  45.692  1.00  0.00     0.012 C 
ATOM      8  C   UNL     1       7.322 -35.758  46.842  1.00  0.00    -0.006 C 
ATOM      9  C   UNL     1       8.212 -36.994  47.044  1.00  0.00    -0.064 C 
ATOM     10  C   UNL     1       7.743 -38.035  47.749  1.00  0.00    -0.027 C 
ATOM     11  C   UNL     1       6.430 -37.954  48.449  1.00  0.00     0.032 C 
ATOM     12  C   UNL     1       5.297 -37.365  47.549  1.00  0.00     0.006 C 
ATOM     13  C   UNL     1       5.782 -36.196  46.565  1.00  0.00    -0.020 C 
ATOM     14  C   UNL     1       5.616 -36.666  45.109  1.00  0.00     0.008 C 
ATOM     15  C   UNL     1       4.227 -37.176  44.728  1.00  0.00     0.005 C 
ATOM     16  C   UNL     1       3.412 -37.952  45.814  1.00  0.00     0.003 C 
ATOM     17  C   UNL     1       4.338 -38.515  46.964  1.00  0.00    -0.025 C 
ATOM     18  C   UNL     1       5.129 -39.739  46.391  1.00  0.00     0.010 C 
ATOM     19  C   UNL     1       4.241 -40.809  45.723  1.00  0.00     0.033 C 
ATOM     20  C   UNL     1       3.313 -40.251  44.632  1.00  0.00     0.120 C 
ATOM     21  C   UNL     1       2.463 -39.031  45.119  1.00  0.00    -0.006 C 
ATOM     22  C   UNL     1       1.733 -38.397  43.894  1.00  0.00     0.014 C 
ATOM     23  C   UNL     1       1.316 -39.501  46.063  1.00  0.00     0.014 C 
ATOM     24  C   UNL     1       3.473 -38.989  48.187  1.00  0.00     0.012 C 
ATOM     25  C   UNL     1       4.837 -34.955  46.736  1.00  0.00     0.012 C 
ATOM     26  C   UNL     1       9.637 -37.059  46.487  1.00  0.00     0.022 C 
ATOM     27  C   UNL     1      10.578 -36.129  47.301  1.00  0.00     0.015 C 
ATOM     28  C   UNL     1       7.391 -34.896  48.146  1.00  0.00     0.017 C 
ATOM     29  C   UNL     1       9.155 -38.106  44.244  1.00  0.00     0.012 C 
ATOM     30  C   UNL     1      12.805 -37.297  46.876  1.00  0.00     0.011 C 
ENDROOT
BRANCH  20  31
ATOM     31  O   UNL     1       2.478 -41.292  44.185  1.00  0.00    -0.393 OA
ATOM     32  H   UNL     1       1.858 -41.513  44.928  1.00  0.00     0.210 HD
ENDBRANCH  20  31
TORSDOF 1
ENDMDL
MODEL 6
REMARK VINA RESULT:    -5.107     11.599     15.917
REMARK INTER + INTRA:          -5.257
REMARK INTER:                  -5.257
REMARK INTRA:                   0.000
REMARK UNBOUND:                 0.000
REMARK SMILES CC1(C)CC[C@]2(C)CC[C@]3(C)C(=CC[C@@H]4[C@]5(C)CC[C@@H](O)C(C)(C)[C@@H]5CC[C@@]43C)[C@@H]2C1
REMARK SMILES IDX 1 1 2 2 4 3 5 4 6 5 8 6 9 7 10 8 12 9 13 10 14 11 15 12
REMARK SMILES IDX 28 13 27 14 26 15 25 16 16 17 18 18 19 19 20 20 22 21 23 22
REMARK SMILES IDX 24 23 17 24 29 25 30 26 31 27 11 28 7 29 3 30 21 31
REMARK H PARENT 21 32
REMARK Flexibility Score: inf
ROOT
ATOM      1  C   UNL     1       0.533 -53.690  33.483  1.00  0.00     0.011 C 
ATOM      2  C   UNL     1       0.866 -53.691  34.991  1.00  0.00    -0.035 C 
ATOM      3  C   UNL     1      -0.363 -54.219  35.762  1.00  0.00     0.007 C 
ATOM      4  C   UNL     1      -0.164 -54.172  37.278  1.00  0.00     0.008 C 
ATOM      5  C   UNL     1       0.181 -52.751  37.829  1.00  0.00    -0.026 C 
ATOM      6  C   UNL     1      -1.118 -51.870  37.934  1.00  0.00     0.008 C 
ATOM      7  C   UNL     1      -1.125 -50.525  37.159  1.00  0.00     0.012 C 
ATOM      8  C   UNL     1       0.179 -49.639  37.240  1.00  0.00    -0.006 C 
ATOM      9  C   UNL     1       1.396 -50.573  37.331  1.00  0.00    -0.064 C 
ATOM     10  C   UNL     1       2.584 -50.073  37.702  1.00  0.00    -0.027 C 
ATOM     11  C   UNL     1       2.770 -48.607  37.895  1.00  0.00     0.032 C 
ATOM     12  C   UNL     1       1.630 -47.957  38.742  1.00  0.00     0.006 C 
ATOM     13  C   UNL     1       0.176 -48.577  38.471  1.00  0.00    -0.020 C 
ATOM     14  C   UNL     1      -0.327 -49.255  39.757  1.00  0.00     0.008 C 
ATOM     15  C   UNL     1      -0.317 -48.389  41.015  1.00  0.00     0.005 C 
ATOM     16  C   UNL     1       0.842 -47.350  41.175  1.00  0.00     0.003 C 
ATOM     17  C   UNL     1       2.084 -47.698  40.262  1.00  0.00    -0.025 C 
ATOM     18  C   UNL     1       2.821 -48.925  40.897  1.00  0.00     0.010 C 
ATOM     19  C   UNL     1       3.172 -48.749  42.389  1.00  0.00     0.033 C 
ATOM     20  C   UNL     1       1.969 -48.371  43.269  1.00  0.00     0.120 C 
ATOM     21  C   UNL     1       1.177 -47.138  42.721  1.00  0.00    -0.006 C 
ATOM     22  C   UNL     1      -0.141 -46.975  43.541  1.00  0.00     0.014 C 
ATOM     23  C   UNL     1       1.967 -45.819  42.977  1.00  0.00     0.014 C 
ATOM     24  C   UNL     1       3.076 -46.482  40.192  1.00  0.00     0.012 C 
ATOM     25  C   UNL     1      -0.831 -47.412  38.165  1.00  0.00     0.012 C 
ATOM     26  C   UNL     1       1.296 -52.061  36.978  1.00  0.00     0.022 C 
ATOM     27  C   UNL     1       1.149 -52.242  35.442  1.00  0.00     0.015 C 
ATOM     28  C   UNL     1       0.269 -48.862  35.884  1.00  0.00     0.017 C 
ATOM     29  C   UNL     1       0.750 -52.989  39.258  1.00  0.00     0.012 C 
ATOM     30  C   UNL     1       2.107 -54.593  35.198  1.00  0.00     0.011 C 
ENDROOT
BRANCH  20  31
ATOM     31  O   UNL     1       2.434 -48.125  44.574  1.00  0.00    -0.393 OA
ATOM     32  H   UNL     1       2.303 -47.158  44.756  1.00  0.00     0.210 HD
ENDBRANCH  20  31
TORSDOF 1
ENDMDL
MODEL 7
REMARK VINA RESULT:    -5.107      4.472      8.656
REMARK INTER + INTRA:          -5.256
REMARK INTER:                  -5.256
REMARK INTRA:                   0.000
REMARK UNBOUND:                 0.000
REMARK SMILES CC1(C)CC[C@]2(C)CC[C@]3(C)C(=CC[C@@H]4[C@]5(C)CC[C@@H](O)C(C)(C)[C@@H]5CC[C@@]43C)[C@@H]2C1
REMARK SMILES IDX 1 1 2 2 4 3 5 4 6 5 8 6 9 7 10 8 12 9 13 10 14 11 15 12
REMARK SMILES IDX 28 13 27 14 26 15 25 16 16 17 18 18 19 19 20 20 22 21 23 22
REMARK SMILES IDX 24 23 17 24 29 25 30 26 31 27 11 28 7 29 3 30 21 31
REMARK H PARENT 21 32
REMARK Flexibility Score: inf
ROOT
ATOM      1  C   UNL     1       1.511 -47.200  43.515  1.00  0.00     0.011 C 
ATOM      2  C   UNL     1       2.403 -46.100  44.135  1.00  0.00    -0.035 C 
ATOM      3  C   UNL     1       2.260 -46.165  45.670  1.00  0.00     0.007 C 
ATOM      4  C   UNL     1       3.037 -45.050  46.374  1.00  0.00     0.008 C 
ATOM      5  C   UNL     1       2.643 -43.611  45.910  1.00  0.00    -0.026 C 
ATOM      6  C   UNL     1       1.301 -43.160  46.595  1.00  0.00     0.008 C 
ATOM      7  C   UNL     1       0.132 -42.752  45.658  1.00  0.00     0.012 C 
ATOM      8  C   UNL     1       0.484 -41.836  44.421  1.00  0.00    -0.006 C 
ATOM      9  C   UNL     1       1.892 -42.205  43.929  1.00  0.00    -0.064 C 
ATOM     10  C   UNL     1       2.533 -41.380  43.087  1.00  0.00    -0.027 C 
ATOM     11  C   UNL     1       1.847 -40.186  42.518  1.00  0.00     0.032 C 
ATOM     12  C   UNL     1       1.079 -39.356  43.596  1.00  0.00     0.006 C 
ATOM     13  C   UNL     1       0.382 -40.244  44.734  1.00  0.00    -0.020 C 
ATOM     14  C   UNL     1       1.038 -39.925  46.089  1.00  0.00     0.008 C 
ATOM     15  C   UNL     1       1.077 -38.449  46.480  1.00  0.00     0.005 C 
ATOM     16  C   UNL     1       1.276 -37.398  45.339  1.00  0.00     0.003 C 
ATOM     17  C   UNL     1       1.897 -38.043  44.037  1.00  0.00    -0.025 C 
ATOM     18  C   UNL     1       3.410 -38.331  44.316  1.00  0.00     0.010 C 
ATOM     19  C   UNL     1       4.198 -37.115  44.846  1.00  0.00     0.033 C 
ATOM     20  C   UNL     1       3.570 -36.464  46.090  1.00  0.00     0.120 C 
ATOM     21  C   UNL     1       2.054 -36.122  45.899  1.00  0.00    -0.006 C 
ATOM     22  C   UNL     1       1.455 -35.685  47.273  1.00  0.00     0.014 C 
ATOM     23  C   UNL     1       1.883 -34.876  44.979  1.00  0.00     0.014 C 
ATOM     24  C   UNL     1       1.776 -37.057  42.820  1.00  0.00     0.012 C 
ATOM     25  C   UNL     1      -1.124 -39.822  44.865  1.00  0.00     0.012 C 
ATOM     26  C   UNL     1       2.575 -43.509  44.352  1.00  0.00     0.022 C 
ATOM     27  C   UNL     1       1.906 -44.721  43.648  1.00  0.00     0.015 C 
ATOM     28  C   UNL     1      -0.534 -42.209  43.293  1.00  0.00     0.017 C 
ATOM     29  C   UNL     1       3.797 -42.689  46.399  1.00  0.00     0.012 C 
ATOM     30  C   UNL     1       3.858 -46.362  43.679  1.00  0.00     0.011 C 
ENDROOT
BRANCH  20  31
ATOM     31  O   UNL     1       4.305 -35.307  46.405  1.00  0.00    -0.393 OA
ATOM     32  H   UNL     1       4.219 -34.684  45.637  1.00  0.00     0.210 HD
ENDBRANCH  20  31
TORSDOF 1
ENDMDL
MODEL 8
REMARK VINA RESULT:    -5.029      9.713     13.593
REMARK INTER + INTRA:          -5.176
REMARK INTER:                  -5.176
REMARK INTRA:                   0.000
REMARK UNBOUND:                 0.000
REMARK SMILES CC1(C)CC[C@]2(C)CC[C@]3(C)C(=CC[C@@H]4[C@]5(C)CC[C@@H](O)C(C)(C)[C@@H]5CC[C@@]43C)[C@@H]2C1
REMARK SMILES IDX 1 1 2 2 4 3 5 4 6 5 8 6 9 7 10 8 12 9 13 10 14 11 15 12
REMARK SMILES IDX 28 13 27 14 26 15 25 16 16 17 18 18 19 19 20 20 22 21 23 22
REMARK SMILES IDX 24 23 17 24 29 25 30 26 31 27 11 28 7 29 3 30 21 31
REMARK H PARENT 21 32
REMARK Flexibility Score: inf
ROOT
ATOM      1  C   UNL     1       2.615 -44.122  45.060  1.00  0.00     0.011 C 
ATOM      2  C   UNL     1       2.351 -45.618  44.781  1.00  0.00    -0.035 C 
ATOM      3  C   UNL     1       3.693 -46.375  44.864  1.00  0.00     0.007 C 
ATOM      4  C   UNL     1       3.550 -47.856  44.510  1.00  0.00     0.008 C 
ATOM      5  C   UNL     1       2.934 -48.114  43.097  1.00  0.00    -0.026 C 
ATOM      6  C   UNL     1       4.021 -47.914  41.978  1.00  0.00     0.008 C 
ATOM      7  C   UNL     1       3.712 -46.868  40.873  1.00  0.00     0.012 C 
ATOM      8  C   UNL     1       2.254 -46.868  40.266  1.00  0.00    -0.006 C 
ATOM      9  C   UNL     1       1.267 -47.264  41.375  1.00  0.00    -0.064 C 
ATOM     10  C   UNL     1       0.016 -47.620  41.048  1.00  0.00    -0.027 C 
ATOM     11  C   UNL     1      -0.468 -47.506  39.643  1.00  0.00     0.032 C 
ATOM     12  C   UNL     1       0.542 -48.090  38.604  1.00  0.00     0.006 C 
ATOM     13  C   UNL     1       2.082 -47.834  38.970  1.00  0.00    -0.020 C 
ATOM     14  C   UNL     1       2.768 -49.188  39.222  1.00  0.00     0.008 C 
ATOM     15  C   UNL     1       2.625 -50.225  38.109  1.00  0.00     0.005 C 
ATOM     16  C   UNL     1       1.280 -50.256  37.311  1.00  0.00     0.003 C 
ATOM     17  C   UNL     1       0.105 -49.551  38.097  1.00  0.00    -0.025 C 
ATOM     18  C   UNL     1      -0.330 -50.498  39.266  1.00  0.00     0.010 C 
ATOM     19  C   UNL     1      -0.651 -51.941  38.825  1.00  0.00     0.033 C 
ATOM     20  C   UNL     1       0.479 -52.611  38.025  1.00  0.00     0.120 C 
ATOM     21  C   UNL     1       0.970 -51.743  36.819  1.00  0.00    -0.006 C 
ATOM     22  C   UNL     1       2.255 -52.390  36.216  1.00  0.00     0.014 C 
ATOM     23  C   UNL     1      -0.070 -51.774  35.659  1.00  0.00     0.014 C 
ATOM     24  C   UNL     1      -1.125 -49.306  37.150  1.00  0.00     0.012 C 
ATOM     25  C   UNL     1       2.806 -47.198  37.732  1.00  0.00     0.012 C 
ATOM     26  C   UNL     1       1.666 -47.234  42.854  1.00  0.00     0.022 C 
ATOM     27  C   UNL     1       1.786 -45.767  43.351  1.00  0.00     0.015 C 
ATOM     28  C   UNL     1       1.948 -45.388  39.856  1.00  0.00     0.017 C 
ATOM     29  C   UNL     1       2.486 -49.605  43.107  1.00  0.00     0.012 C 
ATOM     30  C   UNL     1       1.338 -46.122  45.837  1.00  0.00     0.011 C 
ENDROOT
BRANCH  20  31
ATOM     31  O   UNL     1       0.025 -53.867  37.582  1.00  0.00    -0.393 OA
ATOM     32  H   UNL     1       0.363 -54.545  38.223  1.00  0.00     0.210 HD
ENDBRANCH  20  31
TORSDOF 1
ENDMDL
MODEL 9
REMARK VINA RESULT:    -4.984      9.305     13.632
REMARK INTER + INTRA:          -5.130
REMARK INTER:                  -5.130
REMARK INTRA:                   0.000
REMARK UNBOUND:                 0.000
REMARK SMILES CC1(C)CC[C@]2(C)CC[C@]3(C)C(=CC[C@@H]4[C@]5(C)CC[C@@H](O)C(C)(C)[C@@H]5CC[C@@]43C)[C@@H]2C1
REMARK SMILES IDX 1 1 2 2 4 3 5 4 6 5 8 6 9 7 10 8 12 9 13 10 14 11 15 12
REMARK SMILES IDX 28 13 27 14 26 15 25 16 16 17 18 18 19 19 20 20 22 21 23 22
REMARK SMILES IDX 24 23 17 24 29 25 30 26 31 27 11 28 7 29 3 30 21 31
REMARK H PARENT 21 32
REMARK Flexibility Score: inf
ROOT
ATOM      1  C   UNL     1       1.533 -53.123  36.236  1.00  0.00     0.011 C 
ATOM      2  C   UNL     1       0.614 -52.109  36.952  1.00  0.00    -0.035 C 
ATOM      3  C   UNL     1       0.135 -51.068  35.918  1.00  0.00     0.007 C 
ATOM      4  C   UNL     1      -0.710 -49.962  36.553  1.00  0.00     0.008 C 
ATOM      5  C   UNL     1       0.009 -49.200  37.712  1.00  0.00    -0.026 C 
ATOM      6  C   UNL     1       1.021 -48.144  37.132  1.00  0.00     0.008 C 
ATOM      7  C   UNL     1       2.503 -48.271  37.575  1.00  0.00     0.012 C 
ATOM      8  C   UNL     1       2.780 -48.554  39.103  1.00  0.00    -0.006 C 
ATOM      9  C   UNL     1       1.642 -49.433  39.647  1.00  0.00    -0.064 C 
ATOM     10  C   UNL     1       1.489 -49.567  40.973  1.00  0.00    -0.027 C 
ATOM     11  C   UNL     1       2.484 -48.988  41.919  1.00  0.00     0.032 C 
ATOM     12  C   UNL     1       2.866 -47.514  41.572  1.00  0.00     0.006 C 
ATOM     13  C   UNL     1       2.947 -47.209  40.001  1.00  0.00    -0.020 C 
ATOM     14  C   UNL     1       1.859 -46.186  39.632  1.00  0.00     0.008 C 
ATOM     15  C   UNL     1       1.853 -44.895  40.450  1.00  0.00     0.005 C 
ATOM     16  C   UNL     1       2.248 -44.989  41.961  1.00  0.00     0.003 C 
ATOM     17  C   UNL     1       2.111 -46.459  42.522  1.00  0.00    -0.025 C 
ATOM     18  C   UNL     1       0.585 -46.771  42.690  1.00  0.00     0.010 C 
ATOM     19  C   UNL     1      -0.190 -45.716  43.507  1.00  0.00     0.033 C 
ATOM     20  C   UNL     1      -0.022 -44.281  42.982  1.00  0.00     0.120 C 
ATOM     21  C   UNL     1       1.477 -43.869  42.798  1.00  0.00    -0.006 C 
ATOM     22  C   UNL     1       1.541 -42.499  42.053  1.00  0.00     0.014 C 
ATOM     23  C   UNL     1       2.147 -43.601  44.179  1.00  0.00     0.014 C 
ATOM     24  C   UNL     1       2.818 -46.585  43.919  1.00  0.00     0.012 C 
ATOM     25  C   UNL     1       4.321 -46.524  39.680  1.00  0.00     0.012 C 
ATOM     26  C   UNL     1       0.692 -50.188  38.712  1.00  0.00     0.022 C 
ATOM     27  C   UNL     1       1.427 -51.383  38.046  1.00  0.00     0.015 C 
ATOM     28  C   UNL     1       4.103 -49.388  39.165  1.00  0.00     0.017 C 
ATOM     29  C   UNL     1      -1.121 -48.451  38.478  1.00  0.00     0.012 C 
ATOM     30  C   UNL     1      -0.568 -52.897  37.567  1.00  0.00     0.011 C 
ENDROOT
BRANCH  20  31
ATOM     31  O   UNL     1      -0.673 -43.405  43.870  1.00  0.00    -0.393 OA
ATOM     32  H   UNL     1      -0.736 -43.866  44.747  1.00  0.00     0.210 HD
ENDBRANCH  20  31
TORSDOF 1
ENDMDL
