MODEL 1
REMARK VINA RESULT:    -5.404      0.000      0.000
REMARK INTER + INTRA:          -6.286
REMARK INTER:                  -6.035
REMARK INTRA:                  -0.251
REMARK UNBOUND:                -0.251
REMARK SMILES O=C([O-])C=Cc1ccccc1
REMARK SMILES IDX 4 1 5 2 2 3 1 4 3 5 6 6 7 7 11 8 8 9 10 10 9 11
REMARK H PARENT
REMARK Flexibility Score: inf
ROOT
ATOM      1  C   UNL     1      -9.469  62.265  40.521  1.00  0.00     0.025 C 
ATOM      2  C   UNL     1     -10.238  61.817  39.516  1.00  0.00     0.010 C 
ENDROOT
BRANCH   1   3
ATOM      3  C   UNL     1      -9.955  62.754  41.826  1.00  0.00     0.064 C 
ATOM      4  O   UNL     1     -10.003  63.984  42.094  1.00  0.00    -0.545 OA
ATOM      5  O   UNL     1     -10.303  61.833  42.806  1.00  0.00    -0.545 OA
ENDBRANCH   1   3
BRANCH   2   6
ATOM      6  C   UNL     1     -11.691  61.563  39.597  1.00  0.00    -0.026 A 
ATOM      7  C   UNL     1     -12.584  62.495  39.045  1.00  0.00     0.008 A 
ATOM      8  C   UNL     1     -12.192  60.358  40.122  1.00  0.00     0.008 A 
ATOM      9  C   UNL     1     -13.961  62.250  39.066  1.00  0.00     0.001 A 
ATOM     10  C   UNL     1     -13.570  60.117  40.141  1.00  0.00     0.001 A 
ATOM     11  C   UNL     1     -14.454  61.065  39.618  1.00  0.00     0.000 A 
ENDBRANCH   2   6
TORSDOF 2
ENDMDL
MODEL 2
REMARK VINA RESULT:    -5.269     10.719     13.109
REMARK INTER + INTRA:          -6.136
REMARK INTER:                  -5.880
REMARK INTRA:                  -0.256
REMARK UNBOUND:                -0.251
REMARK SMILES O=C([O-])C=Cc1ccccc1
REMARK SMILES IDX 4 1 5 2 2 3 1 4 3 5 6 6 7 7 11 8 8 9 10 10 9 11
REMARK H PARENT
REMARK Flexibility Score: inf
ROOT
ATOM      1  C   UNL     1      -6.739  65.057  50.412  1.00  0.00     0.025 C 
ATOM      2  C   UNL     1      -6.243  64.866  51.644  1.00  0.00     0.010 C 
ENDROOT
BRANCH   1   3
ATOM      3  C   UNL     1      -7.666  64.152  49.705  1.00  0.00     0.064 C 
ATOM      4  O   UNL     1      -7.277  63.055  49.223  1.00  0.00    -0.545 OA
ATOM      5  O   UNL     1      -8.981  64.552  49.507  1.00  0.00    -0.545 OA
ENDBRANCH   1   3
BRANCH   2   6
ATOM      6  C   UNL     1      -6.672  63.810  52.585  1.00  0.00    -0.026 A 
ATOM      7  C   UNL     1      -5.915  62.632  52.689  1.00  0.00     0.008 A 
ATOM      8  C   UNL     1      -7.762  64.005  53.452  1.00  0.00     0.008 A 
ATOM      9  C   UNL     1      -6.274  61.642  53.609  1.00  0.00     0.001 A 
ATOM     10  C   UNL     1      -8.117  63.012  54.371  1.00  0.00     0.001 A 
ATOM     11  C   UNL     1      -7.377  61.830  54.446  1.00  0.00     0.000 A 
ENDBRANCH   2   6
TORSDOF 2
ENDMDL
MODEL 3
REMARK VINA RESULT:    -5.058      2.354      3.428
REMARK INTER + INTRA:          -5.900
REMARK INTER:                  -5.851
REMARK INTRA:                  -0.050
REMARK UNBOUND:                -0.251
REMARK SMILES O=C([O-])C=Cc1ccccc1
REMARK SMILES IDX 4 1 5 2 2 3 1 4 3 5 6 6 7 7 11 8 8 9 10 10 9 11
REMARK H PARENT
REMARK Flexibility Score: inf
ROOT
ATOM      1  C   UNL     1     -12.621  59.562  39.735  1.00  0.00     0.025 C 
ATOM      2  C   UNL     1     -13.338  59.827  38.631  1.00  0.00     0.010 C 
ENDROOT
BRANCH   1   3
ATOM      3  C   UNL     1     -12.571  60.394  40.952  1.00  0.00     0.064 C 
ATOM      4  O   UNL     1     -13.490  60.361  41.813  1.00  0.00    -0.545 OA
ATOM      5  O   UNL     1     -11.519  61.286  41.118  1.00  0.00    -0.545 OA
ENDBRANCH   1   3
BRANCH   2   6
ATOM      6  C   UNL     1     -14.345  60.902  38.503  1.00  0.00    -0.026 A 
ATOM      7  C   UNL     1     -13.931  62.242  38.570  1.00  0.00     0.008 A 
ATOM      8  C   UNL     1     -15.689  60.611  38.212  1.00  0.00     0.008 A 
ATOM      9  C   UNL     1     -14.859  63.275  38.401  1.00  0.00     0.001 A 
ATOM     10  C   UNL     1     -16.614  61.647  38.043  1.00  0.00     0.001 A 
ATOM     11  C   UNL     1     -16.199  62.978  38.142  1.00  0.00     0.000 A 
ENDBRANCH   2   6
TORSDOF 2
ENDMDL
MODEL 4
REMARK VINA RESULT:    -5.013     18.724     19.606
REMARK INTER + INTRA:          -5.850
REMARK INTER:                  -5.589
REMARK INTRA:                  -0.260
REMARK UNBOUND:                -0.251
REMARK SMILES O=C([O-])C=Cc1ccccc1
REMARK SMILES IDX 4 1 5 2 2 3 1 4 3 5 6 6 7 7 11 8 8 9 10 10 9 11
REMARK H PARENT
REMARK Flexibility Score: inf
ROOT
ATOM      1  C   UNL     1      -6.975  49.226  55.887  1.00  0.00     0.025 C 
ATOM      2  C   UNL     1      -7.741  49.104  54.792  1.00  0.00     0.010 C 
ENDROOT
BRANCH   1   3
ATOM      3  C   UNL     1      -7.383  49.854  57.159  1.00  0.00     0.064 C 
ATOM      4  O   UNL     1      -7.022  51.022  57.463  1.00  0.00    -0.545 OA
ATOM      5  O   UNL     1      -8.124  49.114  58.071  1.00  0.00    -0.545 OA
ENDBRANCH   1   3
BRANCH   2   6
ATOM      6  C   UNL     1      -9.184  49.412  54.718  1.00  0.00    -0.026 A 
ATOM      7  C   UNL     1      -9.600  50.627  54.150  1.00  0.00     0.008 A 
ATOM      8  C   UNL     1     -10.152  48.470  55.108  1.00  0.00     0.008 A 
ATOM      9  C   UNL     1     -10.962  50.918  54.024  1.00  0.00     0.001 A 
ATOM     10  C   UNL     1     -11.514  48.764  54.981  1.00  0.00     0.001 A 
ATOM     11  C   UNL     1     -11.918  49.989  54.443  1.00  0.00     0.000 A 
ENDBRANCH   2   6
TORSDOF 2
ENDMDL
MODEL 5
REMARK VINA RESULT:    -4.968      1.842      2.687
REMARK INTER + INTRA:          -5.799
REMARK INTER:                  -5.995
REMARK INTRA:                   0.196
REMARK UNBOUND:                -0.251
REMARK SMILES O=C([O-])C=Cc1ccccc1
REMARK SMILES IDX 4 1 5 2 2 3 1 4 3 5 6 6 7 7 11 8 8 9 10 10 9 11
REMARK H PARENT
REMARK Flexibility Score: inf
ROOT
ATOM      1  C   UNL     1     -10.461  61.659  40.025  1.00  0.00     0.025 C 
ATOM      2  C   UNL     1     -11.548  60.874  40.091  1.00  0.00     0.010 C 
ENDROOT
BRANCH   1   3
ATOM      3  C   UNL     1     -10.282  62.809  39.118  1.00  0.00     0.064 C 
ATOM      4  O   UNL     1     -10.143  62.654  37.875  1.00  0.00    -0.545 OA
ATOM      5  O   UNL     1     -10.196  64.087  39.655  1.00  0.00    -0.545 OA
ENDBRANCH   1   3
BRANCH   2   6
ATOM      6  C   UNL     1     -12.829  61.126  39.398  1.00  0.00    -0.026 A 
ATOM      7  C   UNL     1     -13.594  60.037  38.949  1.00  0.00     0.008 A 
ATOM      8  C   UNL     1     -13.347  62.427  39.273  1.00  0.00     0.008 A 
ATOM      9  C   UNL     1     -14.833  60.250  38.337  1.00  0.00     0.001 A 
ATOM     10  C   UNL     1     -14.587  62.636  38.660  1.00  0.00     0.001 A 
ATOM     11  C   UNL     1     -15.327  61.549  38.188  1.00  0.00     0.000 A 
ENDBRANCH   2   6
TORSDOF 2
ENDMDL
MODEL 6
REMARK VINA RESULT:    -4.933     11.405     13.139
REMARK INTER + INTRA:          -5.761
REMARK INTER:                  -5.755
REMARK INTRA:                  -0.006
REMARK UNBOUND:                -0.251
REMARK SMILES O=C([O-])C=Cc1ccccc1
REMARK SMILES IDX 4 1 5 2 2 3 1 4 3 5 6 6 7 7 11 8 8 9 10 10 9 11
REMARK H PARENT
REMARK Flexibility Score: inf
ROOT
ATOM      1  C   UNL     1      -7.816  63.537  53.855  1.00  0.00     0.025 C 
ATOM      2  C   UNL     1      -7.917  64.692  53.177  1.00  0.00     0.010 C 
ENDROOT
BRANCH   1   3
ATOM      3  C   UNL     1      -7.178  62.301  53.362  1.00  0.00     0.064 C 
ATOM      4  O   UNL     1      -7.853  61.276  53.082  1.00  0.00    -0.545 OA
ATOM      5  O   UNL     1      -5.793  62.246  53.272  1.00  0.00    -0.545 OA
ENDBRANCH   1   3
BRANCH   2   6
ATOM      6  C   UNL     1      -7.252  64.991  51.892  1.00  0.00    -0.026 A 
ATOM      7  C   UNL     1      -6.266  65.990  51.844  1.00  0.00     0.008 A 
ATOM      8  C   UNL     1      -7.510  64.225  50.742  1.00  0.00     0.008 A 
ATOM      9  C   UNL     1      -5.588  66.254  50.651  1.00  0.00     0.001 A 
ATOM     10  C   UNL     1      -6.829  64.493  49.549  1.00  0.00     0.001 A 
ATOM     11  C   UNL     1      -5.872  65.510  49.503  1.00  0.00     0.000 A 
ENDBRANCH   2   6
TORSDOF 2
ENDMDL
MODEL 7
REMARK VINA RESULT:    -4.913     11.526     13.296
REMARK INTER + INTRA:          -5.738
REMARK INTER:                  -5.715
REMARK INTRA:                  -0.023
REMARK UNBOUND:                -0.251
REMARK SMILES O=C([O-])C=Cc1ccccc1
REMARK SMILES IDX 4 1 5 2 2 3 1 4 3 5 6 6 7 7 11 8 8 9 10 10 9 11
REMARK H PARENT
REMARK Flexibility Score: inf
ROOT
ATOM      1  C   UNL     1      -7.806  63.414  53.984  1.00  0.00     0.025 C 
ATOM      2  C   UNL     1      -7.883  64.550  53.272  1.00  0.00     0.010 C 
ENDROOT
BRANCH   1   3
ATOM      3  C   UNL     1      -7.112  62.181  53.566  1.00  0.00     0.064 C 
ATOM      4  O   UNL     1      -7.747  61.171  53.160  1.00  0.00    -0.545 OA
ATOM      5  O   UNL     1      -5.730  62.107  53.689  1.00  0.00    -0.545 OA
ENDBRANCH   1   3
BRANCH   2   6
ATOM      6  C   UNL     1      -7.138  64.832  52.028  1.00  0.00    -0.026 A 
ATOM      7  C   UNL     1      -7.381  64.048  50.889  1.00  0.00     0.008 A 
ATOM      8  C   UNL     1      -6.270  65.934  51.931  1.00  0.00     0.008 A 
ATOM      9  C   UNL     1      -6.725  64.329  49.686  1.00  0.00     0.001 A 
ATOM     10  C   UNL     1      -5.616  66.212  50.726  1.00  0.00     0.001 A 
ATOM     11  C   UNL     1      -5.840  65.407  49.606  1.00  0.00     0.000 A 
ENDBRANCH   2   6
TORSDOF 2
ENDMDL
MODEL 8
REMARK VINA RESULT:    -4.806     13.828     16.043
REMARK INTER + INTRA:          -5.618
REMARK INTER:                  -5.493
REMARK INTRA:                  -0.126
REMARK UNBOUND:                -0.251
REMARK SMILES O=C([O-])C=Cc1ccccc1
REMARK SMILES IDX 4 1 5 2 2 3 1 4 3 5 6 6 7 7 11 8 8 9 10 10 9 11
REMARK H PARENT
REMARK Flexibility Score: inf
ROOT
ATOM      1  C   UNL     1      -7.703  61.734  53.362  1.00  0.00     0.025 C 
ATOM      2  C   UNL     1      -6.964  60.631  53.566  1.00  0.00     0.010 C 
ENDROOT
BRANCH   1   3
ATOM      3  C   UNL     1      -7.765  62.907  54.254  1.00  0.00     0.064 C 
ATOM      4  O   UNL     1      -8.139  62.805  55.453  1.00  0.00    -0.545 OA
ATOM      5  O   UNL     1      -7.472  64.164  53.741  1.00  0.00    -0.545 OA
ENDBRANCH   1   3
BRANCH   2   6
ATOM      6  C   UNL     1      -5.945  60.468  54.623  1.00  0.00    -0.026 A 
ATOM      7  C   UNL     1      -6.168  59.542  55.655  1.00  0.00     0.008 A 
ATOM      8  C   UNL     1      -4.713  61.142  54.559  1.00  0.00     0.008 A 
ATOM      9  C   UNL     1      -5.195  59.335  56.638  1.00  0.00     0.001 A 
ATOM     10  C   UNL     1      -3.742  60.931  55.544  1.00  0.00     0.001 A 
ATOM     11  C   UNL     1      -3.986  60.032  56.585  1.00  0.00     0.000 A 
ENDBRANCH   2   6
TORSDOF 2
ENDMDL
MODEL 9
REMARK VINA RESULT:    -4.799      2.902      5.199
REMARK INTER + INTRA:          -5.610
REMARK INTER:                  -5.400
REMARK INTRA:                  -0.210
REMARK UNBOUND:                -0.251
REMARK SMILES O=C([O-])C=Cc1ccccc1
REMARK SMILES IDX 4 1 5 2 2 3 1 4 3 5 6 6 7 7 11 8 8 9 10 10 9 11
REMARK H PARENT
REMARK Flexibility Score: inf
ROOT
ATOM      1  C   UNL     1     -10.519  61.796  40.026  1.00  0.00     0.025 C 
ATOM      2  C   UNL     1      -9.620  62.346  40.858  1.00  0.00     0.010 C 
ENDROOT
BRANCH   1   3
ATOM      3  C   UNL     1     -11.312  62.518  39.013  1.00  0.00     0.064 C 
ATOM      4  O   UNL     1     -12.559  62.654  39.125  1.00  0.00    -0.545 OA
ATOM      5  O   UNL     1     -10.677  62.999  37.875  1.00  0.00    -0.545 OA
ENDBRANCH   1   3
BRANCH   2   6
ATOM      6  C   UNL     1      -9.131  63.739  40.789  1.00  0.00    -0.026 A 
ATOM      7  C   UNL     1      -9.681  64.704  41.648  1.00  0.00     0.008 A 
ATOM      8  C   UNL     1      -8.056  64.094  39.955  1.00  0.00     0.008 A 
ATOM      9  C   UNL     1      -9.198  66.017  41.634  1.00  0.00     0.001 A 
ATOM     10  C   UNL     1      -7.575  65.408  39.945  1.00  0.00     0.001 A 
ATOM     11  C   UNL     1      -8.149  66.369  40.781  1.00  0.00     0.000 A 
ENDBRANCH   2   6
TORSDOF 2
ENDMDL
