MODEL 1
REMARK VINA RESULT:    -3.283      0.000      0.000
REMARK INTER + INTRA:          -4.399
REMARK INTER:                  -4.242
REMARK INTRA:                  -0.157
REMARK UNBOUND:                -0.157
REMARK SMILES CCCCCCC(=O)[O-]
REMARK SMILES IDX 5 1 6 2 7 3 8 4 9 5 4 6 3 7 2 8 1 9
REMARK H PARENT
REMARK Flexibility Score: inf
ROOT
ATOM      1  C   UNL     1      62.412  32.475  60.809  1.00  0.00     0.006 C 
ENDROOT
BRANCH   1   2
ATOM      2  C   UNL     1      61.472  31.436  61.427  1.00  0.00     0.053 C 
BRANCH   2   3
ATOM      3  C   UNL     1      62.209  30.168  61.717  1.00  0.00     0.041 C 
ATOM      4  O   UNL     1      61.593  29.070  61.749  1.00  0.00    -0.550 OA
ATOM      5  O   UNL     1      63.568  30.203  62.003  1.00  0.00    -0.550 OA
ENDBRANCH   2   3
ENDBRANCH   1   2
BRANCH   1   6
ATOM      6  C   UNL     1      61.759  33.865  60.790  1.00  0.00     0.000 C 
BRANCH   6   7
ATOM      7  C   UNL     1      62.760  35.002  61.068  1.00  0.00    -0.000 C 
BRANCH   7   8
ATOM      8  C   UNL     1      64.178  34.536  61.446  1.00  0.00    -0.003 C 
ATOM      9  C   UNL     1      65.034  35.650  62.047  1.00  0.00     0.004 C 
ENDBRANCH   7   8
ENDBRANCH   6   7
ENDBRANCH   1   6
TORSDOF 5
ENDMDL
MODEL 2
REMARK VINA RESULT:    -3.261      0.755      1.256
REMARK INTER + INTRA:          -4.371
REMARK INTER:                  -4.225
REMARK INTRA:                  -0.146
REMARK UNBOUND:                -0.157
REMARK SMILES CCCCCCC(=O)[O-]
REMARK SMILES IDX 5 1 6 2 7 3 8 4 9 5 4 6 3 7 2 8 1 9
REMARK H PARENT
REMARK Flexibility Score: inf
ROOT
ATOM      1  C   UNL     1      62.100  32.618  60.938  1.00  0.00     0.006 C 
ENDROOT
BRANCH   1   2
ATOM      2  C   UNL     1      60.894  31.777  61.367  1.00  0.00     0.053 C 
BRANCH   2   3
ATOM      3  C   UNL     1      61.287  30.345  61.540  1.00  0.00     0.041 C 
ATOM      4  O   UNL     1      62.287  30.042  62.242  1.00  0.00    -0.550 OA
ATOM      5  O   UNL     1      60.579  29.345  60.884  1.00  0.00    -0.550 OA
ENDBRANCH   2   3
ENDBRANCH   1   2
BRANCH   1   6
ATOM      6  C   UNL     1      61.676  34.054  60.598  1.00  0.00     0.000 C 
BRANCH   6   7
ATOM      7  C   UNL     1      62.694  35.108  61.073  1.00  0.00    -0.000 C 
BRANCH   7   8
ATOM      8  C   UNL     1      64.101  34.560  61.368  1.00  0.00    -0.003 C 
ATOM      9  C   UNL     1      65.018  35.588  62.029  1.00  0.00     0.004 C 
ENDBRANCH   7   8
ENDBRANCH   6   7
ENDBRANCH   1   6
TORSDOF 5
ENDMDL
MODEL 3
REMARK VINA RESULT:    -3.207      0.696      1.508
REMARK INTER + INTRA:          -4.302
REMARK INTER:                  -4.158
REMARK INTRA:                  -0.144
REMARK UNBOUND:                -0.157
REMARK SMILES CCCCCCC(=O)[O-]
REMARK SMILES IDX 5 1 6 2 7 3 8 4 9 5 4 6 3 7 2 8 1 9
REMARK H PARENT
REMARK Flexibility Score: inf
ROOT
ATOM      1  C   UNL     1      61.138  32.028  60.782  1.00  0.00     0.006 C 
ENDROOT
BRANCH   1   2
ATOM      2  C   UNL     1      61.117  31.118  62.014  1.00  0.00     0.053 C 
BRANCH   2   3
ATOM      3  C   UNL     1      61.911  29.876  61.763  1.00  0.00     0.041 C 
ATOM      4  O   UNL     1      63.152  29.864  61.973  1.00  0.00    -0.550 OA
ATOM      5  O   UNL     1      61.289  28.745  61.248  1.00  0.00    -0.550 OA
ENDBRANCH   2   3
ENDBRANCH   1   2
BRANCH   1   6
ATOM      6  C   UNL     1      62.269  33.062  60.881  1.00  0.00     0.000 C 
BRANCH   6   7
ATOM      7  C   UNL     1      61.772  34.511  60.718  1.00  0.00    -0.000 C 
BRANCH   7   8
ATOM      8  C   UNL     1      62.734  35.587  61.253  1.00  0.00    -0.003 C 
ATOM      9  C   UNL     1      64.138  35.050  61.532  1.00  0.00     0.004 C 
ENDBRANCH   7   8
ENDBRANCH   6   7
ENDBRANCH   1   6
TORSDOF 5
ENDMDL
MODEL 4
REMARK VINA RESULT:    -3.187     12.891     14.143
REMARK INTER + INTRA:          -4.275
REMARK INTER:                  -4.138
REMARK INTRA:                  -0.137
REMARK UNBOUND:                -0.157
REMARK SMILES CCCCCCC(=O)[O-]
REMARK SMILES IDX 5 1 6 2 7 3 8 4 9 5 4 6 3 7 2 8 1 9
REMARK H PARENT
REMARK Flexibility Score: inf
ROOT
ATOM      1  C   UNL     1      57.953  29.029  50.443  1.00  0.00     0.006 C 
ENDROOT
BRANCH   1   2
ATOM      2  C   UNL     1      58.837  29.012  49.193  1.00  0.00     0.053 C 
BRANCH   2   3
ATOM      3  C   UNL     1      59.986  28.073  49.375  1.00  0.00     0.041 C 
ATOM      4  O   UNL     1      61.112  28.510  49.730  1.00  0.00    -0.550 OA
ATOM      5  O   UNL     1      59.828  26.719  49.102  1.00  0.00    -0.550 OA
ENDBRANCH   2   3
ENDBRANCH   1   2
BRANCH   1   6
ATOM      6  C   UNL     1      56.857  27.958  50.355  1.00  0.00     0.000 C 
BRANCH   6   7
ATOM      7  C   UNL     1      55.435  28.551  50.376  1.00  0.00    -0.000 C 
BRANCH   7   8
ATOM      8  C   UNL     1      54.314  27.553  50.035  1.00  0.00    -0.003 C 
ATOM      9  C   UNL     1      54.832  26.143  49.755  1.00  0.00     0.004 C 
ENDBRANCH   7   8
ENDBRANCH   6   7
ENDBRANCH   1   6
TORSDOF 5
ENDMDL
MODEL 5
REMARK VINA RESULT:    -3.143      3.106      4.689
REMARK INTER + INTRA:          -4.219
REMARK INTER:                  -3.984
REMARK INTRA:                  -0.235
REMARK UNBOUND:                -0.157
REMARK SMILES CCCCCCC(=O)[O-]
REMARK SMILES IDX 5 1 6 2 7 3 8 4 9 5 4 6 3 7 2 8 1 9
REMARK H PARENT
REMARK Flexibility Score: inf
ROOT
ATOM      1  C   UNL     1      61.980  33.669  60.818  1.00  0.00     0.006 C 
ENDROOT
BRANCH   1   2
ATOM      2  C   UNL     1      63.492  33.913  60.857  1.00  0.00     0.053 C 
BRANCH   2   3
ATOM      3  C   UNL     1      63.796  35.222  61.514  1.00  0.00     0.041 C 
ATOM      4  O   UNL     1      62.961  36.163  61.469  1.00  0.00    -0.550 OA
ATOM      5  O   UNL     1      65.024  35.421  62.132  1.00  0.00    -0.550 OA
ENDBRANCH   2   3
ENDBRANCH   1   2
BRANCH   1   6
ATOM      6  C   UNL     1      61.668  32.213  60.444  1.00  0.00     0.000 C 
BRANCH   6   7
ATOM      7  C   UNL     1      61.069  31.408  61.612  1.00  0.00    -0.000 C 
BRANCH   7   8
ATOM      8  C   UNL     1      61.844  30.130  61.981  1.00  0.00    -0.003 C 
ATOM      9  C   UNL     1      63.352  30.262  61.769  1.00  0.00     0.004 C 
ENDBRANCH   7   8
ENDBRANCH   6   7
ENDBRANCH   1   6
TORSDOF 5
ENDMDL
MODEL 6
REMARK VINA RESULT:    -3.092      1.576      2.560
REMARK INTER + INTRA:          -4.153
REMARK INTER:                  -3.980
REMARK INTRA:                  -0.173
REMARK UNBOUND:                -0.157
REMARK SMILES CCCCCCC(=O)[O-]
REMARK SMILES IDX 5 1 6 2 7 3 8 4 9 5 4 6 3 7 2 8 1 9
REMARK H PARENT
REMARK Flexibility Score: inf
ROOT
ATOM      1  C   UNL     1      62.228  32.618  60.869  1.00  0.00     0.006 C 
ENDROOT
BRANCH   1   2
ATOM      2  C   UNL     1      63.743  32.598  61.091  1.00  0.00     0.053 C 
BRANCH   2   3
ATOM      3  C   UNL     1      64.248  31.191  61.143  1.00  0.00     0.041 C 
ATOM      4  O   UNL     1      65.215  30.837  60.417  1.00  0.00    -0.550 OA
ATOM      5  O   UNL     1      63.618  30.255  61.954  1.00  0.00    -0.550 OA
ENDBRANCH   2   3
ENDBRANCH   1   2
BRANCH   1   6
ATOM      6  C   UNL     1      61.719  34.054  60.681  1.00  0.00     0.000 C 
BRANCH   6   7
ATOM      7  C   UNL     1      62.776  35.116  61.037  1.00  0.00    -0.000 C 
BRANCH   7   8
ATOM      8  C   UNL     1      62.219  36.536  61.247  1.00  0.00    -0.003 C 
ATOM      9  C   UNL     1      60.745  36.663  60.865  1.00  0.00     0.004 C 
ENDBRANCH   7   8
ENDBRANCH   6   7
ENDBRANCH   1   6
TORSDOF 5
ENDMDL
MODEL 7
REMARK VINA RESULT:    -3.090      2.166      4.387
REMARK INTER + INTRA:          -4.150
REMARK INTER:                  -3.865
REMARK INTRA:                  -0.285
REMARK UNBOUND:                -0.157
REMARK SMILES CCCCCCC(=O)[O-]
REMARK SMILES IDX 5 1 6 2 7 3 8 4 9 5 4 6 3 7 2 8 1 9
REMARK H PARENT
REMARK Flexibility Score: inf
ROOT
ATOM      1  C   UNL     1      62.020  32.456  60.255  1.00  0.00     0.006 C 
ENDROOT
BRANCH   1   2
ATOM      2  C   UNL     1      62.513  33.760  60.891  1.00  0.00     0.053 C 
BRANCH   2   3
ATOM      3  C   UNL     1      63.977  33.679  61.187  1.00  0.00     0.041 C 
ATOM      4  O   UNL     1      64.647  32.683  60.806  1.00  0.00    -0.550 OA
ATOM      5  O   UNL     1      64.593  34.679  61.929  1.00  0.00    -0.550 OA
ENDBRANCH   2   3
ENDBRANCH   1   2
BRANCH   1   6
ATOM      6  C   UNL     1      60.783  31.921  60.989  1.00  0.00     0.000 C 
BRANCH   6   7
ATOM      7  C   UNL     1      61.135  30.934  62.118  1.00  0.00    -0.000 C 
BRANCH   7   8
ATOM      8  C   UNL     1      62.414  30.111  61.881  1.00  0.00    -0.003 C 
ATOM      9  C   UNL     1      62.150  28.609  61.785  1.00  0.00     0.004 C 
ENDBRANCH   7   8
ENDBRANCH   6   7
ENDBRANCH   1   6
TORSDOF 5
ENDMDL
MODEL 8
REMARK VINA RESULT:    -2.954     13.274     14.244
REMARK INTER + INTRA:          -3.975
REMARK INTER:                  -3.716
REMARK INTRA:                  -0.258
REMARK UNBOUND:                -0.157
REMARK SMILES CCCCCCC(=O)[O-]
REMARK SMILES IDX 5 1 6 2 7 3 8 4 9 5 4 6 3 7 2 8 1 9
REMARK H PARENT
REMARK Flexibility Score: inf
ROOT
ATOM      1  C   UNL     1      56.355  27.360  51.001  1.00  0.00     0.006 C 
ENDROOT
BRANCH   1   2
ATOM      2  C   UNL     1      56.039  26.312  49.930  1.00  0.00     0.053 C 
BRANCH   2   3
ATOM      3  C   UNL     1      54.564  26.089  49.833  1.00  0.00     0.041 C 
ATOM      4  O   UNL     1      54.105  25.215  49.052  1.00  0.00    -0.550 OA
ATOM      5  O   UNL     1      53.690  26.883  50.566  1.00  0.00    -0.550 OA
ENDBRANCH   2   3
ENDBRANCH   1   2
BRANCH   1   6
ATOM      6  C   UNL     1      56.647  28.726  50.364  1.00  0.00     0.000 C 
BRANCH   6   7
ATOM      7  C   UNL     1      58.117  29.160  50.522  1.00  0.00    -0.000 C 
BRANCH   7   8
ATOM      8  C   UNL     1      58.960  29.060  49.239  1.00  0.00    -0.003 C 
ATOM      9  C   UNL     1      59.750  27.755  49.141  1.00  0.00     0.004 C 
ENDBRANCH   7   8
ENDBRANCH   6   7
ENDBRANCH   1   6
TORSDOF 5
ENDMDL
MODEL 9
REMARK VINA RESULT:    -2.920      2.935      4.854
REMARK INTER + INTRA:          -3.930
REMARK INTER:                  -3.641
REMARK INTRA:                  -0.289
REMARK UNBOUND:                -0.157
REMARK SMILES CCCCCCC(=O)[O-]
REMARK SMILES IDX 5 1 6 2 7 3 8 4 9 5 4 6 3 7 2 8 1 9
REMARK H PARENT
REMARK Flexibility Score: inf
ROOT
ATOM      1  C   UNL     1      63.644  33.187  60.457  1.00  0.00     0.006 C 
ENDROOT
BRANCH   1   2
ATOM      2  C   UNL     1      63.866  34.488  61.234  1.00  0.00     0.053 C 
BRANCH   2   3
ATOM      3  C   UNL     1      62.636  35.337  61.199  1.00  0.00     0.041 C 
ATOM      4  O   UNL     1      62.684  36.538  61.573  1.00  0.00    -0.550 OA
ATOM      5  O   UNL     1      61.423  34.788  60.801  1.00  0.00    -0.550 OA
ENDBRANCH   2   3
ENDBRANCH   1   2
BRANCH   1   6
ATOM      6  C   UNL     1      64.269  31.993  61.194  1.00  0.00     0.000 C 
BRANCH   6   7
ATOM      7  C   UNL     1      63.282  30.827  61.391  1.00  0.00    -0.000 C 
BRANCH   7   8
ATOM      8  C   UNL     1      61.864  31.083  60.849  1.00  0.00    -0.003 C 
ATOM      9  C   UNL     1      60.805  31.150  61.949  1.00  0.00     0.004 C 
ENDBRANCH   7   8
ENDBRANCH   6   7
ENDBRANCH   1   6
TORSDOF 5
ENDMDL
