MODEL 1
REMARK VINA RESULT:    -7.860      0.000      0.000
REMARK INTER + INTRA:          -8.564
REMARK INTER:                  -8.319
REMARK INTRA:                  -0.245
REMARK UNBOUND:                -0.245
REMARK SMILES O=c1cc(-c2ccccc2)oc2ccccc12
REMARK SMILES IDX 4 1 3 2 2 3 1 4 17 5 16 6 15 7 14 8 13 9 12 10 11 11 5 12
REMARK SMILES IDX 8 13 7 14 9 15 6 16 10 17
REMARK H PARENT
REMARK Flexibility Score: inf
ROOT
ATOM      1  C   UNL     1      12.372 -24.234  21.541  1.00  0.00     0.138 A 
ATOM      2  C   UNL     1      11.162 -24.948  21.415  1.00  0.00     0.100 A 
ATOM      3  C   UNL     1      10.134 -24.728  22.332  1.00  0.00     0.193 A 
ATOM      4  O   UNL     1       9.051 -25.365  22.220  1.00  0.00    -0.289 OA
ATOM      5  C   UNL     1      10.319 -23.800  23.367  1.00  0.00     0.065 A 
ATOM      6  C   UNL     1       9.324 -23.531  24.325  1.00  0.00     0.016 A 
ATOM      7  C   UNL     1       9.562 -22.594  25.336  1.00  0.00     0.001 A 
ATOM      8  C   UNL     1      10.786 -21.924  25.400  1.00  0.00     0.004 A 
ATOM      9  C   UNL     1      11.780 -22.185  24.453  1.00  0.00     0.048 A 
ATOM     10  C   UNL     1      11.553 -23.120  23.436  1.00  0.00     0.138 A 
ATOM     11  O   UNL     1      12.504 -23.361  22.540  1.00  0.00    -0.456 OA
ENDROOT
BRANCH   1  12
ATOM     12  C   UNL     1      13.522 -24.410  20.601  1.00  0.00     0.017 A 
ATOM     13  C   UNL     1      15.681 -24.841  18.833  1.00  0.00     0.000 A 
ATOM     14  C   UNL     1      15.316 -23.542  19.187  1.00  0.00     0.001 A 
ATOM     15  C   UNL     1      14.977 -25.926  19.353  1.00  0.00     0.001 A 
ATOM     16  C   UNL     1      14.248 -23.323  20.064  1.00  0.00     0.012 A 
ATOM     17  C   UNL     1      13.908 -25.716  20.228  1.00  0.00     0.012 A 
ENDBRANCH   1  12
TORSDOF 1
ENDMDL
MODEL 2
REMARK VINA RESULT:    -7.162      1.149      2.682
REMARK INTER + INTRA:          -7.825
REMARK INTER:                  -7.580
REMARK INTRA:                  -0.246
REMARK UNBOUND:                -0.245
REMARK SMILES O=c1cc(-c2ccccc2)oc2ccccc12
REMARK SMILES IDX 4 1 3 2 2 3 1 4 17 5 16 6 15 7 14 8 13 9 12 10 11 11 5 12
REMARK SMILES IDX 8 13 7 14 9 15 6 16 10 17
REMARK H PARENT
REMARK Flexibility Score: inf
ROOT
ATOM      1  C   UNL     1      13.258 -23.628  21.782  1.00  0.00     0.138 A 
ATOM      2  C   UNL     1      13.704 -22.582  22.616  1.00  0.00     0.100 A 
ATOM      3  C   UNL     1      12.870 -22.103  23.627  1.00  0.00     0.193 A 
ATOM      4  O   UNL     1      13.269 -21.168  24.374  1.00  0.00    -0.289 OA
ATOM      5  C   UNL     1      11.599 -22.669  23.799  1.00  0.00     0.065 A 
ATOM      6  C   UNL     1      10.709 -22.234  24.799  1.00  0.00     0.016 A 
ATOM      7  C   UNL     1       9.452 -22.835  24.926  1.00  0.00     0.001 A 
ATOM      8  C   UNL     1       9.076 -23.868  24.064  1.00  0.00     0.004 A 
ATOM      9  C   UNL     1       9.953 -24.307  23.068  1.00  0.00     0.048 A 
ATOM     10  C   UNL     1      11.214 -23.713  22.931  1.00  0.00     0.138 A 
ATOM     11  O   UNL     1      12.041 -24.138  21.982  1.00  0.00    -0.456 OA
ENDROOT
BRANCH   1  12
ATOM     12  C   UNL     1      14.088 -24.199  20.677  1.00  0.00     0.017 A 
ATOM     13  C   UNL     1      15.681 -25.184  18.565  1.00  0.00     0.000 A 
ATOM     14  C   UNL     1      14.981 -26.070  19.384  1.00  0.00     0.001 A 
ATOM     15  C   UNL     1      15.593 -23.811  18.792  1.00  0.00     0.001 A 
ATOM     16  C   UNL     1      14.190 -25.587  20.432  1.00  0.00     0.012 A 
ATOM     17  C   UNL     1      14.805 -23.321  19.836  1.00  0.00     0.012 A 
ENDBRANCH   1  12
TORSDOF 1
ENDMDL
MODEL 3
REMARK VINA RESULT:    -6.011      2.447      3.690
REMARK INTER + INTRA:          -6.607
REMARK INTER:                  -6.341
REMARK INTRA:                  -0.266
REMARK UNBOUND:                -0.245
REMARK SMILES O=c1cc(-c2ccccc2)oc2ccccc12
REMARK SMILES IDX 4 1 3 2 2 3 1 4 17 5 16 6 15 7 14 8 13 9 12 10 11 11 5 12
REMARK SMILES IDX 8 13 7 14 9 15 6 16 10 17
REMARK H PARENT
REMARK Flexibility Score: inf
ROOT
ATOM      1  C   UNL     1      12.635 -23.135  23.715  1.00  0.00     0.138 A 
ATOM      2  C   UNL     1      11.891 -22.429  24.684  1.00  0.00     0.100 A 
ATOM      3  C   UNL     1      10.502 -22.563  24.718  1.00  0.00     0.193 A 
ATOM      4  O   UNL     1       9.837 -21.933  25.585  1.00  0.00    -0.289 OA
ATOM      5  C   UNL     1       9.867 -23.398  23.789  1.00  0.00     0.065 A 
ATOM      6  C   UNL     1       8.471 -23.578  23.769  1.00  0.00     0.016 A 
ATOM      7  C   UNL     1       7.889 -24.424  22.819  1.00  0.00     0.001 A 
ATOM      8  C   UNL     1       8.688 -25.093  21.888  1.00  0.00     0.004 A 
ATOM      9  C   UNL     1      10.075 -24.920  21.901  1.00  0.00     0.048 A 
ATOM     10  C   UNL     1      10.669 -24.076  22.847  1.00  0.00     0.138 A 
ATOM     11  O   UNL     1      11.988 -23.919  22.851  1.00  0.00    -0.456 OA
ENDROOT
BRANCH   1  12
ATOM     12  C   UNL     1      14.125 -23.047  23.610  1.00  0.00     0.017 A 
ATOM     13  C   UNL     1      16.932 -22.944  23.333  1.00  0.00     0.000 A 
ATOM     14  C   UNL     1      16.302 -22.220  24.346  1.00  0.00     0.001 A 
ATOM     15  C   UNL     1      16.172 -23.718  22.457  1.00  0.00     0.001 A 
ATOM     16  C   UNL     1      14.912 -22.268  24.488  1.00  0.00     0.012 A 
ATOM     17  C   UNL     1      14.782 -23.771  22.592  1.00  0.00     0.012 A 
ENDBRANCH   1  12
TORSDOF 1
ENDMDL
MODEL 4
REMARK VINA RESULT:    -5.587      2.339      5.437
REMARK INTER + INTRA:          -6.158
REMARK INTER:                  -5.892
REMARK INTRA:                  -0.266
REMARK UNBOUND:                -0.245
REMARK SMILES O=c1cc(-c2ccccc2)oc2ccccc12
REMARK SMILES IDX 4 1 3 2 2 3 1 4 17 5 16 6 15 7 14 8 13 9 12 10 11 11 5 12
REMARK SMILES IDX 8 13 7 14 9 15 6 16 10 17
REMARK H PARENT
REMARK Flexibility Score: inf
ROOT
ATOM      1  C   UNL     1      12.116 -23.956  22.463  1.00  0.00     0.138 A 
ATOM      2  C   UNL     1      12.861 -24.470  21.381  1.00  0.00     0.100 A 
ATOM      3  C   UNL     1      14.244 -24.285  21.347  1.00  0.00     0.193 A 
ATOM      4  O   UNL     1      14.910 -24.745  20.380  1.00  0.00    -0.289 OA
ATOM      5  C   UNL     1      14.873 -23.590  22.390  1.00  0.00     0.065 A 
ATOM      6  C   UNL     1      16.263 -23.369  22.417  1.00  0.00     0.016 A 
ATOM      7  C   UNL     1      16.839 -22.670  23.482  1.00  0.00     0.001 A 
ATOM      8  C   UNL     1      16.039 -22.188  24.522  1.00  0.00     0.004 A 
ATOM      9  C   UNL     1      14.658 -22.403  24.503  1.00  0.00     0.048 A 
ATOM     10  C   UNL     1      14.070 -23.102  23.442  1.00  0.00     0.138 A 
ATOM     11  O   UNL     1      12.757 -23.301  23.434  1.00  0.00    -0.456 OA
ENDROOT
BRANCH   1  12
ATOM     12  C   UNL     1      10.633 -24.110  22.577  1.00  0.00     0.017 A 
ATOM     13  C   UNL     1       7.836 -24.347  22.874  1.00  0.00     0.000 A 
ATOM     14  C   UNL     1       8.476 -24.946  21.789  1.00  0.00     0.001 A 
ATOM     15  C   UNL     1       8.580 -23.630  23.811  1.00  0.00     0.001 A 
ATOM     16  C   UNL     1       9.862 -24.832  21.637  1.00  0.00     0.012 A 
ATOM     17  C   UNL     1       9.964 -23.511  23.666  1.00  0.00     0.012 A 
ENDBRANCH   1  12
TORSDOF 1
ENDMDL
MODEL 5
REMARK VINA RESULT:    -5.569     13.117     13.725
REMARK INTER + INTRA:          -6.139
REMARK INTER:                  -5.901
REMARK INTRA:                  -0.238
REMARK UNBOUND:                -0.245
REMARK SMILES O=c1cc(-c2ccccc2)oc2ccccc12
REMARK SMILES IDX 4 1 3 2 2 3 1 4 17 5 16 6 15 7 14 8 13 9 12 10 11 11 5 12
REMARK SMILES IDX 8 13 7 14 9 15 6 16 10 17
REMARK H PARENT
REMARK Flexibility Score: inf
ROOT
ATOM      1  C   UNL     1      21.063 -29.485  30.100  1.00  0.00     0.138 A 
ATOM      2  C   UNL     1      21.781 -30.066  31.166  1.00  0.00     0.100 A 
ATOM      3  C   UNL     1      21.220 -31.129  31.875  1.00  0.00     0.193 A 
ATOM      4  O   UNL     1      21.862 -31.650  32.828  1.00  0.00    -0.289 OA
ATOM      5  C   UNL     1      19.950 -31.603  31.519  1.00  0.00     0.065 A 
ATOM      6  C   UNL     1      19.328 -32.671  32.193  1.00  0.00     0.016 A 
ATOM      7  C   UNL     1      18.058 -33.104  31.794  1.00  0.00     0.001 A 
ATOM      8  C   UNL     1      17.405 -32.481  30.728  1.00  0.00     0.004 A 
ATOM      9  C   UNL     1      18.015 -31.420  30.054  1.00  0.00     0.048 A 
ATOM     10  C   UNL     1      19.285 -30.978  30.443  1.00  0.00     0.138 A 
ATOM     11  O   UNL     1      19.857 -29.969  29.795  1.00  0.00    -0.456 OA
ENDROOT
BRANCH   1  12
ATOM     12  C   UNL     1      21.591 -28.344  29.289  1.00  0.00     0.017 A 
ATOM     13  C   UNL     1      22.603 -26.141  27.843  1.00  0.00     0.000 A 
ATOM     14  C   UNL     1      22.167 -27.281  27.166  1.00  0.00     0.001 A 
ATOM     15  C   UNL     1      22.537 -26.093  29.235  1.00  0.00     0.001 A 
ATOM     16  C   UNL     1      21.664 -28.375  27.878  1.00  0.00     0.012 A 
ATOM     17  C   UNL     1      22.037 -27.182  29.953  1.00  0.00     0.012 A 
ENDBRANCH   1  12
TORSDOF 1
ENDMDL
MODEL 6
REMARK VINA RESULT:    -5.437      5.155      7.310
REMARK INTER + INTRA:          -5.999
REMARK INTER:                  -5.756
REMARK INTRA:                  -0.244
REMARK UNBOUND:                -0.245
REMARK SMILES O=c1cc(-c2ccccc2)oc2ccccc12
REMARK SMILES IDX 4 1 3 2 2 3 1 4 17 5 16 6 15 7 14 8 13 9 12 10 11 11 5 12
REMARK SMILES IDX 8 13 7 14 9 15 6 16 10 17
REMARK H PARENT
REMARK Flexibility Score: inf
ROOT
ATOM      1  C   UNL     1      16.542 -26.547  22.593  1.00  0.00     0.138 A 
ATOM      2  C   UNL     1      17.857 -26.357  23.067  1.00  0.00     0.100 A 
ATOM      3  C   UNL     1      18.485 -27.379  23.782  1.00  0.00     0.193 A 
ATOM      4  O   UNL     1      19.661 -27.210  24.205  1.00  0.00    -0.289 OA
ATOM      5  C   UNL     1      17.799 -28.579  24.018  1.00  0.00     0.065 A 
ATOM      6  C   UNL     1      18.375 -29.647  24.731  1.00  0.00     0.016 A 
ATOM      7  C   UNL     1      17.645 -30.823  24.937  1.00  0.00     0.001 A 
ATOM      8  C   UNL     1      16.345 -30.941  24.438  1.00  0.00     0.004 A 
ATOM      9  C   UNL     1      15.766 -29.884  23.729  1.00  0.00     0.048 A 
ATOM     10  C   UNL     1      16.487 -28.703  23.516  1.00  0.00     0.138 A 
ATOM     11  O   UNL     1      15.928 -27.705  22.841  1.00  0.00    -0.456 OA
ENDROOT
BRANCH   1  12
ATOM     12  C   UNL     1      15.798 -25.505  21.820  1.00  0.00     0.017 A 
ATOM     13  C   UNL     1      14.367 -23.609  20.295  1.00  0.00     0.000 A 
ATOM     14  C   UNL     1      15.025 -23.215  21.461  1.00  0.00     0.001 A 
ATOM     15  C   UNL     1      14.416 -24.941  19.885  1.00  0.00     0.001 A 
ATOM     16  C   UNL     1      15.736 -24.151  22.219  1.00  0.00     0.012 A 
ATOM     17  C   UNL     1      15.123 -25.881  20.638  1.00  0.00     0.012 A 
ENDBRANCH   1  12
TORSDOF 1
ENDMDL
MODEL 7
REMARK VINA RESULT:    -5.405     12.219     13.351
REMARK INTER + INTRA:          -5.965
REMARK INTER:                  -5.709
REMARK INTRA:                  -0.256
REMARK UNBOUND:                -0.245
REMARK SMILES O=c1cc(-c2ccccc2)oc2ccccc12
REMARK SMILES IDX 4 1 3 2 2 3 1 4 17 5 16 6 15 7 14 8 13 9 12 10 11 11 5 12
REMARK SMILES IDX 8 13 7 14 9 15 6 16 10 17
REMARK H PARENT
REMARK Flexibility Score: inf
ROOT
ATOM      1  C   UNL     1      19.815 -29.758  29.707  1.00  0.00     0.138 A 
ATOM      2  C   UNL     1      18.938 -28.909  29.000  1.00  0.00     0.100 A 
ATOM      3  C   UNL     1      19.455 -27.844  28.262  1.00  0.00     0.193 A 
ATOM      4  O   UNL     1      18.671 -27.085  27.630  1.00  0.00    -0.289 OA
ATOM      5  C   UNL     1      20.841 -27.632  28.234  1.00  0.00     0.065 A 
ATOM      6  C   UNL     1      21.428 -26.578  27.510  1.00  0.00     0.016 A 
ATOM      7  C   UNL     1      22.817 -26.413  27.516  1.00  0.00     0.001 A 
ATOM      8  C   UNL     1      23.626 -27.293  28.239  1.00  0.00     0.004 A 
ATOM      9  C   UNL     1      23.052 -28.344  28.961  1.00  0.00     0.048 A 
ATOM     10  C   UNL     1      21.663 -28.518  28.962  1.00  0.00     0.138 A 
ATOM     11  O   UNL     1      21.127 -29.520  29.651  1.00  0.00    -0.456 OA
ENDROOT
BRANCH   1  12
ATOM     12  C   UNL     1      19.344 -30.921  30.520  1.00  0.00     0.017 A 
ATOM     13  C   UNL     1      18.376 -33.125  31.995  1.00  0.00     0.000 A 
ATOM     14  C   UNL     1      19.553 -32.486  32.385  1.00  0.00     0.001 A 
ATOM     15  C   UNL     1      17.679 -32.674  30.875  1.00  0.00     0.001 A 
ATOM     16  C   UNL     1      20.037 -31.393  31.658  1.00  0.00     0.012 A 
ATOM     17  C   UNL     1      18.156 -31.583  30.143  1.00  0.00     0.012 A 
ENDBRANCH   1  12
TORSDOF 1
ENDMDL
MODEL 8
REMARK VINA RESULT:    -5.322      5.342      7.354
REMARK INTER + INTRA:          -5.878
REMARK INTER:                  -5.633
REMARK INTRA:                  -0.245
REMARK UNBOUND:                -0.245
REMARK SMILES O=c1cc(-c2ccccc2)oc2ccccc12
REMARK SMILES IDX 4 1 3 2 2 3 1 4 17 5 16 6 15 7 14 8 13 9 12 10 11 11 5 12
REMARK SMILES IDX 8 13 7 14 9 15 6 16 10 17
REMARK H PARENT
REMARK Flexibility Score: inf
ROOT
ATOM      1  C   UNL     1      16.608 -26.503  22.604  1.00  0.00     0.138 A 
ATOM      2  C   UNL     1      16.131 -27.770  23.002  1.00  0.00     0.100 A 
ATOM      3  C   UNL     1      16.947 -28.603  23.769  1.00  0.00     0.193 A 
ATOM      4  O   UNL     1      16.521 -29.735  24.125  1.00  0.00    -0.289 OA
ATOM      5  C   UNL     1      18.230 -28.168  24.132  1.00  0.00     0.065 A 
ATOM      6  C   UNL     1      19.102 -28.958  24.904  1.00  0.00     0.016 A 
ATOM      7  C   UNL     1      20.371 -28.475  25.239  1.00  0.00     0.001 A 
ATOM      8  C   UNL     1      20.778 -27.208  24.810  1.00  0.00     0.004 A 
ATOM      9  C   UNL     1      19.917 -26.417  24.043  1.00  0.00     0.048 A 
ATOM     10  C   UNL     1      18.645 -26.890  23.702  1.00  0.00     0.138 A 
ATOM     11  O   UNL     1      17.835 -26.131  22.973  1.00  0.00    -0.456 OA
ENDROOT
BRANCH   1  12
ATOM     12  C   UNL     1      15.799 -25.550  21.782  1.00  0.00     0.017 A 
ATOM     13  C   UNL     1      14.299 -23.679  20.293  1.00  0.00     0.000 A 
ATOM     14  C   UNL     1      14.327 -25.019  19.906  1.00  0.00     0.001 A 
ATOM     15  C   UNL     1      15.013 -23.266  21.417  1.00  0.00     0.001 A 
ATOM     16  C   UNL     1      15.068 -25.951  20.640  1.00  0.00     0.012 A 
ATOM     17  C   UNL     1      15.757 -24.190  22.156  1.00  0.00     0.012 A 
ENDBRANCH   1  12
TORSDOF 1
ENDMDL
MODEL 9
REMARK VINA RESULT:    -5.236     11.786     13.044
REMARK INTER + INTRA:          -5.787
REMARK INTER:                  -5.523
REMARK INTRA:                  -0.264
REMARK UNBOUND:                -0.245
REMARK SMILES O=c1cc(-c2ccccc2)oc2ccccc12
REMARK SMILES IDX 4 1 3 2 2 3 1 4 17 5 16 6 15 7 14 8 13 9 12 10 11 11 5 12
REMARK SMILES IDX 8 13 7 14 9 15 6 16 10 17
REMARK H PARENT
REMARK Flexibility Score: inf
ROOT
ATOM      1  C   UNL     1      19.900 -29.787  29.612  1.00  0.00     0.138 A 
ATOM      2  C   UNL     1      21.013 -29.040  30.050  1.00  0.00     0.100 A 
ATOM      3  C   UNL     1      21.483 -27.983  29.270  1.00  0.00     0.193 A 
ATOM      4  O   UNL     1      22.478 -27.314  29.662  1.00  0.00    -0.289 OA
ATOM      5  C   UNL     1      20.842 -27.678  28.061  1.00  0.00     0.065 A 
ATOM      6  C   UNL     1      21.265 -26.626  27.228  1.00  0.00     0.016 A 
ATOM      7  C   UNL     1      20.587 -26.365  26.032  1.00  0.00     0.001 A 
ATOM      8  C   UNL     1      19.490 -27.147  25.661  1.00  0.00     0.004 A 
ATOM      9  C   UNL     1      19.064 -28.195  26.482  1.00  0.00     0.048 A 
ATOM     10  C   UNL     1      19.733 -28.464  27.681  1.00  0.00     0.138 A 
ATOM     11  O   UNL     1      19.320 -29.462  28.455  1.00  0.00    -0.456 OA
ENDROOT
BRANCH   1  12
ATOM     12  C   UNL     1      19.333 -30.934  30.387  1.00  0.00     0.017 A 
ATOM     13  C   UNL     1      18.346 -33.100  31.905  1.00  0.00     0.000 A 
ATOM     14  C   UNL     1      17.583 -32.572  30.862  1.00  0.00     0.001 A 
ATOM     15  C   UNL     1      19.596 -32.555  32.196  1.00  0.00     0.001 A 
ATOM     16  C   UNL     1      18.068 -31.499  30.107  1.00  0.00     0.012 A 
ATOM     17  C   UNL     1      20.087 -31.483  31.447  1.00  0.00     0.012 A 
ENDBRANCH   1  12
TORSDOF 1
ENDMDL
