MODEL 1
REMARK VINA RESULT:    -4.401      0.000      0.000
REMARK INTER + INTRA:          -5.151
REMARK INTER:                  -5.430
REMARK INTRA:                   0.279
REMARK UNBOUND:                 0.279
REMARK SMILES C=C1[C@@H]2CC[C@H]3[C@H]2C(C)(C)CCC[C@@]13C
REMARK SMILES IDX 14 1 6 2 7 3 3 4 2 5 1 6 4 7 5 8 15 9 8 10 9 11 10 12 11 13
REMARK SMILES IDX 13 15 12 16
REMARK H PARENT
REMARK Flexibility Score: 80.00
ROOT
ATOM      1  C   UNL     1       6.280   6.570  12.875  1.00  0.00    -0.008 C 
ATOM      2  C   UNL     1       6.693   6.592  14.345  1.00  0.00     0.003 C 
ATOM      3  C   UNL     1       6.409   8.078  14.618  1.00  0.00     0.006 C 
ATOM      4  C   UNL     1       7.522   8.570  13.707  1.00  0.00     0.019 C 
ATOM      5  C   UNL     1       7.076   7.813  12.431  1.00  0.00    -0.068 C 
ATOM      6  C   UNL     1       7.283   8.220  11.176  1.00  0.00     0.009 C 
ATOM      7  C   UNL     1       8.757   7.861  14.237  1.00  0.00     0.008 C 
ATOM      8  C   UNL     1       8.216   6.483  14.614  1.00  0.00     0.005 C 
ATOM      9  C   UNL     1       6.720   5.289  12.141  1.00  0.00     0.016 C 
ENDROOT
BRANCH   3  10
ATOM     10  C   UNL     1       5.449   8.268  15.813  1.00  0.00    -0.032 C 
ATOM     11  C   UNL     1       5.403   9.766  16.203  1.00  0.00     0.011 C 
ATOM     12  C   UNL     1       5.892   7.480  17.070  1.00  0.00     0.011 C 
BRANCH  10  13
ATOM     13  C   UNL     1       4.003   7.785  15.317  1.00  0.00     0.007 CG0
ATOM     14  G   UNL     1       3.888   6.647  14.207  1.00  0.00     0.000 G0
ENDBRANCH  10  13
ENDBRANCH   3  10
BRANCH   1  15
ATOM     15  C   UNL     1       4.689   6.763  12.829  1.00  0.00     0.011 C 
BRANCH  15  16
ATOM     16  C   UNL     1       3.889   6.651  14.207  1.00  0.00     0.001 CG0
ATOM     17  G   UNL     1       4.002   7.790  15.315  1.00  0.00     0.000 G0
ENDBRANCH  15  16
ENDBRANCH   1  15
TORSDOF 0
ENDMDL
MODEL 2
REMARK VINA RESULT:    -4.276     12.481     14.357
REMARK INTER + INTRA:          -4.997
REMARK INTER:                  -5.256
REMARK INTRA:                   0.260
REMARK UNBOUND:                 0.279
REMARK SMILES C=C1[C@@H]2CC[C@H]3[C@H]2C(C)(C)CCC[C@@]13C
REMARK SMILES IDX 14 1 6 2 7 3 3 4 2 5 1 6 4 7 5 8 15 9 8 10 9 11 10 12 11 13
REMARK SMILES IDX 13 15 12 16
REMARK H PARENT
REMARK Flexibility Score: 80.00
ROOT
ATOM      1  C   UNL     1      12.932   7.886  25.056  1.00  0.00    -0.008 C 
ATOM      2  C   UNL     1      14.278   7.815  24.339  1.00  0.00     0.003 C 
ATOM      3  C   UNL     1      14.954   8.997  25.052  1.00  0.00     0.006 C 
ATOM      4  C   UNL     1      14.034  10.037  24.433  1.00  0.00     0.019 C 
ATOM      5  C   UNL     1      12.695   9.398  24.876  1.00  0.00    -0.068 C 
ATOM      6  C   UNL     1      11.565  10.063  25.131  1.00  0.00     0.009 C 
ATOM      7  C   UNL     1      14.171   9.793  22.939  1.00  0.00     0.008 C 
ATOM      8  C   UNL     1      14.272   8.270  22.857  1.00  0.00     0.005 C 
ATOM      9  C   UNL     1      11.841   7.028  24.385  1.00  0.00     0.016 C 
ENDROOT
BRANCH   3  10
ATOM     10  C   UNL     1      16.292   8.585  25.703  1.00  0.00    -0.032 C 
ATOM     11  C   UNL     1      17.041   9.851  26.188  1.00  0.00     0.011 C 
ATOM     12  C   UNL     1      17.234   7.844  24.722  1.00  0.00     0.011 C 
BRANCH  10  13
ATOM     13  C   UNL     1      15.923   7.652  26.954  1.00  0.00     0.007 CG0
ATOM     14  G   UNL     1      14.593   6.775  26.919  1.00  0.00     0.000 G0
ENDBRANCH  10  13
ENDBRANCH   3  10
BRANCH   1  15
ATOM     15  C   UNL     1      13.183   7.440  26.576  1.00  0.00     0.011 C 
BRANCH  15  16
ATOM     16  C   UNL     1      14.589   6.771  26.930  1.00  0.00     0.001 CG0
ATOM     17  G   UNL     1      15.924   7.640  26.964  1.00  0.00     0.000 G0
ENDBRANCH  15  16
ENDBRANCH   1  15
TORSDOF 0
ENDMDL
MODEL 3
REMARK VINA RESULT:    -4.263     11.383     13.301
REMARK INTER + INTRA:          -4.981
REMARK INTER:                  -5.242
REMARK INTRA:                   0.261
REMARK UNBOUND:                 0.279
REMARK SMILES C=C1[C@@H]2CC[C@H]3[C@H]2C(C)(C)CCC[C@@]13C
REMARK SMILES IDX 14 1 6 2 7 3 3 4 2 5 1 6 4 7 5 8 15 9 8 10 9 11 10 12 11 13
REMARK SMILES IDX 13 15 12 16
REMARK H PARENT
REMARK Flexibility Score: 80.00
ROOT
ATOM      1  C   UNL     1      14.979   7.904  25.423  1.00  0.00    -0.008 C 
ATOM      2  C   UNL     1      13.912   8.911  24.999  1.00  0.00     0.003 C 
ATOM      3  C   UNL     1      13.222   8.043  23.934  1.00  0.00     0.006 C 
ATOM      4  C   UNL     1      14.417   8.051  22.995  1.00  0.00     0.019 C 
ATOM      5  C   UNL     1      15.462   7.525  24.010  1.00  0.00    -0.068 C 
ATOM      6  C   UNL     1      16.544   6.803  23.705  1.00  0.00     0.009 C 
ATOM      7  C   UNL     1      14.701   9.530  22.790  1.00  0.00     0.008 C 
ATOM      8  C   UNL     1      14.424  10.119  24.172  1.00  0.00     0.005 C 
ATOM      9  C   UNL     1      16.093   8.529  26.286  1.00  0.00     0.016 C 
ENDROOT
BRANCH   3  10
ATOM     10  C   UNL     1      11.707   7.906  24.201  1.00  0.00    -0.032 C 
ATOM     11  C   UNL     1      11.026   7.238  22.980  1.00  0.00     0.011 C 
ATOM     12  C   UNL     1      11.010   9.271  24.423  1.00  0.00     0.011 C 
BRANCH  10  13
ATOM     13  C   UNL     1      11.555   6.971  25.495  1.00  0.00     0.007 CG0
ATOM     14  G   UNL     1      12.705   6.954  26.597  1.00  0.00     0.000 G0
ENDBRANCH  10  13
ENDBRANCH   3  10
BRANCH   1  15
ATOM     15  C   UNL     1      14.227   6.718  26.197  1.00  0.00     0.011 C 
BRANCH  15  16
ATOM     16  C   UNL     1      12.699   6.950  26.604  1.00  0.00     0.001 CG0
ATOM     17  G   UNL     1      11.553   6.974  25.498  1.00  0.00     0.000 G0
ENDBRANCH  15  16
ENDBRANCH   1  15
TORSDOF 0
ENDMDL
MODEL 4
REMARK VINA RESULT:    -4.245      1.385      3.931
REMARK INTER + INTRA:          -4.959
REMARK INTER:                  -5.242
REMARK INTRA:                   0.283
REMARK UNBOUND:                 0.279
REMARK SMILES C=C1[C@@H]2CC[C@H]3[C@H]2C(C)(C)CCC[C@@]13C
REMARK SMILES IDX 14 1 6 2 7 3 3 4 2 5 1 6 4 7 5 8 15 9 8 10 9 11 10 12 11 13
REMARK SMILES IDX 13 15 12 16
REMARK H PARENT
REMARK Flexibility Score: 80.00
ROOT
ATOM      1  C   UNL     1       4.246   7.557  14.893  1.00  0.00    -0.008 C 
ATOM      2  C   UNL     1       5.626   8.164  14.646  1.00  0.00     0.003 C 
ATOM      3  C   UNL     1       6.448   6.873  14.789  1.00  0.00     0.006 C 
ATOM      4  C   UNL     1       6.151   6.719  16.272  1.00  0.00     0.019 C 
ATOM      5  C   UNL     1       4.607   6.766  16.165  1.00  0.00    -0.068 C 
ATOM      6  C   UNL     1       3.754   6.157  16.993  1.00  0.00     0.009 C 
ATOM      7  C   UNL     1       6.597   8.045  16.865  1.00  0.00     0.008 C 
ATOM      8  C   UNL     1       6.183   9.049  15.791  1.00  0.00     0.005 C 
ATOM      9  C   UNL     1       3.154   8.616  15.140  1.00  0.00     0.016 C 
ENDROOT
BRANCH   3  10
ATOM     10  C   UNL     1       7.328   6.613  13.547  1.00  0.00    -0.032 C 
ATOM     11  C   UNL     1       8.327   5.469  13.853  1.00  0.00     0.011 C 
ATOM     12  C   UNL     1       8.162   7.851  13.133  1.00  0.00     0.011 C 
BRANCH  10  13
ATOM     13  C   UNL     1       6.335   6.175  12.367  1.00  0.00     0.007 CG0
ATOM     14  G   UNL     1       4.850   6.751  12.330  1.00  0.00     0.000 G0
ENDBRANCH  10  13
ENDBRANCH   3  10
BRANCH   1  15
ATOM     15  C   UNL     1       3.902   6.636  13.627  1.00  0.00     0.011 C 
BRANCH  15  16
ATOM     16  C   UNL     1       4.848   6.754  12.345  1.00  0.00     0.001 CG0
ATOM     17  G   UNL     1       6.334   6.180  12.369  1.00  0.00     0.000 G0
ENDBRANCH  15  16
ENDBRANCH   1  15
TORSDOF 0
ENDMDL
MODEL 5
REMARK VINA RESULT:    -4.133     12.966     15.485
REMARK INTER + INTRA:          -4.820
REMARK INTER:                  -5.098
REMARK INTRA:                   0.278
REMARK UNBOUND:                 0.279
REMARK SMILES C=C1[C@@H]2CC[C@H]3[C@H]2C(C)(C)CCC[C@@]13C
REMARK SMILES IDX 14 1 6 2 7 3 3 4 2 5 1 6 4 7 5 8 15 9 8 10 9 11 10 12 11 13
REMARK SMILES IDX 13 15 12 16
REMARK H PARENT
REMARK Flexibility Score: 80.00
ROOT
ATOM      1  C   UNL     1      10.903   5.094  29.252  1.00  0.00    -0.008 C 
ATOM      2  C   UNL     1      10.602   5.259  27.764  1.00  0.00     0.003 C 
ATOM      3  C   UNL     1      10.925   6.758  27.653  1.00  0.00     0.006 C 
ATOM      4  C   UNL     1       9.753   7.186  28.521  1.00  0.00     0.019 C 
ATOM      5  C   UNL     1      10.093   6.306  29.750  1.00  0.00    -0.068 C 
ATOM      6  C   UNL     1       9.798   6.600  31.019  1.00  0.00     0.009 C 
ATOM      7  C   UNL     1       8.551   6.553  27.839  1.00  0.00     0.008 C 
ATOM      8  C   UNL     1       9.101   5.205  27.375  1.00  0.00     0.005 C 
ATOM      9  C   UNL     1      10.394   3.759  29.830  1.00  0.00     0.016 C 
ENDROOT
BRANCH   3  10
ATOM     10  C   UNL     1      11.973   7.038  26.554  1.00  0.00    -0.032 C 
ATOM     11  C   UNL     1      12.066   8.564  26.307  1.00  0.00     0.011 C 
ATOM     12  C   UNL     1      11.616   6.376  25.201  1.00  0.00     0.011 C 
BRANCH  10  13
ATOM     13  C   UNL     1      13.373   6.485  27.108  1.00  0.00     0.007 CG0
ATOM     14  G   UNL     1      13.391   5.247  28.111  1.00  0.00     0.000 G0
ENDBRANCH  10  13
ENDBRANCH   3  10
BRANCH   1  15
ATOM     15  C   UNL     1      12.489   5.250  29.432  1.00  0.00     0.011 C 
BRANCH  15  16
ATOM     16  C   UNL     1      13.388   5.249  28.112  1.00  0.00     0.001 CG0
ATOM     17  G   UNL     1      13.370   6.486  27.108  1.00  0.00     0.000 G0
ENDBRANCH  15  16
ENDBRANCH   1  15
TORSDOF 0
ENDMDL
MODEL 6
REMARK VINA RESULT:    -4.072      1.189      2.418
REMARK INTER + INTRA:          -4.746
REMARK INTER:                  -5.026
REMARK INTRA:                   0.280
REMARK UNBOUND:                 0.279
REMARK SMILES C=C1[C@@H]2CC[C@H]3[C@H]2C(C)(C)CCC[C@@]13C
REMARK SMILES IDX 14 1 6 2 7 3 3 4 2 5 1 6 4 7 5 8 15 9 8 10 9 11 10 12 11 13
REMARK SMILES IDX 13 15 12 16
REMARK H PARENT
REMARK Flexibility Score: 80.00
ROOT
ATOM      1  C   UNL     1       7.157   7.593  14.005  1.00  0.00    -0.008 C 
ATOM      2  C   UNL     1       6.337   7.114  15.201  1.00  0.00     0.003 C 
ATOM      3  C   UNL     1       5.143   8.066  15.027  1.00  0.00     0.006 C 
ATOM      4  C   UNL     1       5.949   9.312  15.354  1.00  0.00     0.019 C 
ATOM      5  C   UNL     1       7.062   9.103  14.297  1.00  0.00    -0.068 C 
ATOM      6  C   UNL     1       7.754  10.075  13.696  1.00  0.00     0.009 C 
ATOM      7  C   UNL     1       6.558   8.999  16.710  1.00  0.00     0.008 C 
ATOM      8  C   UNL     1       6.889   7.512  16.594  1.00  0.00     0.005 C 
ATOM      9  C   UNL     1       8.608   7.074  14.017  1.00  0.00     0.016 C 
ENDROOT
BRANCH   3  10
ATOM     10  C   UNL     1       3.805   7.298  14.944  1.00  0.00    -0.032 C 
ATOM     11  C   UNL     1       2.628   8.301  15.038  1.00  0.00     0.011 C 
ATOM     12  C   UNL     1       3.628   6.274  16.092  1.00  0.00     0.011 C 
BRANCH  10  13
ATOM     13  C   UNL     1       3.789   6.564  13.518  1.00  0.00     0.007 CG0
ATOM     14  G   UNL     1       5.161   6.111  12.848  1.00  0.00     0.000 G0
ENDBRANCH  10  13
ENDBRANCH   3  10
BRANCH   1  15
ATOM     15  C   UNL     1       6.375   7.134  12.683  1.00  0.00     0.011 C 
BRANCH  15  16
ATOM     16  C   UNL     1       5.166   6.104  12.856  1.00  0.00     0.001 CG0
ATOM     17  G   UNL     1       3.786   6.565  13.505  1.00  0.00     0.000 G0
ENDBRANCH  15  16
ENDBRANCH   1  15
TORSDOF 0
ENDMDL
MODEL 7
REMARK VINA RESULT:    -3.968      1.840      4.318
REMARK INTER + INTRA:          -4.618
REMARK INTER:                  -4.885
REMARK INTRA:                   0.267
REMARK UNBOUND:                 0.279
REMARK SMILES C=C1[C@@H]2CC[C@H]3[C@H]2C(C)(C)CCC[C@@]13C
REMARK SMILES IDX 14 1 6 2 7 3 3 4 2 5 1 6 4 7 5 8 15 9 8 10 9 11 10 12 11 13
REMARK SMILES IDX 13 15 12 16
REMARK H PARENT
REMARK Flexibility Score: 80.00
ROOT
ATOM      1  C   UNL     1       6.193   8.479  15.570  1.00  0.00    -0.008 C 
ATOM      2  C   UNL     1       6.478   7.047  15.123  1.00  0.00     0.003 C 
ATOM      3  C   UNL     1       5.558   7.028  13.891  1.00  0.00     0.006 C 
ATOM      4  C   UNL     1       4.280   7.126  14.709  1.00  0.00     0.019 C 
ATOM      5  C   UNL     1       4.656   8.402  15.501  1.00  0.00    -0.068 C 
ATOM      6  C   UNL     1       3.791   9.307  15.967  1.00  0.00     0.009 C 
ATOM      7  C   UNL     1       4.383   5.956  15.674  1.00  0.00     0.008 C 
ATOM      8  C   UNL     1       5.872   5.934  16.016  1.00  0.00     0.005 C 
ATOM      9  C   UNL     1       6.712   8.787  16.988  1.00  0.00     0.016 C 
ENDROOT
BRANCH   3  10
ATOM     10  C   UNL     1       6.323   6.627  12.611  1.00  0.00    -0.032 C 
ATOM     11  C   UNL     1       5.313   6.387  11.461  1.00  0.00     0.011 C 
ATOM     12  C   UNL     1       7.140   5.323  12.783  1.00  0.00     0.011 C 
BRANCH  10  13
ATOM     13  C   UNL     1       7.285   7.859  12.250  1.00  0.00     0.007 CG0
ATOM     14  G   UNL     1       7.832   8.800  13.412  1.00  0.00     0.000 G0
ENDBRANCH  10  13
ENDBRANCH   3  10
BRANCH   1  15
ATOM     15  C   UNL     1       6.847   9.453  14.477  1.00  0.00     0.011 C 
BRANCH  15  16
ATOM     16  C   UNL     1       7.838   8.805  13.405  1.00  0.00     0.001 CG0
ATOM     17  G   UNL     1       7.286   7.864  12.244  1.00  0.00     0.000 G0
ENDBRANCH  15  16
ENDBRANCH   1  15
TORSDOF 0
ENDMDL
MODEL 8
REMARK VINA RESULT:    -3.909     11.174     13.311
REMARK INTER + INTRA:          -4.544
REMARK INTER:                  -4.816
REMARK INTRA:                   0.272
REMARK UNBOUND:                 0.279
REMARK SMILES C=C1[C@@H]2CC[C@H]3[C@H]2C(C)(C)CCC[C@@]13C
REMARK SMILES IDX 14 1 6 2 7 3 3 4 2 5 1 6 4 7 5 8 15 9 8 10 9 11 10 12 11 13
REMARK SMILES IDX 13 15 12 16
REMARK H PARENT
REMARK Flexibility Score: 80.00
ROOT
ATOM      1  C   UNL     1      12.921   7.371  24.864  1.00  0.00    -0.008 C 
ATOM      2  C   UNL     1      12.177   8.273  25.847  1.00  0.00     0.003 C 
ATOM      3  C   UNL     1      10.854   7.490  25.885  1.00  0.00     0.006 C 
ATOM      4  C   UNL     1      10.499   7.806  24.441  1.00  0.00     0.019 C 
ATOM      5  C   UNL     1      11.809   7.282  23.802  1.00  0.00    -0.068 C 
ATOM      6  C   UNL     1      11.921   6.772  22.573  1.00  0.00     0.009 C 
ATOM      7  C   UNL     1      10.551   9.323  24.384  1.00  0.00     0.008 C 
ATOM      8  C   UNL     1      11.738   9.652  25.289  1.00  0.00     0.005 C 
ATOM      9  C   UNL     1      14.215   8.006  24.320  1.00  0.00     0.016 C 
ENDROOT
BRANCH   3  10
ATOM     10  C   UNL     1      10.458   7.105  27.327  1.00  0.00    -0.032 C 
ATOM     11  C   UNL     1       9.007   6.564  27.336  1.00  0.00     0.011 C 
ATOM     12  C   UNL     1      10.505   8.305  28.304  1.00  0.00     0.011 C 
BRANCH  10  13
ATOM     13  C   UNL     1      11.476   5.955  27.789  1.00  0.00     0.007 CG0
ATOM     14  G   UNL     1      12.957   5.930  27.201  1.00  0.00     0.000 G0
ENDBRANCH  10  13
ENDBRANCH   3  10
BRANCH   1  15
ATOM     15  C   UNL     1      13.213   5.989  25.622  1.00  0.00     0.011 C 
BRANCH  15  16
ATOM     16  C   UNL     1      12.964   5.940  27.199  1.00  0.00     0.001 CG0
ATOM     17  G   UNL     1      11.486   5.956  27.795  1.00  0.00     0.000 G0
ENDBRANCH  15  16
ENDBRANCH   1  15
TORSDOF 0
ENDMDL
MODEL 9
REMARK VINA RESULT:    -3.781     11.136     13.228
REMARK INTER + INTRA:          -4.386
REMARK INTER:                  -4.666
REMARK INTRA:                   0.280
REMARK UNBOUND:                 0.279
REMARK SMILES C=C1[C@@H]2CC[C@H]3[C@H]2C(C)(C)CCC[C@@]13C
REMARK SMILES IDX 14 1 6 2 7 3 3 4 2 5 1 6 4 7 5 8 15 9 8 10 9 11 10 12 11 13
REMARK SMILES IDX 13 15 12 16
REMARK H PARENT
REMARK Flexibility Score: 80.00
ROOT
ATOM      1  C   UNL     1      13.481   8.598  24.334  1.00  0.00    -0.008 C 
ATOM      2  C   UNL     1      12.396   8.912  25.361  1.00  0.00     0.003 C 
ATOM      3  C   UNL     1      11.612   7.595  25.242  1.00  0.00     0.006 C 
ATOM      4  C   UNL     1      11.148   7.873  23.822  1.00  0.00     0.019 C 
ATOM      5  C   UNL     1      12.548   8.116  23.206  1.00  0.00    -0.068 C 
ATOM      6  C   UNL     1      12.891   7.871  21.939  1.00  0.00     0.009 C 
ATOM      7  C   UNL     1      10.466   9.227  23.926  1.00  0.00     0.008 C 
ATOM      8  C   UNL     1      11.349   9.971  24.926  1.00  0.00     0.005 C 
ATOM      9  C   UNL     1      14.312   9.832  23.933  1.00  0.00     0.016 C 
ENDROOT
BRANCH   3  10
ATOM     10  C   UNL     1      11.449   6.900  26.612  1.00  0.00    -0.032 C 
ATOM     11  C   UNL     1      10.438   5.734  26.481  1.00  0.00     0.011 C 
ATOM     12  C   UNL     1      10.911   7.852  27.708  1.00  0.00     0.011 C 
BRANCH  10  13
ATOM     13  C   UNL     1      12.895   6.332  27.009  1.00  0.00     0.007 CG0
ATOM     14  G   UNL     1      14.205   7.091  26.515  1.00  0.00     0.000 G0
ENDBRANCH  10  13
ENDBRANCH   3  10
BRANCH   1  15
ATOM     15  C   UNL     1      14.401   7.443  24.959  1.00  0.00     0.011 C 
BRANCH  15  16
ATOM     16  C   UNL     1      14.202   7.090  26.504  1.00  0.00     0.001 CG0
ATOM     17  G   UNL     1      12.901   6.320  27.006  1.00  0.00     0.000 G0
ENDBRANCH  15  16
ENDBRANCH   1  15
TORSDOF 0
ENDMDL
