MODEL 1
REMARK VINA RESULT:    -3.524      0.000      0.000
REMARK INTER + INTRA:          -4.711
REMARK INTER:                  -4.348
REMARK INTRA:                  -0.363
REMARK UNBOUND:                -0.363
REMARK SMILES C=CC[C@H](C)C(=O)CC
REMARK SMILES IDX 4 1 5 2 6 3 7 4 8 5 9 6 3 7 2 8 1 9
REMARK H PARENT
REMARK Flexibility Score: inf
ROOT
ATOM      1  C   UNL     1      66.722  67.410  42.494  1.00  0.00     0.057 C 
ATOM      2  C   UNL     1      67.672  66.518  43.300  1.00  0.00     0.016 C 
ENDROOT
BRANCH   1   3
ATOM      3  C   UNL     1      66.515  66.829  41.109  1.00  0.00     0.135 C 
ATOM      4  O   UNL     1      66.996  65.738  40.831  1.00  0.00    -0.299 OA
BRANCH   3   5
ATOM      5  C   UNL     1      65.738  67.578  40.059  1.00  0.00     0.072 C 
ATOM      6  C   UNL     1      64.262  67.197  40.103  1.00  0.00     0.012 C 
ENDBRANCH   3   5
ENDBRANCH   1   3
BRANCH   1   7
ATOM      7  C   UNL     1      67.266  68.851  42.417  1.00  0.00     0.038 C 
BRANCH   7   8
ATOM      8  C   UNL     1      68.718  68.889  42.016  1.00  0.00    -0.034 C 
ATOM      9  C   UNL     1      69.125  69.493  40.896  1.00  0.00     0.004 C 
ENDBRANCH   7   8
ENDBRANCH   1   7
TORSDOF 4
ENDMDL
MODEL 2
REMARK VINA RESULT:    -3.517      1.724      3.950
REMARK INTER + INTRA:          -4.702
REMARK INTER:                  -4.349
REMARK INTRA:                  -0.352
REMARK UNBOUND:                -0.363
REMARK SMILES C=CC[C@H](C)C(=O)CC
REMARK SMILES IDX 4 1 5 2 6 3 7 4 8 5 9 6 3 7 2 8 1 9
REMARK H PARENT
REMARK Flexibility Score: inf
ROOT
ATOM      1  C   UNL     1      66.853  67.910  40.645  1.00  0.00     0.057 C 
ATOM      2  C   UNL     1      68.175  68.013  39.877  1.00  0.00     0.016 C 
ENDROOT
BRANCH   1   3
ATOM      3  C   UNL     1      67.106  68.048  42.133  1.00  0.00     0.135 C 
ATOM      4  O   UNL     1      67.404  69.139  42.599  1.00  0.00    -0.299 OA
BRANCH   3   5
ATOM      5  C   UNL     1      67.011  66.858  43.051  1.00  0.00     0.072 C 
ATOM      6  C   UNL     1      68.369  66.541  43.667  1.00  0.00     0.012 C 
ENDBRANCH   3   5
ENDBRANCH   1   3
BRANCH   1   7
ATOM      7  C   UNL     1      66.140  66.582  40.321  1.00  0.00     0.038 C 
BRANCH   7   8
ATOM      8  C   UNL     1      64.679  66.782  40.015  1.00  0.00    -0.034 C 
ATOM      9  C   UNL     1      64.179  67.986  39.723  1.00  0.00     0.004 C 
ENDBRANCH   7   8
ENDBRANCH   1   7
TORSDOF 4
ENDMDL
MODEL 3
REMARK VINA RESULT:    -3.464      1.675      3.259
REMARK INTER + INTRA:          -4.637
REMARK INTER:                  -4.165
REMARK INTRA:                  -0.471
REMARK UNBOUND:                -0.363
REMARK SMILES C=CC[C@H](C)C(=O)CC
REMARK SMILES IDX 4 1 5 2 6 3 7 4 8 5 9 6 3 7 2 8 1 9
REMARK H PARENT
REMARK Flexibility Score: inf
ROOT
ATOM      1  C   UNL     1      66.151  67.332  39.858  1.00  0.00     0.057 C 
ATOM      2  C   UNL     1      64.630  67.272  40.033  1.00  0.00     0.016 C 
ENDROOT
BRANCH   1   3
ATOM      3  C   UNL     1      66.701  65.940  39.616  1.00  0.00     0.135 C 
ATOM      4  O   UNL     1      65.935  64.988  39.552  1.00  0.00    -0.299 OA
BRANCH   3   5
ATOM      5  C   UNL     1      68.181  65.703  39.469  1.00  0.00     0.072 C 
ATOM      6  C   UNL     1      68.645  64.585  40.395  1.00  0.00     0.012 C 
ENDBRANCH   3   5
ENDBRANCH   1   3
BRANCH   1   7
ATOM      7  C   UNL     1      66.813  67.987  41.087  1.00  0.00     0.038 C 
BRANCH   7   8
ATOM      8  C   UNL     1      66.513  67.238  42.360  1.00  0.00    -0.034 C 
ATOM      9  C   UNL     1      67.485  66.795  43.163  1.00  0.00     0.004 C 
ENDBRANCH   7   8
ENDBRANCH   1   7
TORSDOF 4
ENDMDL
MODEL 4
REMARK VINA RESULT:    -3.386     14.026     14.829
REMARK INTER + INTRA:          -4.540
REMARK INTER:                  -4.398
REMARK INTRA:                  -0.143
REMARK UNBOUND:                -0.363
REMARK SMILES C=CC[C@H](C)C(=O)CC
REMARK SMILES IDX 4 1 5 2 6 3 7 4 8 5 9 6 3 7 2 8 1 9
REMARK H PARENT
REMARK Flexibility Score: inf
ROOT
ATOM      1  C   UNL     1      54.783  68.656  34.881  1.00  0.00     0.057 C 
ATOM      2  C   UNL     1      54.080  69.519  35.933  1.00  0.00     0.016 C 
ENDROOT
BRANCH   1   3
ATOM      3  C   UNL     1      55.267  69.524  33.737  1.00  0.00     0.135 C 
ATOM      4  O   UNL     1      56.468  69.640  33.530  1.00  0.00    -0.299 OA
BRANCH   3   5
ATOM      5  C   UNL     1      54.295  70.264  32.857  1.00  0.00     0.072 C 
ATOM      6  C   UNL     1      55.032  71.184  31.890  1.00  0.00     0.012 C 
ENDBRANCH   3   5
ENDBRANCH   1   3
BRANCH   1   7
ATOM      7  C   UNL     1      53.841  67.543  34.376  1.00  0.00     0.038 C 
BRANCH   7   8
ATOM      8  C   UNL     1      54.135  66.215  35.022  1.00  0.00    -0.034 C 
ATOM      9  C   UNL     1      54.129  65.075  34.325  1.00  0.00     0.004 C 
ENDBRANCH   7   8
ENDBRANCH   1   7
TORSDOF 4
ENDMDL
MODEL 5
REMARK VINA RESULT:    -3.384      1.235      3.888
REMARK INTER + INTRA:          -4.539
REMARK INTER:                  -4.341
REMARK INTRA:                  -0.198
REMARK UNBOUND:                -0.363
REMARK SMILES C=CC[C@H](C)C(=O)CC
REMARK SMILES IDX 4 1 5 2 6 3 7 4 8 5 9 6 3 7 2 8 1 9
REMARK H PARENT
REMARK Flexibility Score: inf
ROOT
ATOM      1  C   UNL     1      66.840  67.464  41.933  1.00  0.00     0.057 C 
ATOM      2  C   UNL     1      67.223  68.888  42.349  1.00  0.00     0.016 C 
ENDROOT
BRANCH   1   3
ATOM      3  C   UNL     1      67.866  66.478  42.456  1.00  0.00     0.135 C 
ATOM      4  O   UNL     1      68.292  65.598  41.720  1.00  0.00    -0.299 OA
BRANCH   3   5
ATOM      5  C   UNL     1      68.363  66.552  43.875  1.00  0.00     0.072 C 
ATOM      6  C   UNL     1      69.836  66.945  43.914  1.00  0.00     0.012 C 
ENDBRANCH   3   5
ENDBRANCH   1   3
BRANCH   1   7
ATOM      7  C   UNL     1      66.702  67.365  40.401  1.00  0.00     0.038 C 
BRANCH   7   8
ATOM      8  C   UNL     1      65.369  66.797  39.987  1.00  0.00    -0.034 C 
ATOM      9  C   UNL     1      64.265  67.547  39.948  1.00  0.00     0.004 C 
ENDBRANCH   7   8
ENDBRANCH   1   7
TORSDOF 4
ENDMDL
MODEL 6
REMARK VINA RESULT:    -3.383      0.966      2.182
REMARK INTER + INTRA:          -4.537
REMARK INTER:                  -4.277
REMARK INTRA:                  -0.260
REMARK UNBOUND:                -0.363
REMARK SMILES C=CC[C@H](C)C(=O)CC
REMARK SMILES IDX 4 1 5 2 6 3 7 4 8 5 9 6 3 7 2 8 1 9
REMARK H PARENT
REMARK Flexibility Score: inf
ROOT
ATOM      1  C   UNL     1      67.635  67.207  41.524  1.00  0.00     0.057 C 
ATOM      2  C   UNL     1      67.853  68.686  41.186  1.00  0.00     0.016 C 
ENDROOT
BRANCH   1   3
ATOM      3  C   UNL     1      66.724  66.569  40.494  1.00  0.00     0.135 C 
ATOM      4  O   UNL     1      66.764  65.359  40.315  1.00  0.00    -0.299 OA
BRANCH   3   5
ATOM      5  C   UNL     1      65.775  67.402  39.673  1.00  0.00     0.072 C 
ATOM      6  C   UNL     1      64.335  67.180  40.118  1.00  0.00     0.012 C 
ENDBRANCH   3   5
ENDBRANCH   1   3
BRANCH   1   7
ATOM      7  C   UNL     1      67.060  67.055  42.947  1.00  0.00     0.038 C 
BRANCH   7   8
ATOM      8  C   UNL     1      68.037  66.395  43.885  1.00  0.00    -0.034 C 
ATOM      9  C   UNL     1      69.267  66.880  44.078  1.00  0.00     0.004 C 
ENDBRANCH   7   8
ENDBRANCH   1   7
TORSDOF 4
ENDMDL
MODEL 7
REMARK VINA RESULT:    -3.305      1.892      3.983
REMARK INTER + INTRA:          -4.441
REMARK INTER:                  -4.019
REMARK INTRA:                  -0.422
REMARK UNBOUND:                -0.363
REMARK SMILES C=CC[C@H](C)C(=O)CC
REMARK SMILES IDX 4 1 5 2 6 3 7 4 8 5 9 6 3 7 2 8 1 9
REMARK H PARENT
REMARK Flexibility Score: inf
ROOT
ATOM      1  C   UNL     1      65.960  66.859  40.447  1.00  0.00     0.057 C 
ATOM      2  C   UNL     1      64.670  67.530  39.963  1.00  0.00     0.016 C 
ENDROOT
BRANCH   1   3
ATOM      3  C   UNL     1      66.543  67.634  41.611  1.00  0.00     0.135 C 
ATOM      4  O   UNL     1      66.824  68.817  41.473  1.00  0.00    -0.299 OA
BRANCH   3   5
ATOM      5  C   UNL     1      66.798  66.970  42.938  1.00  0.00     0.072 C 
ATOM      6  C   UNL     1      68.225  66.438  43.012  1.00  0.00     0.012 C 
ENDBRANCH   3   5
ENDBRANCH   1   3
BRANCH   1   7
ATOM      7  C   UNL     1      66.976  66.740  39.292  1.00  0.00     0.038 C 
BRANCH   7   8
ATOM      8  C   UNL     1      67.356  65.308  39.016  1.00  0.00    -0.034 C 
ATOM      9  C   UNL     1      66.895  64.300  39.763  1.00  0.00     0.004 C 
ENDBRANCH   7   8
ENDBRANCH   1   7
TORSDOF 4
ENDMDL
MODEL 8
REMARK VINA RESULT:    -3.240     13.918     14.976
REMARK INTER + INTRA:          -4.361
REMARK INTER:                  -4.113
REMARK INTRA:                  -0.247
REMARK UNBOUND:                -0.363
REMARK SMILES C=CC[C@H](C)C(=O)CC
REMARK SMILES IDX 4 1 5 2 6 3 7 4 8 5 9 6 3 7 2 8 1 9
REMARK H PARENT
REMARK Flexibility Score: inf
ROOT
ATOM      1  C   UNL     1      53.487  67.332  35.557  1.00  0.00     0.057 C 
ATOM      2  C   UNL     1      52.397  68.014  36.390  1.00  0.00     0.016 C 
ENDROOT
BRANCH   1   3
ATOM      3  C   UNL     1      54.064  68.313  34.556  1.00  0.00     0.135 C 
ATOM      4  O   UNL     1      53.560  68.414  33.446  1.00  0.00    -0.299 OA
BRANCH   3   5
ATOM      5  C   UNL     1      55.261  69.160  34.899  1.00  0.00     0.072 C 
ATOM      6  C   UNL     1      56.002  69.587  33.637  1.00  0.00     0.012 C 
ENDBRANCH   3   5
ENDBRANCH   1   3
BRANCH   1   7
ATOM      7  C   UNL     1      52.927  66.081  34.851  1.00  0.00     0.038 C 
BRANCH   7   8
ATOM      8  C   UNL     1      54.016  65.123  34.444  1.00  0.00    -0.034 C 
ATOM      9  C   UNL     1      54.903  64.650  35.325  1.00  0.00     0.004 C 
ENDBRANCH   7   8
ENDBRANCH   1   7
TORSDOF 4
ENDMDL
MODEL 9
REMARK VINA RESULT:    -3.217      1.430      3.609
REMARK INTER + INTRA:          -4.332
REMARK INTER:                  -3.972
REMARK INTRA:                  -0.360
REMARK UNBOUND:                -0.363
REMARK SMILES C=CC[C@H](C)C(=O)CC
REMARK SMILES IDX 4 1 5 2 6 3 7 4 8 5 9 6 3 7 2 8 1 9
REMARK H PARENT
REMARK Flexibility Score: inf
ROOT
ATOM      1  C   UNL     1      67.915  66.753  41.048  1.00  0.00     0.057 C 
ATOM      2  C   UNL     1      67.961  65.222  41.105  1.00  0.00     0.016 C 
ENDROOT
BRANCH   1   3
ATOM      3  C   UNL     1      67.489  67.309  42.392  1.00  0.00     0.135 C 
ATOM      4  O   UNL     1      67.332  66.552  43.340  1.00  0.00    -0.299 OA
BRANCH   3   5
ATOM      5  C   UNL     1      67.240  68.783  42.579  1.00  0.00     0.072 C 
ATOM      6  C   UNL     1      68.528  69.506  42.953  1.00  0.00     0.012 C 
ENDBRANCH   3   5
ENDBRANCH   1   3
BRANCH   1   7
ATOM      7  C   UNL     1      66.969  67.225  39.924  1.00  0.00     0.038 C 
BRANCH   7   8
ATOM      8  C   UNL     1      65.613  66.574  40.014  1.00  0.00    -0.034 C 
ATOM      9  C   UNL     1      64.486  67.291  40.016  1.00  0.00     0.004 C 
ENDBRANCH   7   8
ENDBRANCH   1   7
TORSDOF 4
ENDMDL
