MODEL 1
REMARK VINA RESULT:     2.331      0.000      0.000
REMARK INTER + INTRA:           3.693
REMARK INTER:                   4.375
REMARK INTRA:                  -0.682
REMARK UNBOUND:                -0.682
REMARK SMILES O=C([O-])CCCCCCCCCCCCCCC(=O)[O-]
REMARK SMILES IDX 10 1 9 2 8 3 7 4 6 5 5 6 4 7 2 8 1 9 3 10 11 11 12 12 13 13
REMARK SMILES IDX 14 14 15 15 16 16 17 17 18 18 19 19 20 20
REMARK H PARENT
REMARK Flexibility Score: inf
ROOT
ATOM      1  C   UNL     1      22.819  21.476  16.212  1.00  0.00     0.000 C 
ENDROOT
BRANCH   1   2
ATOM      2  C   UNL     1      22.527  20.664  14.938  1.00  0.00     0.000 C 
BRANCH   2   3
ATOM      3  C   UNL     1      21.207  19.881  15.024  1.00  0.00     0.000 C 
BRANCH   3   4
ATOM      4  C   UNL     1      20.094  20.669  15.733  1.00  0.00     0.000 C 
BRANCH   4   5
ATOM      5  C   UNL     1      18.725  20.011  15.502  1.00  0.00     0.000 C 
BRANCH   5   6
ATOM      6  C   UNL     1      17.619  20.622  16.377  1.00  0.00     0.006 C 
BRANCH   6   7
ATOM      7  C   UNL     1      16.285  19.875  16.253  1.00  0.00     0.053 C 
BRANCH   7   8
ATOM      8  C   UNL     1      15.141  20.836  16.320  1.00  0.00     0.041 C 
ATOM      9  O   UNL     1      15.320  22.054  16.056  1.00  0.00    -0.550 OA
ATOM     10  O   UNL     1      13.866  20.379  16.627  1.00  0.00    -0.550 OA
ENDBRANCH   7   8
ENDBRANCH   6   7
ENDBRANCH   5   6
ENDBRANCH   4   5
ENDBRANCH   3   4
ENDBRANCH   2   3
ENDBRANCH   1   2
BRANCH   1  11
ATOM     11  C   UNL     1      24.256  21.272  16.720  1.00  0.00     0.000 C 
BRANCH  11  12
ATOM     12  C   UNL     1      24.900  19.993  16.157  1.00  0.00     0.000 C 
BRANCH  12  13
ATOM     13  C   UNL     1      26.152  20.283  15.315  1.00  0.00     0.000 C 
BRANCH  13  14
ATOM     14  C   UNL     1      27.402  20.531  16.174  1.00  0.00     0.000 C 
BRANCH  14  15
ATOM     15  C   UNL     1      28.675  20.463  15.322  1.00  0.00     0.000 C 
BRANCH  15  16
ATOM     16  C   UNL     1      28.351  20.643  13.831  1.00  0.00     0.006 C 
BRANCH  16  17
ATOM     17  C   UNL     1      29.481  21.350  13.073  1.00  0.00     0.053 C 
BRANCH  17  18
ATOM     18  C   UNL     1      28.958  22.181  11.941  1.00  0.00     0.041 C 
ATOM     19  O   UNL     1      28.065  21.723  11.181  1.00  0.00    -0.550 OA
ATOM     20  O   UNL     1      29.479  23.447  11.707  1.00  0.00    -0.550 OA
ENDBRANCH  17  18
ENDBRANCH  16  17
ENDBRANCH  15  16
ENDBRANCH  14  15
ENDBRANCH  13  14
ENDBRANCH  12  13
ENDBRANCH  11  12
ENDBRANCH   1  11
TORSDOF 15
ENDMDL
MODEL 2
REMARK VINA RESULT:     2.501      2.569      3.805
REMARK INTER + INTRA:           4.012
REMARK INTER:                   3.999
REMARK INTRA:                   0.013
REMARK UNBOUND:                -0.682
REMARK SMILES O=C([O-])CCCCCCCCCCCCCCC(=O)[O-]
REMARK SMILES IDX 10 1 9 2 8 3 7 4 6 5 5 6 4 7 2 8 1 9 3 10 11 11 12 12 13 13
REMARK SMILES IDX 14 14 15 15 16 16 17 17 18 18 19 19 20 20
REMARK H PARENT
REMARK Flexibility Score: inf
ROOT
ATOM      1  C   UNL     1      20.084  20.436  15.180  1.00  0.00     0.000 C 
ENDROOT
BRANCH   1   2
ATOM      2  C   UNL     1      19.052  19.919  16.199  1.00  0.00     0.000 C 
BRANCH   2   3
ATOM      3  C   UNL     1      17.620  20.371  15.871  1.00  0.00     0.000 C 
BRANCH   3   4
ATOM      4  C   UNL     1      16.633  20.092  17.015  1.00  0.00     0.000 C 
BRANCH   4   5
ATOM      5  C   UNL     1      15.217  20.562  16.643  1.00  0.00     0.000 C 
BRANCH   5   6
ATOM      6  C   UNL     1      14.127  19.877  17.482  1.00  0.00     0.006 C 
BRANCH   6   7
ATOM      7  C   UNL     1      12.790  20.628  17.443  1.00  0.00     0.053 C 
BRANCH   7   8
ATOM      8  C   UNL     1      12.120  20.571  18.780  1.00  0.00     0.041 C 
ATOM      9  O   UNL     1      12.750  20.152  19.786  1.00  0.00    -0.550 OA
ATOM     10  O   UNL     1      10.816  21.027  18.924  1.00  0.00    -0.550 OA
ENDBRANCH   7   8
ENDBRANCH   6   7
ENDBRANCH   5   6
ENDBRANCH   4   5
ENDBRANCH   3   4
ENDBRANCH   2   3
ENDBRANCH   1   2
BRANCH   1  11
ATOM     11  C   UNL     1      21.520  20.389  15.728  1.00  0.00     0.000 C 
BRANCH  11  12
ATOM     12  C   UNL     1      22.538  21.016  14.759  1.00  0.00     0.000 C 
BRANCH  12  13
ATOM     13  C   UNL     1      23.471  19.972  14.124  1.00  0.00     0.000 C 
BRANCH  13  14
ATOM     14  C   UNL     1      24.915  20.076  14.639  1.00  0.00     0.000 C 
BRANCH  14  15
ATOM     15  C   UNL     1      25.873  20.475  13.510  1.00  0.00     0.000 C 
BRANCH  15  16
ATOM     16  C   UNL     1      27.272  19.884  13.739  1.00  0.00     0.006 C 
BRANCH  16  17
ATOM     17  C   UNL     1      28.198  20.856  14.480  1.00  0.00     0.053 C 
BRANCH  17  18
ATOM     18  C   UNL     1      28.177  20.627  15.960  1.00  0.00     0.041 C 
ATOM     19  O   UNL     1      29.221  20.256  16.558  1.00  0.00    -0.550 OA
ATOM     20  O   UNL     1      26.997  20.792  16.674  1.00  0.00    -0.550 OA
ENDBRANCH  17  18
ENDBRANCH  16  17
ENDBRANCH  15  16
ENDBRANCH  14  15
ENDBRANCH  13  14
ENDBRANCH  12  13
ENDBRANCH  11  12
ENDBRANCH   1  11
TORSDOF 15
ENDMDL
MODEL 3
REMARK VINA RESULT:     2.754     10.071     13.104
REMARK INTER + INTRA:           4.487
REMARK INTER:                   5.056
REMARK INTRA:                  -0.569
REMARK UNBOUND:                -0.682
REMARK SMILES O=C([O-])CCCCCCCCCCCCCCC(=O)[O-]
REMARK SMILES IDX 10 1 9 2 8 3 7 4 6 5 5 6 4 7 2 8 1 9 3 10 11 11 12 12 13 13
REMARK SMILES IDX 14 14 15 15 16 16 17 17 18 18 19 19 20 20
REMARK H PARENT
REMARK Flexibility Score: inf
ROOT
ATOM      1  C   UNL     1      16.089  21.203  16.420  1.00  0.00     0.000 C 
ENDROOT
BRANCH   1   2
ATOM      2  C   UNL     1      15.008  21.336  15.332  1.00  0.00     0.000 C 
BRANCH   2   3
ATOM      3  C   UNL     1      14.677  22.801  15.003  1.00  0.00     0.000 C 
BRANCH   3   4
ATOM      4  C   UNL     1      13.167  23.055  14.872  1.00  0.00     0.000 C 
BRANCH   4   5
ATOM      5  C   UNL     1      12.372  21.764  15.123  1.00  0.00     0.000 C 
BRANCH   5   6
ATOM      6  C   UNL     1      11.116  21.662  14.244  1.00  0.00     0.006 C 
BRANCH   6   7
ATOM      7  C   UNL     1       9.889  22.322  14.885  1.00  0.00     0.053 C 
BRANCH   7   8
ATOM      8  C   UNL     1       9.967  22.232  16.376  1.00  0.00     0.041 C 
ATOM      9  O   UNL     1       9.875  21.114  16.948  1.00  0.00    -0.550 OA
ATOM     10  O   UNL     1      10.190  23.375  17.132  1.00  0.00    -0.550 OA
ENDBRANCH   7   8
ENDBRANCH   6   7
ENDBRANCH   5   6
ENDBRANCH   4   5
ENDBRANCH   3   4
ENDBRANCH   2   3
ENDBRANCH   1   2
BRANCH   1  11
ATOM     11  C   UNL     1      15.653  20.273  17.565  1.00  0.00     0.000 C 
BRANCH  11  12
ATOM     12  C   UNL     1      14.145  19.974  17.536  1.00  0.00     0.000 C 
BRANCH  12  13
ATOM     13  C   UNL     1      13.529  19.897  18.942  1.00  0.00     0.000 C 
BRANCH  13  14
ATOM     14  C   UNL     1      12.020  20.189  18.946  1.00  0.00     0.000 C 
BRANCH  14  15
ATOM     15  C   UNL     1      11.554  20.646  20.334  1.00  0.00     0.000 C 
BRANCH  15  16
ATOM     16  C   UNL     1      10.809  21.987  20.253  1.00  0.00     0.006 C 
BRANCH  16  17
ATOM     17  C   UNL     1      10.593  22.616  21.634  1.00  0.00     0.053 C 
BRANCH  17  18
ATOM     18  C   UNL     1      11.399  21.927  22.692  1.00  0.00     0.041 C 
ATOM     19  O   UNL     1      12.644  22.106  22.755  1.00  0.00    -0.550 OA
ATOM     20  O   UNL     1      10.782  21.062  23.587  1.00  0.00    -0.550 OA
ENDBRANCH  17  18
ENDBRANCH  16  17
ENDBRANCH  15  16
ENDBRANCH  14  15
ENDBRANCH  13  14
ENDBRANCH  12  13
ENDBRANCH  11  12
ENDBRANCH   1  11
TORSDOF 15
ENDMDL
MODEL 4
REMARK VINA RESULT:     2.910     11.308     13.665
REMARK INTER + INTRA:           4.781
REMARK INTER:                   3.799
REMARK INTRA:                   0.981
REMARK UNBOUND:                -0.682
REMARK SMILES O=C([O-])CCCCCCCCCCCCCCC(=O)[O-]
REMARK SMILES IDX 10 1 9 2 8 3 7 4 6 5 5 6 4 7 2 8 1 9 3 10 11 11 12 12 13 13
REMARK SMILES IDX 14 14 15 15 16 16 17 17 18 18 19 19 20 20
REMARK H PARENT
REMARK Flexibility Score: inf
ROOT
ATOM      1  C   UNL     1      14.050  20.729  19.987  1.00  0.00     0.000 C 
ENDROOT
BRANCH   1   2
ATOM      2  C   UNL     1      13.790  20.042  18.635  1.00  0.00     0.000 C 
BRANCH   2   3
ATOM      3  C   UNL     1      13.582  21.047  17.490  1.00  0.00     0.000 C 
BRANCH   3   4
ATOM      4  C   UNL     1      12.327  20.746  16.656  1.00  0.00     0.000 C 
BRANCH   4   5
ATOM      5  C   UNL     1      11.057  21.187  17.400  1.00  0.00     0.000 C 
BRANCH   5   6
ATOM      6  C   UNL     1      10.349  22.367  16.715  1.00  0.00     0.006 C 
BRANCH   6   7
ATOM      7  C   UNL     1       9.915  22.045  15.280  1.00  0.00     0.053 C 
BRANCH   7   8
ATOM      8  C   UNL     1      11.059  22.231  14.334  1.00  0.00     0.041 C 
ATOM      9  O   UNL     1      12.109  22.812  14.717  1.00  0.00    -0.550 OA
ATOM     10  O   UNL     1      10.986  21.722  13.045  1.00  0.00    -0.550 OA
ENDBRANCH   7   8
ENDBRANCH   6   7
ENDBRANCH   5   6
ENDBRANCH   4   5
ENDBRANCH   3   4
ENDBRANCH   2   3
ENDBRANCH   1   2
BRANCH   1  11
ATOM     11  C   UNL     1      13.579  19.875  21.177  1.00  0.00     0.000 C 
BRANCH  11  12
ATOM     12  C   UNL     1      12.048  19.879  21.332  1.00  0.00     0.000 C 
BRANCH  12  13
ATOM     13  C   UNL     1      11.603  19.904  22.802  1.00  0.00     0.000 C 
BRANCH  13  14
ATOM     14  C   UNL     1      11.892  21.249  23.487  1.00  0.00     0.000 C 
BRANCH  14  15
ATOM     15  C   UNL     1      12.754  22.146  22.590  1.00  0.00     0.000 C 
BRANCH  15  16
ATOM     16  C   UNL     1      12.067  23.498  22.340  1.00  0.00     0.006 C 
BRANCH  16  17
ATOM     17  C   UNL     1      11.874  23.783  20.846  1.00  0.00     0.053 C 
BRANCH  17  18
ATOM     18  C   UNL     1      10.545  23.295  20.354  1.00  0.00     0.041 C 
ATOM     19  O   UNL     1      10.018  23.816  19.336  1.00  0.00    -0.550 OA
ATOM     20  O   UNL     1       9.875  22.289  21.038  1.00  0.00    -0.550 OA
ENDBRANCH  17  18
ENDBRANCH  16  17
ENDBRANCH  15  16
ENDBRANCH  14  15
ENDBRANCH  13  14
ENDBRANCH  12  13
ENDBRANCH  11  12
ENDBRANCH   1  11
TORSDOF 15
ENDMDL
MODEL 5
REMARK VINA RESULT:     4.044      3.538      6.031
REMARK INTER + INTRA:           6.909
REMARK INTER:                   7.259
REMARK INTRA:                  -0.350
REMARK UNBOUND:                -0.682
REMARK SMILES O=C([O-])CCCCCCCCCCCCCCC(=O)[O-]
REMARK SMILES IDX 10 1 9 2 8 3 7 4 6 5 5 6 4 7 2 8 1 9 3 10 11 11 12 12 13 13
REMARK SMILES IDX 14 14 15 15 16 16 17 17 18 18 19 19 20 20
REMARK H PARENT
REMARK Flexibility Score: inf
ROOT
ATOM      1  C   UNL     1      17.145  20.231  15.839  1.00  0.00     0.000 C 
ENDROOT
BRANCH   1   2
ATOM      2  C   UNL     1      16.102  19.891  16.919  1.00  0.00     0.000 C 
BRANCH   2   3
ATOM      3  C   UNL     1      14.658  20.073  16.425  1.00  0.00     0.000 C 
BRANCH   3   4
ATOM      4  C   UNL     1      13.781  20.843  17.424  1.00  0.00     0.000 C 
BRANCH   4   5
ATOM      5  C   UNL     1      12.720  19.921  18.046  1.00  0.00     0.000 C 
BRANCH   5   6
ATOM      6  C   UNL     1      12.516  20.181  19.547  1.00  0.00     0.006 C 
BRANCH   6   7
ATOM      7  C   UNL     1      11.275  21.034  19.837  1.00  0.00     0.053 C 
BRANCH   7   8
ATOM      8  C   UNL     1      11.054  21.149  21.312  1.00  0.00     0.041 C 
ATOM      9  O   UNL     1      10.869  20.115  22.007  1.00  0.00    -0.550 OA
ATOM     10  O   UNL     1      11.101  22.392  21.928  1.00  0.00    -0.550 OA
ENDBRANCH   7   8
ENDBRANCH   6   7
ENDBRANCH   5   6
ENDBRANCH   4   5
ENDBRANCH   3   4
ENDBRANCH   2   3
ENDBRANCH   1   2
BRANCH   1  11
ATOM     11  C   UNL     1      18.576  19.875  16.275  1.00  0.00     0.000 C 
BRANCH  11  12
ATOM     12  C   UNL     1      19.634  20.755  15.587  1.00  0.00     0.000 C 
BRANCH  12  13
ATOM     13  C   UNL     1      20.639  19.935  14.762  1.00  0.00     0.000 C 
BRANCH  13  14
ATOM     14  C   UNL     1      22.031  19.875  15.411  1.00  0.00     0.000 C 
BRANCH  14  15
ATOM     15  C   UNL     1      23.102  20.427  14.462  1.00  0.00     0.000 C 
BRANCH  15  16
ATOM     16  C   UNL     1      24.507  19.991  14.904  1.00  0.00     0.006 C 
BRANCH  16  17
ATOM     17  C   UNL     1      25.044  20.846  16.058  1.00  0.00     0.053 C 
BRANCH  17  18
ATOM     18  C   UNL     1      26.459  20.493  16.402  1.00  0.00     0.041 C 
ATOM     19  O   UNL     1      26.775  20.240  17.594  1.00  0.00    -0.550 OA
ATOM     20  O   UNL     1      27.433  20.477  15.413  1.00  0.00    -0.550 OA
ENDBRANCH  17  18
ENDBRANCH  16  17
ENDBRANCH  15  16
ENDBRANCH  14  15
ENDBRANCH  13  14
ENDBRANCH  12  13
ENDBRANCH  11  12
ENDBRANCH   1  11
TORSDOF 15
ENDMDL
