MODEL 1
REMARK VINA RESULT:    -3.561      0.000      0.000
REMARK INTER + INTRA:          -4.532
REMARK INTER:                  -4.394
REMARK INTRA:                  -0.138
REMARK UNBOUND:                -0.138
REMARK SMILES CCCCCC(=O)[O-]
REMARK SMILES IDX 4 1 5 2 6 3 7 4 8 5 3 6 2 7 1 8
REMARK H PARENT
REMARK Flexibility Score: inf
ROOT
ATOM      1  C   UNL     1      26.668  21.881  62.458  1.00  0.00     0.006 C 
ENDROOT
BRANCH   1   2
ATOM      2  C   UNL     1      26.407  21.901  60.946  1.00  0.00     0.053 C 
BRANCH   2   3
ATOM      3  C   UNL     1      27.505  21.193  60.218  1.00  0.00     0.041 C 
ATOM      4  O   UNL     1      27.457  19.944  60.057  1.00  0.00    -0.550 OA
ATOM      5  O   UNL     1      28.608  21.903  59.760  1.00  0.00    -0.550 OA
ENDBRANCH   2   3
ENDBRANCH   1   2
BRANCH   1   6
ATOM      6  C   UNL     1      25.371  21.831  63.281  1.00  0.00     0.000 C 
BRANCH   6   7
ATOM      7  C   UNL     1      25.054  20.420  63.798  1.00  0.00    -0.003 C 
ATOM      8  C   UNL     1      26.320  19.572  63.893  1.00  0.00     0.004 C 
ENDBRANCH   6   7
ENDBRANCH   1   6
TORSDOF 4
ENDMDL
MODEL 2
REMARK VINA RESULT:    -3.506      0.653      1.619
REMARK INTER + INTRA:          -4.463
REMARK INTER:                  -4.378
REMARK INTRA:                  -0.086
REMARK UNBOUND:                -0.138
REMARK SMILES CCCCCC(=O)[O-]
REMARK SMILES IDX 4 1 5 2 6 3 7 4 8 5 3 6 2 7 1 8
REMARK H PARENT
REMARK Flexibility Score: inf
ROOT
ATOM      1  C   UNL     1      26.590  21.748  62.426  1.00  0.00     0.006 C 
ENDROOT
BRANCH   1   2
ATOM      2  C   UNL     1      26.279  21.642  60.926  1.00  0.00     0.053 C 
BRANCH   2   3
ATOM      3  C   UNL     1      27.451  21.075  60.190  1.00  0.00     0.041 C 
ATOM      4  O   UNL     1      28.449  21.800  59.932  1.00  0.00    -0.550 OA
ATOM      5  O   UNL     1      27.424  19.760  59.745  1.00  0.00    -0.550 OA
ENDBRANCH   2   3
ENDBRANCH   1   2
BRANCH   1   6
ATOM      6  C   UNL     1      26.655  20.375  63.114  1.00  0.00     0.000 C 
BRANCH   6   7
ATOM      7  C   UNL     1      25.350  20.013  63.837  1.00  0.00    -0.003 C 
ATOM      8  C   UNL     1      24.406  21.212  63.899  1.00  0.00     0.004 C 
ENDBRANCH   6   7
ENDBRANCH   1   6
TORSDOF 4
ENDMDL
MODEL 3
REMARK VINA RESULT:    -3.249      1.350      1.671
REMARK INTER + INTRA:          -4.146
REMARK INTER:                  -4.058
REMARK INTRA:                  -0.089
REMARK UNBOUND:                -0.138
REMARK SMILES CCCCCC(=O)[O-]
REMARK SMILES IDX 4 1 5 2 6 3 7 4 8 5 3 6 2 7 1 8
REMARK H PARENT
REMARK Flexibility Score: inf
ROOT
ATOM      1  C   UNL     1      26.389  21.637  60.889  1.00  0.00     0.006 C 
ENDROOT
BRANCH   1   2
ATOM      2  C   UNL     1      27.461  20.864  60.110  1.00  0.00     0.053 C 
BRANCH   2   3
ATOM      3  C   UNL     1      26.975  20.544  58.732  1.00  0.00     0.041 C 
ATOM      4  O   UNL     1      26.611  19.373  58.444  1.00  0.00    -0.550 OA
ATOM      5  O   UNL     1      26.969  21.526  57.750  1.00  0.00    -0.550 OA
ENDBRANCH   2   3
ENDBRANCH   1   2
BRANCH   1   6
ATOM      6  C   UNL     1      26.680  21.692  62.398  1.00  0.00     0.000 C 
BRANCH   6   7
ATOM      7  C   UNL     1      25.659  20.897  63.225  1.00  0.00    -0.003 C 
ATOM      8  C   UNL     1      26.294  19.644  63.823  1.00  0.00     0.004 C 
ENDBRANCH   6   7
ENDBRANCH   1   6
TORSDOF 4
ENDMDL
MODEL 4
REMARK VINA RESULT:    -2.961      2.637      4.246
REMARK INTER + INTRA:          -3.791
REMARK INTER:                  -3.713
REMARK INTRA:                  -0.078
REMARK UNBOUND:                -0.138
REMARK SMILES CCCCCC(=O)[O-]
REMARK SMILES IDX 4 1 5 2 6 3 7 4 8 5 3 6 2 7 1 8
REMARK H PARENT
REMARK Flexibility Score: inf
ROOT
ATOM      1  C   UNL     1      26.492  21.986  62.005  1.00  0.00     0.006 C 
ENDROOT
BRANCH   1   2
ATOM      2  C   UNL     1      26.661  21.332  63.384  1.00  0.00     0.053 C 
BRANCH   2   3
ATOM      3  C   UNL     1      25.481  20.468  63.698  1.00  0.00     0.041 C 
ATOM      4  O   UNL     1      24.373  20.991  63.991  1.00  0.00    -0.550 OA
ATOM      5  O   UNL     1      25.616  19.086  63.718  1.00  0.00    -0.550 OA
ENDBRANCH   2   3
ENDBRANCH   1   2
BRANCH   1   6
ATOM      6  C   UNL     1      27.126  21.157  60.877  1.00  0.00     0.000 C 
BRANCH   6   7
ATOM      7  C   UNL     1      26.640  21.586  59.484  1.00  0.00    -0.003 C 
ATOM      8  C   UNL     1      26.821  20.460  58.468  1.00  0.00     0.004 C 
ENDBRANCH   6   7
ENDBRANCH   1   6
TORSDOF 4
ENDMDL
MODEL 5
REMARK VINA RESULT:    -2.745      4.747      6.371
REMARK INTER + INTRA:          -3.525
REMARK INTER:                  -3.356
REMARK INTRA:                  -0.169
REMARK UNBOUND:                -0.138
REMARK SMILES CCCCCC(=O)[O-]
REMARK SMILES IDX 4 1 5 2 6 3 7 4 8 5 3 6 2 7 1 8
REMARK H PARENT
REMARK Flexibility Score: inf
ROOT
ATOM      1  C   UNL     1      26.310  20.161  55.536  1.00  0.00     0.006 C 
ENDROOT
BRANCH   1   2
ATOM      2  C   UNL     1      26.487  20.919  56.859  1.00  0.00     0.053 C 
BRANCH   2   3
ATOM      3  C   UNL     1      26.630  19.957  57.995  1.00  0.00     0.041 C 
ATOM      4  O   UNL     1      26.411  18.729  57.818  1.00  0.00    -0.550 OA
ATOM      5  O   UNL     1      26.958  20.421  59.263  1.00  0.00    -0.550 OA
ENDBRANCH   2   3
ENDBRANCH   1   2
BRANCH   1   6
ATOM      6  C   UNL     1      24.848  20.126  55.065  1.00  0.00     0.000 C 
BRANCH   6   7
ATOM      7  C   UNL     1      24.425  18.741  54.552  1.00  0.00    -0.003 C 
ATOM      8  C   UNL     1      23.807  17.906  55.672  1.00  0.00     0.004 C 
ENDBRANCH   6   7
ENDBRANCH   1   6
TORSDOF 4
ENDMDL
MODEL 6
REMARK VINA RESULT:    -2.653      2.572      2.873
REMARK INTER + INTRA:          -3.411
REMARK INTER:                  -3.326
REMARK INTRA:                  -0.084
REMARK UNBOUND:                -0.138
REMARK SMILES CCCCCC(=O)[O-]
REMARK SMILES IDX 4 1 5 2 6 3 7 4 8 5 3 6 2 7 1 8
REMARK H PARENT
REMARK Flexibility Score: inf
ROOT
ATOM      1  C   UNL     1      24.788  21.742  61.694  1.00  0.00     0.006 C 
ENDROOT
BRANCH   1   2
ATOM      2  C   UNL     1      23.518  21.401  60.903  1.00  0.00     0.053 C 
BRANCH   2   3
ATOM      3  C   UNL     1      23.850  21.151  59.467  1.00  0.00     0.041 C 
ATOM      4  O   UNL     1      22.975  21.315  58.575  1.00  0.00    -0.550 OA
ATOM      5  O   UNL     1      25.112  20.689  59.114  1.00  0.00    -0.550 OA
ENDBRANCH   2   3
ENDBRANCH   1   2
BRANCH   1   6
ATOM      6  C   UNL     1      24.566  21.702  63.214  1.00  0.00     0.000 C 
BRANCH   6   7
ATOM      7  C   UNL     1      25.002  20.369  63.841  1.00  0.00    -0.003 C 
ATOM      8  C   UNL     1      26.491  20.117  63.616  1.00  0.00     0.004 C 
ENDBRANCH   6   7
ENDBRANCH   1   6
TORSDOF 4
ENDMDL
MODEL 7
REMARK VINA RESULT:    -2.630      2.508      4.462
REMARK INTER + INTRA:          -3.383
REMARK INTER:                  -3.312
REMARK INTRA:                  -0.071
REMARK UNBOUND:                -0.138
REMARK SMILES CCCCCC(=O)[O-]
REMARK SMILES IDX 4 1 5 2 6 3 7 4 8 5 3 6 2 7 1 8
REMARK H PARENT
REMARK Flexibility Score: inf
ROOT
ATOM      1  C   UNL     1      27.430  20.949  60.209  1.00  0.00     0.006 C 
ENDROOT
BRANCH   1   2
ATOM      2  C   UNL     1      26.941  21.911  61.301  1.00  0.00     0.053 C 
BRANCH   2   3
ATOM      3  C   UNL     1      26.240  21.156  62.385  1.00  0.00     0.041 C 
ATOM      4  O   UNL     1      26.830  20.914  63.472  1.00  0.00    -0.550 OA
ATOM      5  O   UNL     1      24.953  20.676  62.179  1.00  0.00    -0.550 OA
ENDBRANCH   2   3
ENDBRANCH   1   2
BRANCH   1   6
ATOM      6  C   UNL     1      26.705  21.159  58.869  1.00  0.00     0.000 C 
BRANCH   6   7
ATOM      7  C   UNL     1      26.630  19.874  58.031  1.00  0.00    -0.003 C 
ATOM      8  C   UNL     1      26.770  20.181  56.542  1.00  0.00     0.004 C 
ENDBRANCH   6   7
ENDBRANCH   1   6
TORSDOF 4
ENDMDL
MODEL 8
REMARK VINA RESULT:    -2.568      3.183      5.234
REMARK INTER + INTRA:          -3.306
REMARK INTER:                  -3.241
REMARK INTRA:                  -0.065
REMARK UNBOUND:                -0.138
REMARK SMILES CCCCCC(=O)[O-]
REMARK SMILES IDX 4 1 5 2 6 3 7 4 8 5 3 6 2 7 1 8
REMARK H PARENT
REMARK Flexibility Score: inf
ROOT
ATOM      1  C   UNL     1      26.644  19.880  57.930  1.00  0.00     0.006 C 
ENDROOT
BRANCH   1   2
ATOM      2  C   UNL     1      26.270  21.040  58.863  1.00  0.00     0.053 C 
BRANCH   2   3
ATOM      3  C   UNL     1      27.233  21.122  60.004  1.00  0.00     0.041 C 
ATOM      4  O   UNL     1      26.920  20.655  61.132  1.00  0.00    -0.550 OA
ATOM      5  O   UNL     1      28.457  21.758  59.839  1.00  0.00    -0.550 OA
ENDBRANCH   2   3
ENDBRANCH   1   2
BRANCH   1   6
ATOM      6  C   UNL     1      25.491  19.476  56.998  1.00  0.00     0.000 C 
BRANCH   6   7
ATOM      7  C   UNL     1      25.645  20.054  55.583  1.00  0.00    -0.003 C 
ATOM      8  C   UNL     1      27.060  20.583  55.357  1.00  0.00     0.004 C 
ENDBRANCH   6   7
ENDBRANCH   1   6
TORSDOF 4
ENDMDL
MODEL 9
REMARK VINA RESULT:    -2.485      5.201      6.632
REMARK INTER + INTRA:          -3.204
REMARK INTER:                  -2.950
REMARK INTRA:                  -0.254
REMARK UNBOUND:                -0.138
REMARK SMILES CCCCCC(=O)[O-]
REMARK SMILES IDX 4 1 5 2 6 3 7 4 8 5 3 6 2 7 1 8
REMARK H PARENT
REMARK Flexibility Score: inf
ROOT
ATOM      1  C   UNL     1      24.675  19.515  57.008  1.00  0.00     0.006 C 
ENDROOT
BRANCH   1   2
ATOM      2  C   UNL     1      26.178  19.440  57.313  1.00  0.00     0.053 C 
BRANCH   2   3
ATOM      3  C   UNL     1      26.925  20.450  56.502  1.00  0.00     0.041 C 
ATOM      4  O   UNL     1      27.323  20.162  55.342  1.00  0.00    -0.550 OA
ATOM      5  O   UNL     1      27.227  21.693  57.044  1.00  0.00    -0.550 OA
ENDBRANCH   2   3
ENDBRANCH   1   2
BRANCH   1   6
ATOM      6  C   UNL     1      24.171  18.296  56.220  1.00  0.00     0.000 C 
BRANCH   6   7
ATOM      7  C   UNL     1      24.092  18.560  54.709  1.00  0.00    -0.003 C 
ATOM      8  C   UNL     1      23.805  20.033  54.423  1.00  0.00     0.004 C 
ENDBRANCH   6   7
ENDBRANCH   1   6
TORSDOF 4
ENDMDL
