MODEL 1
REMARK VINA RESULT:    -4.503      0.000      0.000
REMARK INTER + INTRA:          -6.684
REMARK INTER:                  -6.346
REMARK INTRA:                  -0.338
REMARK UNBOUND:                -0.338
REMARK SMILES CCCCCCCCC(=O)[O-]
REMARK SMILES IDX 6 1 7 2 8 3 9 4 10 5 11 6 5 7 4 8 3 9 2 10 1 11
REMARK H PARENT
REMARK Flexibility Score: inf
ROOT
ATOM      1  C   UNL     1      11.666  28.632  60.251  1.00  0.00     0.000 C 
ENDROOT
BRANCH   1   2
ATOM      2  C   UNL     1      12.264  29.135  61.574  1.00  0.00     0.006 C 
BRANCH   2   3
ATOM      3  C   UNL     1      13.180  28.093  62.231  1.00  0.00     0.053 C 
BRANCH   3   4
ATOM      4  C   UNL     1      14.543  28.647  62.505  1.00  0.00     0.041 C 
ATOM      5  O   UNL     1      15.266  28.141  63.403  1.00  0.00    -0.550 OA
ATOM      6  O   UNL     1      15.031  29.703  61.746  1.00  0.00    -0.550 OA
ENDBRANCH   3   4
ENDBRANCH   2   3
ENDBRANCH   1   2
BRANCH   1   7
ATOM      7  C   UNL     1      11.176  29.805  59.390  1.00  0.00     0.000 C 
BRANCH   7   8
ATOM      8  C   UNL     1       9.665  30.051  59.528  1.00  0.00    -0.000 C 
BRANCH   8   9
ATOM      9  C   UNL     1       8.951  28.933  60.302  1.00  0.00    -0.000 C 
BRANCH   9  10
ATOM     10  C   UNL     1       8.333  29.472  61.597  1.00  0.00    -0.003 C 
ATOM     11  C   UNL     1       7.097  30.319  61.308  1.00  0.00     0.004 C 
ENDBRANCH   9  10
ENDBRANCH   8   9
ENDBRANCH   7   8
ENDBRANCH   1   7
TORSDOF 7
ENDMDL
MODEL 2
REMARK VINA RESULT:    -4.473      1.804      3.155
REMARK INTER + INTRA:          -6.641
REMARK INTER:                  -6.172
REMARK INTRA:                  -0.469
REMARK UNBOUND:                -0.338
REMARK SMILES CCCCCCCCC(=O)[O-]
REMARK SMILES IDX 6 1 7 2 8 3 9 4 10 5 11 6 5 7 4 8 3 9 2 10 1 11
REMARK H PARENT
REMARK Flexibility Score: inf
ROOT
ATOM      1  C   UNL     1      14.606  29.748  61.238  1.00  0.00     0.000 C 
ENDROOT
BRANCH   1   2
ATOM      2  C   UNL     1      15.845  29.190  61.957  1.00  0.00     0.006 C 
BRANCH   2   3
ATOM      3  C   UNL     1      15.653  29.127  63.478  1.00  0.00     0.053 C 
BRANCH   3   4
ATOM      4  C   UNL     1      15.619  27.715  63.976  1.00  0.00     0.041 C 
ATOM      5  O   UNL     1      14.522  27.110  64.096  1.00  0.00    -0.550 OA
ATOM      6  O   UNL     1      16.805  27.055  64.276  1.00  0.00    -0.550 OA
ENDBRANCH   3   4
ENDBRANCH   2   3
ENDBRANCH   1   2
BRANCH   1   7
ATOM      7  C   UNL     1      13.537  30.186  62.249  1.00  0.00     0.000 C 
BRANCH   7   8
ATOM      8  C   UNL     1      12.140  29.644  61.907  1.00  0.00    -0.000 C 
BRANCH   8   9
ATOM      9  C   UNL     1      12.136  28.778  60.639  1.00  0.00    -0.000 C 
BRANCH   9  10
ATOM     10  C   UNL     1      10.882  29.044  59.798  1.00  0.00    -0.003 C 
ATOM     11  C   UNL     1       9.762  29.637  60.650  1.00  0.00     0.004 C 
ENDBRANCH   9  10
ENDBRANCH   8   9
ENDBRANCH   7   8
ENDBRANCH   1   7
TORSDOF 7
ENDMDL
MODEL 3
REMARK VINA RESULT:    -4.466      3.112      5.772
REMARK INTER + INTRA:          -6.632
REMARK INTER:                  -5.973
REMARK INTRA:                  -0.659
REMARK UNBOUND:                -0.338
REMARK SMILES CCCCCCCCC(=O)[O-]
REMARK SMILES IDX 6 1 7 2 8 3 9 4 10 5 11 6 5 7 4 8 3 9 2 10 1 11
REMARK H PARENT
REMARK Flexibility Score: inf
ROOT
ATOM      1  C   UNL     1      13.589  30.416  62.093  1.00  0.00     0.000 C 
ENDROOT
BRANCH   1   2
ATOM      2  C   UNL     1      12.247  29.672  62.010  1.00  0.00     0.006 C 
BRANCH   2   3
ATOM      3  C   UNL     1      12.118  28.851  60.720  1.00  0.00     0.053 C 
BRANCH   3   4
ATOM      4  C   UNL     1      10.939  29.281  59.904  1.00  0.00     0.041 C 
ATOM      5  O   UNL     1      11.070  30.156  59.008  1.00  0.00    -0.550 OA
ATOM      6  O   UNL     1       9.698  28.690  60.110  1.00  0.00    -0.550 OA
ENDBRANCH   3   4
ENDBRANCH   2   3
ENDBRANCH   1   2
BRANCH   1   7
ATOM      7  C   UNL     1      14.551  29.936  60.996  1.00  0.00     0.000 C 
BRANCH   7   8
ATOM      8  C   UNL     1      15.916  29.501  61.554  1.00  0.00    -0.000 C 
BRANCH   8   9
ATOM      9  C   UNL     1      15.963  29.526  63.089  1.00  0.00    -0.000 C 
BRANCH   9  10
ATOM     10  C   UNL     1      16.192  28.119  63.652  1.00  0.00    -0.003 C 
ATOM     11  C   UNL     1      14.869  27.436  63.987  1.00  0.00     0.004 C 
ENDBRANCH   9  10
ENDBRANCH   8   9
ENDBRANCH   7   8
ENDBRANCH   1   7
TORSDOF 7
ENDMDL
MODEL 4
REMARK VINA RESULT:    -4.458      3.014      5.381
REMARK INTER + INTRA:          -6.620
REMARK INTER:                  -6.106
REMARK INTRA:                  -0.514
REMARK UNBOUND:                -0.338
REMARK SMILES CCCCCCCCC(=O)[O-]
REMARK SMILES IDX 6 1 7 2 8 3 9 4 10 5 11 6 5 7 4 8 3 9 2 10 1 11
REMARK H PARENT
REMARK Flexibility Score: inf
ROOT
ATOM      1  C   UNL     1      11.341  29.751  59.661  1.00  0.00     0.000 C 
ENDROOT
BRANCH   1   2
ATOM      2  C   UNL     1       9.880  29.708  59.186  1.00  0.00     0.006 C 
BRANCH   2   3
ATOM      3  C   UNL     1       9.012  28.797  60.062  1.00  0.00     0.053 C 
BRANCH   3   4
ATOM      4  C   UNL     1       8.483  29.519  61.263  1.00  0.00     0.041 C 
ATOM      5  O   UNL     1       9.185  29.623  62.302  1.00  0.00    -0.550 OA
ATOM      6  O   UNL     1       7.225  30.108  61.222  1.00  0.00    -0.550 OA
ENDBRANCH   3   4
ENDBRANCH   2   3
ENDBRANCH   1   2
BRANCH   1   7
ATOM      7  C   UNL     1      11.822  28.354  60.081  1.00  0.00     0.000 C 
BRANCH   7   8
ATOM      8  C   UNL     1      12.515  28.353  61.453  1.00  0.00    -0.000 C 
BRANCH   8   9
ATOM      9  C   UNL     1      12.968  29.755  61.888  1.00  0.00    -0.000 C 
BRANCH   9  10
ATOM     10  C   UNL     1      14.468  29.771  62.205  1.00  0.00    -0.003 C 
ATOM     11  C   UNL     1      14.885  28.515  62.966  1.00  0.00     0.004 C 
ENDBRANCH   9  10
ENDBRANCH   8   9
ENDBRANCH   7   8
ENDBRANCH   1   7
TORSDOF 7
ENDMDL
MODEL 5
REMARK VINA RESULT:    -4.354      3.135      6.095
REMARK INTER + INTRA:          -6.474
REMARK INTER:                  -6.154
REMARK INTRA:                  -0.320
REMARK UNBOUND:                -0.338
REMARK SMILES CCCCCCCCC(=O)[O-]
REMARK SMILES IDX 6 1 7 2 8 3 9 4 10 5 11 6 5 7 4 8 3 9 2 10 1 11
REMARK H PARENT
REMARK Flexibility Score: inf
ROOT
ATOM      1  C   UNL     1      12.990  28.311  61.786  1.00  0.00     0.000 C 
ENDROOT
BRANCH   1   2
ATOM      2  C   UNL     1      11.999  28.690  60.674  1.00  0.00     0.006 C 
BRANCH   2   3
ATOM      3  C   UNL     1      10.863  29.583  61.189  1.00  0.00     0.053 C 
BRANCH   3   4
ATOM      4  C   UNL     1       9.706  29.613  60.239  1.00  0.00     0.041 C 
ATOM      5  O   UNL     1       9.645  30.490  59.339  1.00  0.00    -0.550 OA
ATOM      6  O   UNL     1       8.709  28.649  60.328  1.00  0.00    -0.550 OA
ENDBRANCH   3   4
ENDBRANCH   2   3
ENDBRANCH   1   2
BRANCH   1   7
ATOM      7  C   UNL     1      13.767  29.544  62.271  1.00  0.00     0.000 C 
BRANCH   7   8
ATOM      8  C   UNL     1      15.095  29.740  61.523  1.00  0.00    -0.000 C 
BRANCH   8   9
ATOM      9  C   UNL     1      16.298  29.181  62.296  1.00  0.00    -0.000 C 
BRANCH   9  10
ATOM     10  C   UNL     1      15.932  28.914  63.761  1.00  0.00    -0.003 C 
ATOM     11  C   UNL     1      16.201  27.460  64.140  1.00  0.00     0.004 C 
ENDBRANCH   9  10
ENDBRANCH   8   9
ENDBRANCH   7   8
ENDBRANCH   1   7
TORSDOF 7
ENDMDL
MODEL 6
REMARK VINA RESULT:    -4.328      1.164      1.994
REMARK INTER + INTRA:          -6.437
REMARK INTER:                  -6.146
REMARK INTRA:                  -0.291
REMARK UNBOUND:                -0.338
REMARK SMILES CCCCCCCCC(=O)[O-]
REMARK SMILES IDX 6 1 7 2 8 3 9 4 10 5 11 6 5 7 4 8 3 9 2 10 1 11
REMARK H PARENT
REMARK Flexibility Score: inf
ROOT
ATOM      1  C   UNL     1      12.900  28.601  61.826  1.00  0.00     0.000 C 
ENDROOT
BRANCH   1   2
ATOM      2  C   UNL     1      14.054  29.590  62.053  1.00  0.00     0.006 C 
BRANCH   2   3
ATOM      3  C   UNL     1      15.404  28.880  62.210  1.00  0.00     0.053 C 
BRANCH   3   4
ATOM      4  C   UNL     1      15.676  28.510  63.635  1.00  0.00     0.041 C 
ATOM      5  O   UNL     1      16.195  29.345  64.421  1.00  0.00    -0.550 OA
ATOM      6  O   UNL     1      15.325  27.251  64.106  1.00  0.00    -0.550 OA
ENDBRANCH   3   4
ENDBRANCH   2   3
ENDBRANCH   1   2
BRANCH   1   7
ATOM      7  C   UNL     1      11.588  29.346  61.535  1.00  0.00     0.000 C 
BRANCH   7   8
ATOM      8  C   UNL     1      11.361  29.583  60.034  1.00  0.00    -0.000 C 
BRANCH   8   9
ATOM      9  C   UNL     1       9.888  29.851  59.692  1.00  0.00    -0.000 C 
BRANCH   9  10
ATOM     10  C   UNL     1       8.960  29.002  60.568  1.00  0.00    -0.003 C 
ATOM     11  C   UNL     1       7.859  29.853  61.193  1.00  0.00     0.004 C 
ENDBRANCH   9  10
ENDBRANCH   8   9
ENDBRANCH   7   8
ENDBRANCH   1   7
TORSDOF 7
ENDMDL
MODEL 7
REMARK VINA RESULT:    -4.279      2.877      6.002
REMARK INTER + INTRA:          -6.369
REMARK INTER:                  -6.005
REMARK INTRA:                  -0.364
REMARK UNBOUND:                -0.338
REMARK SMILES CCCCCCCCC(=O)[O-]
REMARK SMILES IDX 6 1 7 2 8 3 9 4 10 5 11 6 5 7 4 8 3 9 2 10 1 11
REMARK H PARENT
REMARK Flexibility Score: inf
ROOT
ATOM      1  C   UNL     1      13.043  29.661  60.430  1.00  0.00     0.000 C 
ENDROOT
BRANCH   1   2
ATOM      2  C   UNL     1      11.976  28.555  60.443  1.00  0.00     0.006 C 
BRANCH   2   3
ATOM      3  C   UNL     1      10.710  28.961  59.678  1.00  0.00     0.053 C 
BRANCH   3   4
ATOM      4  C   UNL     1       9.737  29.684  60.557  1.00  0.00     0.041 C 
ATOM      5  O   UNL     1       8.710  30.219  60.063  1.00  0.00    -0.550 OA
ATOM      6  O   UNL     1       9.948  29.739  61.929  1.00  0.00    -0.550 OA
ENDBRANCH   3   4
ENDBRANCH   2   3
ENDBRANCH   1   2
BRANCH   1   7
ATOM      7  C   UNL     1      13.646  29.858  61.829  1.00  0.00     0.000 C 
BRANCH   7   8
ATOM      8  C   UNL     1      14.077  28.534  62.480  1.00  0.00    -0.000 C 
BRANCH   8   9
ATOM      9  C   UNL     1      15.399  28.656  63.252  1.00  0.00    -0.000 C 
BRANCH   9  10
ATOM     10  C   UNL     1      16.593  28.689  62.292  1.00  0.00    -0.003 C 
ATOM     11  C   UNL     1      17.234  30.074  62.256  1.00  0.00     0.004 C 
ENDBRANCH   9  10
ENDBRANCH   8   9
ENDBRANCH   7   8
ENDBRANCH   1   7
TORSDOF 7
ENDMDL
MODEL 8
REMARK VINA RESULT:    -4.268      1.678      2.681
REMARK INTER + INTRA:          -6.353
REMARK INTER:                  -6.034
REMARK INTRA:                  -0.319
REMARK UNBOUND:                -0.338
REMARK SMILES CCCCCCCCC(=O)[O-]
REMARK SMILES IDX 6 1 7 2 8 3 9 4 10 5 11 6 5 7 4 8 3 9 2 10 1 11
REMARK H PARENT
REMARK Flexibility Score: inf
ROOT
ATOM      1  C   UNL     1      13.782  29.385  61.582  1.00  0.00     0.000 C 
ENDROOT
BRANCH   1   2
ATOM      2  C   UNL     1      14.170  28.320  62.620  1.00  0.00     0.006 C 
BRANCH   2   3
ATOM      3  C   UNL     1      15.252  28.818  63.587  1.00  0.00     0.053 C 
BRANCH   3   4
ATOM      4  C   UNL     1      16.505  29.206  62.866  1.00  0.00     0.041 C 
ATOM      5  O   UNL     1      16.898  30.402  62.871  1.00  0.00    -0.550 OA
ATOM      6  O   UNL     1      17.260  28.239  62.214  1.00  0.00    -0.550 OA
ENDBRANCH   3   4
ENDBRANCH   2   3
ENDBRANCH   1   2
BRANCH   1   7
ATOM      7  C   UNL     1      12.502  28.983  60.835  1.00  0.00     0.000 C 
BRANCH   7   8
ATOM      8  C   UNL     1      11.225  29.433  61.563  1.00  0.00    -0.000 C 
BRANCH   8   9
ATOM      9  C   UNL     1      10.066  29.726  60.599  1.00  0.00    -0.000 C 
BRANCH   9  10
ATOM     10  C   UNL     1      10.578  29.904  59.165  1.00  0.00    -0.003 C 
ATOM     11  C   UNL     1       9.455  29.709  58.150  1.00  0.00     0.004 C 
ENDBRANCH   9  10
ENDBRANCH   8   9
ENDBRANCH   7   8
ENDBRANCH   1   7
TORSDOF 7
ENDMDL
MODEL 9
REMARK VINA RESULT:    -4.252      3.296      6.239
REMARK INTER + INTRA:          -6.331
REMARK INTER:                  -5.817
REMARK INTRA:                  -0.514
REMARK UNBOUND:                -0.338
REMARK SMILES CCCCCCCCC(=O)[O-]
REMARK SMILES IDX 6 1 7 2 8 3 9 4 10 5 11 6 5 7 4 8 3 9 2 10 1 11
REMARK H PARENT
REMARK Flexibility Score: inf
ROOT
ATOM      1  C   UNL     1      15.622  29.728  60.425  1.00  0.00     0.000 C 
ENDROOT
BRANCH   1   2
ATOM      2  C   UNL     1      14.209  30.332  60.442  1.00  0.00     0.006 C 
BRANCH   2   3
ATOM      3  C   UNL     1      13.431  29.950  61.709  1.00  0.00     0.053 C 
BRANCH   3   4
ATOM      4  C   UNL     1      12.788  28.604  61.583  1.00  0.00     0.041 C 
ATOM      5  O   UNL     1      13.113  27.669  62.360  1.00  0.00    -0.550 OA
ATOM      6  O   UNL     1      11.804  28.391  60.625  1.00  0.00    -0.550 OA
ENDBRANCH   3   4
ENDBRANCH   2   3
ENDBRANCH   1   2
BRANCH   1   7
ATOM      7  C   UNL     1      16.318  29.924  61.780  1.00  0.00     0.000 C 
BRANCH   7   8
ATOM      8  C   UNL     1      16.828  28.604  62.380  1.00  0.00    -0.000 C 
BRANCH   8   9
ATOM      9  C   UNL     1      16.164  28.269  63.724  1.00  0.00    -0.000 C 
BRANCH   9  10
ATOM     10  C   UNL     1      16.696  26.944  64.282  1.00  0.00    -0.003 C 
ATOM     11  C   UNL     1      17.896  26.449  63.480  1.00  0.00     0.004 C 
ENDBRANCH   9  10
ENDBRANCH   8   9
ENDBRANCH   7   8
ENDBRANCH   1   7
TORSDOF 7
ENDMDL
