MODEL 1
REMARK VINA RESULT:    -5.117      0.000      0.000
REMARK INTER + INTRA:          -5.266
REMARK INTER:                  -5.266
REMARK INTRA:                   0.000
REMARK UNBOUND:                 0.000
REMARK SMILES CC1(C)CC[C@]2(C)CC[C@@]3(C)C(=CC[C@@H]4[C@@]5(C)CC[C@H](O)C(C)(C)[C@H]5CC[C@@]43C)[C@H]2C1
REMARK SMILES IDX 1 1 2 2 4 3 5 4 6 5 8 6 9 7 10 8 12 9 13 10 14 11 15 12
REMARK SMILES IDX 28 13 27 14 26 15 25 16 16 17 18 18 19 19 20 20 22 21 23 22
REMARK SMILES IDX 24 23 17 24 29 25 30 26 31 27 11 28 7 29 3 30 21 31
REMARK H PARENT 21 32
REMARK Flexibility Score: inf
ROOT
ATOM      1  C   UNL     1      58.367  48.249 128.059  1.00  0.00     0.011 C 
ATOM      2  C   UNL     1      58.205  47.435 126.756  1.00  0.00    -0.035 C 
ATOM      3  C   UNL     1      59.468  47.655 125.878  1.00  0.00     0.007 C 
ATOM      4  C   UNL     1      59.597  46.642 124.725  1.00  0.00     0.008 C 
ATOM      5  C   UNL     1      59.481  45.169 125.198  1.00  0.00    -0.026 C 
ATOM      6  C   UNL     1      59.481  44.264 123.953  1.00  0.00     0.008 C 
ATOM      7  C   UNL     1      59.461  42.781 124.323  1.00  0.00     0.012 C 
ATOM      8  C   UNL     1      58.330  42.316 125.339  1.00  0.00    -0.006 C 
ATOM      9  C   UNL     1      57.749  43.496 126.168  1.00  0.00    -0.064 C 
ATOM     10  C   UNL     1      56.657  43.234 126.920  1.00  0.00    -0.027 C 
ATOM     11  C   UNL     1      55.996  41.895 126.934  1.00  0.00     0.032 C 
ATOM     12  C   UNL     1      55.799  41.360 125.484  1.00  0.00     0.006 C 
ATOM     13  C   UNL     1      57.113  41.556 124.579  1.00  0.00    -0.020 C 
ATOM     14  C   UNL     1      57.598  40.194 123.991  1.00  0.00     0.008 C 
ATOM     15  C   UNL     1      57.435  38.951 124.873  1.00  0.00     0.005 C 
ATOM     16  C   UNL     1      56.116  38.783 125.709  1.00  0.00     0.003 C 
ATOM     17  C   UNL     1      55.074  39.934 125.426  1.00  0.00    -0.025 C 
ATOM     18  C   UNL     1      54.383  39.690 124.043  1.00  0.00     0.010 C 
ATOM     19  C   UNL     1      53.818  38.264 123.861  1.00  0.00     0.033 C 
ATOM     20  C   UNL     1      54.855  37.159 124.168  1.00  0.00     0.120 C 
ATOM     21  C   UNL     1      55.529  37.306 125.572  1.00  0.00    -0.006 C 
ATOM     22  C   UNL     1      54.532  36.969 126.726  1.00  0.00     0.014 C 
ATOM     23  C   UNL     1      56.665  36.240 125.708  1.00  0.00     0.014 C 
ATOM     24  C   UNL     1      53.921  39.968 126.485  1.00  0.00     0.012 C 
ATOM     25  C   UNL     1      56.668  42.437 123.365  1.00  0.00     0.012 C 
ATOM     26  C   UNL     1      58.114  44.976 125.908  1.00  0.00     0.022 C 
ATOM     27  C   UNL     1      58.017  45.933 127.134  1.00  0.00     0.015 C 
ATOM     28  C   UNL     1      59.058  41.355 126.338  1.00  0.00     0.017 C 
ATOM     29  C   UNL     1      60.702  44.834 126.107  1.00  0.00     0.012 C 
ATOM     30  C   UNL     1      56.955  47.974 126.015  1.00  0.00     0.011 C 
ENDROOT
BRANCH  20  31
ATOM     31  O   UNL     1      54.290  35.879 123.993  1.00  0.00    -0.393 OA
ATOM     32  H   UNL     1      54.101  35.755 123.027  1.00  0.00     0.210 HD
ENDBRANCH  20  31
TORSDOF 1
ENDMDL
MODEL 2
REMARK VINA RESULT:    -5.085      1.320      1.851
REMARK INTER + INTRA:          -5.233
REMARK INTER:                  -5.233
REMARK INTRA:                   0.000
REMARK UNBOUND:                 0.000
REMARK SMILES CC1(C)CC[C@]2(C)CC[C@@]3(C)C(=CC[C@@H]4[C@@]5(C)CC[C@H](O)C(C)(C)[C@H]5CC[C@@]43C)[C@H]2C1
REMARK SMILES IDX 1 1 2 2 4 3 5 4 6 5 8 6 9 7 10 8 12 9 13 10 14 11 15 12
REMARK SMILES IDX 28 13 27 14 26 15 25 16 16 17 18 18 19 19 20 20 22 21 23 22
REMARK SMILES IDX 24 23 17 24 29 25 30 26 31 27 11 28 7 29 3 30 21 31
REMARK H PARENT 21 32
REMARK Flexibility Score: inf
ROOT
ATOM      1  C   UNL     1      54.792  48.969 127.508  1.00  0.00     0.011 C 
ATOM      2  C   UNL     1      55.564  48.095 126.495  1.00  0.00    -0.035 C 
ATOM      3  C   UNL     1      57.054  48.537 126.499  1.00  0.00     0.007 C 
ATOM      4  C   UNL     1      57.994  47.533 125.806  1.00  0.00     0.008 C 
ATOM      5  C   UNL     1      57.827  46.084 126.335  1.00  0.00    -0.026 C 
ATOM      6  C   UNL     1      58.705  45.156 125.477  1.00  0.00     0.008 C 
ATOM      7  C   UNL     1      58.678  43.714 125.982  1.00  0.00     0.012 C 
ATOM      8  C   UNL     1      57.244  43.063 126.202  1.00  0.00    -0.006 C 
ATOM      9  C   UNL     1      56.121  44.128 126.348  1.00  0.00    -0.064 C 
ATOM     10  C   UNL     1      54.847  43.676 126.349  1.00  0.00    -0.027 C 
ATOM     11  C   UNL     1      54.510  42.231 126.174  1.00  0.00     0.032 C 
ATOM     12  C   UNL     1      55.304  41.618 124.982  1.00  0.00     0.006 C 
ATOM     13  C   UNL     1      56.853  42.046 124.998  1.00  0.00    -0.020 C 
ATOM     14  C   UNL     1      57.782  40.791 125.015  1.00  0.00     0.008 C 
ATOM     15  C   UNL     1      57.299  39.572 125.809  1.00  0.00     0.005 C 
ATOM     16  C   UNL     1      55.784  39.169 125.730  1.00  0.00     0.003 C 
ATOM     17  C   UNL     1      54.972  40.073 124.725  1.00  0.00    -0.025 C 
ATOM     18  C   UNL     1      55.295  39.647 123.254  1.00  0.00     0.010 C 
ATOM     19  C   UNL     1      55.164  38.130 122.992  1.00  0.00     0.033 C 
ATOM     20  C   UNL     1      55.951  37.270 124.007  1.00  0.00     0.120 C 
ATOM     21  C   UNL     1      55.615  37.599 125.500  1.00  0.00    -0.006 C 
ATOM     22  C   UNL     1      54.184  37.106 125.889  1.00  0.00     0.014 C 
ATOM     23  C   UNL     1      56.578  36.792 126.431  1.00  0.00     0.014 C 
ATOM     24  C   UNL     1      53.423  39.908 124.892  1.00  0.00     0.012 C 
ATOM     25  C   UNL     1      57.109  42.776 123.638  1.00  0.00     0.012 C 
ATOM     26  C   UNL     1      56.354  45.641 126.133  1.00  0.00     0.022 C 
ATOM     27  C   UNL     1      55.403  46.600 126.911  1.00  0.00     0.015 C 
ATOM     28  C   UNL     1      57.351  42.305 127.567  1.00  0.00     0.017 C 
ATOM     29  C   UNL     1      58.287  46.035 127.824  1.00  0.00     0.012 C 
ATOM     30  C   UNL     1      54.952  48.344 125.093  1.00  0.00     0.011 C 
ENDROOT
BRANCH  20  31
ATOM     31  O   UNL     1      55.794  35.897 123.729  1.00  0.00    -0.393 OA
ATOM     32  H   UNL     1      55.001  35.791 123.142  1.00  0.00     0.210 HD
ENDBRANCH  20  31
TORSDOF 1
ENDMDL
MODEL 3
REMARK VINA RESULT:    -5.006      2.840      8.043
REMARK INTER + INTRA:          -5.153
REMARK INTER:                  -5.153
REMARK INTRA:                   0.000
REMARK UNBOUND:                 0.000
REMARK SMILES CC1(C)CC[C@]2(C)CC[C@@]3(C)C(=CC[C@@H]4[C@@]5(C)CC[C@H](O)C(C)(C)[C@H]5CC[C@@]43C)[C@H]2C1
REMARK SMILES IDX 1 1 2 2 4 3 5 4 6 5 8 6 9 7 10 8 12 9 13 10 14 11 15 12
REMARK SMILES IDX 28 13 27 14 26 15 25 16 16 17 18 18 19 19 20 20 22 21 23 22
REMARK SMILES IDX 24 23 17 24 29 25 30 26 31 27 11 28 7 29 3 30 21 31
REMARK H PARENT 21 32
REMARK Flexibility Score: inf
ROOT
ATOM      1  C   UNL     1      53.099  37.148 123.200  1.00  0.00     0.011 C 
ATOM      2  C   UNL     1      54.109  37.598 124.278  1.00  0.00    -0.035 C 
ATOM      3  C   UNL     1      55.348  36.662 124.213  1.00  0.00     0.007 C 
ATOM      4  C   UNL     1      56.567  37.204 124.983  1.00  0.00     0.008 C 
ATOM      5  C   UNL     1      56.931  38.660 124.592  1.00  0.00    -0.026 C 
ATOM      6  C   UNL     1      58.063  39.138 125.520  1.00  0.00     0.008 C 
ATOM      7  C   UNL     1      58.554  40.536 125.150  1.00  0.00     0.012 C 
ATOM      8  C   UNL     1      57.446  41.668 125.011  1.00  0.00    -0.006 C 
ATOM      9  C   UNL     1      56.022  41.084 124.783  1.00  0.00    -0.064 C 
ATOM     10  C   UNL     1      54.989  41.954 124.841  1.00  0.00    -0.027 C 
ATOM     11  C   UNL     1      55.179  43.403 125.153  1.00  0.00     0.032 C 
ATOM     12  C   UNL     1      56.114  43.586 126.386  1.00  0.00     0.006 C 
ATOM     13  C   UNL     1      57.414  42.643 126.309  1.00  0.00    -0.020 C 
ATOM     14  C   UNL     1      58.725  43.486 126.395  1.00  0.00     0.008 C 
ATOM     15  C   UNL     1      58.717  44.864 125.723  1.00  0.00     0.005 C 
ATOM     16  C   UNL     1      57.440  45.767 125.860  1.00  0.00     0.003 C 
ATOM     17  C   UNL     1      56.342  45.118 126.788  1.00  0.00    -0.025 C 
ATOM     18  C   UNL     1      56.765  45.267 128.288  1.00  0.00     0.010 C 
ATOM     19  C   UNL     1      57.171  46.702 128.690  1.00  0.00     0.033 C 
ATOM     20  C   UNL     1      58.230  47.319 127.748  1.00  0.00     0.120 C 
ATOM     21  C   UNL     1      57.829  47.267 126.236  1.00  0.00    -0.006 C 
ATOM     22  C   UNL     1      56.672  48.266 125.914  1.00  0.00     0.014 C 
ATOM     23  C   UNL     1      59.033  47.764 125.371  1.00  0.00     0.014 C 
ATOM     24  C   UNL     1      54.954  45.832 126.658  1.00  0.00     0.012 C 
ATOM     25  C   UNL     1      57.369  41.749 127.592  1.00  0.00     0.012 C 
ATOM     26  C   UNL     1      55.704  39.573 124.854  1.00  0.00     0.022 C 
ATOM     27  C   UNL     1      54.492  39.086 124.004  1.00  0.00     0.015 C 
ATOM     28  C   UNL     1      57.840  42.461 123.720  1.00  0.00     0.017 C 
ATOM     29  C   UNL     1      57.408  38.679 123.108  1.00  0.00     0.012 C 
ATOM     30  C   UNL     1      53.421  37.455 125.659  1.00  0.00     0.011 C 
ENDROOT
BRANCH  20  31
ATOM     31  O   UNL     1      58.561  48.628 128.154  1.00  0.00    -0.393 OA
ATOM     32  H   UNL     1      59.038  48.570 129.022  1.00  0.00     0.210 HD
ENDBRANCH  20  31
TORSDOF 1
ENDMDL
MODEL 4
REMARK VINA RESULT:    -4.941     16.403     18.850
REMARK INTER + INTRA:          -5.085
REMARK INTER:                  -5.085
REMARK INTRA:                   0.000
REMARK UNBOUND:                 0.000
REMARK SMILES CC1(C)CC[C@]2(C)CC[C@@]3(C)C(=CC[C@@H]4[C@@]5(C)CC[C@H](O)C(C)(C)[C@H]5CC[C@@]43C)[C@H]2C1
REMARK SMILES IDX 1 1 2 2 4 3 5 4 6 5 8 6 9 7 10 8 12 9 13 10 14 11 15 12
REMARK SMILES IDX 28 13 27 14 26 15 25 16 16 17 18 18 19 19 20 20 22 21 23 22
REMARK SMILES IDX 24 23 17 24 29 25 30 26 31 27 11 28 7 29 3 30 21 31
REMARK H PARENT 21 32
REMARK Flexibility Score: inf
ROOT
ATOM      1  C   UNL     1      41.755  46.747 139.994  1.00  0.00     0.011 C 
ATOM      2  C   UNL     1      43.023  47.457 140.518  1.00  0.00    -0.035 C 
ATOM      3  C   UNL     1      42.844  47.728 142.038  1.00  0.00     0.007 C 
ATOM      4  C   UNL     1      44.154  48.108 142.752  1.00  0.00     0.008 C 
ATOM      5  C   UNL     1      45.303  47.101 142.484  1.00  0.00    -0.026 C 
ATOM      6  C   UNL     1      46.587  47.657 143.125  1.00  0.00     0.008 C 
ATOM      7  C   UNL     1      47.760  46.686 142.992  1.00  0.00     0.012 C 
ATOM      8  C   UNL     1      48.069  46.139 141.531  1.00  0.00    -0.006 C 
ATOM      9  C   UNL     1      46.853  46.277 140.572  1.00  0.00    -0.064 C 
ATOM     10  C   UNL     1      47.075  46.015 139.264  1.00  0.00    -0.027 C 
ATOM     11  C   UNL     1      48.425  45.654 138.736  1.00  0.00     0.032 C 
ATOM     12  C   UNL     1      49.512  46.625 139.289  1.00  0.00     0.006 C 
ATOM     13  C   UNL     1      49.351  46.884 140.867  1.00  0.00    -0.020 C 
ATOM     14  C   UNL     1      50.659  46.512 141.634  1.00  0.00     0.008 C 
ATOM     15  C   UNL     1      51.458  45.310 141.116  1.00  0.00     0.005 C 
ATOM     16  C   UNL     1      51.622  45.121 139.566  1.00  0.00     0.003 C 
ATOM     17  C   UNL     1      50.983  46.306 138.744  1.00  0.00    -0.025 C 
ATOM     18  C   UNL     1      51.914  47.562 138.820  1.00  0.00     0.010 C 
ATOM     19  C   UNL     1      53.392  47.275 138.475  1.00  0.00     0.033 C 
ATOM     20  C   UNL     1      53.983  46.094 139.279  1.00  0.00     0.120 C 
ATOM     21  C   UNL     1      53.133  44.783 139.182  1.00  0.00    -0.006 C 
ATOM     22  C   UNL     1      53.241  44.133 137.766  1.00  0.00     0.014 C 
ATOM     23  C   UNL     1      53.730  43.714 140.155  1.00  0.00     0.014 C 
ATOM     24  C   UNL     1      50.839  45.966 137.222  1.00  0.00     0.012 C 
ATOM     25  C   UNL     1      49.158  48.427 141.029  1.00  0.00     0.012 C 
ATOM     26  C   UNL     1      45.551  47.017 140.954  1.00  0.00     0.022 C 
ATOM     27  C   UNL     1      44.253  46.541 140.234  1.00  0.00     0.015 C 
ATOM     28  C   UNL     1      48.344  44.610 141.723  1.00  0.00     0.017 C 
ATOM     29  C   UNL     1      44.931  45.729 143.124  1.00  0.00     0.012 C 
ATOM     30  C   UNL     1      43.156  48.804 139.762  1.00  0.00     0.011 C 
ENDROOT
BRANCH  20  31
ATOM     31  O   UNL     1      55.329  45.869 138.924  1.00  0.00    -0.393 OA
ATOM     32  H   UNL     1      55.741  45.299 139.624  1.00  0.00     0.210 HD
ENDBRANCH  20  31
TORSDOF 1
ENDMDL
MODEL 5
REMARK VINA RESULT:    -4.836     11.276     13.824
REMARK INTER + INTRA:          -4.977
REMARK INTER:                  -4.977
REMARK INTRA:                   0.000
REMARK UNBOUND:                 0.000
REMARK SMILES CC1(C)CC[C@]2(C)CC[C@@]3(C)C(=CC[C@@H]4[C@@]5(C)CC[C@H](O)C(C)(C)[C@H]5CC[C@@]43C)[C@H]2C1
REMARK SMILES IDX 1 1 2 2 4 3 5 4 6 5 8 6 9 7 10 8 12 9 13 10 14 11 15 12
REMARK SMILES IDX 28 13 27 14 26 15 25 16 16 17 18 18 19 19 20 20 22 21 23 22
REMARK SMILES IDX 24 23 17 24 29 25 30 26 31 27 11 28 7 29 3 30 21 31
REMARK H PARENT 21 32
REMARK Flexibility Score: inf
ROOT
ATOM      1  C   UNL     1      55.479  39.428 137.318  1.00  0.00     0.011 C 
ATOM      2  C   UNL     1      54.553  38.512 136.487  1.00  0.00    -0.035 C 
ATOM      3  C   UNL     1      54.587  37.086 137.106  1.00  0.00     0.007 C 
ATOM      4  C   UNL     1      53.457  36.170 136.600  1.00  0.00     0.008 C 
ATOM      5  C   UNL     1      52.052  36.815 136.731  1.00  0.00    -0.026 C 
ATOM      6  C   UNL     1      51.029  35.875 136.067  1.00  0.00     0.008 C 
ATOM      7  C   UNL     1      49.597  36.384 136.227  1.00  0.00     0.012 C 
ATOM      8  C   UNL     1      49.323  37.888 135.789  1.00  0.00    -0.006 C 
ATOM      9  C   UNL     1      50.621  38.743 135.743  1.00  0.00    -0.064 C 
ATOM     10  C   UNL     1      50.519  39.978 135.203  1.00  0.00    -0.027 C 
ATOM     11  C   UNL     1      49.242  40.500 134.631  1.00  0.00     0.032 C 
ATOM     12  C   UNL     1      48.581  39.442 133.697  1.00  0.00     0.006 C 
ATOM     13  C   UNL     1      48.585  37.971 134.345  1.00  0.00    -0.020 C 
ATOM     14  C   UNL     1      47.138  37.392 134.434  1.00  0.00     0.008 C 
ATOM     15  C   UNL     1      46.006  38.379 134.741  1.00  0.00     0.005 C 
ATOM     16  C   UNL     1      46.023  39.790 134.053  1.00  0.00     0.003 C 
ATOM     17  C   UNL     1      47.216  39.947 133.032  1.00  0.00    -0.025 C 
ATOM     18  C   UNL     1      46.888  39.166 131.716  1.00  0.00     0.010 C 
ATOM     19  C   UNL     1      45.498  39.483 131.122  1.00  0.00     0.033 C 
ATOM     20  C   UNL     1      44.353  39.343 132.152  1.00  0.00     0.120 C 
ATOM     21  C   UNL     1      44.589  40.164 133.464  1.00  0.00    -0.006 C 
ATOM     22  C   UNL     1      44.445  41.699 133.215  1.00  0.00     0.014 C 
ATOM     23  C   UNL     1      43.459  39.823 134.490  1.00  0.00     0.014 C 
ATOM     24  C   UNL     1      47.443  41.436 132.605  1.00  0.00     0.012 C 
ATOM     25  C   UNL     1      49.371  37.064 133.342  1.00  0.00     0.012 C 
ATOM     26  C   UNL     1      52.035  38.149 135.936  1.00  0.00     0.022 C 
ATOM     27  C   UNL     1      53.115  39.117 136.507  1.00  0.00     0.015 C 
ATOM     28  C   UNL     1      48.414  38.476 136.921  1.00  0.00     0.017 C 
ATOM     29  C   UNL     1      51.718  36.994 138.243  1.00  0.00     0.012 C 
ATOM     30  C   UNL     1      55.109  38.464 135.042  1.00  0.00     0.011 C 
ENDROOT
BRANCH  20  31
ATOM     31  O   UNL     1      43.109  39.649 131.564  1.00  0.00    -0.393 OA
ATOM     32  H   UNL     1      42.529  40.050 132.262  1.00  0.00     0.210 HD
ENDBRANCH  20  31
TORSDOF 1
ENDMDL
MODEL 6
REMARK VINA RESULT:    -4.823      3.121      8.603
REMARK INTER + INTRA:          -4.964
REMARK INTER:                  -4.964
REMARK INTRA:                   0.000
REMARK UNBOUND:                 0.000
REMARK SMILES CC1(C)CC[C@]2(C)CC[C@@]3(C)C(=CC[C@@H]4[C@@]5(C)CC[C@H](O)C(C)(C)[C@H]5CC[C@@]43C)[C@H]2C1
REMARK SMILES IDX 1 1 2 2 4 3 5 4 6 5 8 6 9 7 10 8 12 9 13 10 14 11 15 12
REMARK SMILES IDX 28 13 27 14 26 15 25 16 16 17 18 18 19 19 20 20 22 21 23 22
REMARK SMILES IDX 24 23 17 24 29 25 30 26 31 27 11 28 7 29 3 30 21 31
REMARK H PARENT 21 32
REMARK Flexibility Score: inf
ROOT
ATOM      1  C   UNL     1      48.138  37.501 127.469  1.00  0.00     0.011 C 
ATOM      2  C   UNL     1      49.377  36.913 126.758  1.00  0.00    -0.035 C 
ATOM      3  C   UNL     1      48.907  36.201 125.459  1.00  0.00     0.007 C 
ATOM      4  C   UNL     1      50.056  35.877 124.486  1.00  0.00     0.008 C 
ATOM      5  C   UNL     1      50.947  37.108 124.172  1.00  0.00    -0.026 C 
ATOM      6  C   UNL     1      52.134  36.634 123.314  1.00  0.00     0.008 C 
ATOM      7  C   UNL     1      53.022  37.798 122.875  1.00  0.00     0.012 C 
ATOM      8  C   UNL     1      53.531  38.777 124.020  1.00  0.00    -0.006 C 
ATOM      9  C   UNL     1      52.659  38.698 125.305  1.00  0.00    -0.064 C 
ATOM     10  C   UNL     1      53.119  39.349 126.396  1.00  0.00    -0.027 C 
ATOM     11  C   UNL     1      54.422  40.079 126.404  1.00  0.00     0.032 C 
ATOM     12  C   UNL     1      55.549  39.204 125.777  1.00  0.00     0.006 C 
ATOM     13  C   UNL     1      55.079  38.490 124.416  1.00  0.00    -0.020 C 
ATOM     14  C   UNL     1      56.026  38.861 123.231  1.00  0.00     0.008 C 
ATOM     15  C   UNL     1      56.601  40.282 123.211  1.00  0.00     0.005 C 
ATOM     16  C   UNL     1      57.084  40.923 124.560  1.00  0.00     0.003 C 
ATOM     17  C   UNL     1      56.981  39.920 125.773  1.00  0.00    -0.025 C 
ATOM     18  C   UNL     1      58.149  38.881 125.699  1.00  0.00     0.010 C 
ATOM     19  C   UNL     1      59.546  39.513 125.514  1.00  0.00     0.033 C 
ATOM     20  C   UNL     1      59.610  40.508 124.332  1.00  0.00     0.120 C 
ATOM     21  C   UNL     1      58.509  41.619 124.391  1.00  0.00    -0.006 C 
ATOM     22  C   UNL     1      58.792  42.648 125.532  1.00  0.00     0.014 C 
ATOM     23  C   UNL     1      58.565  42.463 123.076  1.00  0.00     0.014 C 
ATOM     24  C   UNL     1      57.131  40.640 127.156  1.00  0.00     0.012 C 
ATOM     25  C   UNL     1      55.245  36.954 124.660  1.00  0.00     0.012 C 
ATOM     26  C   UNL     1      51.530  37.659 125.501  1.00  0.00     0.022 C 
ATOM     27  C   UNL     1      50.370  38.077 126.454  1.00  0.00     0.015 C 
ATOM     28  C   UNL     1      53.359  40.215 123.425  1.00  0.00     0.017 C 
ATOM     29  C   UNL     1      50.100  38.156 123.389  1.00  0.00     0.012 C 
ATOM     30  C   UNL     1      50.022  35.877 127.714  1.00  0.00     0.011 C 
ENDROOT
BRANCH  20  31
ATOM     31  O   UNL     1      60.901  41.060 124.211  1.00  0.00    -0.393 OA
ATOM     32  H   UNL     1      60.894  41.694 123.447  1.00  0.00     0.210 HD
ENDBRANCH  20  31
TORSDOF 1
ENDMDL
MODEL 7
REMARK VINA RESULT:    -4.794     11.474     13.965
REMARK INTER + INTRA:          -4.935
REMARK INTER:                  -4.935
REMARK INTRA:                   0.000
REMARK UNBOUND:                 0.000
REMARK SMILES CC1(C)CC[C@]2(C)CC[C@@]3(C)C(=CC[C@@H]4[C@@]5(C)CC[C@H](O)C(C)(C)[C@H]5CC[C@@]43C)[C@H]2C1
REMARK SMILES IDX 1 1 2 2 4 3 5 4 6 5 8 6 9 7 10 8 12 9 13 10 14 11 15 12
REMARK SMILES IDX 28 13 27 14 26 15 25 16 16 17 18 18 19 19 20 20 22 21 23 22
REMARK SMILES IDX 24 23 17 24 29 25 30 26 31 27 11 28 7 29 3 30 21 31
REMARK H PARENT 21 32
REMARK Flexibility Score: inf
ROOT
ATOM      1  C   UNL     1      42.033  41.532 135.248  1.00  0.00     0.011 C 
ATOM      2  C   UNL     1      43.228  41.338 134.288  1.00  0.00    -0.035 C 
ATOM      3  C   UNL     1      43.470  42.673 133.528  1.00  0.00     0.007 C 
ATOM      4  C   UNL     1      44.829  42.729 132.806  1.00  0.00     0.008 C 
ATOM      5  C   UNL     1      46.022  42.376 133.733  1.00  0.00    -0.026 C 
ATOM      6  C   UNL     1      47.298  42.326 132.874  1.00  0.00     0.008 C 
ATOM      7  C   UNL     1      48.546  42.074 133.720  1.00  0.00     0.012 C 
ATOM      8  C   UNL     1      48.500  40.827 134.705  1.00  0.00    -0.006 C 
ATOM      9  C   UNL     1      47.047  40.368 135.019  1.00  0.00    -0.064 C 
ATOM     10  C   UNL     1      46.907  39.205 135.694  1.00  0.00    -0.027 C 
ATOM     11  C   UNL     1      48.075  38.362 136.088  1.00  0.00     0.032 C 
ATOM     12  C   UNL     1      49.057  38.182 134.891  1.00  0.00     0.006 C 
ATOM     13  C   UNL     1      49.336  39.564 134.120  1.00  0.00    -0.020 C 
ATOM     14  C   UNL     1      50.863  39.888 134.083  1.00  0.00     0.008 C 
ATOM     15  C   UNL     1      51.694  39.495 135.310  1.00  0.00     0.005 C 
ATOM     16  C   UNL     1      51.412  38.116 136.006  1.00  0.00     0.003 C 
ATOM     17  C   UNL     1      50.324  37.268 135.241  1.00  0.00    -0.025 C 
ATOM     18  C   UNL     1      50.956  36.636 133.955  1.00  0.00     0.010 C 
ATOM     19  C   UNL     1      52.284  35.889 134.207  1.00  0.00     0.033 C 
ATOM     20  C   UNL     1      53.320  36.737 134.978  1.00  0.00     0.120 C 
ATOM     21  C   UNL     1      52.768  37.336 136.314  1.00  0.00    -0.006 C 
ATOM     22  C   UNL     1      52.569  36.231 137.400  1.00  0.00     0.014 C 
ATOM     23  C   UNL     1      53.839  38.299 136.923  1.00  0.00     0.014 C 
ATOM     24  C   UNL     1      49.794  36.067 136.096  1.00  0.00     0.012 C 
ATOM     25  C   UNL     1      48.891  39.326 132.640  1.00  0.00     0.012 C 
ATOM     26  C   UNL     1      45.802  40.954 134.316  1.00  0.00     0.022 C 
ATOM     27  C   UNL     1      44.472  40.917 135.128  1.00  0.00     0.015 C 
ATOM     28  C   UNL     1      49.126  41.347 136.042  1.00  0.00     0.017 C 
ATOM     29  C   UNL     1      46.152  43.478 134.828  1.00  0.00     0.012 C 
ATOM     30  C   UNL     1      42.845  40.227 133.278  1.00  0.00     0.011 C 
ENDROOT
BRANCH  20  31
ATOM     31  O   UNL     1      54.509  36.009 135.186  1.00  0.00    -0.393 OA
ATOM     32  H   UNL     1      55.230  36.653 135.410  1.00  0.00     0.210 HD
ENDBRANCH  20  31
TORSDOF 1
ENDMDL
MODEL 8
REMARK VINA RESULT:    -4.786     11.013     14.311
REMARK INTER + INTRA:          -4.926
REMARK INTER:                  -4.926
REMARK INTRA:                   0.000
REMARK UNBOUND:                 0.000
REMARK SMILES CC1(C)CC[C@]2(C)CC[C@@]3(C)C(=CC[C@@H]4[C@@]5(C)CC[C@H](O)C(C)(C)[C@H]5CC[C@@]43C)[C@H]2C1
REMARK SMILES IDX 1 1 2 2 4 3 5 4 6 5 8 6 9 7 10 8 12 9 13 10 14 11 15 12
REMARK SMILES IDX 28 13 27 14 26 15 25 16 16 17 18 18 19 19 20 20 22 21 23 22
REMARK SMILES IDX 24 23 17 24 29 25 30 26 31 27 11 28 7 29 3 30 21 31
REMARK H PARENT 21 32
REMARK Flexibility Score: inf
ROOT
ATOM      1  C   UNL     1      54.774  37.644 136.582  1.00  0.00     0.011 C 
ATOM      2  C   UNL     1      53.706  37.581 135.468  1.00  0.00    -0.035 C 
ATOM      3  C   UNL     1      53.417  36.088 135.147  1.00  0.00     0.007 C 
ATOM      4  C   UNL     1      52.137  35.875 134.316  1.00  0.00     0.008 C 
ATOM      5  C   UNL     1      50.896  36.578 134.927  1.00  0.00    -0.026 C 
ATOM      6  C   UNL     1      49.722  36.417 133.944  1.00  0.00     0.008 C 
ATOM      7  C   UNL     1      48.425  37.000 134.503  1.00  0.00     0.012 C 
ATOM      8  C   UNL     1      48.489  38.496 135.040  1.00  0.00    -0.006 C 
ATOM      9  C   UNL     1      49.939  38.950 135.371  1.00  0.00    -0.064 C 
ATOM     10  C   UNL     1      50.120  40.259 135.653  1.00  0.00    -0.027 C 
ATOM     11  C   UNL     1      49.002  41.249 135.611  1.00  0.00     0.032 C 
ATOM     12  C   UNL     1      48.166  41.084 134.305  1.00  0.00     0.006 C 
ATOM     13  C   UNL     1      47.837  39.544 133.984  1.00  0.00    -0.020 C 
ATOM     14  C   UNL     1      46.298  39.312 133.861  1.00  0.00     0.008 C 
ATOM     15  C   UNL     1      45.389  40.129 134.787  1.00  0.00     0.005 C 
ATOM     16  C   UNL     1      45.728  41.642 135.038  1.00  0.00     0.003 C 
ATOM     17  C   UNL     1      46.962  42.132 134.186  1.00  0.00    -0.025 C 
ATOM     18  C   UNL     1      46.523  42.344 132.698  1.00  0.00     0.010 C 
ATOM     19  C   UNL     1      45.253  43.206 132.531  1.00  0.00     0.033 C 
ATOM     20  C   UNL     1      44.069  42.715 133.396  1.00  0.00     0.120 C 
ATOM     21  C   UNL     1      44.426  42.555 134.911  1.00  0.00    -0.006 C 
ATOM     22  C   UNL     1      44.619  43.940 135.606  1.00  0.00     0.014 C 
ATOM     23  C   UNL     1      43.215  41.904 135.656  1.00  0.00     0.014 C 
ATOM     24  C   UNL     1      47.513  43.514 134.675  1.00  0.00     0.012 C 
ATOM     25  C   UNL     1      48.449  39.262 132.573  1.00  0.00     0.012 C 
ATOM     26  C   UNL     1      51.189  38.097 135.051  1.00  0.00     0.022 C 
ATOM     27  C   UNL     1      52.428  38.323 135.969  1.00  0.00     0.015 C 
ATOM     28  C   UNL     1      47.686  38.476 136.383  1.00  0.00     0.017 C 
ATOM     29  C   UNL     1      50.555  35.902 136.290  1.00  0.00     0.012 C 
ATOM     30  C   UNL     1      54.289  38.279 134.214  1.00  0.00     0.011 C 
ENDROOT
BRANCH  20  31
ATOM     31  O   UNL     1      42.939  43.537 133.212  1.00  0.00    -0.393 OA
ATOM     32  H   UNL     1      42.747  43.994 134.073  1.00  0.00     0.210 HD
ENDBRANCH  20  31
TORSDOF 1
ENDMDL
MODEL 9
REMARK VINA RESULT:    -4.748      3.160      8.408
REMARK INTER + INTRA:          -4.887
REMARK INTER:                  -4.887
REMARK INTRA:                   0.000
REMARK UNBOUND:                 0.000
REMARK SMILES CC1(C)CC[C@]2(C)CC[C@@]3(C)C(=CC[C@@H]4[C@@]5(C)CC[C@H](O)C(C)(C)[C@H]5CC[C@@]43C)[C@H]2C1
REMARK SMILES IDX 1 1 2 2 4 3 5 4 6 5 8 6 9 7 10 8 12 9 13 10 14 11 15 12
REMARK SMILES IDX 28 13 27 14 26 15 25 16 16 17 18 18 19 19 20 20 22 21 23 22
REMARK SMILES IDX 24 23 17 24 29 25 30 26 31 27 11 28 7 29 3 30 21 31
REMARK H PARENT 21 32
REMARK Flexibility Score: inf
ROOT
ATOM      1  C   UNL     1      48.008  38.477 124.021  1.00  0.00     0.011 C 
ATOM      2  C   UNL     1      49.236  38.158 124.901  1.00  0.00    -0.035 C 
ATOM      3  C   UNL     1      49.319  36.617 125.090  1.00  0.00     0.007 C 
ATOM      4  C   UNL     1      50.673  36.139 125.646  1.00  0.00     0.008 C 
ATOM      5  C   UNL     1      51.883  36.680 124.838  1.00  0.00    -0.026 C 
ATOM      6  C   UNL     1      53.172  36.258 125.565  1.00  0.00     0.008 C 
ATOM      7  C   UNL     1      54.425  36.669 124.793  1.00  0.00     0.012 C 
ATOM      8  C   UNL     1      54.520  38.193 124.349  1.00  0.00    -0.006 C 
ATOM      9  C   UNL     1      53.134  38.897 124.328  1.00  0.00    -0.064 C 
ATOM     10  C   UNL     1      53.132  40.236 124.147  1.00  0.00    -0.027 C 
ATOM     11  C   UNL     1      54.391  41.029 124.018  1.00  0.00     0.032 C 
ATOM     12  C   UNL     1      55.412  40.631 125.126  1.00  0.00     0.006 C 
ATOM     13  C   UNL     1      55.525  39.038 125.305  1.00  0.00    -0.020 C 
ATOM     14  C   UNL     1      56.998  38.555 125.116  1.00  0.00     0.008 C 
ATOM     15  C   UNL     1      57.847  39.287 124.070  1.00  0.00     0.005 C 
ATOM     16  C   UNL     1      57.732  40.849 123.960  1.00  0.00     0.003 C 
ATOM     17  C   UNL     1      56.779  41.460 125.058  1.00  0.00    -0.025 C 
ATOM     18  C   UNL     1      57.514  41.483 126.440  1.00  0.00     0.010 C 
ATOM     19  C   UNL     1      58.922  42.116 126.397  1.00  0.00     0.033 C 
ATOM     20  C   UNL     1      59.824  41.512 125.296  1.00  0.00     0.120 C 
ATOM     21  C   UNL     1      59.172  41.529 123.874  1.00  0.00    -0.006 C 
ATOM     22  C   UNL     1      59.096  42.978 123.294  1.00  0.00     0.014 C 
ATOM     23  C   UNL     1      60.096  40.754 122.879  1.00  0.00     0.014 C 
ATOM     24  C   UNL     1      56.393  42.947 124.750  1.00  0.00     0.012 C 
ATOM     25  C   UNL     1      55.144  38.747 126.794  1.00  0.00     0.012 C 
ATOM     26  C   UNL     1      51.837  38.232 124.844  1.00  0.00     0.022 C 
ATOM     27  C   UNL     1      50.507  38.724 124.197  1.00  0.00     0.015 C 
ATOM     28  C   UNL     1      55.047  38.151 122.875  1.00  0.00     0.017 C 
ATOM     29  C   UNL     1      51.847  36.068 123.405  1.00  0.00     0.012 C 
ATOM     30  C   UNL     1      49.021  38.840 126.276  1.00  0.00     0.011 C 
ENDROOT
BRANCH  20  31
ATOM     31  O   UNL     1      61.093  42.126 125.295  1.00  0.00    -0.393 OA
ATOM     32  H   UNL     1      61.565  41.860 126.126  1.00  0.00     0.210 HD
ENDBRANCH  20  31
TORSDOF 1
ENDMDL
