MODEL 1
REMARK VINA RESULT:    -0.240      0.000      0.000
REMARK INTER + INTRA:           3.859
REMARK INTER:                  -0.352
REMARK INTRA:                   4.211
REMARK UNBOUND:                 4.211
REMARK SMILES Cc1cc2c(C(C)C)c(O)c(O)c(C=O)c2c(O)c1-c1c(C)cc2c(C(C)C)c(O)c(O)c(C=O)c2c1O
REMARK SMILES IDX 1 1 2 2 3 3 4 4 16 5 13 6 11 7 9 8 5 9 17 10 19 11 20 12
REMARK SMILES IDX 37 13 21 14 36 15 23 16 22 17 24 18 33 19 25 20 31 21 29 22
REMARK SMILES IDX 38 23 34 25 35 26 26 27 27 28 28 29 32 30 30 32 18 34 6 36
REMARK SMILES IDX 7 37 8 38 14 39 15 40 10 41 12 43
REMARK H PARENT 38 24 32 31 30 33 18 35 10 42 12 44
REMARK Flexibility Score: inf
ROOT
ATOM      1  C   UNL     1       1.437   5.885  11.326  1.00  0.00     0.045 C 
ATOM      2  C   UNL     1       2.206   4.645  11.713  1.00  0.00    -0.039 A 
ATOM      3  C   UNL     1       1.508   3.482  12.037  1.00  0.00     0.013 A 
ATOM      4  C   UNL     1       2.169   2.295  12.420  1.00  0.00    -0.006 A 
ATOM      5  C   UNL     1       3.597   2.253  12.362  1.00  0.00     0.039 A 
ATOM      6  C   UNL     1       4.262   1.020  12.637  1.00  0.00     0.072 A 
ATOM      7  C   UNL     1       3.508  -0.146  12.883  1.00  0.00     0.169 A 
ATOM      8  C   UNL     1       2.112  -0.093  12.929  1.00  0.00     0.162 A 
ATOM      9  C   UNL     1       1.431   1.137  12.820  1.00  0.00     0.008 A 
ATOM     10  C   UNL     1       4.306   3.436  11.986  1.00  0.00     0.132 A 
ATOM     11  C   UNL     1       3.609   4.628  11.694  1.00  0.00     0.031 A 
ENDROOT
BRANCH  11  12
ATOM     12  C   UNL     1       4.356   5.862  11.331  1.00  0.00     0.031 A 
ATOM     13  C   UNL     1       5.371   5.817  10.350  1.00  0.00     0.132 A 
ATOM     14  C   UNL     1       4.052   7.073  11.973  1.00  0.00    -0.039 A 
ATOM     15  C   UNL     1       6.105   6.995  10.020  1.00  0.00     0.039 A 
ATOM     16  C   UNL     1       4.697   8.244  11.572  1.00  0.00     0.013 A 
ATOM     17  C   UNL     1       3.015   7.133  13.067  1.00  0.00     0.045 C 
ATOM     18  C   UNL     1       5.669   8.244  10.547  1.00  0.00    -0.006 A 
ATOM     19  C   UNL     1       7.243   6.968   9.161  1.00  0.00     0.072 A 
ATOM     20  C   UNL     1       6.235   9.463  10.065  1.00  0.00     0.008 A 
ATOM     21  C   UNL     1       7.880   8.168   8.796  1.00  0.00     0.169 A 
ATOM     22  C   UNL     1       7.402   9.405   9.273  1.00  0.00     0.162 A 
BRANCH  13  23
ATOM     23  O   UNL     1       5.622   4.615   9.679  1.00  0.00    -0.507 OA
ATOM     24  H   UNL     1       5.588   3.704  10.118  1.00  0.00     0.293 HD
ENDBRANCH  13  23
BRANCH  19  25
ATOM     25  C   UNL     1       7.874   5.697   8.729  1.00  0.00     0.264 C 
ATOM     26  O   UNL     1       9.040   5.395   9.101  1.00  0.00    -0.298 OA
ENDBRANCH  19  25
BRANCH  20  27
ATOM     27  C   UNL     1       5.610  10.829  10.404  1.00  0.00     0.017 C 
ATOM     28  C   UNL     1       4.382  11.105   9.531  1.00  0.00     0.012 C 
ATOM     29  C   UNL     1       5.288  11.008  11.900  1.00  0.00     0.012 C 
ENDBRANCH  20  27
BRANCH  21  30
ATOM     30  O   UNL     1       8.999   8.098   7.956  1.00  0.00    -0.504 OA
ATOM     31  H   UNL     1       9.091   8.589   7.078  1.00  0.00     0.293 HD
ENDBRANCH  21  30
BRANCH  22  32
ATOM     32  O   UNL     1       8.096  10.590   9.007  1.00  0.00    -0.504 OA
ATOM     33  H   UNL     1       7.682  11.510   8.990  1.00  0.00     0.293 HD
ENDBRANCH  22  32
ENDBRANCH  11  12
BRANCH  10  34
ATOM     34  O   UNL     1       5.703   3.425  11.884  1.00  0.00    -0.507 OA
ATOM     35  H   UNL     1       6.282   2.626  12.111  1.00  0.00     0.293 HD
ENDBRANCH  10  34
BRANCH   9  36
ATOM     36  C   UNL     1      -0.080   1.199  13.109  1.00  0.00     0.017 C 
ATOM     37  C   UNL     1      -0.781   2.163  12.146  1.00  0.00     0.012 C 
ATOM     38  C   UNL     1      -0.770  -0.179  13.123  1.00  0.00     0.012 C 
ENDBRANCH   9  36
BRANCH   6  39
ATOM     39  C   UNL     1       5.736   0.918  12.676  1.00  0.00     0.264 C 
ATOM     40  O   UNL     1       6.294  -0.130  13.096  1.00  0.00    -0.298 OA
ENDBRANCH   6  39
BRANCH   8  41
ATOM     41  O   UNL     1       1.390  -1.277  13.091  1.00  0.00    -0.504 OA
ATOM     42  H   UNL     1       0.422  -1.298  13.390  1.00  0.00     0.293 HD
ENDBRANCH   8  41
BRANCH   7  43
ATOM     43  O   UNL     1       4.123  -1.382  13.122  1.00  0.00    -0.504 OA
ATOM     44  H   UNL     1       4.353  -2.052  12.401  1.00  0.00     0.293 HD
ENDBRANCH   7  43
TORSDOF 11
ENDMDL
MODEL 2
REMARK VINA RESULT:     2.557      2.261      9.179
REMARK INTER + INTRA:           7.964
REMARK INTER:                   6.895
REMARK INTRA:                   1.069
REMARK UNBOUND:                 4.211
REMARK SMILES Cc1cc2c(C(C)C)c(O)c(O)c(C=O)c2c(O)c1-c1c(C)cc2c(C(C)C)c(O)c(O)c(C=O)c2c1O
REMARK SMILES IDX 1 1 2 2 3 3 4 4 16 5 13 6 11 7 9 8 5 9 17 10 19 11 20 12
REMARK SMILES IDX 37 13 21 14 36 15 23 16 22 17 24 18 33 19 25 20 31 21 29 22
REMARK SMILES IDX 38 23 34 25 35 26 26 27 27 28 28 29 32 30 30 32 18 34 6 36
REMARK SMILES IDX 7 37 8 38 14 39 15 40 10 41 12 43
REMARK H PARENT 38 24 32 31 30 33 18 35 10 42 12 44
REMARK Flexibility Score: inf
ROOT
ATOM      1  C   UNL     1       6.045   3.983   8.627  1.00  0.00     0.045 C 
ATOM      2  C   UNL     1       6.306   5.222   9.449  1.00  0.00    -0.039 A 
ATOM      3  C   UNL     1       7.097   6.241   8.917  1.00  0.00     0.013 A 
ATOM      4  C   UNL     1       7.388   7.417   9.641  1.00  0.00    -0.006 A 
ATOM      5  C   UNL     1       6.762   7.617  10.911  1.00  0.00     0.039 A 
ATOM      6  C   UNL     1       6.965   8.855  11.592  1.00  0.00     0.072 A 
ATOM      7  C   UNL     1       7.708   9.883  10.976  1.00  0.00     0.169 A 
ATOM      8  C   UNL     1       8.309   9.677   9.731  1.00  0.00     0.162 A 
ATOM      9  C   UNL     1       8.261   8.414   9.105  1.00  0.00     0.008 A 
ATOM     10  C   UNL     1       5.918   6.587  11.432  1.00  0.00     0.132 A 
ATOM     11  C   UNL     1       5.720   5.389  10.714  1.00  0.00     0.031 A 
ENDROOT
BRANCH  11  12
ATOM     12  C   UNL     1       4.863   4.312  11.275  1.00  0.00     0.031 A 
ATOM     13  C   UNL     1       3.485   4.267  10.970  1.00  0.00     0.132 A 
ATOM     14  C   UNL     1       5.428   3.341  12.118  1.00  0.00    -0.039 A 
ATOM     15  C   UNL     1       2.656   3.249  11.529  1.00  0.00     0.039 A 
ATOM     16  C   UNL     1       4.639   2.285  12.576  1.00  0.00     0.013 A 
ATOM     17  C   UNL     1       6.884   3.403  12.507  1.00  0.00     0.045 C 
ATOM     18  C   UNL     1       3.273   2.175  12.234  1.00  0.00    -0.006 A 
ATOM     19  C   UNL     1       1.238   3.255  11.385  1.00  0.00     0.072 A 
ATOM     20  C   UNL     1       2.506   1.030  12.611  1.00  0.00     0.008 A 
ATOM     21  C   UNL     1       0.474   2.183  11.881  1.00  0.00     0.169 A 
ATOM     22  C   UNL     1       1.099   1.095  12.521  1.00  0.00     0.162 A 
BRANCH  13  23
ATOM     23  O   UNL     1       2.949   5.207  10.083  1.00  0.00    -0.507 OA
ATOM     24  H   UNL     1       1.958   5.326   9.917  1.00  0.00     0.293 HD
ENDBRANCH  13  23
BRANCH  19  25
ATOM     25  C   UNL     1       0.507   4.425  10.840  1.00  0.00     0.264 C 
ATOM     26  O   UNL     1       0.409   4.606   9.597  1.00  0.00    -0.298 OA
ENDBRANCH  19  25
BRANCH  20  27
ATOM     27  C   UNL     1       3.181  -0.255  13.125  1.00  0.00     0.017 C 
ATOM     28  C   UNL     1       2.615  -1.493  12.423  1.00  0.00     0.012 C 
ATOM     29  C   UNL     1       4.719  -0.219  13.049  1.00  0.00     0.012 C 
ENDBRANCH  20  27
BRANCH  21  30
ATOM     30  O   UNL     1      -0.918   2.231  11.725  1.00  0.00    -0.504 OA
ATOM     31  H   UNL     1      -1.393   2.448  10.860  1.00  0.00     0.293 HD
ENDBRANCH  21  30
BRANCH  22  32
ATOM     32  O   UNL     1       0.339   0.082  13.114  1.00  0.00    -0.504 OA
ATOM     33  H   UNL     1      -0.601   0.193  13.462  1.00  0.00     0.293 HD
ENDBRANCH  22  32
ENDBRANCH  11  12
BRANCH  10  34
ATOM     34  O   UNL     1       5.259   6.761  12.656  1.00  0.00    -0.507 OA
ATOM     35  H   UNL     1       4.729   6.035  13.122  1.00  0.00     0.293 HD
ENDBRANCH  10  34
BRANCH   9  36
ATOM     36  C   UNL     1       9.125   8.150   7.857  1.00  0.00     0.017 C 
ATOM     37  C   UNL     1       9.109   6.664   7.488  1.00  0.00     0.012 C 
ATOM     38  C   UNL     1       8.761   9.032   6.647  1.00  0.00     0.012 C 
ENDBRANCH   9  36
BRANCH   6  39
ATOM     39  C   UNL     1       6.418   9.103  12.942  1.00  0.00     0.264 C 
ATOM     40  O   UNL     1       5.354   9.762  13.090  1.00  0.00    -0.298 OA
ENDBRANCH   6  39
BRANCH   8  41
ATOM     41  O   UNL     1       8.967  10.739   9.108  1.00  0.00    -0.504 OA
ATOM     42  H   UNL     1       9.831  10.628   8.590  1.00  0.00     0.293 HD
ENDBRANCH   8  41
BRANCH   7  43
ATOM     43  O   UNL     1       7.900  11.124  11.597  1.00  0.00    -0.504 OA
ATOM     44  H   UNL     1       8.494  11.856  11.233  1.00  0.00     0.293 HD
ENDBRANCH   7  43
TORSDOF 11
ENDMDL
