MODEL 1
REMARK VINA RESULT:    -4.109      0.000      0.000
REMARK INTER + INTRA:          -5.042
REMARK INTER:                  -4.829
REMARK INTRA:                  -0.212
REMARK UNBOUND:                -0.212
REMARK SMILES [NH3+][C@H](CO)C(=O)[O-]
REMARK SMILES IDX 3 1 2 2 1 3 5 7 6 8 7 9 4 10
REMARK H PARENT 1 4 1 5 1 6 4 11
REMARK Flexibility Score: inf
ROOT
ATOM      1  C   UNL     1     169.199 168.755 171.209  1.00  0.00     0.227 C 
ENDROOT
BRANCH   1   2
ATOM      2  C   UNL     1     168.778 170.207 171.505  1.00  0.00     0.253 C 
BRANCH   2   3
ATOM      3  N   UNL     1     169.950 171.082 171.627  1.00  0.00    -0.348 N 
ATOM      4  H   UNL     1     170.464 171.143 170.718  1.00  0.00     0.345 HD
ATOM      5  H   UNL     1     169.647 172.042 171.915  1.00  0.00     0.345 HD
ATOM      6  H   UNL     1     170.596 170.712 172.362  1.00  0.00     0.345 HD
ENDBRANCH   2   3
BRANCH   2   7
ATOM      7  C   UNL     1     167.866 170.706 170.417  1.00  0.00     0.102 C 
ATOM      8  O   UNL     1     166.864 171.412 170.706  1.00  0.00    -0.544 OA
ATOM      9  O   UNL     1     168.113 170.380 169.088  1.00  0.00    -0.544 OA
ENDBRANCH   2   7
ENDBRANCH   1   2
BRANCH   1  10
ATOM     10  O   UNL     1     168.192 168.080 170.504  1.00  0.00    -0.390 OA
ATOM     11  H   UNL     1     168.491 168.031 169.558  1.00  0.00     0.210 HD
ENDBRANCH   1  10
TORSDOF 4
ENDMDL
MODEL 2
REMARK VINA RESULT:    -4.092      2.005      2.479
REMARK INTER + INTRA:          -5.022
REMARK INTER:                  -4.785
REMARK INTRA:                  -0.237
REMARK UNBOUND:                -0.212
REMARK SMILES [NH3+][C@H](CO)C(=O)[O-]
REMARK SMILES IDX 3 1 2 2 1 3 5 7 6 8 7 9 4 10
REMARK H PARENT 1 4 1 5 1 6 4 11
REMARK Flexibility Score: inf
ROOT
ATOM      1  C   UNL     1     169.034 169.878 171.956  1.00  0.00     0.227 C 
ENDROOT
BRANCH   1   2
ATOM      2  C   UNL     1     168.410 169.204 170.721  1.00  0.00     0.253 C 
BRANCH   2   3
ATOM      3  N   UNL     1     167.181 168.484 171.076  1.00  0.00    -0.348 N 
ATOM      4  H   UNL     1     167.377 167.468 171.228  1.00  0.00     0.345 HD
ATOM      5  H   UNL     1     166.773 168.889 171.951  1.00  0.00     0.345 HD
ATOM      6  H   UNL     1     166.474 168.587 170.312  1.00  0.00     0.345 HD
ENDBRANCH   2   3
BRANCH   2   7
ATOM      7  C   UNL     1     168.121 170.238 169.666  1.00  0.00     0.102 C 
ATOM      8  O   UNL     1     168.366 169.994 168.456  1.00  0.00    -0.544 OA
ATOM      9  O   UNL     1     167.595 171.476 170.022  1.00  0.00    -0.544 OA
ENDBRANCH   2   7
ENDBRANCH   1   2
BRANCH   1  10
ATOM     10  O   UNL     1     169.840 170.961 171.577  1.00  0.00    -0.390 OA
ATOM     11  H   UNL     1     170.533 171.060 172.282  1.00  0.00     0.210 HD
ENDBRANCH   1  10
TORSDOF 4
ENDMDL
MODEL 3
REMARK VINA RESULT:    -3.757      1.917      3.249
REMARK INTER + INTRA:          -4.628
REMARK INTER:                  -4.402
REMARK INTRA:                  -0.227
REMARK UNBOUND:                -0.212
REMARK SMILES [NH3+][C@H](CO)C(=O)[O-]
REMARK SMILES IDX 3 1 2 2 1 3 5 7 6 8 7 9 4 10
REMARK H PARENT 1 4 1 5 1 6 4 11
REMARK Flexibility Score: inf
ROOT
ATOM      1  C   UNL     1     167.568 171.320 170.372  1.00  0.00     0.227 C 
ENDROOT
BRANCH   1   2
ATOM      2  C   UNL     1     167.721 169.791 170.268  1.00  0.00     0.253 C 
BRANCH   2   3
ATOM      3  N   UNL     1     168.370 169.410 169.007  1.00  0.00    -0.348 N 
ATOM      4  H   UNL     1     168.054 170.029 168.226  1.00  0.00     0.345 HD
ATOM      5  H   UNL     1     169.409 169.485 169.107  1.00  0.00     0.345 HD
ATOM      6  H   UNL     1     168.138 168.417 168.774  1.00  0.00     0.345 HD
ENDBRANCH   2   3
BRANCH   2   7
ATOM      7  C   UNL     1     168.515 169.276 171.439  1.00  0.00     0.102 C 
ATOM      8  O   UNL     1     169.366 168.363 171.273  1.00  0.00    -0.544 OA
ATOM      9  O   UNL     1     168.303 169.792 172.712  1.00  0.00    -0.544 OA
ENDBRANCH   2   7
ENDBRANCH   1   2
BRANCH   1  10
ATOM     10  O   UNL     1     166.546 171.656 171.272  1.00  0.00    -0.390 OA
ATOM     11  H   UNL     1     166.370 172.627 171.152  1.00  0.00     0.210 HD
ENDBRANCH   1  10
TORSDOF 4
ENDMDL
MODEL 4
REMARK VINA RESULT:    -3.539      1.902      2.684
REMARK INTER + INTRA:          -4.371
REMARK INTER:                  -3.961
REMARK INTRA:                  -0.410
REMARK UNBOUND:                -0.212
REMARK SMILES [NH3+][C@H](CO)C(=O)[O-]
REMARK SMILES IDX 3 1 2 2 1 3 5 7 6 8 7 9 4 10
REMARK H PARENT 1 4 1 5 1 6 4 11
REMARK Flexibility Score: inf
ROOT
ATOM      1  C   UNL     1     168.304 170.581 169.214  1.00  0.00     0.227 C 
ENDROOT
BRANCH   1   2
ATOM      2  C   UNL     1     168.129 170.641 170.742  1.00  0.00     0.253 C 
BRANCH   2   3
ATOM      3  N   UNL     1     166.894 171.347 171.105  1.00  0.00    -0.348 N 
ATOM      4  H   UNL     1     167.089 172.100 171.805  1.00  0.00     0.345 HD
ATOM      5  H   UNL     1     166.466 171.774 170.251  1.00  0.00     0.345 HD
ATOM      6  H   UNL     1     166.204 170.673 171.510  1.00  0.00     0.345 HD
ENDBRANCH   2   3
BRANCH   2   7
ATOM      7  C   UNL     1     168.118 169.247 171.311  1.00  0.00     0.102 C 
ATOM      8  O   UNL     1     169.197 168.696 171.654  1.00  0.00    -0.544 OA
ATOM      9  O   UNL     1     166.921 168.554 171.447  1.00  0.00    -0.544 OA
ENDBRANCH   2   7
ENDBRANCH   1   2
BRANCH   1  10
ATOM     10  O   UNL     1     168.296 169.253 168.765  1.00  0.00    -0.390 OA
ATOM     11  H   UNL     1     168.851 168.733 169.404  1.00  0.00     0.210 HD
ENDBRANCH   1  10
TORSDOF 4
ENDMDL
MODEL 5
REMARK VINA RESULT:    -3.426      2.373      2.844
REMARK INTER + INTRA:          -4.239
REMARK INTER:                  -4.020
REMARK INTRA:                  -0.218
REMARK UNBOUND:                -0.212
REMARK SMILES [NH3+][C@H](CO)C(=O)[O-]
REMARK SMILES IDX 3 1 2 2 1 3 5 7 6 8 7 9 4 10
REMARK H PARENT 1 4 1 5 1 6 4 11
REMARK Flexibility Score: inf
ROOT
ATOM      1  C   UNL     1     168.209 169.536 169.436  1.00  0.00     0.227 C 
ENDROOT
BRANCH   1   2
ATOM      2  C   UNL     1     167.475 169.658 170.784  1.00  0.00     0.253 C 
BRANCH   2   3
ATOM      3  N   UNL     1     166.785 168.408 171.126  1.00  0.00    -0.348 N 
ATOM      4  H   UNL     1     166.871 167.713 170.349  1.00  0.00     0.345 HD
ATOM      5  H   UNL     1     167.199 168.002 171.998  1.00  0.00     0.345 HD
ATOM      6  H   UNL     1     165.773 168.598 171.306  1.00  0.00     0.345 HD
ENDBRANCH   2   3
BRANCH   2   7
ATOM      7  C   UNL     1     168.453 170.026 171.868  1.00  0.00     0.102 C 
ATOM      8  O   UNL     1     168.230 169.694 173.061  1.00  0.00    -0.544 OA
ATOM      9  O   UNL     1     169.600 170.749 171.561  1.00  0.00    -0.544 OA
ENDBRANCH   2   7
ENDBRANCH   1   2
BRANCH   1  10
ATOM     10  O   UNL     1     168.314 170.787 168.813  1.00  0.00    -0.390 OA
ATOM     11  H   UNL     1     168.307 171.467 169.537  1.00  0.00     0.210 HD
ENDBRANCH   1  10
TORSDOF 4
ENDMDL
MODEL 6
REMARK VINA RESULT:    -3.347      9.737      9.934
REMARK INTER + INTRA:          -4.146
REMARK INTER:                  -3.932
REMARK INTRA:                  -0.215
REMARK UNBOUND:                -0.212
REMARK SMILES [NH3+][C@H](CO)C(=O)[O-]
REMARK SMILES IDX 3 1 2 2 1 3 5 7 6 8 7 9 4 10
REMARK H PARENT 1 4 1 5 1 6 4 11
REMARK Flexibility Score: inf
ROOT
ATOM      1  C   UNL     1     159.879 164.188 168.327  1.00  0.00     0.227 C 
ENDROOT
BRANCH   1   2
ATOM      2  C   UNL     1     159.294 165.609 168.423  1.00  0.00     0.253 C 
BRANCH   2   3
ATOM      3  N   UNL     1     159.532 166.189 169.750  1.00  0.00    -0.348 N 
ATOM      4  H   UNL     1     159.550 165.444 170.484  1.00  0.00     0.345 HD
ATOM      5  H   UNL     1     160.446 166.699 169.756  1.00  0.00     0.345 HD
ATOM      6  H   UNL     1     158.777 166.877 169.978  1.00  0.00     0.345 HD
ENDBRANCH   2   3
BRANCH   2   7
ATOM      7  C   UNL     1     159.898 166.484 167.356  1.00  0.00     0.102 C 
ATOM      8  O   UNL     1     159.240 167.444 166.878  1.00  0.00    -0.544 OA
ATOM      9  O   UNL     1     161.180 166.228 166.882  1.00  0.00    -0.544 OA
ENDBRANCH   2   7
ENDBRANCH   1   2
BRANCH   1  10
ATOM     10  O   UNL     1     161.071 164.091 169.060  1.00  0.00    -0.390 OA
ATOM     11  H   UNL     1     161.095 163.175 169.443  1.00  0.00     0.210 HD
ENDBRANCH   1  10
TORSDOF 4
ENDMDL
MODEL 7
REMARK VINA RESULT:    -3.107      8.989      9.443
REMARK INTER + INTRA:          -3.864
REMARK INTER:                  -3.653
REMARK INTRA:                  -0.211
REMARK UNBOUND:                -0.212
REMARK SMILES [NH3+][C@H](CO)C(=O)[O-]
REMARK SMILES IDX 3 1 2 2 1 3 5 7 6 8 7 9 4 10
REMARK H PARENT 1 4 1 5 1 6 4 11
REMARK Flexibility Score: inf
ROOT
ATOM      1  C   UNL     1     175.060 173.846 167.891  1.00  0.00     0.227 C 
ENDROOT
BRANCH   1   2
ATOM      2  C   UNL     1     176.480 173.588 168.427  1.00  0.00     0.253 C 
BRANCH   2   3
ATOM      3  N   UNL     1     177.492 174.189 167.550  1.00  0.00    -0.348 N 
ATOM      4  H   UNL     1     178.192 174.731 168.108  1.00  0.00     0.345 HD
ATOM      5  H   UNL     1     177.988 173.438 167.014  1.00  0.00     0.345 HD
ATOM      6  H   UNL     1     177.033 174.829 166.861  1.00  0.00     0.345 HD
ENDBRANCH   2   3
BRANCH   2   7
ATOM      7  C   UNL     1     176.607 174.138 169.822  1.00  0.00     0.102 C 
ATOM      8  O   UNL     1     175.901 175.115 170.185  1.00  0.00    -0.544 OA
ATOM      9  O   UNL     1     177.516 173.580 170.715  1.00  0.00    -0.544 OA
ENDBRANCH   2   7
ENDBRANCH   1   2
BRANCH   1  10
ATOM     10  O   UNL     1     174.882 175.204 167.587  1.00  0.00    -0.390 OA
ATOM     11  H   UNL     1     174.342 175.592 168.325  1.00  0.00     0.210 HD
ENDBRANCH   1  10
TORSDOF 4
ENDMDL
MODEL 8
REMARK VINA RESULT:    -3.031      9.143      9.624
REMARK INTER + INTRA:          -3.775
REMARK INTER:                  -3.770
REMARK INTRA:                  -0.005
REMARK UNBOUND:                -0.212
REMARK SMILES [NH3+][C@H](CO)C(=O)[O-]
REMARK SMILES IDX 3 1 2 2 1 3 5 7 6 8 7 9 4 10
REMARK H PARENT 1 4 1 5 1 6 4 11
REMARK Flexibility Score: inf
ROOT
ATOM      1  C   UNL     1     175.671 173.886 167.973  1.00  0.00     0.227 C 
ENDROOT
BRANCH   1   2
ATOM      2  C   UNL     1     176.578 174.629 168.971  1.00  0.00     0.253 C 
BRANCH   2   3
ATOM      3  N   UNL     1     175.784 175.327 169.989  1.00  0.00    -0.348 N 
ATOM      4  H   UNL     1     176.405 175.834 170.661  1.00  0.00     0.345 HD
ATOM      5  H   UNL     1     175.143 176.014 169.529  1.00  0.00     0.345 HD
ATOM      6  H   UNL     1     175.197 174.639 170.516  1.00  0.00     0.345 HD
ENDBRANCH   2   3
BRANCH   2   7
ATOM      7  C   UNL     1     177.523 173.656 169.625  1.00  0.00     0.102 C 
ATOM      8  O   UNL     1     177.585 173.579 170.879  1.00  0.00    -0.544 OA
ATOM      9  O   UNL     1     178.345 172.847 168.848  1.00  0.00    -0.544 OA
ENDBRANCH   2   7
ENDBRANCH   1   2
BRANCH   1  10
ATOM     10  O   UNL     1     174.654 174.730 167.504  1.00  0.00    -0.390 OA
ATOM     11  H   UNL     1     175.102 175.524 167.110  1.00  0.00     0.210 HD
ENDBRANCH   1  10
TORSDOF 4
ENDMDL
MODEL 9
REMARK VINA RESULT:    -2.958      9.353      9.781
REMARK INTER + INTRA:          -3.689
REMARK INTER:                  -3.463
REMARK INTRA:                  -0.226
REMARK UNBOUND:                -0.212
REMARK SMILES [NH3+][C@H](CO)C(=O)[O-]
REMARK SMILES IDX 3 1 2 2 1 3 5 7 6 8 7 9 4 10
REMARK H PARENT 1 4 1 5 1 6 4 11
REMARK Flexibility Score: inf
ROOT
ATOM      1  C   UNL     1     175.859 173.981 168.099  1.00  0.00     0.227 C 
ENDROOT
BRANCH   1   2
ATOM      2  C   UNL     1     176.097 174.543 169.513  1.00  0.00     0.253 C 
BRANCH   2   3
ATOM      3  N   UNL     1     176.878 173.607 170.329  1.00  0.00    -0.348 N 
ATOM      4  H   UNL     1     177.416 174.117 171.067  1.00  0.00     0.345 HD
ATOM      5  H   UNL     1     176.238 172.916 170.787  1.00  0.00     0.345 HD
ATOM      6  H   UNL     1     177.545 173.077 169.723  1.00  0.00     0.345 HD
ENDBRANCH   2   3
BRANCH   2   7
ATOM      7  C   UNL     1     176.802 175.870 169.423  1.00  0.00     0.102 C 
ATOM      8  O   UNL     1     176.555 176.655 168.471  1.00  0.00    -0.544 OA
ATOM      9  O   UNL     1     177.742 176.231 170.383  1.00  0.00    -0.544 OA
ENDBRANCH   2   7
ENDBRANCH   1   2
BRANCH   1  10
ATOM     10  O   UNL     1     174.719 174.558 167.520  1.00  0.00    -0.390 OA
ATOM     11  H   UNL     1     174.569 175.422 167.988  1.00  0.00     0.210 HD
ENDBRANCH   1  10
TORSDOF 4
ENDMDL
