MODEL 1
REMARK VINA RESULT:    -7.682      0.000      0.000
REMARK INTER + INTRA:          -8.505
REMARK INTER:                  -8.355
REMARK INTRA:                  -0.149
REMARK UNBOUND:                -0.149
REMARK SMILES C[C@H]1[C@H](C)CC[C@@]2(C(=O)[O-])CC[C@@]3(C)C(=CC[C@@H]4[C@]5(C)CC[C@H](O)C(C)(C)[C@@H]5CC[C@]43C)[C@@H]12
REMARK SMILES IDX 7 1 6 2 11 3 33 4 5 5 12 6 15 7 2 8 3 9 13 10 16 11 1 12
REMARK SMILES IDX 4 13 14 14 31 15 17 16 18 17 30 18 32 19 19 20 29 21 28 22
REMARK SMILES IDX 21 23 20 24 25 25 22 26 23 27 26 28 27 29 8 30 9 31 10 32
REMARK SMILES IDX 24 33
REMARK H PARENT 24 34
REMARK Flexibility Score: inf
ROOT
ATOM      1  C   UNL     1       3.103 -11.858 -33.471  1.00  0.00     0.017 C 
ATOM      2  C   UNL     1       2.638 -13.257 -32.986  1.00  0.00     0.014 C 
ATOM      3  C   UNL     1       1.881 -10.957 -33.776  1.00  0.00     0.014 C 
ATOM      4  C   UNL     1       4.040 -11.223 -32.385  1.00  0.00     0.030 C 
ATOM      5  C   UNL     1       1.900 -13.272 -31.635  1.00  0.00     0.004 C 
ATOM      6  C   UNL     1       2.273  -9.514 -34.149  1.00  0.00     0.013 C 
ATOM      7  C   UNL     1       4.281  -9.712 -32.640  1.00  0.00    -0.063 C 
ATOM      8  C   UNL     1       3.781 -11.680 -30.897  1.00  0.00    -0.003 C 
ATOM      9  C   UNL     1       2.329 -12.168 -30.637  1.00  0.00    -0.011 C 
ATOM     10  C   UNL     1       3.122  -8.759 -33.068  1.00  0.00    -0.006 C 
ATOM     11  C   UNL     1       5.586  -9.342 -32.751  1.00  0.00    -0.027 C 
ATOM     12  C   UNL     1       4.273 -10.662 -29.850  1.00  0.00     0.008 C 
ATOM     13  C   UNL     1       2.126 -12.675 -29.198  1.00  0.00     0.008 C 
ATOM     14  C   UNL     1       2.179  -8.502 -31.853  1.00  0.00     0.017 C 
ATOM     15  C   UNL     1       3.685  -7.330 -33.616  1.00  0.00    -0.020 C 
ATOM     16  C   UNL     1       6.072  -8.135 -33.498  1.00  0.00     0.032 C 
ATOM     17  C   UNL     1       4.987  -7.590 -34.457  1.00  0.00     0.006 C 
ATOM     18  C   UNL     1       2.654  -6.618 -34.525  1.00  0.00     0.008 C 
ATOM     19  C   UNL     1       3.976  -6.379 -32.398  1.00  0.00     0.012 C 
ATOM     20  C   UNL     1       5.528  -6.481 -35.491  1.00  0.00    -0.025 C 
ATOM     21  C   UNL     1       3.205  -5.348 -35.162  1.00  0.00     0.005 C 
ATOM     22  C   UNL     1       4.341  -5.657 -36.171  1.00  0.00     0.003 C 
ATOM     23  C   UNL     1       6.551  -5.512 -34.811  1.00  0.00     0.010 C 
ATOM     24  C   UNL     1       6.294  -7.285 -36.604  1.00  0.00     0.012 C 
ATOM     25  C   UNL     1       4.790  -4.363 -36.993  1.00  0.00    -0.006 C 
ATOM     26  C   UNL     1       7.002  -4.333 -35.683  1.00  0.00     0.033 C 
ATOM     27  C   UNL     1       5.821  -3.505 -36.195  1.00  0.00     0.120 C 
ATOM     28  C   UNL     1       5.393  -4.764 -38.371  1.00  0.00     0.014 C 
ATOM     29  C   UNL     1       3.579  -3.454 -37.358  1.00  0.00     0.014 C 
ENDROOT
BRANCH   1  30
ATOM     30  C   UNL     1       3.862 -12.057 -34.788  1.00  0.00     0.048 C 
ATOM     31  O   UNL     1       5.120 -11.985 -34.814  1.00  0.00    -0.550 OA
ATOM     32  O   UNL     1       3.195 -12.404 -35.958  1.00  0.00    -0.550 OA
ENDBRANCH   1  30
BRANCH  27  33
ATOM     33  O   UNL     1       5.209  -2.875 -35.093  1.00  0.00    -0.393 OA
ATOM     34  H   UNL     1       4.477  -2.303 -35.442  1.00  0.00     0.210 HD
ENDBRANCH  27  33
TORSDOF 2
ENDMDL
MODEL 2
REMARK VINA RESULT:    -7.670      3.410      8.636
REMARK INTER + INTRA:          -8.492
REMARK INTER:                  -8.451
REMARK INTRA:                  -0.041
REMARK UNBOUND:                -0.149
REMARK SMILES C[C@H]1[C@H](C)CC[C@@]2(C(=O)[O-])CC[C@@]3(C)C(=CC[C@@H]4[C@]5(C)CC[C@H](O)C(C)(C)[C@@H]5CC[C@]43C)[C@@H]12
REMARK SMILES IDX 7 1 6 2 11 3 33 4 5 5 12 6 15 7 2 8 3 9 13 10 16 11 1 12
REMARK SMILES IDX 4 13 14 14 31 15 17 16 18 17 30 18 32 19 19 20 29 21 28 22
REMARK SMILES IDX 21 23 20 24 25 25 22 26 23 27 26 28 27 29 8 30 9 31 10 32
REMARK SMILES IDX 24 33
REMARK H PARENT 24 34
REMARK Flexibility Score: inf
ROOT
ATOM      1  C   UNL     1       4.210 -11.313 -32.982  1.00  0.00     0.017 C 
ATOM      2  C   UNL     1       4.706 -11.296 -34.453  1.00  0.00     0.014 C 
ATOM      3  C   UNL     1       5.111 -10.418 -32.096  1.00  0.00     0.014 C 
ATOM      4  C   UNL     1       2.709 -10.855 -32.940  1.00  0.00     0.030 C 
ATOM      5  C   UNL     1       4.589  -9.937 -35.168  1.00  0.00     0.004 C 
ATOM      6  C   UNL     1       4.602 -10.298 -30.645  1.00  0.00     0.013 C 
ATOM      7  C   UNL     1       2.242 -10.536 -31.496  1.00  0.00    -0.063 C 
ATOM      8  C   UNL     1       2.255  -9.874 -34.089  1.00  0.00    -0.003 C 
ATOM      9  C   UNL     1       3.418  -9.042 -34.696  1.00  0.00    -0.011 C 
ATOM     10  C   UNL     1       3.143  -9.740 -30.501  1.00  0.00    -0.006 C 
ATOM     11  C   UNL     1       1.150 -11.229 -31.072  1.00  0.00    -0.027 C 
ATOM     12  C   UNL     1       1.030  -9.018 -33.713  1.00  0.00     0.008 C 
ATOM     13  C   UNL     1       2.958  -8.147 -35.862  1.00  0.00     0.008 C 
ATOM     14  C   UNL     1       3.190  -8.240 -30.921  1.00  0.00     0.017 C 
ATOM     15  C   UNL     1       2.593  -9.847 -28.970  1.00  0.00    -0.020 C 
ATOM     16  C   UNL     1       0.828 -11.520 -29.635  1.00  0.00     0.032 C 
ATOM     17  C   UNL     1       2.060 -11.305 -28.725  1.00  0.00     0.006 C 
ATOM     18  C   UNL     1       3.711  -9.560 -27.938  1.00  0.00     0.008 C 
ATOM     19  C   UNL     1       1.458  -8.782 -28.745  1.00  0.00     0.012 C 
ATOM     20  C   UNL     1       1.872 -11.867 -27.229  1.00  0.00    -0.025 C 
ATOM     21  C   UNL     1       3.261  -9.787 -26.500  1.00  0.00     0.005 C 
ATOM     22  C   UNL     1       2.964 -11.282 -26.221  1.00  0.00     0.003 C 
ATOM     23  C   UNL     1       0.427 -11.597 -26.691  1.00  0.00     0.010 C 
ATOM     24  C   UNL     1       2.060 -13.424 -27.339  1.00  0.00     0.012 C 
ATOM     25  C   UNL     1       2.687 -11.566 -24.673  1.00  0.00    -0.006 C 
ATOM     26  C   UNL     1       0.206 -11.966 -25.219  1.00  0.00     0.033 C 
ATOM     27  C   UNL     1       1.204 -11.268 -24.290  1.00  0.00     0.120 C 
ATOM     28  C   UNL     1       3.038 -13.039 -24.309  1.00  0.00     0.014 C 
ATOM     29  C   UNL     1       3.608 -10.716 -23.749  1.00  0.00     0.014 C 
ENDROOT
BRANCH   1  30
ATOM     30  C   UNL     1       4.349 -12.750 -32.467  1.00  0.00     0.048 C 
ATOM     31  O   UNL     1       5.491 -13.255 -32.291  1.00  0.00    -0.550 OA
ATOM     32  O   UNL     1       3.232 -13.496 -32.104  1.00  0.00    -0.550 OA
ENDBRANCH   1  30
BRANCH  27  33
ATOM     33  O   UNL     1       0.943  -9.883 -24.319  1.00  0.00    -0.393 OA
ATOM     34  H   UNL     1       1.670  -9.452 -24.838  1.00  0.00     0.210 HD
ENDBRANCH  27  33
TORSDOF 2
ENDMDL
MODEL 3
REMARK VINA RESULT:    -7.489      3.676      8.537
REMARK INTER + INTRA:          -8.295
REMARK INTER:                  -8.178
REMARK INTRA:                  -0.118
REMARK UNBOUND:                -0.149
REMARK SMILES C[C@H]1[C@H](C)CC[C@@]2(C(=O)[O-])CC[C@@]3(C)C(=CC[C@@H]4[C@]5(C)CC[C@H](O)C(C)(C)[C@@H]5CC[C@]43C)[C@@H]12
REMARK SMILES IDX 7 1 6 2 11 3 33 4 5 5 12 6 15 7 2 8 3 9 13 10 16 11 1 12
REMARK SMILES IDX 4 13 14 14 31 15 17 16 18 17 30 18 32 19 19 20 29 21 28 22
REMARK SMILES IDX 21 23 20 24 25 25 22 26 23 27 26 28 27 29 8 30 9 31 10 32
REMARK SMILES IDX 24 33
REMARK H PARENT 24 34
REMARK Flexibility Score: inf
ROOT
ATOM      1  C   UNL     1       3.045 -11.983 -32.940  1.00  0.00     0.017 C 
ATOM      2  C   UNL     1       3.262 -12.264 -34.451  1.00  0.00     0.014 C 
ATOM      3  C   UNL     1       4.399 -11.697 -32.243  1.00  0.00     0.014 C 
ATOM      4  C   UNL     1       2.041 -10.789 -32.777  1.00  0.00     0.030 C 
ATOM      5  C   UNL     1       3.784 -11.071 -35.271  1.00  0.00     0.004 C 
ATOM      6  C   UNL     1       4.242 -11.294 -30.763  1.00  0.00     0.013 C 
ATOM      7  C   UNL     1       2.024 -10.240 -31.326  1.00  0.00    -0.063 C 
ATOM      8  C   UNL     1       2.020  -9.740 -33.955  1.00  0.00    -0.003 C 
ATOM      9  C   UNL     1       3.348  -9.677 -34.759  1.00  0.00    -0.011 C 
ATOM     10  C   UNL     1       3.339 -10.036 -30.513  1.00  0.00    -0.006 C 
ATOM     11  C   UNL     1       0.804 -10.228 -30.724  1.00  0.00    -0.027 C 
ATOM     12  C   UNL     1       1.504  -8.352 -33.529  1.00  0.00     0.008 C 
ATOM     13  C   UNL     1       3.273  -8.698 -35.945  1.00  0.00     0.008 C 
ATOM     14  C   UNL     1       4.116  -8.805 -31.072  1.00  0.00     0.017 C 
ATOM     15  C   UNL     1       3.040  -9.800 -28.928  1.00  0.00    -0.020 C 
ATOM     16  C   UNL     1       0.583 -10.272 -29.240  1.00  0.00     0.032 C 
ATOM     17  C   UNL     1       1.855 -10.737 -28.493  1.00  0.00     0.006 C 
ATOM     18  C   UNL     1       4.273 -10.140 -28.054  1.00  0.00     0.008 C 
ATOM     19  C   UNL     1       2.689  -8.288 -28.679  1.00  0.00     0.012 C 
ATOM     20  C   UNL     1       1.611 -11.080 -26.939  1.00  0.00    -0.025 C 
ATOM     21  C   UNL     1       3.979 -10.061 -26.561  1.00  0.00     0.005 C 
ATOM     22  C   UNL     1       2.976 -11.156 -26.115  1.00  0.00     0.003 C 
ATOM     23  C   UNL     1       0.623 -10.065 -26.275  1.00  0.00     0.010 C 
ATOM     24  C   UNL     1       0.927 -12.495 -26.926  1.00  0.00     0.012 C 
ATOM     25  C   UNL     1       2.813 -11.216 -24.526  1.00  0.00    -0.006 C 
ATOM     26  C   UNL     1       0.451 -10.228 -24.760  1.00  0.00     0.033 C 
ATOM     27  C   UNL     1       1.786 -10.159 -24.014  1.00  0.00     0.120 C 
ATOM     28  C   UNL     1       2.376 -12.639 -24.068  1.00  0.00     0.014 C 
ATOM     29  C   UNL     1       4.165 -10.978 -23.791  1.00  0.00     0.014 C 
ENDROOT
BRANCH   1  30
ATOM     30  C   UNL     1       2.472 -13.259 -32.313  1.00  0.00     0.048 C 
ATOM     31  O   UNL     1       3.236 -14.210 -31.993  1.00  0.00    -0.550 OA
ATOM     32  O   UNL     1       1.120 -13.364 -32.003  1.00  0.00    -0.550 OA
ENDBRANCH   1  30
BRANCH  27  33
ATOM     33  O   UNL     1       2.299  -8.852 -24.141  1.00  0.00    -0.393 OA
ATOM     34  H   UNL     1       3.224  -8.926 -24.491  1.00  0.00     0.210 HD
ENDBRANCH  27  33
TORSDOF 2
ENDMDL
MODEL 4
REMARK VINA RESULT:    -7.338      3.019      7.676
REMARK INTER + INTRA:          -8.130
REMARK INTER:                  -8.451
REMARK INTRA:                   0.321
REMARK UNBOUND:                -0.149
REMARK SMILES C[C@H]1[C@H](C)CC[C@@]2(C(=O)[O-])CC[C@@]3(C)C(=CC[C@@H]4[C@]5(C)CC[C@H](O)C(C)(C)[C@@H]5CC[C@]43C)[C@@H]12
REMARK SMILES IDX 7 1 6 2 11 3 33 4 5 5 12 6 15 7 2 8 3 9 13 10 16 11 1 12
REMARK SMILES IDX 4 13 14 14 31 15 17 16 18 17 30 18 32 19 19 20 29 21 28 22
REMARK SMILES IDX 21 23 20 24 25 25 22 26 23 27 26 28 27 29 8 30 9 31 10 32
REMARK SMILES IDX 24 33
REMARK H PARENT 24 34
REMARK Flexibility Score: inf
ROOT
ATOM      1  C   UNL     1       3.940 -11.618 -34.652  1.00  0.00     0.017 C 
ATOM      2  C   UNL     1       4.487 -11.918 -36.073  1.00  0.00     0.014 C 
ATOM      3  C   UNL     1       4.999 -11.972 -33.579  1.00  0.00     0.014 C 
ATOM      4  C   UNL     1       3.509 -10.112 -34.573  1.00  0.00     0.030 C 
ATOM      5  C   UNL     1       5.676 -11.046 -36.515  1.00  0.00     0.004 C 
ATOM      6  C   UNL     1       4.564 -11.587 -32.150  1.00  0.00     0.013 C 
ATOM      7  C   UNL     1       3.261  -9.656 -33.111  1.00  0.00    -0.063 C 
ATOM      8  C   UNL     1       4.285  -9.122 -35.525  1.00  0.00    -0.003 C 
ATOM      9  C   UNL     1       5.704  -9.617 -35.919  1.00  0.00    -0.011 C 
ATOM     10  C   UNL     1       4.218 -10.070 -31.951  1.00  0.00    -0.006 C 
ATOM     11  C   UNL     1       2.028  -9.133 -32.867  1.00  0.00    -0.027 C 
ATOM     12  C   UNL     1       4.270  -7.662 -35.033  1.00  0.00     0.008 C 
ATOM     13  C   UNL     1       6.409  -8.667 -36.905  1.00  0.00     0.008 C 
ATOM     14  C   UNL     1       5.559  -9.283 -32.071  1.00  0.00     0.017 C 
ATOM     15  C   UNL     1       3.558  -9.777 -30.489  1.00  0.00    -0.020 C 
ATOM     16  C   UNL     1       1.355  -9.123 -31.525  1.00  0.00     0.032 C 
ATOM     17  C   UNL     1       2.025 -10.118 -30.549  1.00  0.00     0.006 C 
ATOM     18  C   UNL     1       4.205 -10.647 -29.383  1.00  0.00     0.008 C 
ATOM     19  C   UNL     1       3.791  -8.272 -30.101  1.00  0.00     0.012 C 
ATOM     20  C   UNL     1       1.189 -10.370 -29.197  1.00  0.00    -0.025 C 
ATOM     21  C   UNL     1       3.516 -10.495 -28.032  1.00  0.00     0.005 C 
ATOM     22  C   UNL     1       2.072 -11.058 -28.058  1.00  0.00     0.003 C 
ATOM     23  C   UNL     1       0.542  -9.047 -28.668  1.00  0.00     0.010 C 
ATOM     24  C   UNL     1       0.025 -11.346 -29.600  1.00  0.00     0.012 C 
ATOM     25  C   UNL     1       1.409 -11.090 -26.605  1.00  0.00    -0.006 C 
ATOM     26  C   UNL     1      -0.148  -9.166 -27.303  1.00  0.00     0.033 C 
ATOM     27  C   UNL     1       0.793  -9.709 -26.223  1.00  0.00     0.120 C 
ATOM     28  C   UNL     1       0.314 -12.195 -26.521  1.00  0.00     0.014 C 
ATOM     29  C   UNL     1       2.435 -11.488 -25.503  1.00  0.00     0.014 C 
ENDROOT
BRANCH   1  30
ATOM     30  C   UNL     1       2.734 -12.536 -34.420  1.00  0.00     0.048 C 
ATOM     31  O   UNL     1       2.065 -12.966 -35.399  1.00  0.00    -0.550 OA
ATOM     32  O   UNL     1       2.404 -12.984 -33.145  1.00  0.00    -0.550 OA
ENDBRANCH   1  30
BRANCH  27  33
ATOM     33  O   UNL     1       1.802  -8.752 -25.992  1.00  0.00    -0.393 OA
ATOM     34  H   UNL     1       2.206  -8.949 -25.108  1.00  0.00     0.210 HD
ENDBRANCH  27  33
TORSDOF 2
ENDMDL
MODEL 5
REMARK VINA RESULT:    -7.202      4.777      8.659
REMARK INTER + INTRA:          -7.983
REMARK INTER:                  -7.798
REMARK INTRA:                  -0.185
REMARK UNBOUND:                -0.149
REMARK SMILES C[C@H]1[C@H](C)CC[C@@]2(C(=O)[O-])CC[C@@]3(C)C(=CC[C@@H]4[C@]5(C)CC[C@H](O)C(C)(C)[C@@H]5CC[C@]43C)[C@@H]12
REMARK SMILES IDX 7 1 6 2 11 3 33 4 5 5 12 6 15 7 2 8 3 9 13 10 16 11 1 12
REMARK SMILES IDX 4 13 14 14 31 15 17 16 18 17 30 18 32 19 19 20 29 21 28 22
REMARK SMILES IDX 21 23 20 24 25 25 22 26 23 27 26 28 27 29 8 30 9 31 10 32
REMARK SMILES IDX 24 33
REMARK H PARENT 24 34
REMARK Flexibility Score: inf
ROOT
ATOM      1  C   UNL     1       2.490 -11.135 -24.004  1.00  0.00     0.017 C 
ATOM      2  C   UNL     1       2.397 -11.100 -22.455  1.00  0.00     0.014 C 
ATOM      3  C   UNL     1       2.126 -12.543 -24.537  1.00  0.00     0.014 C 
ATOM      4  C   UNL     1       1.556 -10.025 -24.602  1.00  0.00     0.030 C 
ATOM      5  C   UNL     1       0.982 -11.291 -21.879  1.00  0.00     0.004 C 
ATOM      6  C   UNL     1       2.084 -12.614 -26.077  1.00  0.00     0.013 C 
ATOM      7  C   UNL     1       1.343 -10.206 -26.127  1.00  0.00    -0.063 C 
ATOM      8  C   UNL     1       0.299  -9.640 -23.729  1.00  0.00    -0.003 C 
ATOM      9  C   UNL     1      -0.170 -10.772 -22.774  1.00  0.00    -0.011 C 
ATOM     10  C   UNL     1       1.089 -11.610 -26.757  1.00  0.00    -0.006 C 
ATOM     11  C   UNL     1       1.677  -9.131 -26.892  1.00  0.00    -0.027 C 
ATOM     12  C   UNL     1      -0.852  -9.028 -24.552  1.00  0.00     0.008 C 
ATOM     13  C   UNL     1      -1.352 -10.343 -21.885  1.00  0.00     0.008 C 
ATOM     14  C   UNL     1      -0.350 -12.093 -26.402  1.00  0.00     0.017 C 
ATOM     15  C   UNL     1       1.256 -11.585 -28.379  1.00  0.00    -0.020 C 
ATOM     16  C   UNL     1       2.077  -9.201 -28.337  1.00  0.00     0.032 C 
ATOM     17  C   UNL     1       2.459 -10.642 -28.748  1.00  0.00     0.006 C 
ATOM     18  C   UNL     1       1.553 -12.994 -28.947  1.00  0.00     0.008 C 
ATOM     19  C   UNL     1      -0.081 -11.083 -29.036  1.00  0.00     0.012 C 
ATOM     20  C   UNL     1       3.166 -10.744 -30.190  1.00  0.00    -0.025 C 
ATOM     21  C   UNL     1       1.850 -12.978 -30.442  1.00  0.00     0.005 C 
ATOM     22  C   UNL     1       3.174 -12.237 -30.756  1.00  0.00     0.003 C 
ATOM     23  C   UNL     1       2.508  -9.769 -31.222  1.00  0.00     0.010 C 
ATOM     24  C   UNL     1       4.649 -10.274 -29.964  1.00  0.00     0.012 C 
ATOM     25  C   UNL     1       3.602 -12.385 -32.289  1.00  0.00    -0.006 C 
ATOM     26  C   UNL     1       3.021  -9.908 -32.661  1.00  0.00     0.033 C 
ATOM     27  C   UNL     1       2.878 -11.338 -33.191  1.00  0.00     0.120 C 
ATOM     28  C   UNL     1       5.145 -12.241 -32.449  1.00  0.00     0.014 C 
ATOM     29  C   UNL     1       3.293 -13.805 -32.847  1.00  0.00     0.014 C 
ENDROOT
BRANCH   1  30
ATOM     30  C   UNL     1       3.952 -10.869 -24.383  1.00  0.00     0.048 C 
ATOM     31  O   UNL     1       4.333  -9.701 -24.666  1.00  0.00    -0.550 OA
ATOM     32  O   UNL     1       4.903 -11.884 -24.340  1.00  0.00    -0.550 OA
ENDBRANCH   1  30
BRANCH  27  33
ATOM     33  O   UNL     1       1.506 -11.633 -33.308  1.00  0.00    -0.393 OA
ATOM     34  H   UNL     1       1.019 -11.059 -32.662  1.00  0.00     0.210 HD
ENDBRANCH  27  33
TORSDOF 2
ENDMDL
MODEL 6
REMARK VINA RESULT:    -7.169      2.377      7.841
REMARK INTER + INTRA:          -7.946
REMARK INTER:                  -8.253
REMARK INTRA:                   0.307
REMARK UNBOUND:                -0.149
REMARK SMILES C[C@H]1[C@H](C)CC[C@@]2(C(=O)[O-])CC[C@@]3(C)C(=CC[C@@H]4[C@]5(C)CC[C@H](O)C(C)(C)[C@@H]5CC[C@]43C)[C@@H]12
REMARK SMILES IDX 7 1 6 2 11 3 33 4 5 5 12 6 15 7 2 8 3 9 13 10 16 11 1 12
REMARK SMILES IDX 4 13 14 14 31 15 17 16 18 17 30 18 32 19 19 20 29 21 28 22
REMARK SMILES IDX 21 23 20 24 25 25 22 26 23 27 26 28 27 29 8 30 9 31 10 32
REMARK SMILES IDX 24 33
REMARK H PARENT 24 34
REMARK Flexibility Score: inf
ROOT
ATOM      1  C   UNL     1       5.110  -9.807 -34.828  1.00  0.00     0.017 C 
ATOM      2  C   UNL     1       5.890  -9.499 -36.134  1.00  0.00     0.014 C 
ATOM      3  C   UNL     1       5.874  -9.256 -33.598  1.00  0.00     0.014 C 
ATOM      4  C   UNL     1       3.666  -9.203 -34.937  1.00  0.00     0.030 C 
ATOM      5  C   UNL     1       6.011  -8.005 -36.489  1.00  0.00     0.004 C 
ATOM      6  C   UNL     1       5.094  -9.425 -32.278  1.00  0.00     0.013 C 
ATOM      7  C   UNL     1       2.941  -9.182 -33.565  1.00  0.00    -0.063 C 
ATOM      8  C   UNL     1       3.517  -7.932 -35.860  1.00  0.00    -0.003 C 
ATOM      9  C   UNL     1       4.832  -7.119 -36.020  1.00  0.00    -0.011 C 
ATOM     10  C   UNL     1       3.677  -8.754 -32.258  1.00  0.00    -0.006 C 
ATOM     11  C   UNL     1       1.743  -9.826 -33.531  1.00  0.00    -0.027 C 
ATOM     12  C   UNL     1       2.303  -7.054 -35.502  1.00  0.00     0.008 C 
ATOM     13  C   UNL     1       4.675  -5.927 -36.982  1.00  0.00     0.008 C 
ATOM     14  C   UNL     1       3.908  -7.212 -32.267  1.00  0.00     0.017 C 
ATOM     15  C   UNL     1       2.826  -9.156 -30.926  1.00  0.00    -0.020 C 
ATOM     16  C   UNL     1       1.122 -10.410 -32.296  1.00  0.00     0.032 C 
ATOM     17  C   UNL     1       2.158 -10.560 -31.159  1.00  0.00     0.006 C 
ATOM     18  C   UNL     1       3.732  -9.251 -29.674  1.00  0.00     0.008 C 
ATOM     19  C   UNL     1       1.744  -8.052 -30.642  1.00  0.00     0.012 C 
ATOM     20  C   UNL     1       1.638 -11.435 -29.912  1.00  0.00    -0.025 C 
ATOM     21  C   UNL     1       2.989  -9.759 -28.444  1.00  0.00     0.005 C 
ATOM     22  C   UNL     1       2.543 -11.234 -28.612  1.00  0.00     0.003 C 
ATOM     23  C   UNL     1       0.136 -11.136 -29.588  1.00  0.00     0.010 C 
ATOM     24  C   UNL     1       1.739 -12.932 -30.379  1.00  0.00     0.012 C 
ATOM     25  C   UNL     1       1.943 -11.842 -27.261  1.00  0.00    -0.006 C 
ATOM     26  C   UNL     1      -0.399 -11.815 -28.321  1.00  0.00     0.033 C 
ATOM     27  C   UNL     1       0.437 -11.475 -27.084  1.00  0.00     0.120 C 
ATOM     28  C   UNL     1       2.115 -13.390 -27.227  1.00  0.00     0.014 C 
ATOM     29  C   UNL     1       2.717 -11.346 -26.003  1.00  0.00     0.014 C 
ENDROOT
BRANCH   1  30
ATOM     30  C   UNL     1       5.046 -11.331 -34.679  1.00  0.00     0.048 C 
ATOM     31  O   UNL     1       5.002 -12.068 -35.701  1.00  0.00    -0.550 OA
ATOM     32  O   UNL     1       5.124 -11.936 -33.429  1.00  0.00    -0.550 OA
ENDBRANCH   1  30
BRANCH  27  33
ATOM     33  O   UNL     1       0.281 -10.102 -26.805  1.00  0.00    -0.393 OA
ATOM     34  H   UNL     1       0.507  -9.601 -27.631  1.00  0.00     0.210 HD
ENDBRANCH  27  33
TORSDOF 2
ENDMDL
MODEL 7
REMARK VINA RESULT:    -7.082      2.162      3.727
REMARK INTER + INTRA:          -7.853
REMARK INTER:                  -7.667
REMARK INTRA:                  -0.186
REMARK UNBOUND:                -0.149
REMARK SMILES C[C@H]1[C@H](C)CC[C@@]2(C(=O)[O-])CC[C@@]3(C)C(=CC[C@@H]4[C@]5(C)CC[C@H](O)C(C)(C)[C@@H]5CC[C@]43C)[C@@H]12
REMARK SMILES IDX 7 1 6 2 11 3 33 4 5 5 12 6 15 7 2 8 3 9 13 10 16 11 1 12
REMARK SMILES IDX 4 13 14 14 31 15 17 16 18 17 30 18 32 19 19 20 29 21 28 22
REMARK SMILES IDX 21 23 20 24 25 25 22 26 23 27 26 28 27 29 8 30 9 31 10 32
REMARK SMILES IDX 24 33
REMARK H PARENT 24 34
REMARK Flexibility Score: inf
ROOT
ATOM      1  C   UNL     1       3.299 -10.192 -31.057  1.00  0.00     0.017 C 
ATOM      2  C   UNL     1       2.821 -11.176 -29.956  1.00  0.00     0.014 C 
ATOM      3  C   UNL     1       4.826 -10.327 -31.277  1.00  0.00     0.014 C 
ATOM      4  C   UNL     1       2.493 -10.463 -32.375  1.00  0.00     0.030 C 
ATOM      5  C   UNL     1       2.950 -12.669 -30.309  1.00  0.00     0.004 C 
ATOM      6  C   UNL     1       5.347  -9.460 -32.441  1.00  0.00     0.013 C 
ATOM      7  C   UNL     1       3.129  -9.753 -33.599  1.00  0.00    -0.063 C 
ATOM      8  C   UNL     1       1.974 -11.939 -32.575  1.00  0.00    -0.003 C 
ATOM      9  C   UNL     1       2.811 -13.004 -31.814  1.00  0.00    -0.011 C 
ATOM     10  C   UNL     1       4.672  -9.742 -33.829  1.00  0.00    -0.006 C 
ATOM     11  C   UNL     1       2.300  -8.915 -34.280  1.00  0.00    -0.027 C 
ATOM     12  C   UNL     1       1.726 -12.306 -34.051  1.00  0.00     0.008 C 
ATOM     13  C   UNL     1       2.240 -14.425 -31.969  1.00  0.00     0.008 C 
ATOM     14  C   UNL     1       5.145 -11.157 -34.281  1.00  0.00     0.017 C 
ATOM     15  C   UNL     1       5.107  -8.649 -34.957  1.00  0.00    -0.020 C 
ATOM     16  C   UNL     1       2.757  -7.751 -35.110  1.00  0.00     0.032 C 
ATOM     17  C   UNL     1       4.219  -7.365 -34.786  1.00  0.00     0.006 C 
ATOM     18  C   UNL     1       6.592  -8.235 -34.811  1.00  0.00     0.008 C 
ATOM     19  C   UNL     1       4.931  -9.275 -36.389  1.00  0.00     0.012 C 
ATOM     20  C   UNL     1       4.679  -5.960 -35.423  1.00  0.00    -0.025 C 
ATOM     21  C   UNL     1       6.990  -7.114 -35.765  1.00  0.00     0.005 C 
ATOM     22  C   UNL     1       6.267  -5.787 -35.423  1.00  0.00     0.003 C 
ATOM     23  C   UNL     1       4.105  -5.768 -36.866  1.00  0.00     0.010 C 
ATOM     24  C   UNL     1       4.045  -4.854 -34.503  1.00  0.00     0.012 C 
ATOM     25  C   UNL     1       6.820  -4.557 -36.281  1.00  0.00    -0.006 C 
ATOM     26  C   UNL     1       4.617  -4.525 -37.605  1.00  0.00     0.033 C 
ATOM     27  C   UNL     1       6.146  -4.487 -37.686  1.00  0.00     0.120 C 
ATOM     28  C   UNL     1       6.604  -3.213 -35.524  1.00  0.00     0.014 C 
ATOM     29  C   UNL     1       8.362  -4.635 -36.484  1.00  0.00     0.014 C 
ENDROOT
BRANCH   1  30
ATOM     30  C   UNL     1       3.037  -8.770 -30.548  1.00  0.00     0.048 C 
ATOM     31  O   UNL     1       1.947  -8.192 -30.808  1.00  0.00    -0.550 OA
ATOM     32  O   UNL     1       3.949  -8.121 -29.722  1.00  0.00    -0.550 OA
ENDBRANCH   1  30
BRANCH  27  33
ATOM     33  O   UNL     1       6.574  -5.549 -38.506  1.00  0.00    -0.393 OA
ATOM     34  H   UNL     1       6.345  -5.316 -39.443  1.00  0.00     0.210 HD
ENDBRANCH  27  33
TORSDOF 2
ENDMDL
MODEL 8
REMARK VINA RESULT:    -7.072      3.917      8.834
REMARK INTER + INTRA:          -7.841
REMARK INTER:                  -7.654
REMARK INTRA:                  -0.187
REMARK UNBOUND:                -0.149
REMARK SMILES C[C@H]1[C@H](C)CC[C@@]2(C(=O)[O-])CC[C@@]3(C)C(=CC[C@@H]4[C@]5(C)CC[C@H](O)C(C)(C)[C@@H]5CC[C@]43C)[C@@H]12
REMARK SMILES IDX 7 1 6 2 11 3 33 4 5 5 12 6 15 7 2 8 3 9 13 10 16 11 1 12
REMARK SMILES IDX 4 13 14 14 31 15 17 16 18 17 30 18 32 19 19 20 29 21 28 22
REMARK SMILES IDX 21 23 20 24 25 25 22 26 23 27 26 28 27 29 8 30 9 31 10 32
REMARK SMILES IDX 24 33
REMARK H PARENT 24 34
REMARK Flexibility Score: inf
ROOT
ATOM      1  C   UNL     1       2.683  -9.199 -32.666  1.00  0.00     0.017 C 
ATOM      2  C   UNL     1       3.080  -8.879 -34.132  1.00  0.00     0.014 C 
ATOM      3  C   UNL     1       1.268  -9.825 -32.613  1.00  0.00     0.014 C 
ATOM      4  C   UNL     1       3.764 -10.144 -32.034  1.00  0.00     0.030 C 
ATOM      5  C   UNL     1       3.252 -10.105 -35.047  1.00  0.00     0.004 C 
ATOM      6  C   UNL     1       0.860 -10.275 -31.196  1.00  0.00     0.013 C 
ATOM      7  C   UNL     1       3.281 -10.766 -30.698  1.00  0.00    -0.063 C 
ATOM      8  C   UNL     1       4.531 -11.086 -33.042  1.00  0.00    -0.003 C 
ATOM      9  C   UNL     1       3.732 -11.395 -34.339  1.00  0.00    -0.011 C 
ATOM     10  C   UNL     1       1.829 -11.311 -30.527  1.00  0.00    -0.006 C 
ATOM     11  C   UNL     1       4.089 -10.541 -29.627  1.00  0.00    -0.027 C 
ATOM     12  C   UNL     1       5.116 -12.346 -32.377  1.00  0.00     0.008 C 
ATOM     13  C   UNL     1       4.533 -12.256 -35.334  1.00  0.00     0.008 C 
ATOM     14  C   UNL     1       1.674 -12.647 -31.315  1.00  0.00     0.017 C 
ATOM     15  C   UNL     1       1.462 -11.573 -28.960  1.00  0.00    -0.020 C 
ATOM     16  C   UNL     1       3.632 -10.542 -28.197  1.00  0.00     0.032 C 
ATOM     17  C   UNL     1       2.094 -10.423 -28.095  1.00  0.00     0.006 C 
ATOM     18  C   UNL     1      -0.068 -11.574 -28.722  1.00  0.00     0.008 C 
ATOM     19  C   UNL     1       2.009 -12.980 -28.521  1.00  0.00     0.012 C 
ATOM     20  C   UNL     1       1.559 -10.131 -26.605  1.00  0.00    -0.025 C 
ATOM     21  C   UNL     1      -0.437 -11.679 -27.247  1.00  0.00     0.005 C 
ATOM     22  C   UNL     1      -0.005 -10.417 -26.456  1.00  0.00     0.003 C 
ATOM     23  C   UNL     1       2.369 -10.939 -25.536  1.00  0.00     0.010 C 
ATOM     24  C   UNL     1       1.826  -8.603 -26.355  1.00  0.00     0.012 C 
ATOM     25  C   UNL     1      -0.560 -10.422 -24.958  1.00  0.00    -0.006 C 
ATOM     26  C   UNL     1       1.829 -10.836 -24.104  1.00  0.00     0.033 C 
ATOM     27  C   UNL     1       0.358 -11.251 -24.008  1.00  0.00     0.120 C 
ATOM     28  C   UNL     1      -0.703  -8.968 -24.416  1.00  0.00     0.014 C 
ATOM     29  C   UNL     1      -2.002 -11.003 -24.871  1.00  0.00     0.014 C 
ENDROOT
BRANCH   1  30
ATOM     30  C   UNL     1       2.621  -7.868 -31.907  1.00  0.00     0.048 C 
ATOM     31  O   UNL     1       3.641  -7.430 -31.308  1.00  0.00    -0.550 OA
ATOM     32  O   UNL     1       1.477  -7.078 -31.930  1.00  0.00    -0.550 OA
ENDBRANCH   1  30
BRANCH  27  33
ATOM     33  O   UNL     1       0.266 -12.628 -24.290  1.00  0.00    -0.393 OA
ATOM     34  H   UNL     1       1.027 -12.865 -24.880  1.00  0.00     0.210 HD
ENDBRANCH  27  33
TORSDOF 2
ENDMDL
MODEL 9
REMARK VINA RESULT:    -7.038      4.194      7.516
REMARK INTER + INTRA:          -7.805
REMARK INTER:                  -7.620
REMARK INTRA:                  -0.185
REMARK UNBOUND:                -0.149
REMARK SMILES C[C@H]1[C@H](C)CC[C@@]2(C(=O)[O-])CC[C@@]3(C)C(=CC[C@@H]4[C@]5(C)CC[C@H](O)C(C)(C)[C@@H]5CC[C@]43C)[C@@H]12
REMARK SMILES IDX 7 1 6 2 11 3 33 4 5 5 12 6 15 7 2 8 3 9 13 10 16 11 1 12
REMARK SMILES IDX 4 13 14 14 31 15 17 16 18 17 30 18 32 19 19 20 29 21 28 22
REMARK SMILES IDX 21 23 20 24 25 25 22 26 23 27 26 28 27 29 8 30 9 31 10 32
REMARK SMILES IDX 24 33
REMARK H PARENT 24 34
REMARK Flexibility Score: inf
ROOT
ATOM      1  C   UNL     1       0.079 -11.352 -25.445  1.00  0.00     0.017 C 
ATOM      2  C   UNL     1      -0.392 -11.535 -23.978  1.00  0.00     0.014 C 
ATOM      3  C   UNL     1       0.495  -9.882 -25.701  1.00  0.00     0.014 C 
ATOM      4  C   UNL     1       1.254 -12.350 -25.737  1.00  0.00     0.030 C 
ATOM      5  C   UNL     1       0.698 -11.332 -22.909  1.00  0.00     0.004 C 
ATOM      6  C   UNL     1       1.085  -9.658 -27.108  1.00  0.00     0.013 C 
ATOM      7  C   UNL     1       1.989 -12.010 -27.060  1.00  0.00    -0.063 C 
ATOM      8  C   UNL     1       2.138 -12.757 -24.494  1.00  0.00    -0.003 C 
ATOM      9  C   UNL     1       2.134 -11.703 -23.353  1.00  0.00    -0.011 C 
ATOM     10  C   UNL     1       2.338 -10.539 -27.447  1.00  0.00    -0.006 C 
ATOM     11  C   UNL     1       2.044 -13.020 -27.970  1.00  0.00    -0.027 C 
ATOM     12  C   UNL     1       3.554 -13.227 -24.879  1.00  0.00     0.008 C 
ATOM     13  C   UNL     1       2.945 -12.159 -22.126  1.00  0.00     0.008 C 
ATOM     14  C   UNL     1       3.506 -10.024 -26.553  1.00  0.00     0.017 C 
ATOM     15  C   UNL     1       2.772 -10.414 -29.014  1.00  0.00    -0.020 C 
ATOM     16  C   UNL     1       2.190 -12.827 -29.452  1.00  0.00     0.032 C 
ATOM     17  C   UNL     1       1.865 -11.373 -29.867  1.00  0.00     0.006 C 
ATOM     18  C   UNL     1       2.586  -8.971 -29.546  1.00  0.00     0.008 C 
ATOM     19  C   UNL     1       4.292 -10.781 -29.168  1.00  0.00     0.012 C 
ATOM     20  C   UNL     1       1.723 -11.165 -31.457  1.00  0.00    -0.025 C 
ATOM     21  C   UNL     1       2.853  -8.854 -31.042  1.00  0.00     0.005 C 
ATOM     22  C   UNL     1       1.797  -9.626 -31.875  1.00  0.00     0.003 C 
ATOM     23  C   UNL     1       2.787 -12.000 -32.243  1.00  0.00     0.010 C 
ATOM     24  C   UNL     1       0.302 -11.727 -31.827  1.00  0.00     0.012 C 
ATOM     25  C   UNL     1       1.942  -9.349 -33.442  1.00  0.00    -0.006 C 
ATOM     26  C   UNL     1       2.820 -11.745 -33.756  1.00  0.00     0.033 C 
ATOM     27  C   UNL     1       3.027 -10.265 -34.089  1.00  0.00     0.120 C 
ATOM     28  C   UNL     1       0.580  -9.552 -34.168  1.00  0.00     0.014 C 
ATOM     29  C   UNL     1       2.315  -7.867 -33.741  1.00  0.00     0.014 C 
ENDROOT
BRANCH   1  30
ATOM     30  C   UNL     1      -1.119 -11.651 -26.353  1.00  0.00     0.048 C 
ATOM     31  O   UNL     1      -1.288 -12.809 -26.823  1.00  0.00    -0.550 OA
ATOM     32  O   UNL     1      -2.087 -10.685 -26.608  1.00  0.00    -0.550 OA
ENDBRANCH   1  30
BRANCH  27  33
ATOM     33  O   UNL     1       4.319  -9.892 -33.671  1.00  0.00    -0.393 OA
ATOM     34  H   UNL     1       4.888  -9.820 -34.481  1.00  0.00     0.210 HD
ENDBRANCH  27  33
TORSDOF 2
ENDMDL
