MODEL 1
REMARK VINA RESULT:    -3.426      0.000      0.000
REMARK INTER + INTRA:          -4.319
REMARK INTER:                  -4.227
REMARK INTRA:                  -0.092
REMARK UNBOUND:                -0.092
REMARK SMILES C=CCc1ccc(OC)c(OC)c1
REMARK SMILES IDX 7 1 10 2 13 3 4 4 5 5 6 6 8 7 9 8 11 9 12 10 3 11 2 12 1 13
REMARK H PARENT
REMARK Flexibility Score: inf
ROOT
ATOM      1  C   UNL     1       4.630 -36.100 -11.952  1.00  0.00     0.160 A 
ATOM      2  C   UNL     1       4.451 -34.792 -11.476  1.00  0.00     0.160 A 
ATOM      3  C   UNL     1       5.376 -33.789 -11.828  1.00  0.00     0.054 A 
ATOM      4  C   UNL     1       6.477 -34.089 -12.645  1.00  0.00    -0.040 A 
ATOM      5  C   UNL     1       6.641 -35.395 -13.125  1.00  0.00     0.008 A 
ATOM      6  C   UNL     1       5.731 -36.394 -12.778  1.00  0.00     0.051 A 
ENDROOT
BRANCH   1   7
ATOM      7  O   UNL     1       3.693 -37.078 -11.583  1.00  0.00    -0.493 OA
ATOM      8  C   UNL     1       2.348 -37.124 -12.052  1.00  0.00     0.278 C 
ENDBRANCH   1   7
BRANCH   2   9
ATOM      9  O   UNL     1       3.340 -34.526 -10.658  1.00  0.00    -0.493 OA
ATOM     10  C   UNL     1       3.353 -34.587  -9.235  1.00  0.00     0.278 C 
ENDBRANCH   2   9
BRANCH   4  11
ATOM     11  C   UNL     1       7.446 -33.009 -13.046  1.00  0.00     0.062 C 
BRANCH  11  12
ATOM     12  C   UNL     1       8.863 -33.502 -12.947  1.00  0.00    -0.030 C 
ATOM     13  C   UNL     1       9.723 -32.997 -12.057  1.00  0.00     0.004 C 
ENDBRANCH  11  12
ENDBRANCH   4  11
TORSDOF 4
ENDMDL
MODEL 2
REMARK VINA RESULT:    -3.010      8.790      9.806
REMARK INTER + INTRA:          -3.807
REMARK INTER:                  -3.556
REMARK INTRA:                  -0.251
REMARK UNBOUND:                -0.092
REMARK SMILES C=CCc1ccc(OC)c(OC)c1
REMARK SMILES IDX 7 1 10 2 13 3 4 4 5 5 6 6 8 7 9 8 11 9 12 10 3 11 2 12 1 13
REMARK H PARENT
REMARK Flexibility Score: inf
ROOT
ATOM      1  C   UNL     1      11.109 -36.268  -2.829  1.00  0.00     0.160 A 
ATOM      2  C   UNL     1      10.012 -35.732  -3.521  1.00  0.00     0.160 A 
ATOM      3  C   UNL     1       9.924 -35.892  -4.919  1.00  0.00     0.054 A 
ATOM      4  C   UNL     1      10.924 -36.577  -5.623  1.00  0.00    -0.040 A 
ATOM      5  C   UNL     1      12.010 -37.119  -4.922  1.00  0.00     0.008 A 
ATOM      6  C   UNL     1      12.106 -36.963  -3.539  1.00  0.00     0.051 A 
ENDROOT
BRANCH   1   7
ATOM      7  O   UNL     1      11.170 -36.091  -1.438  1.00  0.00    -0.493 OA
ATOM      8  C   UNL     1      11.486 -37.122  -0.507  1.00  0.00     0.278 C 
ENDBRANCH   1   7
BRANCH   2   9
ATOM      9  O   UNL     1       9.029 -35.048  -2.786  1.00  0.00    -0.493 OA
ATOM     10  C   UNL     1       7.971 -34.290  -3.364  1.00  0.00     0.278 C 
ENDBRANCH   2   9
BRANCH   4  11
ATOM     11  C   UNL     1      10.811 -36.774  -7.112  1.00  0.00     0.062 C 
BRANCH  11  12
ATOM     12  C   UNL     1      12.092 -36.387  -7.799  1.00  0.00    -0.030 C 
ATOM     13  C   UNL     1      12.102 -35.895  -9.041  1.00  0.00     0.004 C 
ENDBRANCH  11  12
ENDBRANCH   4  11
TORSDOF 4
ENDMDL
MODEL 3
REMARK VINA RESULT:    -2.788      3.391      5.761
REMARK INTER + INTRA:          -3.532
REMARK INTER:                  -3.227
REMARK INTRA:                  -0.305
REMARK UNBOUND:                -0.092
REMARK SMILES C=CCc1ccc(OC)c(OC)c1
REMARK SMILES IDX 7 1 10 2 13 3 4 4 5 5 6 6 8 7 9 8 11 9 12 10 3 11 2 12 1 13
REMARK H PARENT
REMARK Flexibility Score: inf
ROOT
ATOM      1  C   UNL     1      10.044 -33.017 -12.004  1.00  0.00     0.160 A 
ATOM      2  C   UNL     1       9.059 -32.092 -11.625  1.00  0.00     0.160 A 
ATOM      3  C   UNL     1       7.718 -32.310 -12.000  1.00  0.00     0.054 A 
ATOM      4  C   UNL     1       7.362 -33.439 -12.752  1.00  0.00    -0.040 A 
ATOM      5  C   UNL     1       8.350 -34.363 -13.116  1.00  0.00     0.008 A 
ATOM      6  C   UNL     1       9.680 -34.153 -12.751  1.00  0.00     0.051 A 
ENDROOT
BRANCH   1   7
ATOM      7  O   UNL     1      11.371 -32.772 -11.617  1.00  0.00    -0.493 OA
ATOM      8  C   UNL     1      12.096 -33.561 -10.677  1.00  0.00     0.278 C 
ENDBRANCH   1   7
BRANCH   2   9
ATOM      9  O   UNL     1       9.449 -30.971 -10.875  1.00  0.00    -0.493 OA
ATOM     10  C   UNL     1       8.695 -30.413  -9.804  1.00  0.00     0.278 C 
ENDBRANCH   2   9
BRANCH   4  11
ATOM     11  C   UNL     1       5.923 -33.685 -13.124  1.00  0.00     0.062 C 
BRANCH  11  12
ATOM     12  C   UNL     1       5.357 -34.832 -12.332  1.00  0.00    -0.030 C 
ATOM     13  C   UNL     1       4.561 -34.633 -11.279  1.00  0.00     0.004 C 
ENDBRANCH  11  12
ENDBRANCH   4  11
TORSDOF 4
ENDMDL
MODEL 4
REMARK VINA RESULT:    -2.143      1.871      4.763
REMARK INTER + INTRA:          -2.737
REMARK INTER:                  -2.977
REMARK INTRA:                   0.240
REMARK UNBOUND:                -0.092
REMARK SMILES C=CCc1ccc(OC)c(OC)c1
REMARK SMILES IDX 7 1 10 2 13 3 4 4 5 5 6 6 8 7 9 8 11 9 12 10 3 11 2 12 1 13
REMARK H PARENT
REMARK Flexibility Score: inf
ROOT
ATOM      1  C   UNL     1       5.344 -36.351 -12.402  1.00  0.00     0.160 A 
ATOM      2  C   UNL     1       5.513 -34.958 -12.385  1.00  0.00     0.160 A 
ATOM      3  C   UNL     1       4.602 -34.155 -11.670  1.00  0.00     0.054 A 
ATOM      4  C   UNL     1       3.527 -34.735 -10.981  1.00  0.00    -0.040 A 
ATOM      5  C   UNL     1       3.373 -36.128 -10.994  1.00  0.00     0.008 A 
ATOM      6  C   UNL     1       4.269 -36.929 -11.702  1.00  0.00     0.051 A 
ENDROOT
BRANCH   1   7
ATOM      7  O   UNL     1       6.266 -37.125 -13.125  1.00  0.00    -0.493 OA
ATOM      8  C   UNL     1       7.682 -37.018 -13.001  1.00  0.00     0.278 C 
ENDBRANCH   1   7
BRANCH   2   9
ATOM      9  O   UNL     1       6.598 -34.409 -13.088  1.00  0.00    -0.493 OA
ATOM     10  C   UNL     1       7.203 -33.155 -12.788  1.00  0.00     0.278 C 
ENDBRANCH   2   9
BRANCH   4  11
ATOM     11  C   UNL     1       2.574 -33.877 -10.191  1.00  0.00     0.062 C 
BRANCH  11  12
ATOM     12  C   UNL     1       2.401 -34.417  -8.798  1.00  0.00    -0.030 C 
ATOM     13  C   UNL     1       1.634 -33.799  -7.895  1.00  0.00     0.004 C 
ENDBRANCH  11  12
ENDBRANCH   4  11
TORSDOF 4
ENDMDL
MODEL 5
REMARK VINA RESULT:    -1.976      3.576      6.338
REMARK INTER + INTRA:          -2.530
REMARK INTER:                  -2.235
REMARK INTRA:                  -0.294
REMARK UNBOUND:                -0.092
REMARK SMILES C=CCc1ccc(OC)c(OC)c1
REMARK SMILES IDX 7 1 10 2 13 3 4 4 5 5 6 6 8 7 9 8 11 9 12 10 3 11 2 12 1 13
REMARK H PARENT
REMARK Flexibility Score: inf
ROOT
ATOM      1  C   UNL     1       9.208 -31.445 -11.198  1.00  0.00     0.160 A 
ATOM      2  C   UNL     1       9.829 -32.625 -11.637  1.00  0.00     0.160 A 
ATOM      3  C   UNL     1       9.058 -33.629 -12.257  1.00  0.00     0.054 A 
ATOM      4  C   UNL     1       7.677 -33.462 -12.433  1.00  0.00    -0.040 A 
ATOM      5  C   UNL     1       7.067 -32.276 -12.001  1.00  0.00     0.008 A 
ATOM      6  C   UNL     1       7.823 -31.279 -11.385  1.00  0.00     0.051 A 
ENDROOT
BRANCH   1   7
ATOM      7  O   UNL     1      10.001 -30.464 -10.583  1.00  0.00    -0.493 OA
ATOM      8  C   UNL     1       9.498 -29.432  -9.739  1.00  0.00     0.278 C 
ENDBRANCH   1   7
BRANCH   2   9
ATOM      9  O   UNL     1      11.213 -32.762 -11.443  1.00  0.00    -0.493 OA
ATOM     10  C   UNL     1      11.837 -33.895 -10.847  1.00  0.00     0.278 C 
ENDBRANCH   2   9
BRANCH   4  11
ATOM     11  C   UNL     1       6.862 -34.523 -13.123  1.00  0.00     0.062 C 
BRANCH  11  12
ATOM     12  C   UNL     1       5.423 -34.456 -12.690  1.00  0.00    -0.030 C 
ATOM     13  C   UNL     1       4.857 -35.434 -11.978  1.00  0.00     0.004 C 
ENDBRANCH  11  12
ENDBRANCH   4  11
TORSDOF 4
ENDMDL
MODEL 6
REMARK VINA RESULT:    -1.674      3.508      6.211
REMARK INTER + INTRA:          -2.157
REMARK INTER:                  -1.900
REMARK INTRA:                  -0.257
REMARK UNBOUND:                -0.092
REMARK SMILES C=CCc1ccc(OC)c(OC)c1
REMARK SMILES IDX 7 1 10 2 13 3 4 4 5 5 6 6 8 7 9 8 11 9 12 10 3 11 2 12 1 13
REMARK H PARENT
REMARK Flexibility Score: inf
ROOT
ATOM      1  C   UNL     1      10.225 -33.065 -11.770  1.00  0.00     0.160 A 
ATOM      2  C   UNL     1       9.875 -34.081 -12.673  1.00  0.00     0.160 A 
ATOM      3  C   UNL     1       8.537 -34.203 -13.100  1.00  0.00     0.054 A 
ATOM      4  C   UNL     1       7.554 -33.321 -12.627  1.00  0.00    -0.040 A 
ATOM      5  C   UNL     1       7.915 -32.303 -11.735  1.00  0.00     0.008 A 
ATOM      6  C   UNL     1       9.236 -32.177 -11.306  1.00  0.00     0.051 A 
ENDROOT
BRANCH   1   7
ATOM      7  O   UNL     1      11.564 -32.969 -11.361  1.00  0.00    -0.493 OA
ATOM      8  C   UNL     1      12.115 -33.649 -10.236  1.00  0.00     0.278 C 
ENDBRANCH   1   7
BRANCH   2   9
ATOM      9  O   UNL     1      10.882 -34.948 -13.125  1.00  0.00    -0.493 OA
ATOM     10  C   UNL     1      11.163 -36.224 -12.558  1.00  0.00     0.278 C 
ENDBRANCH   2   9
BRANCH   4  11
ATOM     11  C   UNL     1       6.132 -33.434 -13.110  1.00  0.00     0.062 C 
BRANCH  11  12
ATOM     12  C   UNL     1       5.459 -34.636 -12.508  1.00  0.00    -0.030 C 
ATOM     13  C   UNL     1       4.685 -34.538 -11.423  1.00  0.00     0.004 C 
ENDBRANCH  11  12
ENDBRANCH   4  11
TORSDOF 4
ENDMDL
MODEL 7
REMARK VINA RESULT:    -1.502      0.925      2.665
REMARK INTER + INTRA:          -1.946
REMARK INTER:                  -1.764
REMARK INTRA:                  -0.182
REMARK UNBOUND:                -0.092
REMARK SMILES C=CCc1ccc(OC)c(OC)c1
REMARK SMILES IDX 7 1 10 2 13 3 4 4 5 5 6 6 8 7 9 8 11 9 12 10 3 11 2 12 1 13
REMARK H PARENT
REMARK Flexibility Score: inf
ROOT
ATOM      1  C   UNL     1       3.454 -34.762 -10.954  1.00  0.00     0.160 A 
ATOM      2  C   UNL     1       3.779 -35.944 -11.638  1.00  0.00     0.160 A 
ATOM      3  C   UNL     1       4.993 -36.027 -12.349  1.00  0.00     0.054 A 
ATOM      4  C   UNL     1       5.875 -34.937 -12.383  1.00  0.00    -0.040 A 
ATOM      5  C   UNL     1       5.548 -33.765 -11.688  1.00  0.00     0.008 A 
ATOM      6  C   UNL     1       4.347 -33.675 -10.984  1.00  0.00     0.051 A 
ENDROOT
BRANCH   1   7
ATOM      7  O   UNL     1       2.238 -34.709 -10.256  1.00  0.00    -0.493 OA
ATOM      8  C   UNL     1       2.032 -33.984  -9.047  1.00  0.00     0.278 C 
ENDBRANCH   1   7
BRANCH   2   9
ATOM      9  O   UNL     1       2.872 -37.016 -11.585  1.00  0.00    -0.493 OA
ATOM     10  C   UNL     1       1.704 -37.124 -12.391  1.00  0.00     0.278 C 
ENDBRANCH   2   9
BRANCH   4  11
ATOM     11  C   UNL     1       7.186 -35.039 -13.117  1.00  0.00     0.062 C 
BRANCH  11  12
ATOM     12  C   UNL     1       7.897 -33.714 -13.124  1.00  0.00    -0.030 C 
ATOM     13  C   UNL     1       9.197 -33.612 -12.833  1.00  0.00     0.004 C 
ENDBRANCH  11  12
ENDBRANCH   4  11
TORSDOF 4
ENDMDL
MODEL 8
REMARK VINA RESULT:    -1.421      4.891      5.995
REMARK INTER + INTRA:          -1.846
REMARK INTER:                  -1.583
REMARK INTRA:                  -0.263
REMARK UNBOUND:                -0.092
REMARK SMILES C=CCc1ccc(OC)c(OC)c1
REMARK SMILES IDX 7 1 10 2 13 3 4 4 5 5 6 6 8 7 9 8 11 9 12 10 3 11 2 12 1 13
REMARK H PARENT
REMARK Flexibility Score: inf
ROOT
ATOM      1  C   UNL     1      10.350 -34.554 -12.499  1.00  0.00     0.160 A 
ATOM      2  C   UNL     1      10.883 -33.825 -11.425  1.00  0.00     0.160 A 
ATOM      3  C   UNL     1      10.223 -32.663 -10.975  1.00  0.00     0.054 A 
ATOM      4  C   UNL     1       9.042 -32.228 -11.596  1.00  0.00    -0.040 A 
ATOM      5  C   UNL     1       8.511 -32.969 -12.660  1.00  0.00     0.008 A 
ATOM      6  C   UNL     1       9.160 -34.118 -13.112  1.00  0.00     0.051 A 
ENDROOT
BRANCH   1   7
ATOM      7  O   UNL     1      11.030 -35.705 -12.925  1.00  0.00    -0.493 OA
ATOM      8  C   UNL     1      10.424 -36.984 -13.097  1.00  0.00     0.278 C 
ENDBRANCH   1   7
BRANCH   2   9
ATOM      9  O   UNL     1      12.068 -34.286 -10.828  1.00  0.00    -0.493 OA
ATOM     10  C   UNL     1      12.119 -35.133  -9.685  1.00  0.00     0.278 C 
ENDBRANCH   2   9
BRANCH   4  11
ATOM     11  C   UNL     1       8.322 -31.005 -11.093  1.00  0.00     0.062 C 
BRANCH  11  12
ATOM     12  C   UNL     1       9.144 -30.292 -10.055  1.00  0.00    -0.030 C 
ATOM     13  C   UNL     1       8.583 -29.722  -8.984  1.00  0.00     0.004 C 
ENDBRANCH  11  12
ENDBRANCH   4  11
TORSDOF 4
ENDMDL
