MODEL 1
REMARK VINA RESULT:    -4.000      0.000      0.000
REMARK INTER + INTRA:          -6.546
REMARK INTER:                  -6.105
REMARK INTRA:                  -0.441
REMARK UNBOUND:                -0.441
REMARK SMILES CC1=CCC[C@@H](C)C(=O)C[C@@H](C(C)C)C(=O)C1
REMARK SMILES IDX 8 1 9 2 6 3 7 4 5 5 4 6 3 7 2 8 1 9 10 11 11 12 15 13 16 14
REMARK SMILES IDX 17 15 12 17 13 18 14 19
REMARK H PARENT
REMARK Flexibility Score: 70.00
ROOT
ATOM      1  C   UNL     1     -14.752  13.568 -31.532  1.00  0.00     0.136 C 
ATOM      2  O   UNL     1     -14.533  13.887 -32.692  1.00  0.00    -0.299 OA
ENDROOT
BRANCH   1   3
ATOM      3  C   UNL     1     -14.136  14.379 -30.404  1.00  0.00     0.053 C 
ATOM      4  C   UNL     1     -14.545  15.854 -30.514  1.00  0.00     0.016 C 
BRANCH   3   5
ATOM      5  C   UNL     1     -12.599  14.228 -30.417  1.00  0.00     0.015 C 
BRANCH   5   6
ATOM      6  C   UNL     1     -12.160  12.752 -30.331  1.00  0.00     0.028 C 
BRANCH   6   7
ATOM      7  C   UNL     1     -12.236  12.251 -28.911  1.00  0.00    -0.028 C 
ATOM      8  C   UNL     1     -12.978  11.195 -28.506  1.00  0.00    -0.070 CG0
ATOM      9  C   UNL     1     -12.873  10.765 -27.064  1.00  0.00     0.039 C 
ATOM     10  G   UNL     1     -13.922  10.447 -29.434  1.00  0.00     0.000 G0
ENDBRANCH   6   7
ENDBRANCH   5   6
ENDBRANCH   3   5
ENDBRANCH   1   3
BRANCH   1  11
ATOM     11  C   UNL     1     -15.633  12.373 -31.244  1.00  0.00     0.087 C 
BRANCH  11  12
ATOM     12  C   UNL     1     -15.937  12.116 -29.734  1.00  0.00     0.066 C 
BRANCH  12  13
ATOM     13  C   UNL     1     -15.374  10.799 -29.208  1.00  0.00     0.140 C 
ATOM     14  O   UNL     1     -16.078  10.055 -28.540  1.00  0.00    -0.299 OA
BRANCH  13  15
ATOM     15  C   UNL     1     -13.922  10.441 -29.424  1.00  0.00     0.106 CG0
ATOM     16  G   UNL     1     -12.991  11.215 -28.503  1.00  0.00     0.000 G0
ENDBRANCH  13  15
ENDBRANCH  12  13
BRANCH  12  17
ATOM     17  C   UNL     1     -17.431  12.316 -29.316  1.00  0.00    -0.006 C 
ATOM     18  C   UNL     1     -18.432  12.240 -30.481  1.00  0.00     0.008 C 
ATOM     19  C   UNL     1     -17.633  13.631 -28.543  1.00  0.00     0.008 C 
ENDBRANCH  12  17
ENDBRANCH  11  12
ENDBRANCH   1  11
TORSDOF 1
ENDMDL
MODEL 2
REMARK VINA RESULT:    -3.909      1.891      4.087
REMARK INTER + INTRA:          -6.407
REMARK INTER:                  -6.237
REMARK INTRA:                  -0.170
REMARK UNBOUND:                -0.441
REMARK SMILES CC1=CCC[C@@H](C)C(=O)C[C@@H](C(C)C)C(=O)C1
REMARK SMILES IDX 8 1 9 2 6 3 7 4 5 5 4 6 3 7 2 8 1 9 10 11 11 12 15 13 16 14
REMARK SMILES IDX 17 15 12 17 13 18 14 19
REMARK H PARENT
REMARK Flexibility Score: 70.00
ROOT
ATOM      1  C   UNL     1     -14.412  14.356 -30.982  1.00  0.00     0.136 C 
ATOM      2  O   UNL     1     -14.613  15.435 -31.520  1.00  0.00    -0.299 OA
ENDROOT
BRANCH   1   3
ATOM      3  C   UNL     1     -15.524  13.323 -30.939  1.00  0.00     0.053 C 
ATOM      4  C   UNL     1     -16.591  13.635 -31.999  1.00  0.00     0.016 C 
BRANCH   3   5
ATOM      5  C   UNL     1     -16.147  13.265 -29.527  1.00  0.00     0.015 C 
BRANCH   5   6
ATOM      6  C   UNL     1     -15.944  11.891 -28.859  1.00  0.00     0.028 C 
BRANCH   6   7
ATOM      7  C   UNL     1     -14.836  11.949 -27.837  1.00  0.00    -0.028 C 
ATOM      8  C   UNL     1     -13.550  11.603 -28.075  1.00  0.00    -0.070 CG0
ATOM      9  C   UNL     1     -12.544  11.805 -26.969  1.00  0.00     0.039 C 
ATOM     10  G   UNL     1     -13.089  11.002 -29.394  1.00  0.00     0.000 G0
ENDBRANCH   6   7
ENDBRANCH   5   6
ENDBRANCH   3   5
ENDBRANCH   1   3
BRANCH   1  11
ATOM     11  C   UNL     1     -13.058  14.072 -30.368  1.00  0.00     0.087 C 
BRANCH  11  12
ATOM     12  C   UNL     1     -12.266  12.893 -31.017  1.00  0.00     0.066 C 
BRANCH  12  13
ATOM     13  C   UNL     1     -11.962  11.751 -30.052  1.00  0.00     0.140 C 
ATOM     14  O   UNL     1     -10.806  11.400 -29.863  1.00  0.00    -0.299 OA
BRANCH  13  15
ATOM     15  C   UNL     1     -13.082  10.982 -29.391  1.00  0.00     0.106 CG0
ATOM     16  G   UNL     1     -13.528  11.617 -28.083  1.00  0.00     0.000 G0
ENDBRANCH  13  15
ENDBRANCH  12  13
BRANCH  12  17
ATOM     17  C   UNL     1     -10.999  13.317 -31.832  1.00  0.00    -0.006 C 
ATOM     18  C   UNL     1     -10.644  14.810 -31.723  1.00  0.00     0.008 C 
ATOM     19  C   UNL     1     -11.117  12.918 -33.313  1.00  0.00     0.008 C 
ENDBRANCH  12  17
ENDBRANCH  11  12
ENDBRANCH   1  11
TORSDOF 1
ENDMDL
MODEL 3
REMARK VINA RESULT:    -3.828      1.917      4.391
REMARK INTER + INTRA:          -6.284
REMARK INTER:                  -6.603
REMARK INTRA:                   0.319
REMARK UNBOUND:                -0.441
REMARK SMILES CC1=CCC[C@@H](C)C(=O)C[C@@H](C(C)C)C(=O)C1
REMARK SMILES IDX 8 1 9 2 6 3 7 4 5 5 4 6 3 7 2 8 1 9 10 11 11 12 15 13 16 14
REMARK SMILES IDX 17 15 12 17 13 18 14 19
REMARK H PARENT
REMARK Flexibility Score: 70.00
ROOT
ATOM      1  C   UNL     1     -12.533  13.114 -27.643  1.00  0.00     0.136 C 
ATOM      2  O   UNL     1     -12.505  14.300 -27.350  1.00  0.00    -0.299 OA
ENDROOT
BRANCH   1   3
ATOM      3  C   UNL     1     -12.646  12.074 -26.540  1.00  0.00     0.053 C 
ATOM      4  C   UNL     1     -11.373  12.058 -25.681  1.00  0.00     0.016 C 
BRANCH   3   5
ATOM      5  C   UNL     1     -12.923  10.681 -27.147  1.00  0.00     0.015 C 
BRANCH   5   6
ATOM      6  C   UNL     1     -14.309  10.138 -26.745  1.00  0.00     0.028 C 
BRANCH   6   7
ATOM      7  C   UNL     1     -15.396  11.114 -27.120  1.00  0.00    -0.028 C 
ATOM      8  C   UNL     1     -15.720  11.457 -28.389  1.00  0.00    -0.070 CG0
ATOM      9  C   UNL     1     -16.895  12.379 -28.597  1.00  0.00     0.039 C 
ATOM     10  G   UNL     1     -14.938  10.969 -29.598  1.00  0.00     0.000 G0
ENDBRANCH   6   7
ENDBRANCH   5   6
ENDBRANCH   3   5
ENDBRANCH   1   3
BRANCH   1  11
ATOM     11  C   UNL     1     -12.453  12.705 -29.097  1.00  0.00     0.087 C 
BRANCH  11  12
ATOM     12  C   UNL     1     -13.607  13.239 -30.004  1.00  0.00     0.066 C 
BRANCH  12  13
ATOM     13  C   UNL     1     -14.548  12.150 -30.508  1.00  0.00     0.140 C 
ATOM     14  O   UNL     1     -15.051  12.240 -31.619  1.00  0.00    -0.299 OA
BRANCH  13  15
ATOM     15  C   UNL     1     -14.944  10.998 -29.614  1.00  0.00     0.106 CG0
ATOM     16  G   UNL     1     -15.721  11.456 -28.390  1.00  0.00     0.000 G0
ENDBRANCH  13  15
ENDBRANCH  12  13
BRANCH  12  17
ATOM     17  C   UNL     1     -13.153  14.194 -31.157  1.00  0.00    -0.006 C 
ATOM     18  C   UNL     1     -11.653  14.536 -31.146  1.00  0.00     0.008 C 
ATOM     19  C   UNL     1     -13.981  15.491 -31.180  1.00  0.00     0.008 C 
ENDBRANCH  12  17
ENDBRANCH  11  12
ENDBRANCH   1  11
TORSDOF 1
ENDMDL
MODEL 4
REMARK VINA RESULT:    -3.816      1.714      4.102
REMARK INTER + INTRA:          -6.264
REMARK INTER:                  -5.969
REMARK INTRA:                  -0.296
REMARK UNBOUND:                -0.441
REMARK SMILES CC1=CCC[C@@H](C)C(=O)C[C@@H](C(C)C)C(=O)C1
REMARK SMILES IDX 8 1 9 2 6 3 7 4 5 5 4 6 3 7 2 8 1 9 10 11 11 12 15 13 16 14
REMARK SMILES IDX 17 15 12 17 13 18 14 19
REMARK H PARENT
REMARK Flexibility Score: 70.00
ROOT
ATOM      1  C   UNL     1     -13.157  14.287 -29.822  1.00  0.00     0.136 C 
ATOM      2  O   UNL     1     -13.492  15.459 -29.735  1.00  0.00    -0.299 OA
ENDROOT
BRANCH   1   3
ATOM      3  C   UNL     1     -13.008  13.652 -31.194  1.00  0.00     0.053 C 
ATOM      4  C   UNL     1     -11.811  14.257 -31.942  1.00  0.00     0.016 C 
BRANCH   3   5
ATOM      5  C   UNL     1     -14.311  13.822 -32.006  1.00  0.00     0.015 C 
BRANCH   5   6
ATOM      6  C   UNL     1     -15.321  12.691 -31.727  1.00  0.00     0.028 C 
BRANCH   6   7
ATOM      7  C   UNL     1     -16.377  13.142 -30.749  1.00  0.00    -0.028 C 
ATOM      8  C   UNL     1     -16.589  12.586 -29.534  1.00  0.00    -0.070 CG0
ATOM      9  C   UNL     1     -17.626  13.214 -28.638  1.00  0.00     0.039 C 
ATOM     10  G   UNL     1     -15.844  11.351 -29.052  1.00  0.00     0.000 G0
ENDBRANCH   6   7
ENDBRANCH   5   6
ENDBRANCH   3   5
ENDBRANCH   1   3
BRANCH   1  11
ATOM     11  C   UNL     1     -12.897  13.492 -28.562  1.00  0.00     0.087 C 
BRANCH  11  12
ATOM     12  C   UNL     1     -13.310  11.987 -28.624  1.00  0.00     0.066 C 
BRANCH  12  13
ATOM     13  C   UNL     1     -14.713  11.712 -28.092  1.00  0.00     0.140 C 
ATOM     14  O   UNL     1     -14.921  11.709 -26.887  1.00  0.00    -0.299 OA
BRANCH  13  15
ATOM     15  C   UNL     1     -15.838  11.351 -29.033  1.00  0.00     0.106 CG0
ATOM     16  G   UNL     1     -16.583  12.575 -29.542  1.00  0.00     0.000 G0
ENDBRANCH  13  15
ENDBRANCH  12  13
BRANCH  12  17
ATOM     17  C   UNL     1     -12.260  10.987 -28.037  1.00  0.00    -0.006 C 
ATOM     18  C   UNL     1     -11.627  11.438 -26.709  1.00  0.00     0.008 C 
ATOM     19  C   UNL     1     -11.154  10.662 -29.056  1.00  0.00     0.008 C 
ENDBRANCH  12  17
ENDBRANCH  11  12
ENDBRANCH   1  11
TORSDOF 1
ENDMDL
MODEL 5
REMARK VINA RESULT:    -3.764      1.820      2.334
REMARK INTER + INTRA:          -6.186
REMARK INTER:                  -6.205
REMARK INTRA:                   0.019
REMARK UNBOUND:                -0.441
REMARK SMILES CC1=CCC[C@@H](C)C(=O)C[C@@H](C(C)C)C(=O)C1
REMARK SMILES IDX 8 1 9 2 6 3 7 4 5 5 4 6 3 7 2 8 1 9 10 11 11 12 15 13 16 14
REMARK SMILES IDX 17 15 12 17 13 18 14 19
REMARK H PARENT
REMARK Flexibility Score: 70.00
ROOT
ATOM      1  C   UNL     1     -16.345  13.388 -29.905  1.00  0.00     0.136 C 
ATOM      2  O   UNL     1     -16.962  13.977 -29.029  1.00  0.00    -0.299 OA
ENDROOT
BRANCH   1   3
ATOM      3  C   UNL     1     -15.713  14.182 -31.036  1.00  0.00     0.053 C 
ATOM      4  C   UNL     1     -15.233  13.243 -32.152  1.00  0.00     0.016 C 
BRANCH   3   5
ATOM      5  C   UNL     1     -14.550  15.044 -30.499  1.00  0.00     0.015 C 
BRANCH   5   6
ATOM      6  C   UNL     1     -13.249  14.231 -30.342  1.00  0.00     0.028 C 
BRANCH   6   7
ATOM      7  C   UNL     1     -12.909  14.038 -28.886  1.00  0.00    -0.028 C 
ATOM      8  C   UNL     1     -12.925  12.848 -28.242  1.00  0.00    -0.070 CG0
ATOM      9  C   UNL     1     -12.470  12.813 -26.805  1.00  0.00     0.039 C 
ATOM     10  G   UNL     1     -13.403  11.563 -28.899  1.00  0.00     0.000 G0
ENDBRANCH   6   7
ENDBRANCH   5   6
ENDBRANCH   3   5
ENDBRANCH   1   3
BRANCH   1  11
ATOM     11  C   UNL     1     -16.225  11.881 -29.846  1.00  0.00     0.087 C 
BRANCH  11  12
ATOM     12  C   UNL     1     -15.979  11.287 -28.423  1.00  0.00     0.066 C 
BRANCH  12  13
ATOM     13  C   UNL     1     -14.532  10.878 -28.168  1.00  0.00     0.140 C 
ATOM     14  O   UNL     1     -14.271  10.057 -27.300  1.00  0.00    -0.299 OA
BRANCH  13  15
ATOM     15  C   UNL     1     -13.400  11.543 -28.914  1.00  0.00     0.106 CG0
ATOM     16  G   UNL     1     -12.938  12.827 -28.243  1.00  0.00     0.000 G0
ENDBRANCH  13  15
ENDBRANCH  12  13
BRANCH  12  17
ATOM     17  C   UNL     1     -16.984  10.168 -27.991  1.00  0.00    -0.006 C 
ATOM     18  C   UNL     1     -18.284  10.131 -28.812  1.00  0.00     0.008 C 
ATOM     19  C   UNL     1     -17.318  10.253 -26.492  1.00  0.00     0.008 C 
ENDBRANCH  12  17
ENDBRANCH  11  12
ENDBRANCH   1  11
TORSDOF 1
ENDMDL
MODEL 6
REMARK VINA RESULT:    -3.697      1.704      3.825
REMARK INTER + INTRA:          -6.084
REMARK INTER:                  -6.428
REMARK INTRA:                   0.344
REMARK UNBOUND:                -0.441
REMARK SMILES CC1=CCC[C@@H](C)C(=O)C[C@@H](C(C)C)C(=O)C1
REMARK SMILES IDX 8 1 9 2 6 3 7 4 5 5 4 6 3 7 2 8 1 9 10 11 11 12 15 13 16 14
REMARK SMILES IDX 17 15 12 17 13 18 14 19
REMARK H PARENT
REMARK Flexibility Score: 70.00
ROOT
ATOM      1  C   UNL     1     -16.654  13.007 -30.492  1.00  0.00     0.136 C 
ATOM      2  O   UNL     1     -17.012  13.416 -31.588  1.00  0.00    -0.299 OA
ENDROOT
BRANCH   1   3
ATOM      3  C   UNL     1     -17.596  12.141 -29.673  1.00  0.00     0.053 C 
ATOM      4  C   UNL     1     -19.057  12.435 -30.042  1.00  0.00     0.016 C 
BRANCH   3   5
ATOM      5  C   UNL     1     -17.351  12.365 -28.165  1.00  0.00     0.015 C 
BRANCH   5   6
ATOM      6  C   UNL     1     -16.880  11.079 -27.456  1.00  0.00     0.028 C 
BRANCH   6   7
ATOM      7  C   UNL     1     -15.447  11.209 -27.003  1.00  0.00    -0.028 C 
ATOM      8  C   UNL     1     -14.369  11.052 -27.805  1.00  0.00    -0.070 CG0
ATOM      9  C   UNL     1     -13.004  11.306 -27.216  1.00  0.00     0.039 C 
ATOM     10  G   UNL     1     -14.479  10.612 -29.256  1.00  0.00     0.000 G0
ENDBRANCH   6   7
ENDBRANCH   5   6
ENDBRANCH   3   5
ENDBRANCH   1   3
BRANCH   1  11
ATOM     11  C   UNL     1     -15.280  13.372 -29.975  1.00  0.00     0.087 C 
BRANCH  11  12
ATOM     12  C   UNL     1     -14.084  12.746 -30.759  1.00  0.00     0.066 C 
BRANCH  12  13
ATOM     13  C   UNL     1     -13.578  11.434 -30.166  1.00  0.00     0.140 C 
ATOM     14  O   UNL     1     -12.476  11.006 -30.476  1.00  0.00    -0.299 OA
BRANCH  13  15
ATOM     15  C   UNL     1     -14.462  10.604 -29.266  1.00  0.00     0.106 CG0
ATOM     16  G   UNL     1     -14.382  11.040 -27.811  1.00  0.00     0.000 G0
ENDBRANCH  13  15
ENDBRANCH  12  13
BRANCH  12  17
ATOM     17  C   UNL     1     -12.910  13.731 -31.074  1.00  0.00    -0.006 C 
ATOM     18  C   UNL     1     -12.135  14.212 -29.835  1.00  0.00     0.008 C 
ATOM     19  C   UNL     1     -13.390  14.945 -31.890  1.00  0.00     0.008 C 
ENDBRANCH  12  17
ENDBRANCH  11  12
ENDBRANCH   1  11
TORSDOF 1
ENDMDL
MODEL 7
REMARK VINA RESULT:    -3.357      1.764      3.897
REMARK INTER + INTRA:          -5.565
REMARK INTER:                  -5.402
REMARK INTRA:                  -0.163
REMARK UNBOUND:                -0.441
REMARK SMILES CC1=CCC[C@@H](C)C(=O)C[C@@H](C(C)C)C(=O)C1
REMARK SMILES IDX 8 1 9 2 6 3 7 4 5 5 4 6 3 7 2 8 1 9 10 11 11 12 15 13 16 14
REMARK SMILES IDX 17 15 12 17 13 18 14 19
REMARK H PARENT
REMARK Flexibility Score: 70.00
ROOT
ATOM      1  C   UNL     1     -16.953  13.035 -28.998  1.00  0.00     0.136 C 
ATOM      2  O   UNL     1     -17.903  13.556 -28.431  1.00  0.00    -0.299 OA
ENDROOT
BRANCH   1   3
ATOM      3  C   UNL     1     -17.025  11.566 -29.380  1.00  0.00     0.053 C 
ATOM      4  C   UNL     1     -18.364  11.250 -30.060  1.00  0.00     0.016 C 
BRANCH   3   5
ATOM      5  C   UNL     1     -16.814  10.679 -28.134  1.00  0.00     0.015 C 
BRANCH   5   6
ATOM      6  C   UNL     1     -15.402  10.061 -28.093  1.00  0.00     0.028 C 
BRANCH   6   7
ATOM      7  C   UNL     1     -14.556  10.721 -27.033  1.00  0.00    -0.028 C 
ATOM      8  C   UNL     1     -13.461  11.477 -27.281  1.00  0.00    -0.070 CG0
ATOM      9  C   UNL     1     -12.779  12.141 -26.112  1.00  0.00     0.039 C 
ATOM     10  G   UNL     1     -12.886  11.660 -28.677  1.00  0.00     0.000 G0
ENDBRANCH   6   7
ENDBRANCH   5   6
ENDBRANCH   3   5
ENDBRANCH   1   3
BRANCH   1  11
ATOM     11  C   UNL     1     -15.726  13.864 -29.307  1.00  0.00     0.087 C 
BRANCH  11  12
ATOM     12  C   UNL     1     -14.592  13.115 -30.076  1.00  0.00     0.066 C 
BRANCH  12  13
ATOM     13  C   UNL     1     -13.291  12.994 -29.288  1.00  0.00     0.140 C 
ATOM     14  O   UNL     1     -12.531  13.948 -29.210  1.00  0.00    -0.299 OA
BRANCH  13  15
ATOM     15  C   UNL     1     -12.881  11.676 -28.675  1.00  0.00     0.106 CG0
ATOM     16  G   UNL     1     -13.468  11.474 -27.286  1.00  0.00     0.000 G0
ENDBRANCH  13  15
ENDBRANCH  12  13
BRANCH  12  17
ATOM     17  C   UNL     1     -14.341  13.615 -31.537  1.00  0.00    -0.006 C 
ATOM     18  C   UNL     1     -13.953  15.100 -31.643  1.00  0.00     0.008 C 
ATOM     19  C   UNL     1     -15.544  13.326 -32.451  1.00  0.00     0.008 C 
ENDBRANCH  12  17
ENDBRANCH  11  12
ENDBRANCH   1  11
TORSDOF 1
ENDMDL
MODEL 8
REMARK VINA RESULT:    -3.207      1.690      3.872
REMARK INTER + INTRA:          -5.336
REMARK INTER:                  -5.809
REMARK INTRA:                   0.473
REMARK UNBOUND:                -0.441
REMARK SMILES CC1=CCC[C@@H](C)C(=O)C[C@@H](C(C)C)C(=O)C1
REMARK SMILES IDX 8 1 9 2 6 3 7 4 5 5 4 6 3 7 2 8 1 9 10 11 11 12 15 13 16 14
REMARK SMILES IDX 17 15 12 17 13 18 14 19
REMARK H PARENT
REMARK Flexibility Score: 70.00
ROOT
ATOM      1  C   UNL     1     -11.975  12.778 -31.174  1.00  0.00     0.136 C 
ATOM      2  O   UNL     1     -12.084  11.769 -31.855  1.00  0.00    -0.299 OA
ENDROOT
BRANCH   1   3
ATOM      3  C   UNL     1     -11.860  14.131 -31.856  1.00  0.00     0.053 C 
ATOM      4  C   UNL     1     -10.955  15.069 -31.045  1.00  0.00     0.016 C 
BRANCH   3   5
ATOM      5  C   UNL     1     -13.261  14.750 -32.056  1.00  0.00     0.015 C 
BRANCH   5   6
ATOM      6  C   UNL     1     -14.074  14.781 -30.746  1.00  0.00     0.028 C 
BRANCH   6   7
ATOM      7  C   UNL     1     -15.390  14.065 -30.914  1.00  0.00    -0.028 C 
ATOM      8  C   UNL     1     -15.851  13.097 -30.088  1.00  0.00    -0.070 CG0
ATOM      9  C   UNL     1     -17.231  12.545 -30.344  1.00  0.00     0.039 C 
ATOM     10  G   UNL     1     -15.030  12.536 -28.938  1.00  0.00     0.000 G0
ENDBRANCH   6   7
ENDBRANCH   5   6
ENDBRANCH   3   5
ENDBRANCH   1   3
BRANCH   1  11
ATOM     11  C   UNL     1     -11.958  12.660 -29.666  1.00  0.00     0.087 C 
BRANCH  11  12
ATOM     12  C   UNL     1     -12.666  11.394 -29.088  1.00  0.00     0.066 C 
BRANCH  12  13
ATOM     13  C   UNL     1     -14.169  11.357 -29.347  1.00  0.00     0.140 C 
ATOM     14  O   UNL     1     -14.662  10.420 -29.959  1.00  0.00    -0.299 OA
BRANCH  13  15
ATOM     15  C   UNL     1     -15.050  12.512 -28.936  1.00  0.00     0.106 CG0
ATOM     16  G   UNL     1     -15.848  13.076 -30.102  1.00  0.00     0.000 G0
ENDBRANCH  13  15
ENDBRANCH  12  13
BRANCH  12  17
ATOM     17  C   UNL     1     -12.326  11.069 -27.596  1.00  0.00    -0.006 C 
ATOM     18  C   UNL     1     -13.319  10.115 -26.911  1.00  0.00     0.008 C 
ATOM     19  C   UNL     1     -12.172  12.349 -26.757  1.00  0.00     0.008 C 
ENDBRANCH  12  17
ENDBRANCH  11  12
ENDBRANCH   1  11
TORSDOF 1
ENDMDL
MODEL 9
REMARK VINA RESULT:    -3.057      1.605      3.889
REMARK INTER + INTRA:          -5.106
REMARK INTER:                  -5.335
REMARK INTRA:                   0.229
REMARK UNBOUND:                -0.441
REMARK SMILES CC1=CCC[C@@H](C)C(=O)C[C@@H](C(C)C)C(=O)C1
REMARK SMILES IDX 8 1 9 2 6 3 7 4 5 5 4 6 3 7 2 8 1 9 10 11 11 12 15 13 16 14
REMARK SMILES IDX 17 15 12 17 13 18 14 19
REMARK H PARENT
REMARK Flexibility Score: 70.00
ROOT
ATOM      1  C   UNL     1     -14.328  10.829 -27.923  1.00  0.00     0.136 C 
ATOM      2  O   UNL     1     -15.033   9.908 -27.535  1.00  0.00    -0.299 OA
ENDROOT
BRANCH   1   3
ATOM      3  C   UNL     1     -12.820  10.651 -27.961  1.00  0.00     0.053 C 
ATOM      4  C   UNL     1     -12.155  11.442 -26.825  1.00  0.00     0.016 C 
BRANCH   3   5
ATOM      5  C   UNL     1     -12.266  11.085 -29.335  1.00  0.00     0.015 C 
BRANCH   5   6
ATOM      6  C   UNL     1     -11.693  12.516 -29.305  1.00  0.00     0.028 C 
BRANCH   6   7
ATOM      7  C   UNL     1     -11.709  13.129 -30.683  1.00  0.00    -0.028 C 
ATOM      8  C   UNL     1     -12.748  13.821 -31.206  1.00  0.00    -0.070 CG0
ATOM      9  C   UNL     1     -12.569  14.448 -32.565  1.00  0.00     0.039 C 
ATOM     10  G   UNL     1     -14.082  13.968 -30.492  1.00  0.00     0.000 G0
ENDBRANCH   6   7
ENDBRANCH   5   6
ENDBRANCH   3   5
ENDBRANCH   1   3
BRANCH   1  11
ATOM     11  C   UNL     1     -14.974  12.126 -28.357  1.00  0.00     0.087 C 
BRANCH  11  12
ATOM     12  C   UNL     1     -15.730  12.071 -29.722  1.00  0.00     0.066 C 
BRANCH  12  13
ATOM     13  C   UNL     1     -15.059  12.876 -30.831  1.00  0.00     0.140 C 
ATOM     14  O   UNL     1     -15.247  12.580 -32.002  1.00  0.00    -0.299 OA
BRANCH  13  15
ATOM     15  C   UNL     1     -14.088  13.984 -30.499  1.00  0.00     0.106 CG0
ATOM     16  G   UNL     1     -12.756  13.821 -31.213  1.00  0.00     0.000 G0
ENDBRANCH  13  15
ENDBRANCH  12  13
BRANCH  12  17
ATOM     17  C   UNL     1     -17.265  12.363 -29.640  1.00  0.00    -0.006 C 
ATOM     18  C   UNL     1     -17.635  13.580 -28.775  1.00  0.00     0.008 C 
ATOM     19  C   UNL     1     -18.053  11.129 -29.165  1.00  0.00     0.008 C 
ENDBRANCH  12  17
ENDBRANCH  11  12
ENDBRANCH   1  11
TORSDOF 1
ENDMDL
