MODEL 1
REMARK VINA RESULT:    -3.170      0.000      0.000
REMARK INTER + INTRA:          -4.474
REMARK INTER:                  -4.189
REMARK INTRA:                  -0.285
REMARK UNBOUND:                -0.285
REMARK SMILES CCCCCCCO
REMARK SMILES IDX 5 1 4 2 3 3 2 4 1 5 6 6 7 7 8 8
REMARK H PARENT 8 9
REMARK Flexibility Score: inf
ROOT
ATOM      1  C   UNL     1       1.851 -31.249  47.695  1.00  0.00     0.002 C 
ENDROOT
BRANCH   1   2
ATOM      2  C   UNL     1       1.048 -30.017  47.250  1.00  0.00     0.000 C 
BRANCH   2   3
ATOM      3  C   UNL     1       1.921 -28.956  46.563  1.00  0.00    -0.000 C 
BRANCH   3   4
ATOM      4  C   UNL     1       1.755 -29.013  45.039  1.00  0.00    -0.003 C 
ATOM      5  C   UNL     1       2.832 -29.882  44.399  1.00  0.00     0.004 C 
ENDBRANCH   3   4
ENDBRANCH   2   3
ENDBRANCH   1   2
BRANCH   1   6
ATOM      6  C   UNL     1       1.160 -32.572  47.324  1.00  0.00     0.028 C 
BRANCH   6   7
ATOM      7  C   UNL     1       0.501 -32.498  45.946  1.00  0.00     0.156 C 
BRANCH   7   8
ATOM      8  O   UNL     1       0.572 -33.744  45.310  1.00  0.00    -0.396 OA
ATOM      9  H   UNL     1       1.513 -33.846  45.012  1.00  0.00     0.210 HD
ENDBRANCH   7   8
ENDBRANCH   6   7
ENDBRANCH   1   6
TORSDOF 6
ENDMDL
MODEL 2
REMARK VINA RESULT:    -3.131      1.947      2.912
REMARK INTER + INTRA:          -4.423
REMARK INTER:                  -4.081
REMARK INTRA:                  -0.342
REMARK UNBOUND:                -0.285
REMARK SMILES CCCCCCCO
REMARK SMILES IDX 5 1 4 2 3 3 2 4 1 5 6 6 7 7 8 8
REMARK H PARENT 8 9
REMARK Flexibility Score: inf
ROOT
ATOM      1  C   UNL     1       0.066 -32.264  46.469  1.00  0.00     0.002 C 
ENDROOT
BRANCH   1   2
ATOM      2  C   UNL     1       0.298 -32.696  45.013  1.00  0.00     0.000 C 
BRANCH   2   3
ATOM      3  C   UNL     1       0.356 -31.506  44.043  1.00  0.00    -0.000 C 
BRANCH   3   4
ATOM      4  C   UNL     1       1.768 -30.909  43.993  1.00  0.00    -0.003 C 
ATOM      5  C   UNL     1       1.747 -29.417  44.310  1.00  0.00     0.004 C 
ENDBRANCH   3   4
ENDBRANCH   2   3
ENDBRANCH   1   2
BRANCH   1   6
ATOM      6  C   UNL     1       1.340 -32.364  47.326  1.00  0.00     0.028 C 
BRANCH   6   7
ATOM      7  C   UNL     1       1.701 -31.019  47.960  1.00  0.00     0.156 C 
BRANCH   7   8
ATOM      8  O   UNL     1       2.917 -30.553  47.442  1.00  0.00    -0.396 OA
ATOM      9  H   UNL     1       3.129 -31.141  46.671  1.00  0.00     0.210 HD
ENDBRANCH   7   8
ENDBRANCH   6   7
ENDBRANCH   1   6
TORSDOF 6
ENDMDL
MODEL 3
REMARK VINA RESULT:    -3.115      1.668      3.418
REMARK INTER + INTRA:          -4.401
REMARK INTER:                  -4.072
REMARK INTRA:                  -0.330
REMARK UNBOUND:                -0.285
REMARK SMILES CCCCCCCO
REMARK SMILES IDX 5 1 4 2 3 3 2 4 1 5 6 6 7 7 8 8
REMARK H PARENT 8 9
REMARK Flexibility Score: inf
ROOT
ATOM      1  C   UNL     1       2.176 -28.845  46.301  1.00  0.00     0.002 C 
ENDROOT
BRANCH   1   2
ATOM      2  C   UNL     1       0.805 -28.835  46.993  1.00  0.00     0.000 C 
BRANCH   2   3
ATOM      3  C   UNL     1       0.398 -30.218  47.523  1.00  0.00    -0.000 C 
BRANCH   3   4
ATOM      4  C   UNL     1       1.631 -31.097  47.762  1.00  0.00    -0.003 C 
ATOM      5  C   UNL     1       1.376 -32.535  47.321  1.00  0.00     0.004 C 
ENDBRANCH   3   4
ENDBRANCH   2   3
ENDBRANCH   1   2
BRANCH   1   6
ATOM      6  C   UNL     1       2.066 -28.867  44.767  1.00  0.00     0.028 C 
BRANCH   6   7
ATOM      7  C   UNL     1       2.187 -30.288  44.213  1.00  0.00     0.156 C 
BRANCH   7   8
ATOM      8  O   UNL     1       3.480 -30.783  44.432  1.00  0.00    -0.396 OA
ATOM      9  H   UNL     1       4.055 -29.988  44.583  1.00  0.00     0.210 HD
ENDBRANCH   7   8
ENDBRANCH   6   7
ENDBRANCH   1   6
TORSDOF 6
ENDMDL
MODEL 4
REMARK VINA RESULT:    -3.096      9.211     10.101
REMARK INTER + INTRA:          -4.377
REMARK INTER:                  -4.137
REMARK INTRA:                  -0.240
REMARK UNBOUND:                -0.285
REMARK SMILES CCCCCCCO
REMARK SMILES IDX 5 1 4 2 3 3 2 4 1 5 6 6 7 7 8 8
REMARK H PARENT 8 9
REMARK Flexibility Score: inf
ROOT
ATOM      1  C   UNL     1       8.219 -39.010  46.307  1.00  0.00     0.002 C 
ENDROOT
BRANCH   1   2
ATOM      2  C   UNL     1       9.660 -38.888  45.787  1.00  0.00     0.000 C 
BRANCH   2   3
ATOM      3  C   UNL     1      10.143 -37.432  45.717  1.00  0.00    -0.000 C 
BRANCH   3   4
ATOM      4  C   UNL     1      10.882 -37.037  47.002  1.00  0.00    -0.003 C 
ATOM      5  C   UNL     1      10.057 -36.059  47.834  1.00  0.00     0.004 C 
ENDBRANCH   3   4
ENDBRANCH   2   3
ENDBRANCH   1   2
BRANCH   1   6
ATOM      6  C   UNL     1       7.355 -37.788  45.951  1.00  0.00     0.028 C 
BRANCH   6   7
ATOM      7  C   UNL     1       5.933 -38.195  45.560  1.00  0.00     0.156 C 
BRANCH   7   8
ATOM      8  O   UNL     1       5.348 -37.200  44.766  1.00  0.00    -0.396 OA
ATOM      9  H   UNL     1       5.883 -36.378  44.919  1.00  0.00     0.210 HD
ENDBRANCH   7   8
ENDBRANCH   6   7
ENDBRANCH   1   6
TORSDOF 6
ENDMDL
MODEL 5
REMARK VINA RESULT:    -3.044      9.578     10.633
REMARK INTER + INTRA:          -4.308
REMARK INTER:                  -4.031
REMARK INTRA:                  -0.277
REMARK UNBOUND:                -0.285
REMARK SMILES CCCCCCCO
REMARK SMILES IDX 5 1 4 2 3 3 2 4 1 5 6 6 7 7 8 8
REMARK H PARENT 8 9
REMARK Flexibility Score: inf
ROOT
ATOM      1  C   UNL     1       7.481 -39.855  46.511  1.00  0.00     0.002 C 
ENDROOT
BRANCH   1   2
ATOM      2  C   UNL     1       8.370 -40.593  45.498  1.00  0.00     0.000 C 
BRANCH   2   3
ATOM      3  C   UNL     1       9.770 -39.973  45.376  1.00  0.00    -0.000 C 
BRANCH   3   4
ATOM      4  C   UNL     1       9.913 -38.755  46.296  1.00  0.00    -0.003 C 
ATOM      5  C   UNL     1      10.043 -37.467  45.490  1.00  0.00     0.004 C 
ENDBRANCH   3   4
ENDBRANCH   2   3
ENDBRANCH   1   2
BRANCH   1   6
ATOM      6  C   UNL     1       6.192 -39.305  45.877  1.00  0.00     0.028 C 
BRANCH   6   7
ATOM      7  C   UNL     1       6.315 -37.816  45.548  1.00  0.00     0.156 C 
BRANCH   7   8
ATOM      8  O   UNL     1       5.250 -37.413  44.731  1.00  0.00    -0.396 OA
ATOM      9  H   UNL     1       4.528 -37.124  45.347  1.00  0.00     0.210 HD
ENDBRANCH   7   8
ENDBRANCH   6   7
ENDBRANCH   1   6
TORSDOF 6
ENDMDL
MODEL 6
REMARK VINA RESULT:    -3.013     13.830     14.726
REMARK INTER + INTRA:          -4.267
REMARK INTER:                  -3.987
REMARK INTRA:                  -0.280
REMARK UNBOUND:                -0.285
REMARK SMILES CCCCCCCO
REMARK SMILES IDX 5 1 4 2 3 3 2 4 1 5 6 6 7 7 8 8
REMARK H PARENT 8 9
REMARK Flexibility Score: inf
ROOT
ATOM      1  C   UNL     1       9.262 -23.371  57.263  1.00  0.00     0.002 C 
ENDROOT
BRANCH   1   2
ATOM      2  C   UNL     1       8.715 -22.044  56.714  1.00  0.00     0.000 C 
BRANCH   2   3
ATOM      3  C   UNL     1       9.771 -21.242  55.940  1.00  0.00    -0.000 C 
BRANCH   3   4
ATOM      4  C   UNL     1       9.859 -21.714  54.484  1.00  0.00    -0.003 C 
ATOM      5  C   UNL     1       8.478 -22.039  53.924  1.00  0.00     0.004 C 
ENDBRANCH   3   4
ENDBRANCH   2   3
ENDBRANCH   1   2
BRANCH   1   6
ATOM      6  C   UNL     1       8.439 -24.587  56.803  1.00  0.00     0.028 C 
BRANCH   6   7
ATOM      7  C   UNL     1       9.248 -25.501  55.881  1.00  0.00     0.156 C 
BRANCH   7   8
ATOM      8  O   UNL     1      10.363 -26.008  56.562  1.00  0.00    -0.396 OA
ATOM      9  H   UNL     1      10.609 -26.849  56.096  1.00  0.00     0.210 HD
ENDBRANCH   7   8
ENDBRANCH   6   7
ENDBRANCH   1   6
TORSDOF 6
ENDMDL
MODEL 7
REMARK VINA RESULT:    -3.005      9.772     10.795
REMARK INTER + INTRA:          -4.257
REMARK INTER:                  -4.043
REMARK INTRA:                  -0.214
REMARK UNBOUND:                -0.285
REMARK SMILES CCCCCCCO
REMARK SMILES IDX 5 1 4 2 3 3 2 4 1 5 6 6 7 7 8 8
REMARK H PARENT 8 9
REMARK Flexibility Score: inf
ROOT
ATOM      1  C   UNL     1       7.718 -39.391  46.636  1.00  0.00     0.002 C 
ENDROOT
BRANCH   1   2
ATOM      2  C   UNL     1       8.746 -38.255  46.516  1.00  0.00     0.000 C 
BRANCH   2   3
ATOM      3  C   UNL     1       9.897 -38.595  45.559  1.00  0.00    -0.000 C 
BRANCH   3   4
ATOM      4  C   UNL     1       9.906 -40.091  45.221  1.00  0.00    -0.003 C 
ATOM      5  C   UNL     1      11.115 -40.788  45.838  1.00  0.00     0.004 C 
ENDBRANCH   3   4
ENDBRANCH   2   3
ENDBRANCH   1   2
BRANCH   1   6
ATOM      6  C   UNL     1       6.402 -39.079  45.904  1.00  0.00     0.028 C 
BRANCH   6   7
ATOM      7  C   UNL     1       6.323 -37.609  45.486  1.00  0.00     0.156 C 
BRANCH   7   8
ATOM      8  O   UNL     1       5.133 -37.371  44.785  1.00  0.00    -0.396 OA
ATOM      9  H   UNL     1       5.375 -37.392  43.822  1.00  0.00     0.210 HD
ENDBRANCH   7   8
ENDBRANCH   6   7
ENDBRANCH   1   6
TORSDOF 6
ENDMDL
MODEL 8
REMARK VINA RESULT:    -2.985      2.013      3.774
REMARK INTER + INTRA:          -4.230
REMARK INTER:                  -3.879
REMARK INTRA:                  -0.351
REMARK UNBOUND:                -0.285
REMARK SMILES CCCCCCCO
REMARK SMILES IDX 5 1 4 2 3 3 2 4 1 5 6 6 7 7 8 8
REMARK H PARENT 8 9
REMARK Flexibility Score: inf
ROOT
ATOM      1  C   UNL     1       0.007 -30.449  44.446  1.00  0.00     0.002 C 
ENDROOT
BRANCH   1   2
ATOM      2  C   UNL     1      -0.120 -30.897  45.910  1.00  0.00     0.000 C 
BRANCH   2   3
ATOM      3  C   UNL     1       0.260 -32.370  46.114  1.00  0.00    -0.000 C 
BRANCH   3   4
ATOM      4  C   UNL     1       1.184 -32.535  47.327  1.00  0.00    -0.003 C 
ATOM      5  C   UNL     1       1.823 -31.206  47.719  1.00  0.00     0.004 C 
ENDBRANCH   3   4
ENDBRANCH   2   3
ENDBRANCH   1   2
BRANCH   1   6
ATOM      6  C   UNL     1       1.356 -30.842  43.821  1.00  0.00     0.028 C 
BRANCH   6   7
ATOM      7  C   UNL     1       2.482 -29.913  44.277  1.00  0.00     0.156 C 
BRANCH   7   8
ATOM      8  O   UNL     1       3.686 -30.624  44.370  1.00  0.00    -0.396 OA
ATOM      9  H   UNL     1       4.216 -30.369  43.571  1.00  0.00     0.210 HD
ENDBRANCH   7   8
ENDBRANCH   6   7
ENDBRANCH   1   6
TORSDOF 6
ENDMDL
MODEL 9
REMARK VINA RESULT:    -2.921      1.970      2.376
REMARK INTER + INTRA:          -4.146
REMARK INTER:                  -3.817
REMARK INTRA:                  -0.329
REMARK UNBOUND:                -0.285
REMARK SMILES CCCCCCCO
REMARK SMILES IDX 5 1 4 2 3 3 2 4 1 5 6 6 7 7 8 8
REMARK H PARENT 8 9
REMARK Flexibility Score: inf
ROOT
ATOM      1  C   UNL     1       0.106 -29.496  47.303  1.00  0.00     0.002 C 
ENDROOT
BRANCH   1   2
ATOM      2  C   UNL     1       0.229 -28.486  46.152  1.00  0.00     0.000 C 
BRANCH   2   3
ATOM      3  C   UNL     1       1.583 -27.761  46.142  1.00  0.00    -0.000 C 
BRANCH   3   4
ATOM      4  C   UNL     1       2.175 -27.725  44.728  1.00  0.00    -0.003 C 
ATOM      5  C   UNL     1       2.578 -29.120  44.262  1.00  0.00     0.004 C 
ENDBRANCH   3   4
ENDBRANCH   2   3
ENDBRANCH   1   2
BRANCH   1   6
ATOM      6  C   UNL     1       0.630 -30.892  46.924  1.00  0.00     0.028 C 
BRANCH   6   7
ATOM      7  C   UNL     1       1.804 -31.313  47.809  1.00  0.00     0.156 C 
BRANCH   7   8
ATOM      8  O   UNL     1       2.942 -30.559  47.492  1.00  0.00    -0.396 OA
ATOM      9  H   UNL     1       3.279 -30.921  46.631  1.00  0.00     0.210 HD
ENDBRANCH   7   8
ENDBRANCH   6   7
ENDBRANCH   1   6
TORSDOF 6
ENDMDL
