MODEL 1
REMARK VINA RESULT:    -2.760      0.000      0.000
REMARK INTER + INTRA:          -2.760
REMARK INTER:                  -2.760
REMARK INTRA:                   0.000
REMARK UNBOUND:                 0.000
REMARK SMILES CC(=O)[O-]
REMARK SMILES IDX 1 1 2 2 3 3 4 4
REMARK H PARENT
REMARK Flexibility Score: inf
ROOT
ATOM      1  C   UNL     1      -1.542  -3.195   5.144  1.00  0.00     0.063 C 
ATOM      2  C   UNL     1      -1.537  -2.228   4.008  1.00  0.00     0.038 C 
ATOM      3  O   UNL     1      -1.311  -2.631   2.837  1.00  0.00    -0.550 OA
ATOM      4  O   UNL     1      -1.727  -0.873   4.246  1.00  0.00    -0.550 OA
ENDROOT
TORSDOF 0
ENDMDL
MODEL 2
REMARK VINA RESULT:    -2.742      1.432      2.093
REMARK INTER + INTRA:          -2.742
REMARK INTER:                  -2.742
REMARK INTRA:                   0.000
REMARK UNBOUND:                 0.000
REMARK SMILES CC(=O)[O-]
REMARK SMILES IDX 1 1 2 2 3 3 4 4
REMARK H PARENT
REMARK Flexibility Score: inf
ROOT
ATOM      1  C   UNL     1      -1.526  -1.081   4.459  1.00  0.00     0.063 C 
ATOM      2  C   UNL     1      -1.536  -2.545   4.176  1.00  0.00     0.038 C 
ATOM      3  O   UNL     1      -1.671  -3.370   5.118  1.00  0.00    -0.550 OA
ATOM      4  O   UNL     1      -1.341  -3.007   2.880  1.00  0.00    -0.550 OA
ENDROOT
TORSDOF 0
ENDMDL
MODEL 3
REMARK VINA RESULT:    -2.541      2.447      2.817
REMARK INTER + INTRA:          -2.541
REMARK INTER:                  -2.541
REMARK INTRA:                   0.000
REMARK UNBOUND:                 0.000
REMARK SMILES CC(=O)[O-]
REMARK SMILES IDX 1 1 2 2 3 3 4 4
REMARK H PARENT
REMARK Flexibility Score: inf
ROOT
ATOM      1  C   UNL     1      -1.280   0.041   6.923  1.00  0.00     0.063 C 
ATOM      2  C   UNL     1      -1.387  -0.884   5.758  1.00  0.00     0.038 C 
ATOM      3  O   UNL     1      -1.678  -0.433   4.619  1.00  0.00    -0.550 OA
ATOM      4  O   UNL     1      -1.221  -2.252   5.936  1.00  0.00    -0.550 OA
ENDROOT
TORSDOF 0
ENDMDL
MODEL 4
REMARK VINA RESULT:    -2.493      2.948      3.254
REMARK INTER + INTRA:          -2.493
REMARK INTER:                  -2.493
REMARK INTRA:                   0.000
REMARK UNBOUND:                 0.000
REMARK SMILES CC(=O)[O-]
REMARK SMILES IDX 1 1 2 2 3 3 4 4
REMARK H PARENT
REMARK Flexibility Score: inf
ROOT
ATOM      1  C   UNL     1      -1.148   0.077   7.757  1.00  0.00     0.063 C 
ATOM      2  C   UNL     1      -1.222  -0.209   6.296  1.00  0.00     0.038 C 
ATOM      3  O   UNL     1      -1.220  -1.400   5.885  1.00  0.00    -0.550 OA
ATOM      4  O   UNL     1      -1.237   0.836   5.380  1.00  0.00    -0.550 OA
ENDROOT
TORSDOF 0
ENDMDL
MODEL 5
REMARK VINA RESULT:    -2.263     12.408     12.928
REMARK INTER + INTRA:          -2.263
REMARK INTER:                  -2.263
REMARK INTRA:                   0.000
REMARK UNBOUND:                 0.000
REMARK SMILES CC(=O)[O-]
REMARK SMILES IDX 1 1 2 2 3 3 4 4
REMARK H PARENT
REMARK Flexibility Score: inf
ROOT
ATOM      1  C   UNL     1       5.025   7.642   4.038  1.00  0.00     0.063 C 
ATOM      2  C   UNL     1       5.165   8.727   5.052  1.00  0.00     0.038 C 
ATOM      3  O   UNL     1       6.301   9.195   5.323  1.00  0.00    -0.550 OA
ATOM      4  O   UNL     1       4.048   9.185   5.741  1.00  0.00    -0.550 OA
ENDROOT
TORSDOF 0
ENDMDL
MODEL 6
REMARK VINA RESULT:    -2.232     11.465     11.877
REMARK INTER + INTRA:          -2.232
REMARK INTER:                  -2.232
REMARK INTRA:                   0.000
REMARK UNBOUND:                 0.000
REMARK SMILES CC(=O)[O-]
REMARK SMILES IDX 1 1 2 2 3 3 4 4
REMARK H PARENT
REMARK Flexibility Score: inf
ROOT
ATOM      1  C   UNL     1      -8.520  -6.378  -5.064  1.00  0.00     0.063 C 
ATOM      2  C   UNL     1      -9.272  -5.534  -4.092  1.00  0.00     0.038 C 
ATOM      3  O   UNL     1      -9.285  -5.838  -2.870  1.00  0.00    -0.550 OA
ATOM      4  O   UNL     1     -10.005  -4.442  -4.538  1.00  0.00    -0.550 OA
ENDROOT
TORSDOF 0
ENDMDL
MODEL 7
REMARK VINA RESULT:    -2.144     11.110     11.284
REMARK INTER + INTRA:          -2.144
REMARK INTER:                  -2.144
REMARK INTRA:                   0.000
REMARK UNBOUND:                 0.000
REMARK SMILES CC(=O)[O-]
REMARK SMILES IDX 1 1 2 2 3 3 4 4
REMARK H PARENT
REMARK Flexibility Score: inf
ROOT
ATOM      1  C   UNL     1      -7.342   2.981  -3.752  1.00  0.00     0.063 C 
ATOM      2  C   UNL     1      -6.195   2.834  -4.692  1.00  0.00     0.038 C 
ATOM      3  O   UNL     1      -5.466   3.826  -4.960  1.00  0.00    -0.550 OA
ATOM      4  O   UNL     1      -5.958   1.617  -5.319  1.00  0.00    -0.550 OA
ENDROOT
TORSDOF 0
ENDMDL
MODEL 8
REMARK VINA RESULT:    -2.138     12.241     12.643
REMARK INTER + INTRA:          -2.138
REMARK INTER:                  -2.138
REMARK INTRA:                   0.000
REMARK UNBOUND:                 0.000
REMARK SMILES CC(=O)[O-]
REMARK SMILES IDX 1 1 2 2 3 3 4 4
REMARK H PARENT
REMARK Flexibility Score: inf
ROOT
ATOM      1  C   UNL     1       4.863   3.480  -4.244  1.00  0.00     0.063 C 
ATOM      2  C   UNL     1       4.582   2.963  -5.614  1.00  0.00     0.038 C 
ATOM      3  O   UNL     1       4.099   3.726  -6.491  1.00  0.00    -0.550 OA
ATOM      4  O   UNL     1       4.801   1.623  -5.911  1.00  0.00    -0.550 OA
ENDROOT
TORSDOF 0
ENDMDL
MODEL 9
REMARK VINA RESULT:    -2.042     10.759     11.385
REMARK INTER + INTRA:          -2.042
REMARK INTER:                  -2.042
REMARK INTRA:                   0.000
REMARK UNBOUND:                 0.000
REMARK SMILES CC(=O)[O-]
REMARK SMILES IDX 1 1 2 2 3 3 4 4
REMARK H PARENT
REMARK Flexibility Score: inf
ROOT
ATOM      1  C   UNL     1       4.115  -8.261  -5.166  1.00  0.00     0.063 C 
ATOM      2  C   UNL     1       4.244  -7.161  -4.168  1.00  0.00     0.038 C 
ATOM      3  O   UNL     1       3.216  -6.567  -3.745  1.00  0.00    -0.550 OA
ATOM      4  O   UNL     1       5.501  -6.750  -3.742  1.00  0.00    -0.550 OA
ENDROOT
TORSDOF 0
ENDMDL
