MODEL 1
REMARK VINA RESULT:    -4.813      0.000      0.000
REMARK INTER + INTRA:          -5.667
REMARK INTER:                  -5.517
REMARK INTRA:                  -0.150
REMARK UNBOUND:                -0.150
REMARK SMILES O=C([O-])C=Cc1ccc(O)cc1
REMARK SMILES IDX 6 1 7 2 12 3 8 4 11 5 9 6 5 7 4 8 2 9 1 10 3 11 10 12
REMARK H PARENT 10 13
REMARK Flexibility Score: inf
ROOT
ATOM      1  C   UNL     1      17.240  19.571  16.259  1.00  0.00    -0.025 A 
ATOM      2  C   UNL     1      17.690  20.309  17.374  1.00  0.00     0.012 A 
ATOM      3  C   UNL     1      17.184  18.170  16.352  1.00  0.00     0.012 A 
ATOM      4  C   UNL     1      18.094  19.652  18.540  1.00  0.00     0.047 A 
ATOM      5  C   UNL     1      17.591  17.517  17.519  1.00  0.00     0.047 A 
ATOM      6  C   UNL     1      18.048  18.255  18.615  1.00  0.00     0.115 A 
ENDROOT
BRANCH   1   7
ATOM      7  C   UNL     1      16.789  20.219  15.003  1.00  0.00     0.010 C 
ATOM      8  C   UNL     1      16.635  19.567  13.841  1.00  0.00     0.025 C 
BRANCH   8   9
ATOM      9  C   UNL     1      16.174  20.241  12.616  1.00  0.00     0.064 C 
ATOM     10  O   UNL     1      16.824  21.195  12.113  1.00  0.00    -0.545 OA
ATOM     11  O   UNL     1      15.001  19.818  12.005  1.00  0.00    -0.545 OA
ENDBRANCH   8   9
ENDBRANCH   1   7
BRANCH   6  12
ATOM     12  O   UNL     1      18.450  17.590  19.772  1.00  0.00    -0.508 OA
ATOM     13  H   UNL     1      19.203  16.911  19.756  1.00  0.00     0.293 HD
ENDBRANCH   6  12
TORSDOF 3
ENDMDL
MODEL 2
REMARK VINA RESULT:    -4.785      0.169      1.406
REMARK INTER + INTRA:          -5.635
REMARK INTER:                  -5.495
REMARK INTRA:                  -0.140
REMARK UNBOUND:                -0.150
REMARK SMILES O=C([O-])C=Cc1ccc(O)cc1
REMARK SMILES IDX 6 1 7 2 12 3 8 4 11 5 9 6 5 7 4 8 2 9 1 10 3 11 10 12
REMARK H PARENT 10 13
REMARK Flexibility Score: inf
ROOT
ATOM      1  C   UNL     1      17.253  19.389  16.177  1.00  0.00    -0.025 A 
ATOM      2  C   UNL     1      17.153  17.994  16.358  1.00  0.00     0.012 A 
ATOM      3  C   UNL     1      17.790  20.171  17.214  1.00  0.00     0.012 A 
ATOM      4  C   UNL     1      17.559  17.407  17.560  1.00  0.00     0.047 A 
ATOM      5  C   UNL     1      18.193  19.579  18.415  1.00  0.00     0.047 A 
ATOM      6  C   UNL     1      18.078  18.198  18.592  1.00  0.00     0.115 A 
ENDROOT
BRANCH   1   7
ATOM      7  C   UNL     1      16.848  20.062  14.918  1.00  0.00     0.010 C 
ATOM      8  C   UNL     1      16.524  19.407  13.793  1.00  0.00     0.025 C 
BRANCH   8   9
ATOM      9  C   UNL     1      16.115  20.110  12.565  1.00  0.00     0.064 C 
ATOM     10  O   UNL     1      16.747  21.116  12.148  1.00  0.00    -0.545 OA
ATOM     11  O   UNL     1      15.013  19.653  11.854  1.00  0.00    -0.545 OA
ENDBRANCH   8   9
ENDBRANCH   1   7
BRANCH   6  12
ATOM     12  O   UNL     1      18.485  17.623  19.795  1.00  0.00    -0.508 OA
ATOM     13  H   UNL     1      18.841  18.188  20.557  1.00  0.00     0.293 HD
ENDBRANCH   6  12
TORSDOF 3
ENDMDL
MODEL 3
REMARK VINA RESULT:    -4.698      3.198      4.133
REMARK INTER + INTRA:          -5.534
REMARK INTER:                  -5.391
REMARK INTRA:                  -0.143
REMARK UNBOUND:                -0.150
REMARK SMILES O=C([O-])C=Cc1ccc(O)cc1
REMARK SMILES IDX 6 1 7 2 12 3 8 4 11 5 9 6 5 7 4 8 2 9 1 10 3 11 10 12
REMARK H PARENT 10 13
REMARK Flexibility Score: inf
ROOT
ATOM      1  C   UNL     1      17.278  17.749  16.390  1.00  0.00    -0.025 A 
ATOM      2  C   UNL     1      17.269  19.093  15.961  1.00  0.00     0.012 A 
ATOM      3  C   UNL     1      17.631  17.464  17.720  1.00  0.00     0.012 A 
ATOM      4  C   UNL     1      17.628  20.118  16.842  1.00  0.00     0.047 A 
ATOM      5  C   UNL     1      17.991  18.492  18.596  1.00  0.00     0.047 A 
ATOM      6  C   UNL     1      17.992  19.820  18.160  1.00  0.00     0.115 A 
ENDROOT
BRANCH   1   7
ATOM      7  C   UNL     1      16.895  16.625  15.500  1.00  0.00     0.010 C 
ATOM      8  C   UNL     1      17.646  15.529  15.316  1.00  0.00     0.025 C 
BRANCH   8   9
ATOM      9  C   UNL     1      17.227  14.428  14.433  1.00  0.00     0.064 C 
ATOM     10  O   UNL     1      16.142  14.481  13.795  1.00  0.00    -0.545 OA
ATOM     11  O   UNL     1      18.043  13.312  14.301  1.00  0.00    -0.545 OA
ENDBRANCH   8   9
ENDBRANCH   1   7
BRANCH   6  12
ATOM     12  O   UNL     1      18.354  20.834  19.046  1.00  0.00    -0.508 OA
ATOM     13  H   UNL     1      19.112  20.712  19.707  1.00  0.00     0.293 HD
ENDBRANCH   6  12
TORSDOF 3
ENDMDL
MODEL 4
REMARK VINA RESULT:    -4.633      1.976      2.688
REMARK INTER + INTRA:          -5.460
REMARK INTER:                  -5.311
REMARK INTRA:                  -0.149
REMARK UNBOUND:                -0.150
REMARK SMILES O=C([O-])C=Cc1ccc(O)cc1
REMARK SMILES IDX 6 1 7 2 12 3 8 4 11 5 9 6 5 7 4 8 2 9 1 10 3 11 10 12
REMARK H PARENT 10 13
REMARK Flexibility Score: inf
ROOT
ATOM      1  C   UNL     1      15.952  18.836  16.440  1.00  0.00    -0.025 A 
ATOM      2  C   UNL     1      16.519  17.798  17.208  1.00  0.00     0.012 A 
ATOM      3  C   UNL     1      16.538  20.113  16.489  1.00  0.00     0.012 A 
ATOM      4  C   UNL     1      17.630  18.045  18.021  1.00  0.00     0.047 A 
ATOM      5  C   UNL     1      17.647  20.356  17.305  1.00  0.00     0.047 A 
ATOM      6  C   UNL     1      18.194  19.325  18.073  1.00  0.00     0.115 A 
ENDROOT
BRANCH   1   7
ATOM      7  C   UNL     1      14.782  18.625  15.552  1.00  0.00     0.010 C 
ATOM      8  C   UNL     1      14.578  19.302  14.413  1.00  0.00     0.025 C 
BRANCH   8   9
ATOM      9  C   UNL     1      13.410  19.056  13.551  1.00  0.00     0.064 C 
ATOM     10  O   UNL     1      12.319  18.650  14.032  1.00  0.00    -0.545 OA
ATOM     11  O   UNL     1      13.512  19.278  12.184  1.00  0.00    -0.545 OA
ENDBRANCH   8   9
ENDBRANCH   1   7
BRANCH   6  12
ATOM     12  O   UNL     1      19.300  19.584  18.882  1.00  0.00    -0.508 OA
ATOM     13  H   UNL     1      19.705  18.863  19.469  1.00  0.00     0.293 HD
ENDBRANCH   6  12
TORSDOF 3
ENDMDL
MODEL 5
REMARK VINA RESULT:    -4.608      3.142      4.132
REMARK INTER + INTRA:          -5.432
REMARK INTER:                  -5.292
REMARK INTRA:                  -0.140
REMARK UNBOUND:                -0.150
REMARK SMILES O=C([O-])C=Cc1ccc(O)cc1
REMARK SMILES IDX 6 1 7 2 12 3 8 4 11 5 9 6 5 7 4 8 2 9 1 10 3 11 10 12
REMARK H PARENT 10 13
REMARK Flexibility Score: inf
ROOT
ATOM      1  C   UNL     1      17.314  17.746  16.428  1.00  0.00    -0.025 A 
ATOM      2  C   UNL     1      17.664  17.469  17.766  1.00  0.00     0.012 A 
ATOM      3  C   UNL     1      17.306  19.083  15.993  1.00  0.00     0.012 A 
ATOM      4  C   UNL     1      17.974  18.511  18.646  1.00  0.00     0.047 A 
ATOM      5  C   UNL     1      17.614  20.121  16.877  1.00  0.00     0.047 A 
ATOM      6  C   UNL     1      17.947  19.839  18.204  1.00  0.00     0.115 A 
ENDROOT
BRANCH   1   7
ATOM      7  C   UNL     1      16.989  16.679  15.451  1.00  0.00     0.010 C 
ATOM      8  C   UNL     1      17.715  15.562  15.296  1.00  0.00     0.025 C 
BRANCH   8   9
ATOM      9  C   UNL     1      17.354  14.519  14.322  1.00  0.00     0.064 C 
ATOM     10  O   UNL     1      16.586  14.766  13.355  1.00  0.00    -0.545 OA
ATOM     11  O   UNL     1      17.871  13.238  14.472  1.00  0.00    -0.545 OA
ENDBRANCH   8   9
ENDBRANCH   1   7
BRANCH   6  12
ATOM     12  O   UNL     1      18.252  20.886  19.073  1.00  0.00    -0.508 OA
ATOM     13  H   UNL     1      18.213  20.765  20.079  1.00  0.00     0.293 HD
ENDBRANCH   6  12
TORSDOF 3
ENDMDL
MODEL 6
REMARK VINA RESULT:    -4.590      1.551      1.836
REMARK INTER + INTRA:          -5.411
REMARK INTER:                  -5.271
REMARK INTRA:                  -0.140
REMARK UNBOUND:                -0.150
REMARK SMILES O=C([O-])C=Cc1ccc(O)cc1
REMARK SMILES IDX 6 1 7 2 12 3 8 4 11 5 9 6 5 7 4 8 2 9 1 10 3 11 10 12
REMARK H PARENT 10 13
REMARK Flexibility Score: inf
ROOT
ATOM      1  C   UNL     1      17.380  18.823  16.069  1.00  0.00    -0.025 A 
ATOM      2  C   UNL     1      17.720  20.003  16.764  1.00  0.00     0.012 A 
ATOM      3  C   UNL     1      17.335  17.609  16.776  1.00  0.00     0.012 A 
ATOM      4  C   UNL     1      18.029  19.956  18.127  1.00  0.00     0.047 A 
ATOM      5  C   UNL     1      17.648  17.567  18.138  1.00  0.00     0.047 A 
ATOM      6  C   UNL     1      17.996  18.738  18.817  1.00  0.00     0.115 A 
ENDROOT
BRANCH   1   7
ATOM      7  C   UNL     1      17.032  18.819  14.627  1.00  0.00     0.010 C 
ATOM      8  C   UNL     1      17.598  18.004  13.725  1.00  0.00     0.025 C 
BRANCH   8   9
ATOM      9  C   UNL     1      17.218  18.020  12.303  1.00  0.00     0.064 C 
ATOM     10  O   UNL     1      16.458  17.140  11.821  1.00  0.00    -0.545 OA
ATOM     11  O   UNL     1      17.706  19.026  11.479  1.00  0.00    -0.545 OA
ENDBRANCH   8   9
ENDBRANCH   1   7
BRANCH   6  12
ATOM     12  O   UNL     1      18.304  18.680  20.175  1.00  0.00    -0.508 OA
ATOM     13  H   UNL     1      18.482  19.521  20.713  1.00  0.00     0.293 HD
ENDBRANCH   6  12
TORSDOF 3
ENDMDL
MODEL 7
REMARK VINA RESULT:    -4.482      8.396      9.516
REMARK INTER + INTRA:          -5.288
REMARK INTER:                  -5.134
REMARK INTRA:                  -0.154
REMARK UNBOUND:                -0.150
REMARK SMILES O=C([O-])C=Cc1ccc(O)cc1
REMARK SMILES IDX 6 1 7 2 12 3 8 4 11 5 9 6 5 7 4 8 2 9 1 10 3 11 10 12
REMARK H PARENT 10 13
REMARK Flexibility Score: inf
ROOT
ATOM      1  C   UNL     1      19.121  13.014  11.529  1.00  0.00    -0.025 A 
ATOM      2  C   UNL     1      18.733  14.196  12.193  1.00  0.00     0.012 A 
ATOM      3  C   UNL     1      20.260  13.042  10.705  1.00  0.00     0.012 A 
ATOM      4  C   UNL     1      19.457  15.379  12.012  1.00  0.00     0.047 A 
ATOM      5  C   UNL     1      20.979  14.227  10.525  1.00  0.00     0.047 A 
ATOM      6  C   UNL     1      20.580  15.398  11.176  1.00  0.00     0.115 A 
ENDROOT
BRANCH   1   7
ATOM      7  C   UNL     1      18.396  11.730  11.695  1.00  0.00     0.010 C 
ATOM      8  C   UNL     1      18.778  10.578  11.124  1.00  0.00     0.025 C 
BRANCH   8   9
ATOM      9  C   UNL     1      18.038   9.320  11.321  1.00  0.00     0.064 C 
ATOM     10  O   UNL     1      17.014   9.274  12.053  1.00  0.00    -0.545 OA
ATOM     11  O   UNL     1      18.477   8.165  10.688  1.00  0.00    -0.545 OA
ENDBRANCH   8   9
ENDBRANCH   1   7
BRANCH   6  12
ATOM     12  O   UNL     1      21.308  16.571  10.987  1.00  0.00    -0.508 OA
ATOM     13  H   UNL     1      21.029  17.442  11.425  1.00  0.00     0.293 HD
ENDBRANCH   6  12
TORSDOF 3
ENDMDL
MODEL 8
REMARK VINA RESULT:    -4.456      7.348      8.351
REMARK INTER + INTRA:          -5.258
REMARK INTER:                  -5.106
REMARK INTRA:                  -0.152
REMARK UNBOUND:                -0.150
REMARK SMILES O=C([O-])C=Cc1ccc(O)cc1
REMARK SMILES IDX 6 1 7 2 12 3 8 4 11 5 9 6 5 7 4 8 2 9 1 10 3 11 10 12
REMARK H PARENT 10 13
REMARK Flexibility Score: inf
ROOT
ATOM      1  C   UNL     1      17.928  13.085  13.308  1.00  0.00    -0.025 A 
ATOM      2  C   UNL     1      18.177  13.844  14.471  1.00  0.00     0.012 A 
ATOM      3  C   UNL     1      18.516  13.490  12.097  1.00  0.00     0.012 A 
ATOM      4  C   UNL     1      18.975  14.990  14.410  1.00  0.00     0.047 A 
ATOM      5  C   UNL     1      19.312  14.638  12.040  1.00  0.00     0.047 A 
ATOM      6  C   UNL     1      19.543  15.391  13.194  1.00  0.00     0.115 A 
ENDROOT
BRANCH   1   7
ATOM      7  C   UNL     1      17.099  11.855  13.319  1.00  0.00     0.010 C 
ATOM      8  C   UNL     1      17.141  10.919  12.360  1.00  0.00     0.025 C 
BRANCH   8   9
ATOM      9  C   UNL     1      16.310   9.704  12.411  1.00  0.00     0.064 C 
ATOM     10  O   UNL     1      15.988   9.180  13.510  1.00  0.00    -0.545 OA
ATOM     11  O   UNL     1      15.872   9.127  11.226  1.00  0.00    -0.545 OA
ENDBRANCH   8   9
ENDBRANCH   1   7
BRANCH   6  12
ATOM     12  O   UNL     1      20.339  16.533  13.122  1.00  0.00    -0.508 OA
ATOM     13  H   UNL     1      21.187  16.551  12.568  1.00  0.00     0.293 HD
ENDBRANCH   6  12
TORSDOF 3
ENDMDL
MODEL 9
REMARK VINA RESULT:    -4.394      6.323      8.623
REMARK INTER + INTRA:          -5.187
REMARK INTER:                  -5.046
REMARK INTRA:                  -0.141
REMARK UNBOUND:                -0.150
REMARK SMILES O=C([O-])C=Cc1ccc(O)cc1
REMARK SMILES IDX 6 1 7 2 12 3 8 4 11 5 9 6 5 7 4 8 2 9 1 10 3 11 10 12
REMARK H PARENT 10 13
REMARK Flexibility Score: inf
ROOT
ATOM      1  C   UNL     1      20.675  17.949   9.834  1.00  0.00    -0.025 A 
ATOM      2  C   UNL     1      20.395  17.987   8.452  1.00  0.00     0.012 A 
ATOM      3  C   UNL     1      20.980  19.151  10.497  1.00  0.00     0.012 A 
ATOM      4  C   UNL     1      20.444  19.197   7.754  1.00  0.00     0.047 A 
ATOM      5  C   UNL     1      21.030  20.358   9.794  1.00  0.00     0.047 A 
ATOM      6  C   UNL     1      20.763  20.385   8.422  1.00  0.00     0.115 A 
ENDROOT
BRANCH   1   7
ATOM      7  C   UNL     1      20.626  16.695  10.625  1.00  0.00     0.010 C 
ATOM      8  C   UNL     1      19.855  16.526  11.710  1.00  0.00     0.025 C 
BRANCH   8   9
ATOM      9  C   UNL     1      19.824  15.262  12.463  1.00  0.00     0.064 C 
ATOM     10  O   UNL     1      20.087  15.229  13.694  1.00  0.00    -0.545 OA
ATOM     11  O   UNL     1      19.498  14.084  11.804  1.00  0.00    -0.545 OA
ENDBRANCH   8   9
ENDBRANCH   1   7
BRANCH   6  12
ATOM     12  O   UNL     1      20.817  21.597   7.735  1.00  0.00    -0.508 OA
ATOM     13  H   UNL     1      20.124  21.838   7.035  1.00  0.00     0.293 HD
ENDBRANCH   6  12
TORSDOF 3
ENDMDL
