MODEL 1
REMARK VINA RESULT:    -6.046      0.000      0.000
REMARK INTER + INTRA:         -10.413
REMARK INTER:                  -8.873
REMARK INTRA:                  -1.540
REMARK UNBOUND:                -1.540
REMARK SMILES O=c1c(O[C@H]2O[C@H](CO)[C@H](O)[C@@H](O)[C@@H]2O)c(-c2ccc(O)c(O)c2)oc2cc(O)cc(O)c12
REMARK SMILES IDX 4 1 3 2 16 3 25 4 2 5 26 6 1 7 33 8 27 9 31 10 28 11 30 12
REMARK SMILES IDX 17 13 18 14 19 15 20 16 24 17 22 18 21 19 23 21 32 23 29 25
REMARK SMILES IDX 5 27 14 28 6 29 12 30 7 31 10 32 15 33 13 35 8 37 9 38 11 40
REMARK H PARENT 21 20 23 22 32 24 29 26 15 34 13 36 9 39 11 41
REMARK Flexibility Score: inf
ROOT
ATOM      1  O   UNL     1      17.030  -3.176 -14.101  1.00  0.00    -0.454 OA
ENDROOT
BRANCH   1   2
ATOM      2  C   UNL     1      17.680  -2.789 -15.278  1.00  0.00     0.214 A 
ATOM      3  C   UNL     1      17.849  -3.678 -16.361  1.00  0.00     0.180 A 
ATOM      4  O   UNL     1      18.399  -3.243 -17.491  1.00  0.00    -0.452 OA
ATOM      5  C   UNL     1      18.169  -1.483 -15.391  1.00  0.00     0.239 A 
ATOM      6  C   UNL     1      18.849  -2.003 -17.653  1.00  0.00     0.146 A 
ATOM      7  O   UNL     1      18.051  -0.696 -14.414  1.00  0.00    -0.285 OA
ATOM      8  C   UNL     1      18.765  -1.064 -16.597  1.00  0.00     0.111 A 
ATOM      9  C   UNL     1      19.415  -1.639 -18.877  1.00  0.00     0.094 A 
ATOM     10  C   UNL     1      19.266   0.245 -16.799  1.00  0.00     0.134 A 
ATOM     11  C   UNL     1      19.906  -0.347 -19.072  1.00  0.00     0.123 A 
ATOM     12  C   UNL     1      19.833   0.590 -18.035  1.00  0.00     0.093 A 
BRANCH   3  13
ATOM     13  C   UNL     1      17.442  -5.098 -16.283  1.00  0.00     0.025 A 
ATOM     14  C   UNL     1      18.399  -6.120 -16.156  1.00  0.00     0.016 A 
ATOM     15  C   UNL     1      17.998  -7.456 -16.086  1.00  0.00     0.051 A 
ATOM     16  C   UNL     1      16.639  -7.791 -16.160  1.00  0.00     0.157 A 
ATOM     17  C   UNL     1      16.084  -5.438 -16.381  1.00  0.00     0.062 A 
ATOM     18  C   UNL     1      15.679  -6.775 -16.312  1.00  0.00     0.158 A 
BRANCH  16  19
ATOM     19  O   UNL     1      16.241  -9.125 -16.086  1.00  0.00    -0.504 OA
ATOM     20  H   UNL     1      15.591  -9.522 -16.754  1.00  0.00     0.293 HD
ENDBRANCH  16  19
BRANCH  18  21
ATOM     21  O   UNL     1      14.320  -7.076 -16.396  1.00  0.00    -0.504 OA
ATOM     22  H   UNL     1      13.964  -8.010 -16.229  1.00  0.00     0.293 HD
ENDBRANCH  18  21
ENDBRANCH   3  13
BRANCH  10  23
ATOM     23  O   UNL     1      19.205   1.201 -15.785  1.00  0.00    -0.507 OA
ATOM     24  H   UNL     1      18.892   0.968 -14.850  1.00  0.00     0.293 HD
ENDBRANCH  10  23
BRANCH  11  25
ATOM     25  O   UNL     1      20.467  -0.003 -20.301  1.00  0.00    -0.508 OA
ATOM     26  H   UNL     1      20.896   0.902 -20.453  1.00  0.00     0.293 HD
ENDBRANCH  11  25
ENDBRANCH   1   2
BRANCH   1  27
ATOM     27  C   UNL     1      17.712  -3.801 -13.008  1.00  0.00     0.339 C 
ATOM     28  C   UNL     1      17.135  -5.204 -12.739  1.00  0.00     0.214 C 
ATOM     29  O   UNL     1      17.664  -2.985 -11.848  1.00  0.00    -0.332 OA
ATOM     30  C   UNL     1      15.717  -5.111 -12.139  1.00  0.00     0.180 C 
ATOM     31  C   UNL     1      16.330  -2.770 -11.418  1.00  0.00     0.179 C 
ATOM     32  C   UNL     1      15.683  -4.101 -10.972  1.00  0.00     0.177 C 
BRANCH  28  33
ATOM     33  O   UNL     1      17.989  -5.888 -11.858  1.00  0.00    -0.384 OA
ATOM     34  H   UNL     1      18.516  -6.527 -12.405  1.00  0.00     0.211 HD
ENDBRANCH  28  33
BRANCH  30  35
ATOM     35  O   UNL     1      14.812  -4.721 -13.143  1.00  0.00    -0.387 OA
ATOM     36  H   UNL     1      14.615  -5.531 -13.682  1.00  0.00     0.211 HD
ENDBRANCH  30  35
BRANCH  31  37
ATOM     37  C   UNL     1      16.346  -1.738 -10.284  1.00  0.00     0.191 C 
BRANCH  37  38
ATOM     38  O   UNL     1      17.456  -1.946  -9.454  1.00  0.00    -0.394 OA
ATOM     39  H   UNL     1      17.930  -1.074  -9.404  1.00  0.00     0.210 HD
ENDBRANCH  37  38
ENDBRANCH  31  37
BRANCH  32  40
ATOM     40  O   UNL     1      16.376  -4.622  -9.865  1.00  0.00    -0.387 OA
ATOM     41  H   UNL     1      17.000  -5.310 -10.214  1.00  0.00     0.211 HD
ENDBRANCH  32  40
ENDBRANCH   1  27
TORSDOF 12
ENDMDL
MODEL 2
REMARK VINA RESULT:    -5.938      3.662      6.869
REMARK INTER + INTRA:         -10.255
REMARK INTER:                  -9.682
REMARK INTRA:                  -0.573
REMARK UNBOUND:                -1.540
REMARK SMILES O=c1c(O[C@H]2O[C@H](CO)[C@H](O)[C@@H](O)[C@@H]2O)c(-c2ccc(O)c(O)c2)oc2cc(O)cc(O)c12
REMARK SMILES IDX 4 1 3 2 16 3 25 4 2 5 26 6 1 7 33 8 27 9 31 10 28 11 30 12
REMARK SMILES IDX 17 13 18 14 19 15 20 16 24 17 22 18 21 19 23 21 32 23 29 25
REMARK SMILES IDX 5 27 14 28 6 29 12 30 7 31 10 32 15 33 13 35 8 37 9 38 11 40
REMARK H PARENT 21 20 23 22 32 24 29 26 15 34 13 36 9 39 11 41
REMARK Flexibility Score: inf
ROOT
ATOM      1  O   UNL     1      16.113  -6.404 -13.349  1.00  0.00    -0.454 OA
ENDROOT
BRANCH   1   2
ATOM      2  C   UNL     1      16.196  -5.400 -12.377  1.00  0.00     0.214 A 
ATOM      3  C   UNL     1      15.158  -5.176 -11.449  1.00  0.00     0.180 A 
ATOM      4  O   UNL     1      15.315  -4.267 -10.491  1.00  0.00    -0.452 OA
ATOM      5  C   UNL     1      17.344  -4.602 -12.316  1.00  0.00     0.239 A 
ATOM      6  C   UNL     1      16.400  -3.509 -10.377  1.00  0.00     0.146 A 
ATOM      7  O   UNL     1      18.259  -4.776 -13.165  1.00  0.00    -0.285 OA
ATOM      8  C   UNL     1      17.466  -3.634 -11.299  1.00  0.00     0.111 A 
ATOM      9  C   UNL     1      16.474  -2.578  -9.338  1.00  0.00     0.094 A 
ATOM     10  C   UNL     1      18.602  -2.801 -11.157  1.00  0.00     0.134 A 
ATOM     11  C   UNL     1      17.596  -1.759  -9.200  1.00  0.00     0.123 A 
ATOM     12  C   UNL     1      18.655  -1.870 -10.108  1.00  0.00     0.093 A 
BRANCH   3  13
ATOM     13  C   UNL     1      13.878  -5.915 -11.507  1.00  0.00     0.025 A 
ATOM     14  C   UNL     1      13.831  -7.248 -11.949  1.00  0.00     0.016 A 
ATOM     15  C   UNL     1      12.614  -7.932 -12.000  1.00  0.00     0.051 A 
ATOM     16  C   UNL     1      11.426  -7.289 -11.626  1.00  0.00     0.157 A 
ATOM     17  C   UNL     1      12.684  -5.267 -11.156  1.00  0.00     0.062 A 
ATOM     18  C   UNL     1      11.463  -5.948 -11.206  1.00  0.00     0.158 A 
BRANCH  16  19
ATOM     19  O   UNL     1      10.213  -7.975 -11.673  1.00  0.00    -0.504 OA
ATOM     20  H   UNL     1      10.177  -8.987 -11.673  1.00  0.00     0.293 HD
ENDBRANCH  16  19
BRANCH  18  21
ATOM     21  O   UNL     1      10.298  -5.278 -10.835  1.00  0.00    -0.504 OA
ATOM     22  H   UNL     1       9.650  -4.906 -11.519  1.00  0.00     0.293 HD
ENDBRANCH  18  21
ENDBRANCH   3  13
BRANCH  10  23
ATOM     23  O   UNL     1      19.674  -2.890 -12.045  1.00  0.00    -0.507 OA
ATOM     24  H   UNL     1      19.533  -3.044 -13.037  1.00  0.00     0.293 HD
ENDBRANCH  10  23
BRANCH  11  25
ATOM     25  O   UNL     1      17.650  -0.836  -8.157  1.00  0.00    -0.508 OA
ATOM     26  H   UNL     1      18.121  -1.048  -7.285  1.00  0.00     0.293 HD
ENDBRANCH  11  25
ENDBRANCH   1   2
BRANCH   1  27
ATOM     27  C   UNL     1      15.845  -6.127 -14.729  1.00  0.00     0.339 C 
ATOM     28  C   UNL     1      14.907  -7.195 -15.324  1.00  0.00     0.214 C 
ATOM     29  O   UNL     1      17.051  -6.020 -15.467  1.00  0.00    -0.332 OA
ATOM     30  C   UNL     1      15.633  -8.548 -15.469  1.00  0.00     0.180 C 
ATOM     31  C   UNL     1      17.788  -7.232 -15.437  1.00  0.00     0.179 C 
ATOM     32  C   UNL     1      17.006  -8.360 -16.148  1.00  0.00     0.177 C 
BRANCH  28  33
ATOM     33  O   UNL     1      14.450  -6.754 -16.578  1.00  0.00    -0.384 OA
ATOM     34  H   UNL     1      14.098  -7.552 -17.053  1.00  0.00     0.211 HD
ENDBRANCH  28  33
BRANCH  30  35
ATOM     35  O   UNL     1      15.797  -9.125 -14.197  1.00  0.00    -0.387 OA
ATOM     36  H   UNL     1      16.774  -9.181 -14.030  1.00  0.00     0.211 HD
ENDBRANCH  30  35
BRANCH  31  37
ATOM     37  C   UNL     1      19.153  -6.986 -16.092  1.00  0.00     0.191 C 
BRANCH  37  38
ATOM     38  O   UNL     1      19.020  -6.106 -17.174  1.00  0.00    -0.394 OA
ATOM     39  H   UNL     1      18.573  -5.294 -16.815  1.00  0.00     0.210 HD
ENDBRANCH  37  38
ENDBRANCH  31  37
BRANCH  32  40
ATOM     40  O   UNL     1      16.831  -8.038 -17.506  1.00  0.00    -0.387 OA
ATOM     41  H   UNL     1      16.201  -7.272 -17.540  1.00  0.00     0.211 HD
ENDBRANCH  32  40
ENDBRANCH   1  27
TORSDOF 12
ENDMDL
MODEL 3
REMARK VINA RESULT:    -5.861      2.148      6.284
REMARK INTER + INTRA:         -10.142
REMARK INTER:                  -8.706
REMARK INTRA:                  -1.436
REMARK UNBOUND:                -1.540
REMARK SMILES O=c1c(O[C@H]2O[C@H](CO)[C@H](O)[C@@H](O)[C@@H]2O)c(-c2ccc(O)c(O)c2)oc2cc(O)cc(O)c12
REMARK SMILES IDX 4 1 3 2 16 3 25 4 2 5 26 6 1 7 33 8 27 9 31 10 28 11 30 12
REMARK SMILES IDX 17 13 18 14 19 15 20 16 24 17 22 18 21 19 23 21 32 23 29 25
REMARK SMILES IDX 5 27 14 28 6 29 12 30 7 31 10 32 15 33 13 35 8 37 9 38 11 40
REMARK H PARENT 21 20 23 22 32 24 29 26 15 34 13 36 9 39 11 41
REMARK Flexibility Score: inf
ROOT
ATOM      1  O   UNL     1      17.508  -2.908 -12.016  1.00  0.00    -0.454 OA
ENDROOT
BRANCH   1   2
ATOM      2  C   UNL     1      17.136  -3.638 -13.151  1.00  0.00     0.214 A 
ATOM      3  C   UNL     1      16.895  -3.011 -14.392  1.00  0.00     0.180 A 
ATOM      4  O   UNL     1      16.625  -3.752 -15.463  1.00  0.00    -0.452 OA
ATOM      5  C   UNL     1      17.010  -5.028 -13.058  1.00  0.00     0.239 A 
ATOM      6  C   UNL     1      16.526  -5.077 -15.427  1.00  0.00     0.146 A 
ATOM      7  O   UNL     1      17.191  -5.588 -11.943  1.00  0.00    -0.285 OA
ATOM      8  C   UNL     1      16.702  -5.779 -14.210  1.00  0.00     0.111 A 
ATOM      9  C   UNL     1      16.237  -5.770 -16.605  1.00  0.00     0.094 A 
ATOM     10  C   UNL     1      16.576  -7.189 -14.205  1.00  0.00     0.134 A 
ATOM     11  C   UNL     1      16.114  -7.161 -16.595  1.00  0.00     0.123 A 
ATOM     12  C   UNL     1      16.282  -7.866 -15.398  1.00  0.00     0.093 A 
BRANCH   3  13
ATOM     13  C   UNL     1      16.919  -1.541 -14.548  1.00  0.00     0.025 A 
ATOM     14  C   UNL     1      15.777  -0.765 -14.287  1.00  0.00     0.016 A 
ATOM     15  C   UNL     1      15.816   0.622 -14.441  1.00  0.00     0.051 A 
ATOM     16  C   UNL     1      16.990   1.253 -14.875  1.00  0.00     0.157 A 
ATOM     17  C   UNL     1      18.086  -0.909 -15.005  1.00  0.00     0.062 A 
ATOM     18  C   UNL     1      18.129   0.480 -15.162  1.00  0.00     0.158 A 
BRANCH  16  19
ATOM     19  O   UNL     1      17.028   2.638 -15.024  1.00  0.00    -0.504 OA
ATOM     20  H   UNL     1      17.821   3.184 -14.709  1.00  0.00     0.293 HD
ENDBRANCH  16  19
BRANCH  18  21
ATOM     21  O   UNL     1      19.310   1.076 -15.602  1.00  0.00    -0.504 OA
ATOM     22  H   UNL     1      19.850   1.699 -15.014  1.00  0.00     0.293 HD
ENDBRANCH  18  21
ENDBRANCH   3  13
BRANCH  10  23
ATOM     23  O   UNL     1      16.740  -7.919 -13.027  1.00  0.00    -0.507 OA
ATOM     24  H   UNL     1      16.224  -8.774 -12.853  1.00  0.00     0.293 HD
ENDBRANCH  10  23
BRANCH  11  25
ATOM     25  O   UNL     1      15.825  -7.834 -17.780  1.00  0.00    -0.508 OA
ATOM     26  H   UNL     1      16.543  -8.319 -18.303  1.00  0.00     0.293 HD
ENDBRANCH  11  25
ENDBRANCH   1   2
BRANCH   1  27
ATOM     27  C   UNL     1      16.579  -2.551 -10.986  1.00  0.00     0.339 C 
ATOM     28  C   UNL     1      16.291  -1.038 -11.015  1.00  0.00     0.214 C 
ATOM     29  O   UNL     1      17.049  -2.969  -9.714  1.00  0.00    -0.332 OA
ATOM     30  C   UNL     1      17.520  -0.233 -10.545  1.00  0.00     0.180 C 
ATOM     31  C   UNL     1      18.277  -2.342  -9.382  1.00  0.00     0.179 C 
ATOM     32  C   UNL     1      18.085  -0.816  -9.232  1.00  0.00     0.177 C 
BRANCH  28  33
ATOM     33  O   UNL     1      15.189  -0.766 -10.187  1.00  0.00    -0.384 OA
ATOM     34  H   UNL     1      14.882   0.152 -10.408  1.00  0.00     0.211 HD
ENDBRANCH  28  33
BRANCH  30  35
ATOM     35  O   UNL     1      18.505  -0.260 -11.549  1.00  0.00    -0.387 OA
ATOM     36  H   UNL     1      19.345   0.071 -11.137  1.00  0.00     0.211 HD
ENDBRANCH  30  35
BRANCH  31  37
ATOM     37  C   UNL     1      18.812  -2.977  -8.092  1.00  0.00     0.191 C 
BRANCH  37  38
ATOM     38  O   UNL     1      17.751  -3.442  -7.304  1.00  0.00    -0.394 OA
ATOM     39  H   UNL     1      17.721  -2.850  -6.506  1.00  0.00     0.210 HD
ENDBRANCH  37  38
ENDBRANCH  31  37
BRANCH  32  40
ATOM     40  O   UNL     1      17.204  -0.548  -8.169  1.00  0.00    -0.387 OA
ATOM     41  H   UNL     1      16.638   0.218  -8.451  1.00  0.00     0.211 HD
ENDBRANCH  32  40
ENDBRANCH   1  27
TORSDOF 12
ENDMDL
MODEL 4
REMARK VINA RESULT:    -5.839      3.722      5.677
REMARK INTER + INTRA:         -10.110
REMARK INTER:                  -8.322
REMARK INTRA:                  -1.788
REMARK UNBOUND:                -1.540
REMARK SMILES O=c1c(O[C@H]2O[C@H](CO)[C@H](O)[C@@H](O)[C@@H]2O)c(-c2ccc(O)c(O)c2)oc2cc(O)cc(O)c12
REMARK SMILES IDX 4 1 3 2 16 3 25 4 2 5 26 6 1 7 33 8 27 9 31 10 28 11 30 12
REMARK SMILES IDX 17 13 18 14 19 15 20 16 24 17 22 18 21 19 23 21 32 23 29 25
REMARK SMILES IDX 5 27 14 28 6 29 12 30 7 31 10 32 15 33 13 35 8 37 9 38 11 40
REMARK H PARENT 21 20 23 22 32 24 29 26 15 34 13 36 9 39 11 41
REMARK Flexibility Score: inf
ROOT
ATOM      1  O   UNL     1      19.496   1.054 -13.932  1.00  0.00    -0.454 OA
ENDROOT
BRANCH   1   2
ATOM      2  C   UNL     1      19.449   0.598 -15.255  1.00  0.00     0.214 A 
ATOM      3  C   UNL     1      18.378  -0.185 -15.734  1.00  0.00     0.180 A 
ATOM      4  O   UNL     1      18.334  -0.526 -17.018  1.00  0.00    -0.452 OA
ATOM      5  C   UNL     1      20.487   0.934 -16.130  1.00  0.00     0.239 A 
ATOM      6  C   UNL     1      19.282  -0.202 -17.891  1.00  0.00     0.146 A 
ATOM      7  O   UNL     1      21.463   1.604 -15.697  1.00  0.00    -0.285 OA
ATOM      8  C   UNL     1      20.416   0.537 -17.480  1.00  0.00     0.111 A 
ATOM      9  C   UNL     1      19.149  -0.608 -19.222  1.00  0.00     0.094 A 
ATOM     10  C   UNL     1      21.414   0.853 -18.433  1.00  0.00     0.134 A 
ATOM     11  C   UNL     1      20.135  -0.293 -20.159  1.00  0.00     0.123 A 
ATOM     12  C   UNL     1      21.264   0.434 -19.764  1.00  0.00     0.093 A 
BRANCH   3  13
ATOM     13  C   UNL     1      17.291  -0.657 -14.848  1.00  0.00     0.025 A 
ATOM     14  C   UNL     1      17.377  -1.898 -14.194  1.00  0.00     0.016 A 
ATOM     15  C   UNL     1      16.341  -2.330 -13.362  1.00  0.00     0.051 A 
ATOM     16  C   UNL     1      15.198  -1.538 -13.187  1.00  0.00     0.157 A 
ATOM     17  C   UNL     1      16.135   0.123 -14.689  1.00  0.00     0.062 A 
ATOM     18  C   UNL     1      15.095  -0.307 -13.859  1.00  0.00     0.158 A 
BRANCH  16  19
ATOM     19  O   UNL     1      14.168  -1.969 -12.353  1.00  0.00    -0.504 OA
ATOM     20  H   UNL     1      13.749  -1.354 -11.666  1.00  0.00     0.293 HD
ENDBRANCH  16  19
BRANCH  18  21
ATOM     21  O   UNL     1      13.968   0.500 -13.711  1.00  0.00    -0.504 OA
ATOM     22  H   UNL     1      13.044   0.190 -13.987  1.00  0.00     0.293 HD
ENDBRANCH  18  21
ENDBRANCH   3  13
BRANCH  10  23
ATOM     23  O   UNL     1      22.549   1.579 -18.070  1.00  0.00    -0.507 OA
ATOM     24  H   UNL     1      23.284   1.790 -18.736  1.00  0.00     0.293 HD
ENDBRANCH  10  23
BRANCH  11  25
ATOM     25  O   UNL     1      19.985  -0.708 -21.480  1.00  0.00    -0.508 OA
ATOM     26  H   UNL     1      20.531  -1.471 -21.861  1.00  0.00     0.293 HD
ENDBRANCH  11  25
ENDBRANCH   1   2
BRANCH   1  27
ATOM     27  C   UNL     1      19.003   2.339 -13.537  1.00  0.00     0.339 C 
ATOM     28  C   UNL     1      20.067   3.103 -12.725  1.00  0.00     0.214 C 
ATOM     29  O   UNL     1      17.786   2.215 -12.818  1.00  0.00    -0.332 OA
ATOM     30  C   UNL     1      20.264   2.463 -11.335  1.00  0.00     0.180 C 
ATOM     31  C   UNL     1      17.961   1.469 -11.625  1.00  0.00     0.179 C 
ATOM     32  C   UNL     1      18.902   2.214 -10.651  1.00  0.00     0.177 C 
BRANCH  28  33
ATOM     33  O   UNL     1      19.664   4.442 -12.589  1.00  0.00    -0.384 OA
ATOM     34  H   UNL     1      18.679   4.435 -12.466  1.00  0.00     0.211 HD
ENDBRANCH  28  33
BRANCH  30  35
ATOM     35  O   UNL     1      20.963   1.252 -11.476  1.00  0.00    -0.387 OA
ATOM     36  H   UNL     1      20.529   0.753 -12.216  1.00  0.00     0.211 HD
ENDBRANCH  30  35
BRANCH  31  37
ATOM     37  C   UNL     1      16.582   1.220 -11.002  1.00  0.00     0.191 C 
BRANCH  37  38
ATOM     38  O   UNL     1      15.657   2.157 -11.481  1.00  0.00    -0.394 OA
ATOM     39  H   UNL     1      15.679   2.917 -10.842  1.00  0.00     0.210 HD
ENDBRANCH  37  38
ENDBRANCH  31  37
BRANCH  32  40
ATOM     40  O   UNL     1      18.324   3.438 -10.270  1.00  0.00    -0.387 OA
ATOM     41  H   UNL     1      17.355   3.374 -10.475  1.00  0.00     0.211 HD
ENDBRANCH  32  40
ENDBRANCH   1  27
TORSDOF 12
ENDMDL
MODEL 5
REMARK VINA RESULT:    -5.815      2.102      6.161
REMARK INTER + INTRA:         -10.075
REMARK INTER:                  -8.816
REMARK INTRA:                  -1.259
REMARK UNBOUND:                -1.540
REMARK SMILES O=c1c(O[C@H]2O[C@H](CO)[C@H](O)[C@@H](O)[C@@H]2O)c(-c2ccc(O)c(O)c2)oc2cc(O)cc(O)c12
REMARK SMILES IDX 4 1 3 2 16 3 25 4 2 5 26 6 1 7 33 8 27 9 31 10 28 11 30 12
REMARK SMILES IDX 17 13 18 14 19 15 20 16 24 17 22 18 21 19 23 21 32 23 29 25
REMARK SMILES IDX 5 27 14 28 6 29 12 30 7 31 10 32 15 33 13 35 8 37 9 38 11 40
REMARK H PARENT 21 20 23 22 32 24 29 26 15 34 13 36 9 39 11 41
REMARK Flexibility Score: inf
ROOT
ATOM      1  O   UNL     1      16.319  -3.230 -12.065  1.00  0.00    -0.454 OA
ENDROOT
BRANCH   1   2
ATOM      2  C   UNL     1      16.220  -3.957 -13.257  1.00  0.00     0.214 A 
ATOM      3  C   UNL     1      16.512  -3.377 -14.509  1.00  0.00     0.180 A 
ATOM      4  O   UNL     1      16.484  -4.128 -15.606  1.00  0.00    -0.452 OA
ATOM      5  C   UNL     1      15.830  -5.300 -13.207  1.00  0.00     0.239 A 
ATOM      6  C   UNL     1      16.150  -5.414 -15.601  1.00  0.00     0.146 A 
ATOM      7  O   UNL     1      15.535  -5.813 -12.093  1.00  0.00    -0.285 OA
ATOM      8  C   UNL     1      15.792  -6.060 -14.393  1.00  0.00     0.111 A 
ATOM      9  C   UNL     1      16.147  -6.122 -16.805  1.00  0.00     0.094 A 
ATOM     10  C   UNL     1      15.428  -7.427 -14.425  1.00  0.00     0.134 A 
ATOM     11  C   UNL     1      15.789  -7.471 -16.832  1.00  0.00     0.123 A 
ATOM     12  C   UNL     1      15.429  -8.119 -15.646  1.00  0.00     0.093 A 
BRANCH   3  13
ATOM     13  C   UNL     1      16.842  -1.942 -14.653  1.00  0.00     0.025 A 
ATOM     14  C   UNL     1      16.035  -0.951 -14.068  1.00  0.00     0.016 A 
ATOM     15  C   UNL     1      16.359   0.400 -14.216  1.00  0.00     0.051 A 
ATOM     16  C   UNL     1      17.483   0.780 -14.962  1.00  0.00     0.157 A 
ATOM     17  C   UNL     1      17.952  -1.557 -15.420  1.00  0.00     0.062 A 
ATOM     18  C   UNL     1      18.280  -0.206 -15.570  1.00  0.00     0.158 A 
BRANCH  16  19
ATOM     19  O   UNL     1      17.806   2.128 -15.104  1.00  0.00    -0.504 OA
ATOM     20  H   UNL     1      18.585   2.542 -14.605  1.00  0.00     0.293 HD
ENDBRANCH  16  19
BRANCH  18  21
ATOM     21  O   UNL     1      19.399   0.140 -16.326  1.00  0.00    -0.504 OA
ATOM     22  H   UNL     1      19.584  -0.269 -17.234  1.00  0.00     0.293 HD
ENDBRANCH  18  21
ENDBRANCH   3  13
BRANCH  10  23
ATOM     23  O   UNL     1      15.067  -8.101 -13.258  1.00  0.00    -0.507 OA
ATOM     24  H   UNL     1      14.854  -7.606 -12.400  1.00  0.00     0.293 HD
ENDBRANCH  10  23
BRANCH  11  25
ATOM     25  O   UNL     1      15.792  -8.158 -18.044  1.00  0.00    -0.508 OA
ATOM     26  H   UNL     1      16.137  -7.731 -18.895  1.00  0.00     0.293 HD
ENDBRANCH  11  25
ENDBRANCH   1   2
BRANCH   1  27
ATOM     27  C   UNL     1      17.309  -3.506 -11.068  1.00  0.00     0.339 C 
ATOM     28  C   UNL     1      16.739  -3.265  -9.656  1.00  0.00     0.214 C 
ATOM     29  O   UNL     1      18.484  -2.745 -11.295  1.00  0.00    -0.332 OA
ATOM     30  C   UNL     1      16.527  -1.759  -9.398  1.00  0.00     0.180 C 
ATOM     31  C   UNL     1      18.222  -1.353 -11.225  1.00  0.00     0.179 C 
ATOM     32  C   UNL     1      17.782  -0.954  -9.797  1.00  0.00     0.177 C 
BRANCH  28  33
ATOM     33  O   UNL     1      17.628  -3.798  -8.707  1.00  0.00    -0.384 OA
ATOM     34  H   UNL     1      17.486  -3.293  -7.864  1.00  0.00     0.211 HD
ENDBRANCH  28  33
BRANCH  30  35
ATOM     35  O   UNL     1      15.413  -1.314 -10.133  1.00  0.00    -0.387 OA
ATOM     36  H   UNL     1      15.541  -0.342 -10.289  1.00  0.00     0.211 HD
ENDBRANCH  30  35
BRANCH  31  37
ATOM     37  C   UNL     1      19.485  -0.599 -11.661  1.00  0.00     0.191 C 
BRANCH  37  38
ATOM     38  O   UNL     1      20.630  -1.278 -11.223  1.00  0.00    -0.394 OA
ATOM     39  H   UNL     1      20.629  -1.210 -10.232  1.00  0.00     0.210 HD
ENDBRANCH  37  38
ENDBRANCH  31  37
BRANCH  32  40
ATOM     40  O   UNL     1      18.825  -1.207  -8.888  1.00  0.00    -0.387 OA
ATOM     41  H   UNL     1      18.417  -1.655  -8.101  1.00  0.00     0.211 HD
ENDBRANCH  32  40
ENDBRANCH   1  27
TORSDOF 12
ENDMDL
MODEL 6
REMARK VINA RESULT:    -5.732      4.017      5.456
REMARK INTER + INTRA:          -9.954
REMARK INTER:                  -8.212
REMARK INTRA:                  -1.742
REMARK UNBOUND:                -1.540
REMARK SMILES O=c1c(O[C@H]2O[C@H](CO)[C@H](O)[C@@H](O)[C@@H]2O)c(-c2ccc(O)c(O)c2)oc2cc(O)cc(O)c12
REMARK SMILES IDX 4 1 3 2 16 3 25 4 2 5 26 6 1 7 33 8 27 9 31 10 28 11 30 12
REMARK SMILES IDX 17 13 18 14 19 15 20 16 24 17 22 18 21 19 23 21 32 23 29 25
REMARK SMILES IDX 5 27 14 28 6 29 12 30 7 31 10 32 15 33 13 35 8 37 9 38 11 40
REMARK H PARENT 21 20 23 22 32 24 29 26 15 34 13 36 9 39 11 41
REMARK Flexibility Score: inf
ROOT
ATOM      1  O   UNL     1      16.962   0.154 -11.663  1.00  0.00    -0.454 OA
ENDROOT
BRANCH   1   2
ATOM      2  C   UNL     1      16.242   0.647 -12.758  1.00  0.00     0.214 A 
ATOM      3  C   UNL     1      15.398  -0.182 -13.527  1.00  0.00     0.180 A 
ATOM      4  O   UNL     1      14.670   0.347 -14.506  1.00  0.00    -0.452 OA
ATOM      5  C   UNL     1      16.352   2.000 -13.094  1.00  0.00     0.239 A 
ATOM      6  C   UNL     1      14.720   1.632 -14.839  1.00  0.00     0.146 A 
ATOM      7  O   UNL     1      17.131   2.737 -12.430  1.00  0.00    -0.285 OA
ATOM      8  C   UNL     1      15.580   2.521 -14.152  1.00  0.00     0.111 A 
ATOM      9  C   UNL     1      13.918   2.096 -15.886  1.00  0.00     0.094 A 
ATOM     10  C   UNL     1      15.619   3.881 -14.541  1.00  0.00     0.134 A 
ATOM     11  C   UNL     1      13.958   3.438 -16.266  1.00  0.00     0.123 A 
ATOM     12  C   UNL     1      14.808   4.326 -15.596  1.00  0.00     0.093 A 
BRANCH   3  13
ATOM     13  C   UNL     1      15.299  -1.639 -13.291  1.00  0.00     0.025 A 
ATOM     14  C   UNL     1      16.317  -2.512 -13.712  1.00  0.00     0.016 A 
ATOM     15  C   UNL     1      16.207  -3.885 -13.483  1.00  0.00     0.051 A 
ATOM     16  C   UNL     1      15.073  -4.408 -12.848  1.00  0.00     0.157 A 
ATOM     17  C   UNL     1      14.153  -2.168 -12.677  1.00  0.00     0.062 A 
ATOM     18  C   UNL     1      14.039  -3.543 -12.448  1.00  0.00     0.158 A 
BRANCH  16  19
ATOM     19  O   UNL     1      14.967  -5.778 -12.617  1.00  0.00    -0.504 OA
ATOM     20  H   UNL     1      15.740  -6.313 -12.238  1.00  0.00     0.293 HD
ENDBRANCH  16  19
BRANCH  18  21
ATOM     21  O   UNL     1      12.894  -4.032 -11.821  1.00  0.00    -0.504 OA
ATOM     22  H   UNL     1      11.976  -3.642 -11.996  1.00  0.00     0.293 HD
ENDBRANCH  18  21
ENDBRANCH   3  13
BRANCH  10  23
ATOM     23  O   UNL     1      16.454   4.790 -13.891  1.00  0.00    -0.507 OA
ATOM     24  H   UNL     1      17.460   4.675 -13.876  1.00  0.00     0.293 HD
ENDBRANCH  10  23
BRANCH  11  25
ATOM     25  O   UNL     1      13.152   3.881 -17.312  1.00  0.00    -0.508 OA
ATOM     26  H   UNL     1      12.519   3.254 -17.795  1.00  0.00     0.293 HD
ENDBRANCH  11  25
ENDBRANCH   1   2
BRANCH   1  27
ATOM     27  C   UNL     1      16.452   0.178 -10.325  1.00  0.00     0.339 C 
ATOM     28  C   UNL     1      17.500   0.758  -9.356  1.00  0.00     0.214 C 
ATOM     29  O   UNL     1      16.026  -1.114  -9.922  1.00  0.00    -0.332 OA
ATOM     30  C   UNL     1      18.677  -0.221  -9.166  1.00  0.00     0.180 C 
ATOM     31  C   UNL     1      17.100  -2.040  -9.925  1.00  0.00     0.179 C 
ATOM     32  C   UNL     1      18.160  -1.645  -8.872  1.00  0.00     0.177 C 
BRANCH  28  33
ATOM     33  O   UNL     1      16.884   1.020  -8.120  1.00  0.00    -0.384 OA
ATOM     34  H   UNL     1      17.167   0.300  -7.499  1.00  0.00     0.211 HD
ENDBRANCH  28  33
BRANCH  30  35
ATOM     35  O   UNL     1      19.471  -0.223 -10.326  1.00  0.00    -0.387 OA
ATOM     36  H   UNL     1      20.316   0.244 -10.098  1.00  0.00     0.211 HD
ENDBRANCH  30  35
BRANCH  31  37
ATOM     37  C   UNL     1      16.533  -3.441  -9.663  1.00  0.00     0.191 C 
BRANCH  37  38
ATOM     38  O   UNL     1      17.369  -4.146  -8.787  1.00  0.00    -0.394 OA
ATOM     39  H   UNL     1      17.518  -3.548  -8.007  1.00  0.00     0.210 HD
ENDBRANCH  37  38
ENDBRANCH  31  37
BRANCH  32  40
ATOM     40  O   UNL     1      17.598  -1.697  -7.584  1.00  0.00    -0.387 OA
ATOM     41  H   UNL     1      18.326  -1.485  -6.944  1.00  0.00     0.211 HD
ENDBRANCH  32  40
ENDBRANCH   1  27
TORSDOF 12
ENDMDL
MODEL 7
REMARK VINA RESULT:    -5.728      3.364      5.837
REMARK INTER + INTRA:          -9.947
REMARK INTER:                  -8.271
REMARK INTRA:                  -1.677
REMARK UNBOUND:                -1.540
REMARK SMILES O=c1c(O[C@H]2O[C@H](CO)[C@H](O)[C@@H](O)[C@@H]2O)c(-c2ccc(O)c(O)c2)oc2cc(O)cc(O)c12
REMARK SMILES IDX 4 1 3 2 16 3 25 4 2 5 26 6 1 7 33 8 27 9 31 10 28 11 30 12
REMARK SMILES IDX 17 13 18 14 19 15 20 16 24 17 22 18 21 19 23 21 32 23 29 25
REMARK SMILES IDX 5 27 14 28 6 29 12 30 7 31 10 32 15 33 13 35 8 37 9 38 11 40
REMARK H PARENT 21 20 23 22 32 24 29 26 15 34 13 36 9 39 11 41
REMARK Flexibility Score: inf
ROOT
ATOM      1  O   UNL     1      17.423  -1.448 -11.587  1.00  0.00    -0.454 OA
ENDROOT
BRANCH   1   2
ATOM      2  C   UNL     1      16.148  -1.148 -12.082  1.00  0.00     0.214 A 
ATOM      3  C   UNL     1      15.576  -1.872 -13.149  1.00  0.00     0.180 A 
ATOM      4  O   UNL     1      14.330  -1.606 -13.531  1.00  0.00    -0.452 OA
ATOM      5  C   UNL     1      15.416  -0.109 -11.497  1.00  0.00     0.239 A 
ATOM      6  C   UNL     1      13.587  -0.650 -12.984  1.00  0.00     0.146 A 
ATOM      7  O   UNL     1      15.937   0.562 -10.566  1.00  0.00    -0.285 OA
ATOM      8  C   UNL     1      14.106   0.156 -11.943  1.00  0.00     0.111 A 
ATOM      9  C   UNL     1      12.288  -0.444 -13.455  1.00  0.00     0.094 A 
ATOM     10  C   UNL     1      13.292   1.175 -11.392  1.00  0.00     0.134 A 
ATOM     11  C   UNL     1      11.489   0.561 -12.908  1.00  0.00     0.123 A 
ATOM     12  C   UNL     1      11.991   1.368 -11.881  1.00  0.00     0.093 A 
BRANCH   3  13
ATOM     13  C   UNL     1      16.322  -2.921 -13.877  1.00  0.00     0.025 A 
ATOM     14  C   UNL     1      17.267  -2.587 -14.862  1.00  0.00     0.016 A 
ATOM     15  C   UNL     1      17.962  -3.591 -15.542  1.00  0.00     0.051 A 
ATOM     16  C   UNL     1      17.709  -4.940 -15.260  1.00  0.00     0.157 A 
ATOM     17  C   UNL     1      16.054  -4.273 -13.615  1.00  0.00     0.062 A 
ATOM     18  C   UNL     1      16.746  -5.281 -14.294  1.00  0.00     0.158 A 
BRANCH  16  19
ATOM     19  O   UNL     1      18.406  -5.940 -15.937  1.00  0.00    -0.504 OA
ATOM     20  H   UNL     1      18.880  -5.755 -16.813  1.00  0.00     0.293 HD
ENDBRANCH  16  19
BRANCH  18  21
ATOM     21  O   UNL     1      16.466  -6.615 -13.997  1.00  0.00    -0.504 OA
ATOM     22  H   UNL     1      15.544  -7.013 -14.125  1.00  0.00     0.293 HD
ENDBRANCH  18  21
ENDBRANCH   3  13
BRANCH  10  23
ATOM     23  O   UNL     1      13.765   1.994 -10.366  1.00  0.00    -0.507 OA
ATOM     24  H   UNL     1      14.542   1.717  -9.777  1.00  0.00     0.293 HD
ENDBRANCH  10  23
BRANCH  11  25
ATOM     25  O   UNL     1      10.196   0.752 -13.392  1.00  0.00    -0.508 OA
ATOM     26  H   UNL     1       9.486   0.035 -13.302  1.00  0.00     0.293 HD
ENDBRANCH  11  25
ENDBRANCH   1   2
BRANCH   1  27
ATOM     27  C   UNL     1      17.699  -2.623 -10.817  1.00  0.00     0.339 C 
ATOM     28  C   UNL     1      17.557  -2.331  -9.310  1.00  0.00     0.214 C 
ATOM     29  O   UNL     1      18.981  -3.144 -11.130  1.00  0.00    -0.332 OA
ATOM     30  C   UNL     1      18.702  -1.423  -8.815  1.00  0.00     0.180 C 
ATOM     31  C   UNL     1      20.008  -2.215 -10.826  1.00  0.00     0.179 C 
ATOM     32  C   UNL     1      20.068  -1.951  -9.304  1.00  0.00     0.177 C 
BRANCH  28  33
ATOM     33  O   UNL     1      17.565  -3.547  -8.606  1.00  0.00    -0.384 OA
ATOM     34  H   UNL     1      17.897  -3.348  -7.692  1.00  0.00     0.211 HD
ENDBRANCH  28  33
BRANCH  30  35
ATOM     35  O   UNL     1      18.493  -0.114  -9.285  1.00  0.00    -0.387 OA
ATOM     36  H   UNL     1      18.917  -0.059 -10.181  1.00  0.00     0.211 HD
ENDBRANCH  30  35
BRANCH  31  37
ATOM     37  C   UNL     1      21.336  -2.768 -11.359  1.00  0.00     0.191 C 
BRANCH  37  38
ATOM     38  O   UNL     1      21.267  -4.162 -11.480  1.00  0.00    -0.394 OA
ATOM     39  H   UNL     1      20.979  -4.502 -10.592  1.00  0.00     0.210 HD
ENDBRANCH  37  38
ENDBRANCH  31  37
BRANCH  32  40
ATOM     40  O   UNL     1      20.395  -3.138  -8.625  1.00  0.00    -0.387 OA
ATOM     41  H   UNL     1      21.278  -2.989  -8.196  1.00  0.00     0.211 HD
ENDBRANCH  32  40
ENDBRANCH   1  27
TORSDOF 12
ENDMDL
MODEL 8
REMARK VINA RESULT:    -5.706      3.965      8.399
REMARK INTER + INTRA:          -9.916
REMARK INTER:                  -8.185
REMARK INTRA:                  -1.730
REMARK UNBOUND:                -1.540
REMARK SMILES O=c1c(O[C@H]2O[C@H](CO)[C@H](O)[C@@H](O)[C@@H]2O)c(-c2ccc(O)c(O)c2)oc2cc(O)cc(O)c12
REMARK SMILES IDX 4 1 3 2 16 3 25 4 2 5 26 6 1 7 33 8 27 9 31 10 28 11 30 12
REMARK SMILES IDX 17 13 18 14 19 15 20 16 24 17 22 18 21 19 23 21 32 23 29 25
REMARK SMILES IDX 5 27 14 28 6 29 12 30 7 31 10 32 15 33 13 35 8 37 9 38 11 40
REMARK H PARENT 21 20 23 22 32 24 29 26 15 34 13 36 9 39 11 41
REMARK Flexibility Score: inf
ROOT
ATOM      1  O   UNL     1      15.721  -1.028 -11.323  1.00  0.00    -0.454 OA
ENDROOT
BRANCH   1   2
ATOM      2  C   UNL     1      15.361  -0.021 -10.419  1.00  0.00     0.214 A 
ATOM      3  C   UNL     1      16.150   0.280  -9.289  1.00  0.00     0.180 A 
ATOM      4  O   UNL     1      15.813   1.299  -8.504  1.00  0.00    -0.452 OA
ATOM      5  C   UNL     1      14.192   0.714 -10.646  1.00  0.00     0.239 A 
ATOM      6  C   UNL     1      14.730   2.043  -8.699  1.00  0.00     0.146 A 
ATOM      7  O   UNL     1      13.467   0.425 -11.635  1.00  0.00    -0.285 OA
ATOM      8  C   UNL     1      13.856   1.773  -9.779  1.00  0.00     0.111 A 
ATOM      9  C   UNL     1      14.457   3.092  -7.817  1.00  0.00     0.094 A 
ATOM     10  C   UNL     1      12.704   2.577  -9.950  1.00  0.00     0.134 A 
ATOM     11  C   UNL     1      13.319   3.883  -7.990  1.00  0.00     0.123 A 
ATOM     12  C   UNL     1      12.446   3.624  -9.052  1.00  0.00     0.093 A 
BRANCH   3  13
ATOM     13  C   UNL     1      17.348  -0.511  -8.933  1.00  0.00     0.025 A 
ATOM     14  C   UNL     1      18.639   0.022  -9.083  1.00  0.00     0.016 A 
ATOM     15  C   UNL     1      19.760  -0.739  -8.744  1.00  0.00     0.051 A 
ATOM     16  C   UNL     1      19.608  -2.048  -8.267  1.00  0.00     0.157 A 
ATOM     17  C   UNL     1      17.200  -1.830  -8.478  1.00  0.00     0.062 A 
ATOM     18  C   UNL     1      18.320  -2.596  -8.138  1.00  0.00     0.158 A 
BRANCH  16  19
ATOM     19  O   UNL     1      20.728  -2.804  -7.925  1.00  0.00    -0.504 OA
ATOM     20  H   UNL     1      21.093  -3.519  -8.542  1.00  0.00     0.293 HD
ENDBRANCH  16  19
BRANCH  18  21
ATOM     21  O   UNL     1      18.135  -3.898  -7.673  1.00  0.00    -0.504 OA
ATOM     22  H   UNL     1      18.844  -4.613  -7.780  1.00  0.00     0.293 HD
ENDBRANCH  18  21
ENDBRANCH   3  13
BRANCH  10  23
ATOM     23  O   UNL     1      11.816   2.344 -11.001  1.00  0.00    -0.507 OA
ATOM     24  H   UNL     1      11.659   3.032 -11.729  1.00  0.00     0.293 HD
ENDBRANCH  10  23
BRANCH  11  25
ATOM     25  O   UNL     1      13.064   4.924  -7.099  1.00  0.00    -0.508 OA
ATOM     26  H   UNL     1      13.172   5.893  -7.373  1.00  0.00     0.293 HD
ENDBRANCH  11  25
ENDBRANCH   1   2
BRANCH   1  27
ATOM     27  C   UNL     1      16.498  -0.773 -12.499  1.00  0.00     0.339 C 
ATOM     28  C   UNL     1      15.844  -1.422 -13.734  1.00  0.00     0.214 C 
ATOM     29  O   UNL     1      17.837  -1.209 -12.325  1.00  0.00    -0.332 OA
ATOM     30  C   UNL     1      15.962  -2.959 -13.675  1.00  0.00     0.180 C 
ATOM     31  C   UNL     1      17.901  -2.608 -12.097  1.00  0.00     0.179 C 
ATOM     32  C   UNL     1      17.407  -3.384 -13.340  1.00  0.00     0.177 C 
BRANCH  28  33
ATOM     33  O   UNL     1      16.470  -0.932 -14.893  1.00  0.00    -0.384 OA
ATOM     34  H   UNL     1      16.952  -1.696 -15.304  1.00  0.00     0.211 HD
ENDBRANCH  28  33
BRANCH  30  35
ATOM     35  O   UNL     1      15.074  -3.456 -12.705  1.00  0.00    -0.387 OA
ATOM     36  H   UNL     1      15.592  -4.082 -12.134  1.00  0.00     0.211 HD
ENDBRANCH  30  35
BRANCH  31  37
ATOM     37  C   UNL     1      19.346  -2.974 -11.737  1.00  0.00     0.191 C 
BRANCH  37  38
ATOM     38  O   UNL     1      19.642  -4.272 -12.176  1.00  0.00    -0.394 OA
ATOM     39  H   UNL     1      20.633  -4.342 -12.181  1.00  0.00     0.210 HD
ENDBRANCH  37  38
ENDBRANCH  31  37
BRANCH  32  40
ATOM     40  O   UNL     1      18.251  -3.122 -14.434  1.00  0.00    -0.387 OA
ATOM     41  H   UNL     1      18.989  -3.784 -14.391  1.00  0.00     0.211 HD
ENDBRANCH  32  40
ENDBRANCH   1  27
TORSDOF 12
ENDMDL
MODEL 9
REMARK VINA RESULT:    -5.648      3.639      7.290
REMARK INTER + INTRA:          -9.829
REMARK INTER:                  -8.180
REMARK INTRA:                  -1.650
REMARK UNBOUND:                -1.540
REMARK SMILES O=c1c(O[C@H]2O[C@H](CO)[C@H](O)[C@@H](O)[C@@H]2O)c(-c2ccc(O)c(O)c2)oc2cc(O)cc(O)c12
REMARK SMILES IDX 4 1 3 2 16 3 25 4 2 5 26 6 1 7 33 8 27 9 31 10 28 11 30 12
REMARK SMILES IDX 17 13 18 14 19 15 20 16 24 17 22 18 21 19 23 21 32 23 29 25
REMARK SMILES IDX 5 27 14 28 6 29 12 30 7 31 10 32 15 33 13 35 8 37 9 38 11 40
REMARK H PARENT 21 20 23 22 32 24 29 26 15 34 13 36 9 39 11 41
REMARK Flexibility Score: inf
ROOT
ATOM      1  O   UNL     1      17.673  -0.701 -10.117  1.00  0.00    -0.454 OA
ENDROOT
BRANCH   1   2
ATOM      2  C   UNL     1      16.404  -0.124 -10.239  1.00  0.00     0.214 A 
ATOM      3  C   UNL     1      15.514  -0.496 -11.269  1.00  0.00     0.180 A 
ATOM      4  O   UNL     1      14.288   0.017 -11.297  1.00  0.00    -0.452 OA
ATOM      5  C   UNL     1      16.000   0.841  -9.310  1.00  0.00     0.239 A 
ATOM      6  C   UNL     1      13.851   0.912 -10.418  1.00  0.00     0.146 A 
ATOM      7  O   UNL     1      16.804   1.201  -8.409  1.00  0.00    -0.285 OA
ATOM      8  C   UNL     1      14.699   1.378  -9.384  1.00  0.00     0.111 A 
ATOM      9  C   UNL     1      12.546   1.396 -10.530  1.00  0.00     0.094 A 
ATOM     10  C   UNL     1      14.207   2.342  -8.472  1.00  0.00     0.134 A 
ATOM     11  C   UNL     1      12.063   2.346  -9.628  1.00  0.00     0.123 A 
ATOM     12  C   UNL     1      12.893   2.817  -8.604  1.00  0.00     0.093 A 
BRANCH   3  13
ATOM     13  C   UNL     1      15.901  -1.440 -12.340  1.00  0.00     0.025 A 
ATOM     14  C   UNL     1      16.809  -1.063 -13.345  1.00  0.00     0.016 A 
ATOM     15  C   UNL     1      17.163  -1.966 -14.350  1.00  0.00     0.051 A 
ATOM     16  C   UNL     1      16.603  -3.250 -14.376  1.00  0.00     0.157 A 
ATOM     17  C   UNL     1      15.324  -2.718 -12.383  1.00  0.00     0.062 A 
ATOM     18  C   UNL     1      15.675  -3.625 -13.389  1.00  0.00     0.158 A 
BRANCH  16  19
ATOM     19  O   UNL     1      16.961  -4.150 -15.379  1.00  0.00    -0.504 OA
ATOM     20  H   UNL     1      16.370  -4.306 -16.187  1.00  0.00     0.293 HD
ENDBRANCH  16  19
BRANCH  18  21
ATOM     21  O   UNL     1      15.094  -4.892 -13.392  1.00  0.00    -0.504 OA
ATOM     22  H   UNL     1      15.357  -5.603 -14.063  1.00  0.00     0.293 HD
ENDBRANCH  18  21
ENDBRANCH   3  13
BRANCH  10  23
ATOM     23  O   UNL     1      15.009   2.829  -7.440  1.00  0.00    -0.507 OA
ATOM     24  H   UNL     1      14.675   2.883  -6.485  1.00  0.00     0.293 HD
ENDBRANCH  10  23
BRANCH  11  25
ATOM     25  O   UNL     1      10.759   2.817  -9.757  1.00  0.00    -0.508 OA
ATOM     26  H   UNL     1      10.539   3.802  -9.667  1.00  0.00     0.293 HD
ENDBRANCH  11  25
ENDBRANCH   1   2
BRANCH   1  27
ATOM     27  C   UNL     1      17.873  -2.059  -9.710  1.00  0.00     0.339 C 
ATOM     28  C   UNL     1      18.049  -2.147  -8.182  1.00  0.00     0.214 C 
ATOM     29  O   UNL     1      18.970  -2.638 -10.397  1.00  0.00    -0.332 OA
ATOM     30  C   UNL     1      19.402  -1.547  -7.747  1.00  0.00     0.180 C 
ATOM     31  C   UNL     1      20.180  -1.953 -10.115  1.00  0.00     0.179 C 
ATOM     32  C   UNL     1      20.549  -2.098  -8.620  1.00  0.00     0.177 C 
BRANCH  28  33
ATOM     33  O   UNL     1      17.969  -3.494  -7.789  1.00  0.00    -0.384 OA
ATOM     34  H   UNL     1      17.552  -3.508  -6.888  1.00  0.00     0.211 HD
ENDBRANCH  28  33
BRANCH  30  35
ATOM     35  O   UNL     1      19.343  -0.146  -7.853  1.00  0.00    -0.387 OA
ATOM     36  H   UNL     1      18.496   0.140  -7.420  1.00  0.00     0.211 HD
ENDBRANCH  30  35
BRANCH  31  37
ATOM     37  C   UNL     1      21.278  -2.512 -11.028  1.00  0.00     0.191 C 
BRANCH  37  38
ATOM     38  O   UNL     1      20.964  -3.821 -11.419  1.00  0.00    -0.394 OA
ATOM     39  H   UNL     1      21.819  -4.327 -11.397  1.00  0.00     0.210 HD
ENDBRANCH  37  38
ENDBRANCH  31  37
BRANCH  32  40
ATOM     40  O   UNL     1      20.780  -3.451  -8.314  1.00  0.00    -0.387 OA
ATOM     41  H   UNL     1      21.067  -3.485  -7.364  1.00  0.00     0.211 HD
ENDBRANCH  32  40
ENDBRANCH   1  27
TORSDOF 12
ENDMDL
