MODEL 1
REMARK VINA RESULT:    -4.150      0.000      0.000
REMARK INTER + INTRA:          -9.445
REMARK INTER:                  -7.546
REMARK INTRA:                  -1.898
REMARK UNBOUND:                -1.898
REMARK SMILES CCCCCCCCCCCCCC[C@@H](C)C(=O)[O-]
REMARK SMILES IDX 9 1 10 2 11 3 12 4 13 5 14 6 15 7 16 8 17 9 18 10 19 11 8 12
REMARK SMILES IDX 7 13 6 14 5 15 4 16 3 17 2 18 1 19
REMARK H PARENT
REMARK Flexibility Score: inf
ROOT
ATOM      1  C   UNL     1     301.004 323.639 647.556  1.00  0.00     0.000 C 
ENDROOT
BRANCH   1   2
ATOM      2  C   UNL     1     302.202 324.556 647.846  1.00  0.00     0.000 C 
BRANCH   2   3
ATOM      3  C   UNL     1     303.370 323.758 648.445  1.00  0.00     0.000 C 
BRANCH   3   4
ATOM      4  C   UNL     1     303.711 322.495 647.632  1.00  0.00     0.000 C 
BRANCH   4   5
ATOM      5  C   UNL     1     305.215 322.247 647.414  1.00  0.00     0.001 C 
BRANCH   5   6
ATOM      6  C   UNL     1     305.793 321.014 648.137  1.00  0.00     0.009 C 
BRANCH   6   7
ATOM      7  C   UNL     1     306.707 321.366 649.343  1.00  0.00     0.032 C 
ATOM      8  C   UNL     1     307.194 322.821 649.292  1.00  0.00     0.014 C 
BRANCH   7   9
ATOM      9  C   UNL     1     305.975 321.140 650.639  1.00  0.00     0.044 C 
ATOM     10  O   UNL     1     305.040 320.299 650.701  1.00  0.00    -0.550 OA
ATOM     11  O   UNL     1     306.324 321.858 651.777  1.00  0.00    -0.550 OA
ENDBRANCH   7   9
ENDBRANCH   6   7
ENDBRANCH   5   6
ENDBRANCH   4   5
ENDBRANCH   3   4
ENDBRANCH   2   3
ENDBRANCH   1   2
BRANCH   1  12
ATOM     12  C   UNL     1     299.654 324.315 647.848  1.00  0.00     0.000 C 
BRANCH  12  13
ATOM     13  C   UNL     1     299.111 325.093 646.636  1.00  0.00    -0.000 C 
BRANCH  13  14
ATOM     14  C   UNL     1     299.456 324.420 645.298  1.00  0.00    -0.000 C 
BRANCH  14  15
ATOM     15  C   UNL     1     300.014 325.408 644.261  1.00  0.00    -0.000 C 
BRANCH  15  16
ATOM     16  C   UNL     1     301.549 325.382 644.249  1.00  0.00    -0.000 C 
BRANCH  16  17
ATOM     17  C   UNL     1     302.123 323.981 643.965  1.00  0.00    -0.000 C 
BRANCH  17  18
ATOM     18  C   UNL     1     303.644 323.853 644.162  1.00  0.00    -0.003 C 
ATOM     19  C   UNL     1     304.174 322.457 643.838  1.00  0.00     0.004 C 
ENDBRANCH  17  18
ENDBRANCH  16  17
ENDBRANCH  15  16
ENDBRANCH  14  15
ENDBRANCH  13  14
ENDBRANCH  12  13
ENDBRANCH   1  12
TORSDOF 14
ENDMDL
MODEL 2
REMARK VINA RESULT:    -3.976      3.444      7.261
REMARK INTER + INTRA:          -9.129
REMARK INTER:                  -7.372
REMARK INTRA:                  -1.757
REMARK UNBOUND:                -1.898
REMARK SMILES CCCCCCCCCCCCCC[C@@H](C)C(=O)[O-]
REMARK SMILES IDX 9 1 10 2 11 3 12 4 13 5 14 6 15 7 16 8 17 9 18 10 19 11 8 12
REMARK SMILES IDX 7 13 6 14 5 15 4 16 3 17 2 18 1 19
REMARK H PARENT
REMARK Flexibility Score: inf
ROOT
ATOM      1  C   UNL     1     305.059 325.360 646.369  1.00  0.00     0.000 C 
ENDROOT
BRANCH   1   2
ATOM      2  C   UNL     1     303.597 325.257 646.828  1.00  0.00     0.000 C 
BRANCH   2   3
ATOM      3  C   UNL     1     303.020 323.869 646.512  1.00  0.00     0.000 C 
BRANCH   3   4
ATOM      4  C   UNL     1     301.967 323.410 647.538  1.00  0.00     0.000 C 
BRANCH   4   5
ATOM      5  C   UNL     1     300.845 324.426 647.818  1.00  0.00     0.001 C 
BRANCH   5   6
ATOM      6  C   UNL     1     299.516 324.163 647.082  1.00  0.00     0.009 C 
BRANCH   6   7
ATOM      7  C   UNL     1     299.174 325.230 646.007  1.00  0.00     0.032 C 
ATOM      8  C   UNL     1     299.233 326.657 646.571  1.00  0.00     0.014 C 
BRANCH   7   9
ATOM      9  C   UNL     1     300.121 325.125 644.841  1.00  0.00     0.044 C 
ATOM     10  O   UNL     1     300.167 324.069 644.156  1.00  0.00    -0.550 OA
ATOM     11  O   UNL     1     300.953 326.189 644.514  1.00  0.00    -0.550 OA
ENDBRANCH   7   9
ENDBRANCH   6   7
ENDBRANCH   5   6
ENDBRANCH   4   5
ENDBRANCH   3   4
ENDBRANCH   2   3
ENDBRANCH   1   2
BRANCH   1  12
ATOM     12  C   UNL     1     305.761 323.994 646.307  1.00  0.00     0.000 C 
BRANCH  12  13
ATOM     13  C   UNL     1     306.579 323.695 647.576  1.00  0.00    -0.000 C 
BRANCH  13  14
ATOM     14  C   UNL     1     306.745 322.188 647.831  1.00  0.00    -0.000 C 
BRANCH  14  15
ATOM     15  C   UNL     1     305.425 321.412 647.691  1.00  0.00    -0.000 C 
BRANCH  15  16
ATOM     16  C   UNL     1     304.779 321.177 649.064  1.00  0.00    -0.000 C 
BRANCH  16  17
ATOM     17  C   UNL     1     305.420 320.010 649.837  1.00  0.00    -0.000 C 
BRANCH  17  18
ATOM     18  C   UNL     1     305.920 320.365 651.248  1.00  0.00    -0.003 C 
ATOM     19  C   UNL     1     306.215 321.855 651.421  1.00  0.00     0.004 C 
ENDBRANCH  17  18
ENDBRANCH  16  17
ENDBRANCH  15  16
ENDBRANCH  14  15
ENDBRANCH  13  14
ENDBRANCH  12  13
ENDBRANCH   1  12
TORSDOF 14
ENDMDL
MODEL 3
REMARK VINA RESULT:    -3.972      2.708      6.362
REMARK INTER + INTRA:          -9.122
REMARK INTER:                  -7.358
REMARK INTRA:                  -1.764
REMARK UNBOUND:                -1.898
REMARK SMILES CCCCCCCCCCCCCC[C@@H](C)C(=O)[O-]
REMARK SMILES IDX 9 1 10 2 11 3 12 4 13 5 14 6 15 7 16 8 17 9 18 10 19 11 8 12
REMARK SMILES IDX 7 13 6 14 5 15 4 16 3 17 2 18 1 19
REMARK H PARENT
REMARK Flexibility Score: inf
ROOT
ATOM      1  C   UNL     1     299.162 324.013 647.025  1.00  0.00     0.000 C 
ENDROOT
BRANCH   1   2
ATOM      2  C   UNL     1     298.898 325.048 645.920  1.00  0.00     0.000 C 
BRANCH   2   3
ATOM      3  C   UNL     1     299.324 326.453 646.372  1.00  0.00     0.000 C 
BRANCH   3   4
ATOM      4  C   UNL     1     300.273 327.141 645.372  1.00  0.00     0.000 C 
BRANCH   4   5
ATOM      5  C   UNL     1     301.728 326.641 645.406  1.00  0.00     0.001 C 
BRANCH   5   6
ATOM      6  C   UNL     1     302.205 325.907 644.137  1.00  0.00     0.009 C 
BRANCH   6   7
ATOM      7  C   UNL     1     302.051 324.363 644.212  1.00  0.00     0.032 C 
ATOM      8  C   UNL     1     301.058 323.831 643.168  1.00  0.00     0.014 C 
BRANCH   7   9
ATOM      9  C   UNL     1     303.383 323.691 644.007  1.00  0.00     0.044 C 
ATOM     10  O   UNL     1     304.238 323.686 644.931  1.00  0.00    -0.550 OA
ATOM     11  O   UNL     1     303.680 323.074 642.797  1.00  0.00    -0.550 OA
ENDBRANCH   7   9
ENDBRANCH   6   7
ENDBRANCH   5   6
ENDBRANCH   4   5
ENDBRANCH   3   4
ENDBRANCH   2   3
ENDBRANCH   1   2
BRANCH   1  12
ATOM     12  C   UNL     1     300.393 324.357 647.880  1.00  0.00     0.000 C 
BRANCH  12  13
ATOM     13  C   UNL     1     301.625 323.516 647.502  1.00  0.00    -0.000 C 
BRANCH  13  14
ATOM     14  C   UNL     1     302.898 323.972 648.234  1.00  0.00    -0.000 C 
BRANCH  14  15
ATOM     15  C   UNL     1     303.930 322.843 648.393  1.00  0.00    -0.000 C 
BRANCH  15  16
ATOM     16  C   UNL     1     304.750 323.026 649.678  1.00  0.00    -0.000 C 
BRANCH  16  17
ATOM     17  C   UNL     1     305.238 321.693 650.274  1.00  0.00    -0.000 C 
BRANCH  17  18
ATOM     18  C   UNL     1     306.747 321.432 650.127  1.00  0.00    -0.003 C 
ATOM     19  C   UNL     1     307.568 322.717 650.015  1.00  0.00     0.004 C 
ENDBRANCH  17  18
ENDBRANCH  16  17
ENDBRANCH  15  16
ENDBRANCH  14  15
ENDBRANCH  13  14
ENDBRANCH  12  13
ENDBRANCH   1  12
TORSDOF 14
ENDMDL
MODEL 4
REMARK VINA RESULT:    -3.918      1.475      2.983
REMARK INTER + INTRA:          -9.024
REMARK INTER:                  -6.212
REMARK INTRA:                  -2.812
REMARK UNBOUND:                -1.898
REMARK SMILES CCCCCCCCCCCCCC[C@@H](C)C(=O)[O-]
REMARK SMILES IDX 9 1 10 2 11 3 12 4 13 5 14 6 15 7 16 8 17 9 18 10 19 11 8 12
REMARK SMILES IDX 7 13 6 14 5 15 4 16 3 17 2 18 1 19
REMARK H PARENT
REMARK Flexibility Score: inf
ROOT
ATOM      1  C   UNL     1     299.442 325.858 646.847  1.00  0.00     0.000 C 
ENDROOT
BRANCH   1   2
ATOM      2  C   UNL     1     299.341 324.330 646.720  1.00  0.00     0.000 C 
BRANCH   2   3
ATOM      3  C   UNL     1     300.485 323.640 647.479  1.00  0.00     0.000 C 
BRANCH   3   4
ATOM      4  C   UNL     1     301.578 324.624 647.937  1.00  0.00     0.000 C 
BRANCH   4   5
ATOM      5  C   UNL     1     302.928 323.976 648.297  1.00  0.00     0.001 C 
BRANCH   5   6
ATOM      6  C   UNL     1     303.115 322.526 647.807  1.00  0.00     0.009 C 
BRANCH   6   7
ATOM      7  C   UNL     1     304.569 322.196 647.369  1.00  0.00     0.032 C 
ATOM      8  C   UNL     1     305.265 323.404 646.726  1.00  0.00     0.014 C 
BRANCH   7   9
ATOM      9  C   UNL     1     305.381 321.734 648.550  1.00  0.00     0.044 C 
ATOM     10  O   UNL     1     306.565 322.136 648.701  1.00  0.00    -0.550 OA
ATOM     11  O   UNL     1     304.832 320.860 649.481  1.00  0.00    -0.550 OA
ENDBRANCH   7   9
ENDBRANCH   6   7
ENDBRANCH   5   6
ENDBRANCH   4   5
ENDBRANCH   3   4
ENDBRANCH   2   3
ENDBRANCH   1   2
BRANCH   1  12
ATOM     12  C   UNL     1     299.555 326.561 645.484  1.00  0.00     0.000 C 
BRANCH  12  13
ATOM     13  C   UNL     1     299.239 325.621 644.308  1.00  0.00    -0.000 C 
BRANCH  13  14
ATOM     14  C   UNL     1     300.434 325.439 643.358  1.00  0.00    -0.000 C 
BRANCH  14  15
ATOM     15  C   UNL     1     301.128 324.078 643.528  1.00  0.00    -0.000 C 
BRANCH  15  16
ATOM     16  C   UNL     1     302.445 324.228 644.304  1.00  0.00    -0.000 C 
BRANCH  16  17
ATOM     17  C   UNL     1     303.088 325.616 644.132  1.00  0.00    -0.000 C 
BRANCH  17  18
ATOM     18  C   UNL     1     303.466 326.322 645.446  1.00  0.00    -0.003 C 
ATOM     19  C   UNL     1     303.028 327.786 645.487  1.00  0.00     0.004 C 
ENDBRANCH  17  18
ENDBRANCH  16  17
ENDBRANCH  15  16
ENDBRANCH  14  15
ENDBRANCH  13  14
ENDBRANCH  12  13
ENDBRANCH   1  12
TORSDOF 14
ENDMDL
MODEL 5
REMARK VINA RESULT:    -3.905      1.607      2.220
REMARK INTER + INTRA:          -8.999
REMARK INTER:                  -7.091
REMARK INTRA:                  -1.908
REMARK UNBOUND:                -1.898
REMARK SMILES CCCCCCCCCCCCCC[C@@H](C)C(=O)[O-]
REMARK SMILES IDX 9 1 10 2 11 3 12 4 13 5 14 6 15 7 16 8 17 9 18 10 19 11 8 12
REMARK SMILES IDX 7 13 6 14 5 15 4 16 3 17 2 18 1 19
REMARK H PARENT
REMARK Flexibility Score: inf
ROOT
ATOM      1  C   UNL     1     300.983 323.713 647.537  1.00  0.00     0.000 C 
ENDROOT
BRANCH   1   2
ATOM      2  C   UNL     1     302.183 324.605 647.892  1.00  0.00     0.000 C 
BRANCH   2   3
ATOM      3  C   UNL     1     303.502 323.944 647.466  1.00  0.00     0.000 C 
BRANCH   3   4
ATOM      4  C   UNL     1     303.593 322.464 647.885  1.00  0.00     0.000 C 
BRANCH   4   5
ATOM      5  C   UNL     1     304.898 321.753 647.483  1.00  0.00     0.001 C 
BRANCH   5   6
ATOM      6  C   UNL     1     305.796 321.307 648.655  1.00  0.00     0.009 C 
BRANCH   6   7
ATOM      7  C   UNL     1     305.921 322.364 649.786  1.00  0.00     0.032 C 
ATOM      8  C   UNL     1     306.206 321.719 651.149  1.00  0.00     0.014 C 
BRANCH   7   9
ATOM      9  C   UNL     1     307.019 323.345 649.468  1.00  0.00     0.044 C 
ATOM     10  O   UNL     1     306.761 324.401 648.834  1.00  0.00    -0.550 OA
ATOM     11  O   UNL     1     308.325 323.091 649.872  1.00  0.00    -0.550 OA
ENDBRANCH   7   9
ENDBRANCH   6   7
ENDBRANCH   5   6
ENDBRANCH   4   5
ENDBRANCH   3   4
ENDBRANCH   2   3
ENDBRANCH   1   2
BRANCH   1  12
ATOM     12  C   UNL     1     299.633 324.405 647.787  1.00  0.00     0.000 C 
BRANCH  12  13
ATOM     13  C   UNL     1     299.138 325.190 646.559  1.00  0.00    -0.000 C 
BRANCH  13  14
ATOM     14  C   UNL     1     299.241 324.379 645.257  1.00  0.00    -0.000 C 
BRANCH  14  15
ATOM     15  C   UNL     1     299.917 325.162 644.120  1.00  0.00    -0.000 C 
BRANCH  15  16
ATOM     16  C   UNL     1     301.250 324.511 643.723  1.00  0.00    -0.000 C 
BRANCH  16  17
ATOM     17  C   UNL     1     302.474 325.279 644.256  1.00  0.00    -0.000 C 
BRANCH  17  18
ATOM     18  C   UNL     1     302.340 326.811 644.227  1.00  0.00    -0.003 C 
ATOM     19  C   UNL     1     302.452 327.448 645.611  1.00  0.00     0.004 C 
ENDBRANCH  17  18
ENDBRANCH  16  17
ENDBRANCH  15  16
ENDBRANCH  14  15
ENDBRANCH  13  14
ENDBRANCH  12  13
ENDBRANCH   1  12
TORSDOF 14
ENDMDL
MODEL 6
REMARK VINA RESULT:    -3.895      1.469      1.998
REMARK INTER + INTRA:          -8.981
REMARK INTER:                  -7.068
REMARK INTRA:                  -1.913
REMARK UNBOUND:                -1.898
REMARK SMILES CCCCCCCCCCCCCC[C@@H](C)C(=O)[O-]
REMARK SMILES IDX 9 1 10 2 11 3 12 4 13 5 14 6 15 7 16 8 17 9 18 10 19 11 8 12
REMARK SMILES IDX 7 13 6 14 5 15 4 16 3 17 2 18 1 19
REMARK H PARENT
REMARK Flexibility Score: inf
ROOT
ATOM      1  C   UNL     1     301.151 324.383 647.680  1.00  0.00     0.000 C 
ENDROOT
BRANCH   1   2
ATOM      2  C   UNL     1     302.162 323.226 647.719  1.00  0.00     0.000 C 
BRANCH   2   3
ATOM      3  C   UNL     1     303.280 323.440 646.689  1.00  0.00     0.000 C 
BRANCH   3   4
ATOM      4  C   UNL     1     304.275 324.541 647.104  1.00  0.00     0.000 C 
BRANCH   4   5
ATOM      5  C   UNL     1     305.294 324.124 648.180  1.00  0.00     0.001 C 
BRANCH   5   6
ATOM      6  C   UNL     1     305.582 322.611 648.267  1.00  0.00     0.009 C 
BRANCH   6   7
ATOM      7  C   UNL     1     305.232 321.986 649.646  1.00  0.00     0.032 C 
ATOM      8  C   UNL     1     304.771 320.527 649.516  1.00  0.00     0.014 C 
BRANCH   7   9
ATOM      9  C   UNL     1     306.423 322.044 650.566  1.00  0.00     0.044 C 
ATOM     10  O   UNL     1     306.309 321.699 651.771  1.00  0.00    -0.550 OA
ATOM     11  O   UNL     1     307.655 322.479 650.093  1.00  0.00    -0.550 OA
ENDBRANCH   7   9
ENDBRANCH   6   7
ENDBRANCH   5   6
ENDBRANCH   4   5
ENDBRANCH   3   4
ENDBRANCH   2   3
ENDBRANCH   1   2
BRANCH   1  12
ATOM     12  C   UNL     1     299.705 323.902 647.479  1.00  0.00     0.000 C 
BRANCH  12  13
ATOM     13  C   UNL     1     298.986 324.657 646.346  1.00  0.00    -0.000 C 
BRANCH  13  14
ATOM     14  C   UNL     1     299.470 326.110 646.205  1.00  0.00    -0.000 C 
BRANCH  14  15
ATOM     15  C   UNL     1     299.060 326.745 644.866  1.00  0.00    -0.000 C 
BRANCH  15  16
ATOM     16  C   UNL     1     300.295 327.059 644.009  1.00  0.00    -0.000 C 
BRANCH  16  17
ATOM     17  C   UNL     1     301.594 326.469 644.588  1.00  0.00    -0.000 C 
BRANCH  17  18
ATOM     18  C   UNL     1     302.237 325.360 643.737  1.00  0.00    -0.003 C 
ATOM     19  C   UNL     1     301.316 324.159 643.525  1.00  0.00     0.004 C 
ENDBRANCH  17  18
ENDBRANCH  16  17
ENDBRANCH  15  16
ENDBRANCH  14  15
ENDBRANCH  13  14
ENDBRANCH  12  13
ENDBRANCH   1  12
TORSDOF 14
ENDMDL
MODEL 7
REMARK VINA RESULT:    -3.884      1.635      2.826
REMARK INTER + INTRA:          -8.962
REMARK INTER:                  -6.528
REMARK INTRA:                  -2.434
REMARK UNBOUND:                -1.898
REMARK SMILES CCCCCCCCCCCCCC[C@@H](C)C(=O)[O-]
REMARK SMILES IDX 9 1 10 2 11 3 12 4 13 5 14 6 15 7 16 8 17 9 18 10 19 11 8 12
REMARK SMILES IDX 7 13 6 14 5 15 4 16 3 17 2 18 1 19
REMARK H PARENT
REMARK Flexibility Score: inf
ROOT
ATOM      1  C   UNL     1     299.433 324.422 645.696  1.00  0.00     0.000 C 
ENDROOT
BRANCH   1   2
ATOM      2  C   UNL     1     299.013 323.987 647.108  1.00  0.00     0.000 C 
BRANCH   2   3
ATOM      3  C   UNL     1     300.215 323.996 648.065  1.00  0.00     0.000 C 
BRANCH   3   4
ATOM      4  C   UNL     1     301.539 323.637 647.365  1.00  0.00     0.000 C 
BRANCH   4   5
ATOM      5  C   UNL     1     302.769 324.422 647.857  1.00  0.00     0.001 C 
BRANCH   5   6
ATOM      6  C   UNL     1     304.094 324.088 647.143  1.00  0.00     0.009 C 
BRANCH   6   7
ATOM      7  C   UNL     1     304.335 322.566 646.948  1.00  0.00     0.032 C 
ATOM      8  C   UNL     1     305.255 322.276 645.754  1.00  0.00     0.014 C 
BRANCH   7   9
ATOM      9  C   UNL     1     304.940 321.966 648.190  1.00  0.00     0.044 C 
ATOM     10  O   UNL     1     304.250 321.221 648.934  1.00  0.00    -0.550 OA
ATOM     11  O   UNL     1     306.263 322.231 648.524  1.00  0.00    -0.550 OA
ENDBRANCH   7   9
ENDBRANCH   6   7
ENDBRANCH   5   6
ENDBRANCH   4   5
ENDBRANCH   3   4
ENDBRANCH   2   3
ENDBRANCH   1   2
BRANCH   1  12
ATOM     12  C   UNL     1     298.875 325.801 645.307  1.00  0.00     0.000 C 
BRANCH  12  13
ATOM     13  C   UNL     1     299.524 326.945 646.107  1.00  0.00    -0.000 C 
BRANCH  13  14
ATOM     14  C   UNL     1     300.578 327.713 645.292  1.00  0.00    -0.000 C 
BRANCH  14  15
ATOM     15  C   UNL     1     301.952 327.025 645.299  1.00  0.00    -0.000 C 
BRANCH  15  16
ATOM     16  C   UNL     1     302.269 326.419 643.924  1.00  0.00    -0.000 C 
BRANCH  16  17
ATOM     17  C   UNL     1     303.058 325.100 644.016  1.00  0.00    -0.000 C 
BRANCH  17  18
ATOM     18  C   UNL     1     302.243 323.834 643.700  1.00  0.00    -0.003 C 
ATOM     19  C   UNL     1     303.008 322.829 642.840  1.00  0.00     0.004 C 
ENDBRANCH  17  18
ENDBRANCH  16  17
ENDBRANCH  15  16
ENDBRANCH  14  15
ENDBRANCH  13  14
ENDBRANCH  12  13
ENDBRANCH   1  12
TORSDOF 14
ENDMDL
MODEL 8
REMARK VINA RESULT:    -3.851      1.868      3.837
REMARK INTER + INTRA:          -8.902
REMARK INTER:                  -6.448
REMARK INTRA:                  -2.453
REMARK UNBOUND:                -1.898
REMARK SMILES CCCCCCCCCCCCCC[C@@H](C)C(=O)[O-]
REMARK SMILES IDX 9 1 10 2 11 3 12 4 13 5 14 6 15 7 16 8 17 9 18 10 19 11 8 12
REMARK SMILES IDX 7 13 6 14 5 15 4 16 3 17 2 18 1 19
REMARK H PARENT
REMARK Flexibility Score: inf
ROOT
ATOM      1  C   UNL     1     298.893 324.625 645.646  1.00  0.00     0.000 C 
ENDROOT
BRANCH   1   2
ATOM      2  C   UNL     1     299.304 325.504 646.837  1.00  0.00     0.000 C 
BRANCH   2   3
ATOM      3  C   UNL     1     299.901 324.652 647.967  1.00  0.00     0.000 C 
BRANCH   3   4
ATOM      4  C   UNL     1     300.950 323.642 647.465  1.00  0.00     0.000 C 
BRANCH   4   5
ATOM      5  C   UNL     1     302.386 323.895 647.958  1.00  0.00     0.001 C 
BRANCH   5   6
ATOM      6  C   UNL     1     303.338 322.685 647.869  1.00  0.00     0.009 C 
BRANCH   6   7
ATOM      7  C   UNL     1     304.777 323.052 647.414  1.00  0.00     0.032 C 
ATOM      8  C   UNL     1     305.049 324.559 647.523  1.00  0.00     0.014 C 
BRANCH   7   9
ATOM      9  C   UNL     1     305.795 322.310 648.240  1.00  0.00     0.044 C 
ATOM     10  O   UNL     1     306.543 322.936 649.035  1.00  0.00    -0.550 OA
ATOM     11  O   UNL     1     305.916 320.930 648.130  1.00  0.00    -0.550 OA
ENDBRANCH   7   9
ENDBRANCH   6   7
ENDBRANCH   5   6
ENDBRANCH   4   5
ENDBRANCH   3   4
ENDBRANCH   2   3
ENDBRANCH   1   2
BRANCH   1  12
ATOM     12  C   UNL     1     299.438 325.146 644.306  1.00  0.00     0.000 C 
BRANCH  12  13
ATOM     13  C   UNL     1     300.809 324.542 643.953  1.00  0.00    -0.000 C 
BRANCH  13  14
ATOM     14  C   UNL     1     301.875 325.616 643.679  1.00  0.00    -0.000 C 
BRANCH  14  15
ATOM     15  C   UNL     1     302.821 325.834 644.871  1.00  0.00    -0.000 C 
BRANCH  15  16
ATOM     16  C   UNL     1     302.390 327.056 645.696  1.00  0.00    -0.000 C 
BRANCH  16  17
ATOM     17  C   UNL     1     301.800 328.185 644.831  1.00  0.00    -0.000 C 
BRANCH  17  18
ATOM     18  C   UNL     1     300.403 328.667 645.261  1.00  0.00    -0.003 C 
ATOM     19  C   UNL     1     299.433 328.811 644.088  1.00  0.00     0.004 C 
ENDBRANCH  17  18
ENDBRANCH  16  17
ENDBRANCH  15  16
ENDBRANCH  14  15
ENDBRANCH  13  14
ENDBRANCH  12  13
ENDBRANCH   1  12
TORSDOF 14
ENDMDL
MODEL 9
REMARK VINA RESULT:    -3.833      4.097      7.505
REMARK INTER + INTRA:          -8.868
REMARK INTER:                  -7.192
REMARK INTRA:                  -1.676
REMARK UNBOUND:                -1.898
REMARK SMILES CCCCCCCCCCCCCC[C@@H](C)C(=O)[O-]
REMARK SMILES IDX 9 1 10 2 11 3 12 4 13 5 14 6 15 7 16 8 17 9 18 10 19 11 8 12
REMARK SMILES IDX 7 13 6 14 5 15 4 16 3 17 2 18 1 19
REMARK H PARENT
REMARK Flexibility Score: inf
ROOT
ATOM      1  C   UNL     1     302.293 324.586 647.894  1.00  0.00     0.000 C 
ENDROOT
BRANCH   1   2
ATOM      2  C   UNL     1     301.336 323.553 647.279  1.00  0.00     0.000 C 
BRANCH   2   3
ATOM      3  C   UNL     1     299.885 323.834 647.697  1.00  0.00     0.000 C 
BRANCH   3   4
ATOM      4  C   UNL     1     299.218 324.931 646.845  1.00  0.00     0.000 C 
BRANCH   4   5
ATOM      5  C   UNL     1     299.169 324.641 645.334  1.00  0.00     0.001 C 
BRANCH   5   6
ATOM      6  C   UNL     1     299.635 325.796 644.424  1.00  0.00     0.009 C 
BRANCH   6   7
ATOM      7  C   UNL     1     300.891 325.456 643.575  1.00  0.00     0.032 C 
ATOM      8  C   UNL     1     301.210 323.955 643.594  1.00  0.00     0.014 C 
BRANCH   7   9
ATOM      9  C   UNL     1     300.696 325.898 642.149  1.00  0.00     0.044 C 
ATOM     10  O   UNL     1     299.536 326.005 641.672  1.00  0.00    -0.550 OA
ATOM     11  O   UNL     1     301.794 326.191 641.349  1.00  0.00    -0.550 OA
ENDBRANCH   7   9
ENDBRANCH   6   7
ENDBRANCH   5   6
ENDBRANCH   4   5
ENDBRANCH   3   4
ENDBRANCH   2   3
ENDBRANCH   1   2
BRANCH   1  12
ATOM     12  C   UNL     1     303.121 325.334 646.837  1.00  0.00     0.000 C 
BRANCH  12  13
ATOM     13  C   UNL     1     304.636 325.180 647.058  1.00  0.00    -0.000 C 
BRANCH  13  14
ATOM     14  C   UNL     1     305.041 323.735 647.395  1.00  0.00    -0.000 C 
BRANCH  14  15
ATOM     15  C   UNL     1     305.740 323.616 648.759  1.00  0.00    -0.000 C 
BRANCH  15  16
ATOM     16  C   UNL     1     304.959 322.680 649.695  1.00  0.00    -0.000 C 
BRANCH  16  17
ATOM     17  C   UNL     1     304.691 321.297 649.073  1.00  0.00    -0.000 C 
BRANCH  17  18
ATOM     18  C   UNL     1     304.991 320.103 649.997  1.00  0.00    -0.003 C 
ATOM     19  C   UNL     1     305.877 320.474 651.185  1.00  0.00     0.004 C 
ENDBRANCH  17  18
ENDBRANCH  16  17
ENDBRANCH  15  16
ENDBRANCH  14  15
ENDBRANCH  13  14
ENDBRANCH  12  13
ENDBRANCH   1  12
TORSDOF 14
ENDMDL
