MODEL 1
REMARK VINA RESULT:    -4.571      0.000      0.000
REMARK INTER + INTRA:          -9.429
REMARK INTER:                  -7.109
REMARK INTRA:                  -2.320
REMARK UNBOUND:                -2.320
REMARK SMILES COc1cc(CNC(=O)CCCCC=CC(C)C)ccc1O
REMARK SMILES IDX 11 1 12 2 13 3 14 4 15 5 16 6 17 7 18 8 10 9 8 10 9 11 7 12
REMARK SMILES IDX 6 14 5 15 4 16 19 17 3 18 20 19 21 20 2 21 1 22 22 23
REMARK H PARENT 7 13 22 24
REMARK Flexibility Score: inf
ROOT
ATOM      1  C   UNL     1      -9.962   4.843   0.986  1.00  0.00     0.010 C 
ENDROOT
BRANCH   1   2
ATOM      2  C   UNL     1     -10.707   6.173   0.750  1.00  0.00     0.005 C 
BRANCH   2   3
ATOM      3  C   UNL     1     -11.146   6.409  -0.704  1.00  0.00     0.027 C 
BRANCH   3   4
ATOM      4  C   UNL     1     -11.610   7.818  -0.988  1.00  0.00    -0.031 C 
ATOM      5  C   UNL     1     -10.873   8.881  -1.379  1.00  0.00    -0.028 C 
BRANCH   5   6
ATOM      6  C   UNL     1      -9.365   9.023  -1.538  1.00  0.00     0.005 C 
ATOM      7  C   UNL     1      -9.015  10.149  -2.515  1.00  0.00     0.012 C 
ATOM      8  C   UNL     1      -8.557   9.109  -0.238  1.00  0.00     0.012 C 
ENDBRANCH   5   6
ENDBRANCH   3   4
ENDBRANCH   2   3
ENDBRANCH   1   2
BRANCH   1   9
ATOM      9  C   UNL     1      -8.746   4.951   1.925  1.00  0.00     0.100 C 
BRANCH   9  10
ATOM     10  C   UNL     1      -7.609   5.701   1.293  1.00  0.00     0.220 C 
ATOM     11  O   UNL     1      -7.137   6.717   1.872  1.00  0.00    -0.275 OA
ATOM     12  N   UNL     1      -7.088   5.286   0.023  1.00  0.00    -0.352 N 
ATOM     13  H   UNL     1      -7.345   4.345  -0.350  1.00  0.00     0.163 HD
BRANCH  12  14
ATOM     14  C   UNL     1      -6.374   6.205  -0.859  1.00  0.00     0.151 C 
BRANCH  14  15
ATOM     15  C   UNL     1      -7.117   6.338  -2.159  1.00  0.00    -0.025 A 
ATOM     16  C   UNL     1      -6.624   7.185  -3.164  1.00  0.00     0.056 A 
ATOM     17  C   UNL     1      -8.251   5.552  -2.415  1.00  0.00     0.009 A 
ATOM     18  C   UNL     1      -7.253   7.247  -4.424  1.00  0.00     0.160 A 
ATOM     19  C   UNL     1      -8.884   5.616  -3.657  1.00  0.00     0.050 A 
ATOM     20  C   UNL     1      -8.391   6.454  -4.662  1.00  0.00     0.157 A 
BRANCH  18  21
ATOM     21  O   UNL     1      -6.773   8.070  -5.454  1.00  0.00    -0.493 OA
ATOM     22  C   UNL     1      -7.247   9.385  -5.725  1.00  0.00     0.278 C 
ENDBRANCH  18  21
BRANCH  20  23
ATOM     23  O   UNL     1      -9.043   6.481  -5.894  1.00  0.00    -0.504 OA
ATOM     24  H   UNL     1      -9.458   5.654  -6.304  1.00  0.00     0.293 HD
ENDBRANCH  20  23
ENDBRANCH  14  15
ENDBRANCH  12  14
ENDBRANCH   9  10
ENDBRANCH   1   9
TORSDOF 10
ENDMDL
MODEL 2
REMARK VINA RESULT:    -4.460      3.085      5.472
REMARK INTER + INTRA:          -9.257
REMARK INTER:                  -8.655
REMARK INTRA:                  -0.603
REMARK UNBOUND:                -2.320
REMARK SMILES COc1cc(CNC(=O)CCCCC=CC(C)C)ccc1O
REMARK SMILES IDX 11 1 12 2 13 3 14 4 15 5 16 6 17 7 18 8 10 9 8 10 9 11 7 12
REMARK SMILES IDX 6 14 5 15 4 16 19 17 3 18 20 19 21 20 2 21 1 22 22 23
REMARK H PARENT 7 13 22 24
REMARK Flexibility Score: inf
ROOT
ATOM      1  C   UNL     1      -7.095   5.881   2.131  1.00  0.00     0.010 C 
ENDROOT
BRANCH   1   2
ATOM      2  C   UNL     1      -6.365   6.476   3.353  1.00  0.00     0.005 C 
BRANCH   2   3
ATOM      3  C   UNL     1      -7.179   6.455   4.656  1.00  0.00     0.027 C 
BRANCH   3   4
ATOM      4  C   UNL     1      -6.343   6.569   5.908  1.00  0.00    -0.031 C 
ATOM      5  C   UNL     1      -6.553   5.994   7.113  1.00  0.00    -0.028 C 
BRANCH   5   6
ATOM      6  C   UNL     1      -7.731   5.169   7.612  1.00  0.00     0.005 C 
ATOM      7  C   UNL     1      -8.999   6.022   7.718  1.00  0.00     0.012 C 
ATOM      8  C   UNL     1      -7.983   3.844   6.882  1.00  0.00     0.012 C 
ENDBRANCH   5   6
ENDBRANCH   3   4
ENDBRANCH   2   3
ENDBRANCH   1   2
BRANCH   1   9
ATOM      9  C   UNL     1      -8.276   4.957   2.481  1.00  0.00     0.100 C 
BRANCH   9  10
ATOM     10  C   UNL     1      -9.226   4.795   1.330  1.00  0.00     0.220 C 
ATOM     11  O   UNL     1      -9.484   3.639   0.895  1.00  0.00    -0.275 OA
ATOM     12  N   UNL     1      -9.808   5.947   0.706  1.00  0.00    -0.352 N 
ATOM     13  H   UNL     1      -9.749   6.872   1.188  1.00  0.00     0.163 HD
BRANCH  12  14
ATOM     14  C   UNL     1     -10.308   5.916  -0.666  1.00  0.00     0.151 C 
BRANCH  14  15
ATOM     15  C   UNL     1      -9.180   6.199  -1.620  1.00  0.00    -0.025 A 
ATOM     16  C   UNL     1      -9.345   5.950  -2.991  1.00  0.00     0.056 A 
ATOM     17  C   UNL     1      -7.995   6.797  -1.165  1.00  0.00     0.009 A 
ATOM     18  C   UNL     1      -8.335   6.300  -3.911  1.00  0.00     0.160 A 
ATOM     19  C   UNL     1      -6.988   7.137  -2.069  1.00  0.00     0.050 A 
ATOM     20  C   UNL     1      -7.152   6.896  -3.437  1.00  0.00     0.157 A 
BRANCH  18  21
ATOM     21  O   UNL     1      -8.478   6.080  -5.290  1.00  0.00    -0.493 OA
ATOM     22  C   UNL     1      -8.640   7.109  -6.260  1.00  0.00     0.278 C 
ENDBRANCH  18  21
BRANCH  20  23
ATOM     23  O   UNL     1      -6.130   7.261  -4.312  1.00  0.00    -0.504 OA
ATOM     24  H   UNL     1      -5.603   6.578  -4.843  1.00  0.00     0.293 HD
ENDBRANCH  20  23
ENDBRANCH  14  15
ENDBRANCH  12  14
ENDBRANCH   9  10
ENDBRANCH   1   9
TORSDOF 10
ENDMDL
MODEL 3
REMARK VINA RESULT:    -4.460      2.513      5.654
REMARK INTER + INTRA:          -9.257
REMARK INTER:                  -7.518
REMARK INTRA:                  -1.739
REMARK UNBOUND:                -2.320
REMARK SMILES COc1cc(CNC(=O)CCCCC=CC(C)C)ccc1O
REMARK SMILES IDX 11 1 12 2 13 3 14 4 15 5 16 6 17 7 18 8 10 9 8 10 9 11 7 12
REMARK SMILES IDX 6 14 5 15 4 16 19 17 3 18 20 19 21 20 2 21 1 22 22 23
REMARK H PARENT 7 13 22 24
REMARK Flexibility Score: inf
ROOT
ATOM      1  C   UNL     1      -6.438   5.496   0.001  1.00  0.00     0.010 C 
ENDROOT
BRANCH   1   2
ATOM      2  C   UNL     1      -7.137   6.671   0.715  1.00  0.00     0.005 C 
BRANCH   2   3
ATOM      3  C   UNL     1      -8.429   6.292   1.455  1.00  0.00     0.027 C 
BRANCH   3   4
ATOM      4  C   UNL     1      -8.285   5.113   2.388  1.00  0.00    -0.031 C 
ATOM      5  C   UNL     1      -8.038   5.121   3.716  1.00  0.00    -0.028 C 
BRANCH   5   6
ATOM      6  C   UNL     1      -7.716   6.282   4.646  1.00  0.00     0.005 C 
ATOM      7  C   UNL     1      -8.908   6.616   5.548  1.00  0.00     0.012 C 
ATOM      8  C   UNL     1      -6.405   6.171   5.434  1.00  0.00     0.012 C 
ENDBRANCH   5   6
ENDBRANCH   3   4
ENDBRANCH   2   3
ENDBRANCH   1   2
BRANCH   1   9
ATOM      9  C   UNL     1      -5.664   5.891  -1.270  1.00  0.00     0.100 C 
BRANCH   9  10
ATOM     10  C   UNL     1      -6.579   6.336  -2.374  1.00  0.00     0.220 C 
ATOM     11  O   UNL     1      -6.303   7.379  -3.027  1.00  0.00    -0.275 OA
ATOM     12  N   UNL     1      -7.776   5.601  -2.660  1.00  0.00    -0.352 N 
ATOM     13  H   UNL     1      -7.895   4.644  -2.257  1.00  0.00     0.163 HD
BRANCH  12  14
ATOM     14  C   UNL     1      -8.920   6.213  -3.329  1.00  0.00     0.151 C 
BRANCH  14  15
ATOM     15  C   UNL     1      -9.760   6.949  -2.322  1.00  0.00    -0.025 A 
ATOM     16  C   UNL     1     -10.714   6.252  -1.563  1.00  0.00     0.056 A 
ATOM     17  C   UNL     1      -9.536   8.310  -2.066  1.00  0.00     0.009 A 
ATOM     18  C   UNL     1     -11.441   6.906  -0.548  1.00  0.00     0.160 A 
ATOM     19  C   UNL     1     -10.259   8.965  -1.068  1.00  0.00     0.050 A 
ATOM     20  C   UNL     1     -11.205   8.273  -0.306  1.00  0.00     0.157 A 
BRANCH  18  21
ATOM     21  O   UNL     1     -12.388   6.232   0.239  1.00  0.00    -0.493 OA
ATOM     22  C   UNL     1     -12.088   5.528   1.439  1.00  0.00     0.278 C 
ENDBRANCH  18  21
BRANCH  20  23
ATOM     23  O   UNL     1     -11.899   8.957   0.690  1.00  0.00    -0.504 OA
ATOM     24  H   UNL     1     -11.620   8.922   1.664  1.00  0.00     0.293 HD
ENDBRANCH  20  23
ENDBRANCH  14  15
ENDBRANCH  12  14
ENDBRANCH   9  10
ENDBRANCH   1   9
TORSDOF 10
ENDMDL
MODEL 4
REMARK VINA RESULT:    -4.448      2.517      6.294
REMARK INTER + INTRA:          -9.239
REMARK INTER:                  -7.517
REMARK INTRA:                  -1.722
REMARK UNBOUND:                -2.320
REMARK SMILES COc1cc(CNC(=O)CCCCC=CC(C)C)ccc1O
REMARK SMILES IDX 11 1 12 2 13 3 14 4 15 5 16 6 17 7 18 8 10 9 8 10 9 11 7 12
REMARK SMILES IDX 6 14 5 15 4 16 19 17 3 18 20 19 21 20 2 21 1 22 22 23
REMARK H PARENT 7 13 22 24
REMARK Flexibility Score: inf
ROOT
ATOM      1  C   UNL     1      -9.859   8.809  -0.548  1.00  0.00     0.010 C 
ENDROOT
BRANCH   1   2
ATOM      2  C   UNL     1      -8.331   8.929  -0.380  1.00  0.00     0.005 C 
BRANCH   2   3
ATOM      3  C   UNL     1      -7.556   9.120  -1.694  1.00  0.00     0.027 C 
BRANCH   3   4
ATOM      4  C   UNL     1      -6.688   7.945  -2.075  1.00  0.00    -0.031 C 
ATOM      5  C   UNL     1      -6.683   7.245  -3.231  1.00  0.00    -0.028 C 
BRANCH   5   6
ATOM      6  C   UNL     1      -7.609   7.339  -4.436  1.00  0.00     0.005 C 
ATOM      7  C   UNL     1      -6.811   7.409  -5.742  1.00  0.00     0.012 C 
ATOM      8  C   UNL     1      -8.738   6.304  -4.500  1.00  0.00     0.012 C 
ENDBRANCH   5   6
ENDBRANCH   3   4
ENDBRANCH   2   3
ENDBRANCH   1   2
BRANCH   1   9
ATOM      9  C   UNL     1     -10.313   7.645  -1.448  1.00  0.00     0.100 C 
BRANCH   9  10
ATOM     10  C   UNL     1     -10.209   6.319  -0.751  1.00  0.00     0.220 C 
ATOM     11  O   UNL     1     -11.118   5.963   0.047  1.00  0.00    -0.275 OA
ATOM     12  N   UNL     1      -9.065   5.480  -0.962  1.00  0.00    -0.352 N 
ATOM     13  H   UNL     1      -8.423   5.685  -1.761  1.00  0.00     0.163 HD
BRANCH  12  14
ATOM     14  C   UNL     1      -8.655   4.470   0.009  1.00  0.00     0.151 C 
BRANCH  14  15
ATOM     15  C   UNL     1      -8.008   5.140   1.191  1.00  0.00    -0.025 A 
ATOM     16  C   UNL     1      -8.570   4.999   2.469  1.00  0.00     0.056 A 
ATOM     17  C   UNL     1      -6.795   5.829   1.042  1.00  0.00     0.009 A 
ATOM     18  C   UNL     1      -7.924   5.538   3.600  1.00  0.00     0.160 A 
ATOM     19  C   UNL     1      -6.156   6.373   2.157  1.00  0.00     0.050 A 
ATOM     20  C   UNL     1      -6.709   6.229   3.433  1.00  0.00     0.157 A 
BRANCH  18  21
ATOM     21  O   UNL     1      -8.452   5.399   4.894  1.00  0.00    -0.493 OA
ATOM     22  C   UNL     1      -7.890   4.577   5.912  1.00  0.00     0.278 C 
ENDBRANCH  18  21
BRANCH  20  23
ATOM     23  O   UNL     1      -6.035   6.775   4.525  1.00  0.00    -0.504 OA
ATOM     24  H   UNL     1      -6.477   6.893   5.428  1.00  0.00     0.293 HD
ENDBRANCH  20  23
ENDBRANCH  14  15
ENDBRANCH  12  14
ENDBRANCH   9  10
ENDBRANCH   1   9
TORSDOF 10
ENDMDL
MODEL 5
REMARK VINA RESULT:    -4.402      2.717      4.877
REMARK INTER + INTRA:          -9.166
REMARK INTER:                  -7.640
REMARK INTRA:                  -1.526
REMARK UNBOUND:                -2.320
REMARK SMILES COc1cc(CNC(=O)CCCCC=CC(C)C)ccc1O
REMARK SMILES IDX 11 1 12 2 13 3 14 4 15 5 16 6 17 7 18 8 10 9 8 10 9 11 7 12
REMARK SMILES IDX 6 14 5 15 4 16 19 17 3 18 20 19 21 20 2 21 1 22 22 23
REMARK H PARENT 7 13 22 24
REMARK Flexibility Score: inf
ROOT
ATOM      1  C   UNL     1      -6.353   7.155  -2.666  1.00  0.00     0.010 C 
ENDROOT
BRANCH   1   2
ATOM      2  C   UNL     1      -6.066   6.055  -1.624  1.00  0.00     0.005 C 
BRANCH   2   3
ATOM      3  C   UNL     1      -6.852   6.199  -0.310  1.00  0.00     0.027 C 
BRANCH   3   4
ATOM      4  C   UNL     1      -7.955   5.183  -0.137  1.00  0.00    -0.031 C 
ATOM      5  C   UNL     1      -9.170   5.155  -0.728  1.00  0.00    -0.028 C 
BRANCH   5   6
ATOM      6  C   UNL     1      -9.840   6.175  -1.639  1.00  0.00     0.005 C 
ATOM      7  C   UNL     1      -9.665   5.799  -3.113  1.00  0.00     0.012 C 
ATOM      8  C   UNL     1     -11.292   6.530  -1.298  1.00  0.00     0.012 C 
ENDBRANCH   5   6
ENDBRANCH   3   4
ENDBRANCH   2   3
ENDBRANCH   1   2
BRANCH   1   9
ATOM      9  C   UNL     1      -6.891   8.471  -2.075  1.00  0.00     0.100 C 
BRANCH   9  10
ATOM     10  C   UNL     1      -7.479   9.365  -3.128  1.00  0.00     0.220 C 
ATOM     11  O   UNL     1      -8.710   9.636  -3.097  1.00  0.00    -0.275 OA
ATOM     12  N   UNL     1      -6.653   9.878  -4.182  1.00  0.00    -0.352 N 
ATOM     13  H   UNL     1      -5.614   9.814  -4.092  1.00  0.00     0.163 HD
BRANCH  12  14
ATOM     14  C   UNL     1      -7.209  10.307  -5.462  1.00  0.00     0.151 C 
BRANCH  14  15
ATOM     15  C   UNL     1      -7.364   9.117  -6.369  1.00  0.00    -0.025 A 
ATOM     16  C   UNL     1      -8.268   9.168  -7.442  1.00  0.00     0.056 A 
ATOM     17  C   UNL     1      -6.547   7.988  -6.209  1.00  0.00     0.009 A 
ATOM     18  C   UNL     1      -8.355   8.101  -8.359  1.00  0.00     0.160 A 
ATOM     19  C   UNL     1      -6.636   6.924  -7.107  1.00  0.00     0.050 A 
ATOM     20  C   UNL     1      -7.530   6.974  -8.181  1.00  0.00     0.157 A 
BRANCH  18  21
ATOM     21  O   UNL     1      -9.236   8.130  -9.452  1.00  0.00    -0.493 OA
ATOM     22  C   UNL     1      -8.921   8.674 -10.729  1.00  0.00     0.278 C 
ENDBRANCH  18  21
BRANCH  20  23
ATOM     23  O   UNL     1      -7.581   5.898  -9.066  1.00  0.00    -0.504 OA
ATOM     24  H   UNL     1      -7.573   4.936  -8.747  1.00  0.00     0.293 HD
ENDBRANCH  20  23
ENDBRANCH  14  15
ENDBRANCH  12  14
ENDBRANCH   9  10
ENDBRANCH   1   9
TORSDOF 10
ENDMDL
MODEL 6
REMARK VINA RESULT:    -4.332      1.851      5.338
REMARK INTER + INTRA:          -9.057
REMARK INTER:                  -7.320
REMARK INTRA:                  -1.737
REMARK UNBOUND:                -2.320
REMARK SMILES COc1cc(CNC(=O)CCCCC=CC(C)C)ccc1O
REMARK SMILES IDX 11 1 12 2 13 3 14 4 15 5 16 6 17 7 18 8 10 9 8 10 9 11 7 12
REMARK SMILES IDX 6 14 5 15 4 16 19 17 3 18 20 19 21 20 2 21 1 22 22 23
REMARK H PARENT 7 13 22 24
REMARK Flexibility Score: inf
ROOT
ATOM      1  C   UNL     1      -8.075   6.486  -4.648  1.00  0.00     0.010 C 
ENDROOT
BRANCH   1   2
ATOM      2  C   UNL     1      -9.310   6.860  -3.804  1.00  0.00     0.005 C 
BRANCH   2   3
ATOM      3  C   UNL     1      -9.869   5.714  -2.946  1.00  0.00     0.027 C 
BRANCH   3   4
ATOM      4  C   UNL     1     -10.809   6.162  -1.853  1.00  0.00    -0.031 C 
ATOM      5  C   UNL     1     -10.800   7.324  -1.163  1.00  0.00    -0.028 C 
BRANCH   5   6
ATOM      6  C   UNL     1      -9.794   8.467  -1.182  1.00  0.00     0.005 C 
ATOM      7  C   UNL     1     -10.471   9.793  -1.540  1.00  0.00     0.012 C 
ATOM      8  C   UNL     1      -8.891   8.590   0.050  1.00  0.00     0.012 C 
ENDBRANCH   5   6
ENDBRANCH   3   4
ENDBRANCH   2   3
ENDBRANCH   1   2
BRANCH   1   9
ATOM      9  C   UNL     1      -6.788   7.240  -4.267  1.00  0.00     0.100 C 
BRANCH   9  10
ATOM     10  C   UNL     1      -6.499   7.157  -2.796  1.00  0.00     0.220 C 
ATOM     11  O   UNL     1      -6.342   8.218  -2.132  1.00  0.00    -0.275 OA
ATOM     12  N   UNL     1      -6.366   5.880  -2.158  1.00  0.00    -0.352 N 
ATOM     13  H   UNL     1      -6.688   5.022  -2.661  1.00  0.00     0.163 HD
BRANCH  12  14
ATOM     14  C   UNL     1      -5.619   5.709  -0.915  1.00  0.00     0.151 C 
BRANCH  14  15
ATOM     15  C   UNL     1      -6.577   5.618   0.242  1.00  0.00    -0.025 A 
ATOM     16  C   UNL     1      -6.265   6.244   1.459  1.00  0.00     0.056 A 
ATOM     17  C   UNL     1      -7.822   4.992   0.087  1.00  0.00     0.009 A 
ATOM     18  C   UNL     1      -7.193   6.252   2.520  1.00  0.00     0.160 A 
ATOM     19  C   UNL     1      -8.741   4.988   1.137  1.00  0.00     0.050 A 
ATOM     20  C   UNL     1      -8.437   5.616   2.349  1.00  0.00     0.157 A 
BRANCH  18  21
ATOM     21  O   UNL     1      -6.917   6.885   3.743  1.00  0.00    -0.493 OA
ATOM     22  C   UNL     1      -6.463   6.216   4.915  1.00  0.00     0.278 C 
ENDBRANCH  18  21
BRANCH  20  23
ATOM     23  O   UNL     1      -9.385   5.604   3.371  1.00  0.00    -0.504 OA
ATOM     24  H   UNL     1      -9.516   6.390   3.996  1.00  0.00     0.293 HD
ENDBRANCH  20  23
ENDBRANCH  14  15
ENDBRANCH  12  14
ENDBRANCH   9  10
ENDBRANCH   1   9
TORSDOF 10
ENDMDL
MODEL 7
REMARK VINA RESULT:    -4.261      2.434      4.416
REMARK INTER + INTRA:          -8.947
REMARK INTER:                  -7.569
REMARK INTRA:                  -1.378
REMARK UNBOUND:                -2.320
REMARK SMILES COc1cc(CNC(=O)CCCCC=CC(C)C)ccc1O
REMARK SMILES IDX 11 1 12 2 13 3 14 4 15 5 16 6 17 7 18 8 10 9 8 10 9 11 7 12
REMARK SMILES IDX 6 14 5 15 4 16 19 17 3 18 20 19 21 20 2 21 1 22 22 23
REMARK H PARENT 7 13 22 24
REMARK Flexibility Score: inf
ROOT
ATOM      1  C   UNL     1      -6.976   6.330  -1.830  1.00  0.00     0.010 C 
ENDROOT
BRANCH   1   2
ATOM      2  C   UNL     1      -8.328   5.596  -1.938  1.00  0.00     0.005 C 
BRANCH   2   3
ATOM      3  C   UNL     1      -9.194   5.663  -0.670  1.00  0.00     0.027 C 
BRANCH   3   4
ATOM      4  C   UNL     1      -8.991   4.507   0.279  1.00  0.00    -0.031 C 
ATOM      5  C   UNL     1      -8.509   4.533   1.541  1.00  0.00    -0.028 C 
BRANCH   5   6
ATOM      6  C   UNL     1      -7.921   5.686   2.342  1.00  0.00     0.005 C 
ATOM      7  C   UNL     1      -8.288   5.574   3.824  1.00  0.00     0.012 C 
ATOM      8  C   UNL     1      -6.427   5.959   2.132  1.00  0.00     0.012 C 
ENDBRANCH   5   6
ENDBRANCH   3   4
ENDBRANCH   2   3
ENDBRANCH   1   2
BRANCH   1   9
ATOM      9  C   UNL     1      -7.030   7.656  -1.050  1.00  0.00     0.100 C 
BRANCH   9  10
ATOM     10  C   UNL     1      -7.292   8.831  -1.948  1.00  0.00     0.220 C 
ATOM     11  O   UNL     1      -8.268   9.592  -1.706  1.00  0.00    -0.275 OA
ATOM     12  N   UNL     1      -6.462   9.063  -3.094  1.00  0.00    -0.352 N 
ATOM     13  H   UNL     1      -5.553   8.554  -3.176  1.00  0.00     0.163 HD
BRANCH  12  14
ATOM     14  C   UNL     1      -6.928   9.831  -4.245  1.00  0.00     0.151 C 
BRANCH  14  15
ATOM     15  C   UNL     1      -7.171   8.905  -5.405  1.00  0.00    -0.025 A 
ATOM     16  C   UNL     1      -6.626   9.204  -6.664  1.00  0.00     0.056 A 
ATOM     17  C   UNL     1      -7.861   7.698  -5.220  1.00  0.00     0.009 A 
ATOM     18  C   UNL     1      -6.762   8.300  -7.737  1.00  0.00     0.160 A 
ATOM     19  C   UNL     1      -8.007   6.804  -6.281  1.00  0.00     0.050 A 
ATOM     20  C   UNL     1      -7.460   7.094  -7.535  1.00  0.00     0.157 A 
BRANCH  18  21
ATOM     21  O   UNL     1      -6.213   8.561  -9.003  1.00  0.00    -0.493 OA
ATOM     22  C   UNL     1      -4.822   8.525  -9.303  1.00  0.00     0.278 C 
ENDBRANCH  18  21
BRANCH  20  23
ATOM     23  O   UNL     1      -7.614   6.170  -8.567  1.00  0.00    -0.504 OA
ATOM     24  H   UNL     1      -8.267   5.397  -8.507  1.00  0.00     0.293 HD
ENDBRANCH  20  23
ENDBRANCH  14  15
ENDBRANCH  12  14
ENDBRANCH   9  10
ENDBRANCH   1   9
TORSDOF 10
ENDMDL
MODEL 8
REMARK VINA RESULT:    -4.247      2.160      3.864
REMARK INTER + INTRA:          -8.926
REMARK INTER:                  -7.016
REMARK INTRA:                  -1.909
REMARK UNBOUND:                -2.320
REMARK SMILES COc1cc(CNC(=O)CCCCC=CC(C)C)ccc1O
REMARK SMILES IDX 11 1 12 2 13 3 14 4 15 5 16 6 17 7 18 8 10 9 8 10 9 11 7 12
REMARK SMILES IDX 6 14 5 15 4 16 19 17 3 18 20 19 21 20 2 21 1 22 22 23
REMARK H PARENT 7 13 22 24
REMARK Flexibility Score: inf
ROOT
ATOM      1  C   UNL     1     -11.717   6.287   0.002  1.00  0.00     0.010 C 
ENDROOT
BRANCH   1   2
ATOM      2  C   UNL     1     -11.235   5.445   1.201  1.00  0.00     0.005 C 
BRANCH   2   3
ATOM      3  C   UNL     1      -9.839   4.827   1.028  1.00  0.00     0.027 C 
BRANCH   3   4
ATOM      4  C   UNL     1      -9.216   5.078  -0.324  1.00  0.00    -0.031 C 
ATOM      5  C   UNL     1      -7.917   5.306  -0.620  1.00  0.00    -0.028 C 
BRANCH   5   6
ATOM      6  C   UNL     1      -6.721   5.499   0.302  1.00  0.00     0.005 C 
ATOM      7  C   UNL     1      -5.404   5.413  -0.474  1.00  0.00     0.012 C 
ATOM      8  C   UNL     1      -6.773   6.722   1.224  1.00  0.00     0.012 C 
ENDBRANCH   5   6
ENDBRANCH   3   4
ENDBRANCH   2   3
ENDBRANCH   1   2
BRANCH   1   9
ATOM      9  C   UNL     1     -12.412   7.606   0.387  1.00  0.00     0.100 C 
BRANCH   9  10
ATOM     10  C   UNL     1     -11.558   8.803   0.086  1.00  0.00     0.220 C 
ATOM     11  O   UNL     1     -12.107   9.902  -0.199  1.00  0.00    -0.275 OA
ATOM     12  N   UNL     1     -10.129   8.689   0.087  1.00  0.00    -0.352 N 
ATOM     13  H   UNL     1      -9.685   7.843   0.510  1.00  0.00     0.163 HD
BRANCH  12  14
ATOM     14  C   UNL     1      -9.277   9.614  -0.656  1.00  0.00     0.151 C 
BRANCH  14  15
ATOM     15  C   UNL     1      -8.445   8.848  -1.648  1.00  0.00    -0.025 A 
ATOM     16  C   UNL     1      -9.070   8.124  -2.675  1.00  0.00     0.056 A 
ATOM     17  C   UNL     1      -7.045   8.925  -1.612  1.00  0.00     0.009 A 
ATOM     18  C   UNL     1      -8.304   7.482  -3.669  1.00  0.00     0.160 A 
ATOM     19  C   UNL     1      -6.281   8.283  -2.587  1.00  0.00     0.050 A 
ATOM     20  C   UNL     1      -6.900   7.567  -3.616  1.00  0.00     0.157 A 
BRANCH  18  21
ATOM     21  O   UNL     1      -8.901   6.766  -4.719  1.00  0.00    -0.493 OA
ATOM     22  C   UNL     1      -8.696   7.038  -6.101  1.00  0.00     0.278 C 
ENDBRANCH  18  21
BRANCH  20  23
ATOM     23  O   UNL     1      -6.105   6.950  -4.580  1.00  0.00    -0.504 OA
ATOM     24  H   UNL     1      -6.072   5.943  -4.690  1.00  0.00     0.293 HD
ENDBRANCH  20  23
ENDBRANCH  14  15
ENDBRANCH  12  14
ENDBRANCH   9  10
ENDBRANCH   1   9
TORSDOF 10
ENDMDL
MODEL 9
REMARK VINA RESULT:    -4.242      2.017      3.766
REMARK INTER + INTRA:          -8.918
REMARK INTER:                  -7.663
REMARK INTRA:                  -1.255
REMARK UNBOUND:                -2.320
REMARK SMILES COc1cc(CNC(=O)CCCCC=CC(C)C)ccc1O
REMARK SMILES IDX 11 1 12 2 13 3 14 4 15 5 16 6 17 7 18 8 10 9 8 10 9 11 7 12
REMARK SMILES IDX 6 14 5 15 4 16 19 17 3 18 20 19 21 20 2 21 1 22 22 23
REMARK H PARENT 7 13 22 24
REMARK Flexibility Score: inf
ROOT
ATOM      1  C   UNL     1     -10.133   5.881  -0.757  1.00  0.00     0.010 C 
ENDROOT
BRANCH   1   2
ATOM      2  C   UNL     1     -10.086   5.412   0.711  1.00  0.00     0.005 C 
BRANCH   2   3
ATOM      3  C   UNL     1      -8.724   4.861   1.162  1.00  0.00     0.027 C 
BRANCH   3   4
ATOM      4  C   UNL     1      -7.689   5.925   1.441  1.00  0.00    -0.031 C 
ATOM      5  C   UNL     1      -6.548   6.183   0.764  1.00  0.00    -0.028 C 
BRANCH   5   6
ATOM      6  C   UNL     1      -5.901   5.430  -0.389  1.00  0.00     0.005 C 
ATOM      7  C   UNL     1      -5.966   6.241  -1.686  1.00  0.00     0.012 C 
ATOM      8  C   UNL     1      -4.500   4.868  -0.124  1.00  0.00     0.012 C 
ENDBRANCH   5   6
ENDBRANCH   3   4
ENDBRANCH   2   3
ENDBRANCH   1   2
BRANCH   1   9
ATOM      9  C   UNL     1     -11.043   7.097  -1.009  1.00  0.00     0.100 C 
BRANCH   9  10
ATOM     10  C   UNL     1     -10.276   8.279  -1.528  1.00  0.00     0.220 C 
ATOM     11  O   UNL     1     -10.901   9.303  -1.918  1.00  0.00    -0.275 OA
ATOM     12  N   UNL     1      -8.846   8.229  -1.615  1.00  0.00    -0.352 N 
ATOM     13  H   UNL     1      -8.331   7.470  -1.116  1.00  0.00     0.163 HD
BRANCH  12  14
ATOM     14  C   UNL     1      -8.096   9.081  -2.534  1.00  0.00     0.151 C 
BRANCH  14  15
ATOM     15  C   UNL     1      -8.102   8.469  -3.909  1.00  0.00    -0.025 A 
ATOM     16  C   UNL     1      -7.499   9.148  -4.979  1.00  0.00     0.056 A 
ATOM     17  C   UNL     1      -8.624   7.183  -4.113  1.00  0.00     0.009 A 
ATOM     18  C   UNL     1      -7.411   8.547  -6.251  1.00  0.00     0.160 A 
ATOM     19  C   UNL     1      -8.548   6.587  -5.372  1.00  0.00     0.050 A 
ATOM     20  C   UNL     1      -7.942   7.257  -6.440  1.00  0.00     0.157 A 
BRANCH  18  21
ATOM     21  O   UNL     1      -6.798   9.193  -7.337  1.00  0.00    -0.493 OA
ATOM     22  C   UNL     1      -5.632  10.004  -7.241  1.00  0.00     0.278 C 
ENDBRANCH  18  21
BRANCH  20  23
ATOM     23  O   UNL     1      -7.873   6.624  -7.680  1.00  0.00    -0.504 OA
ATOM     24  H   UNL     1      -7.609   5.651  -7.775  1.00  0.00     0.293 HD
ENDBRANCH  20  23
ENDBRANCH  14  15
ENDBRANCH  12  14
ENDBRANCH   9  10
ENDBRANCH   1   9
TORSDOF 10
ENDMDL
