MODEL 1
REMARK VINA RESULT:    -4.299      0.000      0.000
REMARK INTER + INTRA:          -6.080
REMARK INTER:                  -6.560
REMARK INTRA:                   0.480
REMARK UNBOUND:                 0.480
REMARK SMILES CC1=CCC[C@@H](C)C(=O)C[C@@H](C(C)C)C(=O)C1
REMARK SMILES IDX 8 1 9 2 6 3 7 4 5 5 4 6 3 7 2 8 1 9 10 11 11 12 15 13 16 14
REMARK SMILES IDX 17 15 12 17 13 18 14 19
REMARK H PARENT
REMARK Flexibility Score: 70.00
ROOT
ATOM      1  C   UNL     1      -9.143   1.411 -19.308  1.00  0.00     0.136 C 
ATOM      2  O   UNL     1      -8.893   0.232 -19.093  1.00  0.00    -0.299 OA
ENDROOT
BRANCH   1   3
ATOM      3  C   UNL     1      -8.201   2.474 -18.774  1.00  0.00     0.053 C 
ATOM      4  C   UNL     1      -6.747   1.999 -18.845  1.00  0.00     0.016 C 
BRANCH   3   5
ATOM      5  C   UNL     1      -8.607   2.842 -17.321  1.00  0.00     0.015 C 
BRANCH   5   6
ATOM      6  C   UNL     1      -9.136   4.278 -17.137  1.00  0.00     0.028 C 
BRANCH   6   7
ATOM      7  C   UNL     1     -10.085   4.778 -18.208  1.00  0.00    -0.028 C 
ATOM      8  C   UNL     1     -11.387   4.436 -18.355  1.00  0.00    -0.070 CG0
ATOM      9  C   UNL     1     -12.177   5.105 -19.451  1.00  0.00     0.039 C 
ATOM     10  G   UNL     1     -12.069   3.362 -17.529  1.00  0.00     0.000 G0
ENDBRANCH   6   7
ENDBRANCH   5   6
ENDBRANCH   3   5
ENDBRANCH   1   3
BRANCH   1  11
ATOM     11  C   UNL     1     -10.386   1.760 -20.099  1.00  0.00     0.087 C 
BRANCH  11  12
ATOM     12  C   UNL     1     -11.719   1.430 -19.369  1.00  0.00     0.066 C 
BRANCH  12  13
ATOM     13  C   UNL     1     -11.732   1.932 -17.925  1.00  0.00     0.140 C 
ATOM     14  O   UNL     1     -11.484   1.143 -17.025  1.00  0.00    -0.299 OA
BRANCH  13  15
ATOM     15  C   UNL     1     -12.088   3.358 -17.536  1.00  0.00     0.106 CG0
ATOM     16  G   UNL     1     -11.386   4.426 -18.353  1.00  0.00     0.000 G0
ENDBRANCH  13  15
ENDBRANCH  12  13
BRANCH  12  17
ATOM     17  C   UNL     1     -12.114  -0.080 -19.428  1.00  0.00    -0.006 C 
ATOM     18  C   UNL     1     -11.648  -0.807 -20.701  1.00  0.00     0.008 C 
ATOM     19  C   UNL     1     -13.625  -0.280 -19.233  1.00  0.00     0.008 C 
ENDBRANCH  12  17
ENDBRANCH  11  12
ENDBRANCH   1  11
TORSDOF 1
ENDMDL
MODEL 2
REMARK VINA RESULT:    -3.603      1.842      4.494
REMARK INTER + INTRA:          -5.018
REMARK INTER:                  -5.604
REMARK INTRA:                   0.586
REMARK UNBOUND:                 0.480
REMARK SMILES CC1=CCC[C@@H](C)C(=O)C[C@@H](C(C)C)C(=O)C1
REMARK SMILES IDX 8 1 9 2 6 3 7 4 5 5 4 6 3 7 2 8 1 9 10 11 11 12 15 13 16 14
REMARK SMILES IDX 17 15 12 17 13 18 14 19
REMARK H PARENT
REMARK Flexibility Score: 70.00
ROOT
ATOM      1  C   UNL     1     -11.845   1.526 -18.297  1.00  0.00     0.136 C 
ATOM      2  O   UNL     1     -11.448   0.979 -17.275  1.00  0.00    -0.299 OA
ENDROOT
BRANCH   1   3
ATOM      3  C   UNL     1     -12.123   0.683 -19.526  1.00  0.00     0.053 C 
ATOM      4  C   UNL     1     -13.271  -0.298 -19.267  1.00  0.00     0.016 C 
BRANCH   3   5
ATOM      5  C   UNL     1     -10.826  -0.061 -19.947  1.00  0.00     0.015 C 
BRANCH   5   6
ATOM      6  C   UNL     1      -9.660   0.853 -20.371  1.00  0.00     0.028 C 
BRANCH   6   7
ATOM      7  C   UNL     1      -8.694   1.250 -19.272  1.00  0.00    -0.028 C 
ATOM      8  C   UNL     1      -8.343   2.511 -18.924  1.00  0.00    -0.070 CG0
ATOM      9  C   UNL     1      -7.415   2.689 -17.749  1.00  0.00     0.039 C 
ATOM     10  G   UNL     1      -8.769   3.742 -19.699  1.00  0.00     0.000 G0
ENDBRANCH   6   7
ENDBRANCH   5   6
ENDBRANCH   3   5
ENDBRANCH   1   3
BRANCH   1  11
ATOM     11  C   UNL     1     -12.042   3.028 -18.288  1.00  0.00     0.087 C 
BRANCH  11  12
ATOM     12  C   UNL     1     -11.435   3.756 -19.522  1.00  0.00     0.066 C 
BRANCH  12  13
ATOM     13  C   UNL     1     -10.071   4.375 -19.220  1.00  0.00     0.140 C 
ATOM     14  O   UNL     1     -10.025   5.436 -18.615  1.00  0.00    -0.299 OA
BRANCH  13  15
ATOM     15  C   UNL     1      -8.754   3.766 -19.678  1.00  0.00     0.106 CG0
ATOM     16  G   UNL     1      -8.342   2.518 -18.921  1.00  0.00     0.000 G0
ENDBRANCH  13  15
ENDBRANCH  12  13
BRANCH  12  17
ATOM     17  C   UNL     1     -12.389   4.816 -20.160  1.00  0.00    -0.006 C 
ATOM     18  C   UNL     1     -12.010   5.229 -21.592  1.00  0.00     0.008 C 
ATOM     19  C   UNL     1     -12.526   6.063 -19.273  1.00  0.00     0.008 C 
ENDBRANCH  12  17
ENDBRANCH  11  12
ENDBRANCH   1  11
TORSDOF 1
ENDMDL
MODEL 3
REMARK VINA RESULT:    -3.590      1.700      3.944
REMARK INTER + INTRA:          -4.998
REMARK INTER:                  -5.840
REMARK INTRA:                   0.841
REMARK UNBOUND:                 0.480
REMARK SMILES CC1=CCC[C@@H](C)C(=O)C[C@@H](C(C)C)C(=O)C1
REMARK SMILES IDX 8 1 9 2 6 3 7 4 5 5 4 6 3 7 2 8 1 9 10 11 11 12 15 13 16 14
REMARK SMILES IDX 17 15 12 17 13 18 14 19
REMARK H PARENT
REMARK Flexibility Score: 70.00
ROOT
ATOM      1  C   UNL     1      -9.306   4.489 -17.805  1.00  0.00     0.136 C 
ATOM      2  O   UNL     1      -9.500   4.237 -16.622  1.00  0.00    -0.299 OA
ENDROOT
BRANCH   1   3
ATOM      3  C   UNL     1      -8.087   3.906 -18.494  1.00  0.00     0.053 C 
ATOM      4  C   UNL     1      -8.093   4.242 -19.988  1.00  0.00     0.016 C 
BRANCH   3   5
ATOM      5  C   UNL     1      -8.044   2.371 -18.258  1.00  0.00     0.015 C 
BRANCH   5   6
ATOM      6  C   UNL     1      -8.360   1.513 -19.498  1.00  0.00     0.028 C 
BRANCH   6   7
ATOM      7  C   UNL     1      -9.589   0.632 -19.400  1.00  0.00    -0.028 C 
ATOM      8  C   UNL     1     -10.870   1.006 -19.628  1.00  0.00    -0.070 CG0
ATOM      9  C   UNL     1     -11.943  -0.050 -19.543  1.00  0.00     0.039 C 
ATOM     10  G   UNL     1     -11.289   2.441 -19.885  1.00  0.00     0.000 G0
ENDBRANCH   6   7
ENDBRANCH   5   6
ENDBRANCH   3   5
ENDBRANCH   1   3
BRANCH   1  11
ATOM     11  C   UNL     1     -10.295   5.377 -18.531  1.00  0.00     0.087 C 
BRANCH  11  12
ATOM     12  C   UNL     1     -11.723   4.773 -18.653  1.00  0.00     0.066 C 
BRANCH  12  13
ATOM     13  C   UNL     1     -11.708   3.246 -18.685  1.00  0.00     0.140 C 
ATOM     14  O   UNL     1     -12.004   2.632 -17.671  1.00  0.00    -0.299 OA
BRANCH  13  15
ATOM     15  C   UNL     1     -11.294   2.437 -19.905  1.00  0.00     0.106 CG0
ATOM     16  G   UNL     1     -10.876   1.011 -19.600  1.00  0.00     0.000 G0
ENDBRANCH  13  15
ENDBRANCH  12  13
BRANCH  12  17
ATOM     17  C   UNL     1     -12.546   5.340 -19.853  1.00  0.00    -0.006 C 
ATOM     18  C   UNL     1     -11.887   5.136 -21.227  1.00  0.00     0.008 C 
ATOM     19  C   UNL     1     -12.894   6.823 -19.654  1.00  0.00     0.008 C 
ENDBRANCH  12  17
ENDBRANCH  11  12
ENDBRANCH   1  11
TORSDOF 1
ENDMDL
MODEL 4
REMARK VINA RESULT:    -3.387      1.474      3.441
REMARK INTER + INTRA:          -4.688
REMARK INTER:                  -5.359
REMARK INTRA:                   0.671
REMARK UNBOUND:                 0.480
REMARK SMILES CC1=CCC[C@@H](C)C(=O)C[C@@H](C(C)C)C(=O)C1
REMARK SMILES IDX 8 1 9 2 6 3 7 4 5 5 4 6 3 7 2 8 1 9 10 11 11 12 15 13 16 14
REMARK SMILES IDX 17 15 12 17 13 18 14 19
REMARK H PARENT
REMARK Flexibility Score: 70.00
ROOT
ATOM      1  C   UNL     1     -11.698   2.343 -17.329  1.00  0.00     0.136 C 
ATOM      2  O   UNL     1     -11.374   1.601 -16.409  1.00  0.00    -0.299 OA
ENDROOT
BRANCH   1   3
ATOM      3  C   UNL     1     -11.660   3.843 -17.115  1.00  0.00     0.053 C 
ATOM      4  C   UNL     1     -12.107   4.586 -18.379  1.00  0.00     0.016 C 
BRANCH   3   5
ATOM      5  C   UNL     1     -10.230   4.269 -16.683  1.00  0.00     0.015 C 
BRANCH   5   6
ATOM      6  C   UNL     1      -9.185   4.280 -17.816  1.00  0.00     0.028 C 
BRANCH   6   7
ATOM      7  C   UNL     1      -8.271   3.074 -17.887  1.00  0.00    -0.028 C 
ATOM      8  C   UNL     1      -8.302   2.093 -18.821  1.00  0.00    -0.070 CG0
ATOM      9  C   UNL     1      -7.253   1.013 -18.750  1.00  0.00     0.039 C 
ATOM     10  G   UNL     1      -9.381   1.981 -19.881  1.00  0.00     0.000 G0
ENDBRANCH   6   7
ENDBRANCH   5   6
ENDBRANCH   3   5
ENDBRANCH   1   3
BRANCH   1  11
ATOM     11  C   UNL     1     -12.127   1.726 -18.644  1.00  0.00     0.087 C 
BRANCH  11  12
ATOM     12  C   UNL     1     -11.378   0.411 -19.005  1.00  0.00     0.066 C 
BRANCH  12  13
ATOM     13  C   UNL     1     -10.157   0.660 -19.889  1.00  0.00     0.140 C 
ATOM     14  O   UNL     1      -9.747  -0.248 -20.598  1.00  0.00    -0.299 OA
BRANCH  13  15
ATOM     15  C   UNL     1      -9.384   1.969 -19.901  1.00  0.00     0.106 CG0
ATOM     16  G   UNL     1      -8.331   2.087 -18.815  1.00  0.00     0.000 G0
ENDBRANCH  13  15
ENDBRANCH  12  13
BRANCH  12  17
ATOM     17  C   UNL     1     -12.297  -0.684 -19.633  1.00  0.00    -0.006 C 
ATOM     18  C   UNL     1     -12.188  -0.803 -21.163  1.00  0.00     0.008 C 
ATOM     19  C   UNL     1     -13.767  -0.496 -19.225  1.00  0.00     0.008 C 
ENDBRANCH  12  17
ENDBRANCH  11  12
ENDBRANCH   1  11
TORSDOF 1
ENDMDL
MODEL 5
REMARK VINA RESULT:    -3.030      1.687      3.804
REMARK INTER + INTRA:          -4.143
REMARK INTER:                  -5.735
REMARK INTRA:                   1.592
REMARK UNBOUND:                 0.480
REMARK SMILES CC1=CCC[C@@H](C)C(=O)C[C@@H](C(C)C)C(=O)C1
REMARK SMILES IDX 8 1 9 2 6 3 7 4 5 5 4 6 3 7 2 8 1 9 10 11 11 12 15 13 16 14
REMARK SMILES IDX 17 15 12 17 13 18 14 19
REMARK H PARENT
REMARK Flexibility Score: 70.00
ROOT
ATOM      1  C   UNL     1     -10.632   0.829 -19.813  1.00  0.00     0.136 C 
ATOM      2  O   UNL     1     -10.880   0.062 -20.735  1.00  0.00    -0.299 OA
ENDROOT
BRANCH   1   3
ATOM      3  C   UNL     1     -11.484   0.776 -18.560  1.00  0.00     0.053 C 
ATOM      4  C   UNL     1     -12.313  -0.511 -18.518  1.00  0.00     0.016 C 
BRANCH   3   5
ATOM      5  C   UNL     1     -12.390   2.036 -18.496  1.00  0.00     0.015 C 
BRANCH   5   6
ATOM      6  C   UNL     1     -11.903   3.140 -17.537  1.00  0.00     0.028 C 
BRANCH   6   7
ATOM      7  C   UNL     1     -12.368   4.547 -17.854  1.00  0.00    -0.028 C 
ATOM      8  C   UNL     1     -12.165   5.222 -19.011  1.00  0.00    -0.070 CG0
ATOM      9  C   UNL     1     -12.774   6.594 -19.147  1.00  0.00     0.039 C 
ATOM     10  G   UNL     1     -11.296   4.703 -20.140  1.00  0.00     0.000 G0
ENDBRANCH   6   7
ENDBRANCH   5   6
ENDBRANCH   3   5
ENDBRANCH   1   3
BRANCH   1  11
ATOM     11  C   UNL     1      -9.481   1.801 -19.964  1.00  0.00     0.087 C 
BRANCH  11  12
ATOM     12  C   UNL     1      -9.554   3.029 -19.011  1.00  0.00     0.066 C 
BRANCH  12  13
ATOM     13  C   UNL     1      -9.887   4.323 -19.753  1.00  0.00     0.140 C 
ATOM     14  O   UNL     1      -8.985   5.108 -20.003  1.00  0.00    -0.299 OA
BRANCH  13  15
ATOM     15  C   UNL     1     -11.299   4.717 -20.158  1.00  0.00     0.106 CG0
ATOM     16  G   UNL     1     -12.158   5.232 -19.019  1.00  0.00     0.000 G0
ENDBRANCH  13  15
ENDBRANCH  12  13
BRANCH  12  17
ATOM     17  C   UNL     1      -8.282   3.216 -18.126  1.00  0.00    -0.006 C 
ATOM     18  C   UNL     1      -7.388   1.969 -18.027  1.00  0.00     0.008 C 
ATOM     19  C   UNL     1      -8.639   3.718 -16.717  1.00  0.00     0.008 C 
ENDBRANCH  12  17
ENDBRANCH  11  12
ENDBRANCH   1  11
TORSDOF 1
ENDMDL
MODEL 6
REMARK VINA RESULT:    -2.581      1.826      3.755
REMARK INTER + INTRA:          -3.459
REMARK INTER:                  -3.324
REMARK INTRA:                  -0.135
REMARK UNBOUND:                 0.480
REMARK SMILES CC1=CCC[C@@H](C)C(=O)C[C@@H](C(C)C)C(=O)C1
REMARK SMILES IDX 8 1 9 2 6 3 7 4 5 5 4 6 3 7 2 8 1 9 10 11 11 12 15 13 16 14
REMARK SMILES IDX 17 15 12 17 13 18 14 19
REMARK H PARENT
REMARK Flexibility Score: 70.00
ROOT
ATOM      1  C   UNL     1     -11.815   3.494 -18.471  1.00  0.00     0.136 C 
ATOM      2  O   UNL     1     -11.900   3.296 -17.265  1.00  0.00    -0.299 OA
ENDROOT
BRANCH   1   3
ATOM      3  C   UNL     1     -11.674   4.916 -18.977  1.00  0.00     0.053 C 
ATOM      4  C   UNL     1     -11.969   4.993 -20.478  1.00  0.00     0.016 C 
BRANCH   3   5
ATOM      5  C   UNL     1     -10.249   5.443 -18.652  1.00  0.00     0.015 C 
BRANCH   5   6
ATOM      6  C   UNL     1      -9.107   4.737 -19.409  1.00  0.00     0.028 C 
BRANCH   6   7
ATOM      7  C   UNL     1      -8.339   3.691 -18.627  1.00  0.00    -0.028 C 
ATOM      8  C   UNL     1      -8.087   2.418 -19.015  1.00  0.00    -0.070 CG0
ATOM      9  C   UNL     1      -7.239   1.557 -18.113  1.00  0.00     0.039 C 
ATOM     10  G   UNL     1      -8.676   1.792 -20.265  1.00  0.00     0.000 G0
ENDBRANCH   6   7
ENDBRANCH   5   6
ENDBRANCH   3   5
ENDBRANCH   1   3
BRANCH   1  11
ATOM     11  C   UNL     1     -11.857   2.305 -19.408  1.00  0.00     0.087 C 
BRANCH  11  12
ATOM     12  C   UNL     1     -10.945   1.122 -18.976  1.00  0.00     0.066 C 
BRANCH  12  13
ATOM     13  C   UNL     1      -9.844   0.833 -19.996  1.00  0.00     0.140 C 
ATOM     14  O   UNL     1      -9.872  -0.223 -20.611  1.00  0.00    -0.299 OA
BRANCH  13  15
ATOM     15  C   UNL     1      -8.676   1.771 -20.257  1.00  0.00     0.106 CG0
ATOM     16  G   UNL     1      -8.095   2.412 -19.012  1.00  0.00     0.000 G0
ENDBRANCH  13  15
ENDBRANCH  12  13
BRANCH  12  17
ATOM     17  C   UNL     1     -11.728  -0.184 -18.630  1.00  0.00    -0.006 C 
ATOM     18  C   UNL     1     -13.137  -0.261 -19.243  1.00  0.00     0.008 C 
ATOM     19  C   UNL     1     -11.804  -0.416 -17.113  1.00  0.00     0.008 C 
ENDBRANCH  12  17
ENDBRANCH  11  12
ENDBRANCH   1  11
TORSDOF 1
ENDMDL
MODEL 7
REMARK VINA RESULT:    -2.479      1.927      3.448
REMARK INTER + INTRA:          -3.303
REMARK INTER:                  -4.614
REMARK INTRA:                   1.311
REMARK UNBOUND:                 0.480
REMARK SMILES CC1=CCC[C@@H](C)C(=O)C[C@@H](C(C)C)C(=O)C1
REMARK SMILES IDX 8 1 9 2 6 3 7 4 5 5 4 6 3 7 2 8 1 9 10 11 11 12 15 13 16 14
REMARK SMILES IDX 17 15 12 17 13 18 14 19
REMARK H PARENT
REMARK Flexibility Score: 70.00
ROOT
ATOM      1  C   UNL     1     -11.712   3.664 -19.039  1.00  0.00     0.136 C 
ATOM      2  O   UNL     1     -11.821   4.774 -19.545  1.00  0.00    -0.299 OA
ENDROOT
BRANCH   1   3
ATOM      3  C   UNL     1     -11.927   3.510 -17.546  1.00  0.00     0.053 C 
ATOM      4  C   UNL     1     -12.326   4.845 -16.911  1.00  0.00     0.016 C 
BRANCH   3   5
ATOM      5  C   UNL     1     -10.640   2.934 -16.894  1.00  0.00     0.015 C 
BRANCH   5   6
ATOM      6  C   UNL     1      -9.466   3.926 -16.786  1.00  0.00     0.028 C 
BRANCH   6   7
ATOM      7  C   UNL     1      -8.876   4.401 -18.099  1.00  0.00    -0.028 C 
ATOM      8  C   UNL     1      -8.327   3.625 -19.064  1.00  0.00    -0.070 CG0
ATOM      9  C   UNL     1      -7.859   4.295 -20.331  1.00  0.00     0.039 C 
ATOM     10  G   UNL     1      -8.089   2.136 -18.905  1.00  0.00     0.000 G0
ENDBRANCH   6   7
ENDBRANCH   5   6
ENDBRANCH   3   5
ENDBRANCH   1   3
BRANCH   1  11
ATOM     11  C   UNL     1     -11.365   2.489 -19.929  1.00  0.00     0.087 C 
BRANCH  11  12
ATOM     12  C   UNL     1     -10.634   1.329 -19.195  1.00  0.00     0.066 C 
BRANCH  12  13
ATOM     13  C   UNL     1      -9.151   1.255 -19.554  1.00  0.00     0.140 C 
ATOM     14  O   UNL     1      -8.782   0.425 -20.373  1.00  0.00    -0.299 OA
BRANCH  13  15
ATOM     15  C   UNL     1      -8.087   2.130 -18.908  1.00  0.00     0.106 CG0
ATOM     16  G   UNL     1      -8.312   3.620 -19.077  1.00  0.00     0.000 G0
ENDBRANCH  13  15
ENDBRANCH  12  13
BRANCH  12  17
ATOM     17  C   UNL     1     -11.314  -0.064 -19.385  1.00  0.00    -0.006 C 
ATOM     18  C   UNL     1     -12.543  -0.050 -20.310  1.00  0.00     0.008 C 
ATOM     19  C   UNL     1     -11.680  -0.707 -18.037  1.00  0.00     0.008 C 
ENDBRANCH  12  17
ENDBRANCH  11  12
ENDBRANCH   1  11
TORSDOF 1
ENDMDL
MODEL 8
REMARK VINA RESULT:    -2.197      1.646      3.158
REMARK INTER + INTRA:          -2.873
REMARK INTER:                  -4.208
REMARK INTRA:                   1.335
REMARK UNBOUND:                 0.480
REMARK SMILES CC1=CCC[C@@H](C)C(=O)C[C@@H](C(C)C)C(=O)C1
REMARK SMILES IDX 8 1 9 2 6 3 7 4 5 5 4 6 3 7 2 8 1 9 10 11 11 12 15 13 16 14
REMARK SMILES IDX 17 15 12 17 13 18 14 19
REMARK H PARENT
REMARK Flexibility Score: 70.00
ROOT
ATOM      1  C   UNL     1     -10.614   4.055 -20.200  1.00  0.00     0.136 C 
ATOM      2  O   UNL     1      -9.656   4.818 -20.164  1.00  0.00    -0.299 OA
ENDROOT
BRANCH   1   3
ATOM      3  C   UNL     1     -11.998   4.620 -20.452  1.00  0.00     0.053 C 
ATOM      4  C   UNL     1     -12.147   5.071 -21.908  1.00  0.00     0.016 C 
BRANCH   3   5
ATOM      5  C   UNL     1     -12.268   5.789 -19.466  1.00  0.00     0.015 C 
BRANCH   5   6
ATOM      6  C   UNL     1     -12.409   5.375 -17.988  1.00  0.00     0.028 C 
BRANCH   6   7
ATOM      7  C   UNL     1     -11.133   4.945 -17.294  1.00  0.00    -0.028 C 
ATOM      8  C   UNL     1     -10.825   3.695 -16.875  1.00  0.00    -0.070 CG0
ATOM      9  C   UNL     1      -9.465   3.466 -16.266  1.00  0.00     0.039 C 
ATOM     10  G   UNL     1     -11.802   2.535 -16.912  1.00  0.00     0.000 G0
ENDBRANCH   6   7
ENDBRANCH   5   6
ENDBRANCH   3   5
ENDBRANCH   1   3
BRANCH   1  11
ATOM     11  C   UNL     1     -10.372   2.575 -19.991  1.00  0.00     0.087 C 
BRANCH  11  12
ATOM     12  C   UNL     1     -11.616   1.793 -19.479  1.00  0.00     0.066 C 
BRANCH  12  13
ATOM     13  C   UNL     1     -11.541   1.496 -17.982  1.00  0.00     0.140 C 
ATOM     14  O   UNL     1     -11.300   0.354 -17.618  1.00  0.00    -0.299 OA
BRANCH  13  15
ATOM     15  C   UNL     1     -11.802   2.539 -16.906  1.00  0.00     0.106 CG0
ATOM     16  G   UNL     1     -10.809   3.685 -16.887  1.00  0.00     0.000 G0
ENDBRANCH  13  15
ENDBRANCH  12  13
BRANCH  12  17
ATOM     17  C   UNL     1     -11.915   0.489 -20.283  1.00  0.00    -0.006 C 
ATOM     18  C   UNL     1     -12.885  -0.479 -19.584  1.00  0.00     0.008 C 
ATOM     19  C   UNL     1     -10.624  -0.251 -20.667  1.00  0.00     0.008 C 
ENDBRANCH  12  17
ENDBRANCH  11  12
ENDBRANCH   1  11
TORSDOF 1
ENDMDL
MODEL 9
REMARK VINA RESULT:    -2.135      1.929      4.169
REMARK INTER + INTRA:          -2.778
REMARK INTER:                  -4.167
REMARK INTRA:                   1.389
REMARK UNBOUND:                 0.480
REMARK SMILES CC1=CCC[C@@H](C)C(=O)C[C@@H](C(C)C)C(=O)C1
REMARK SMILES IDX 8 1 9 2 6 3 7 4 5 5 4 6 3 7 2 8 1 9 10 11 11 12 15 13 16 14
REMARK SMILES IDX 17 15 12 17 13 18 14 19
REMARK H PARENT
REMARK Flexibility Score: 70.00
ROOT
ATOM      1  C   UNL     1     -10.405   4.464 -19.024  1.00  0.00     0.136 C 
ATOM      2  O   UNL     1      -9.837   5.376 -19.613  1.00  0.00    -0.299 OA
ENDROOT
BRANCH   1   3
ATOM      3  C   UNL     1     -10.721   4.622 -17.549  1.00  0.00     0.053 C 
ATOM      4  C   UNL     1      -9.606   4.026 -16.685  1.00  0.00     0.016 C 
BRANCH   3   5
ATOM      5  C   UNL     1     -12.093   3.962 -17.240  1.00  0.00     0.015 C 
BRANCH   5   6
ATOM      6  C   UNL     1     -12.027   2.466 -16.876  1.00  0.00     0.028 C 
BRANCH   6   7
ATOM      7  C   UNL     1     -12.769   1.524 -17.802  1.00  0.00    -0.028 C 
ATOM      8  C   UNL     1     -12.233   0.500 -18.508  1.00  0.00    -0.070 CG0
ATOM      9  C   UNL     1     -13.164  -0.364 -19.320  1.00  0.00     0.039 C 
ATOM     10  G   UNL     1     -10.743   0.227 -18.587  1.00  0.00     0.000 G0
ENDBRANCH   6   7
ENDBRANCH   5   6
ENDBRANCH   3   5
ENDBRANCH   1   3
BRANCH   1  11
ATOM     11  C   UNL     1     -10.768   3.213 -19.796  1.00  0.00     0.087 C 
BRANCH  11  12
ATOM     12  C   UNL     1      -9.595   2.206 -19.965  1.00  0.00     0.066 C 
BRANCH  12  13
ATOM     13  C   UNL     1     -10.047   0.754 -19.811  1.00  0.00     0.140 C 
ATOM     14  O   UNL     1      -9.875  -0.019 -20.741  1.00  0.00    -0.299 OA
BRANCH  13  15
ATOM     15  C   UNL     1     -10.752   0.223 -18.572  1.00  0.00     0.106 CG0
ATOM     16  G   UNL     1     -12.240   0.508 -18.526  1.00  0.00     0.000 G0
ENDBRANCH  13  15
ENDBRANCH  12  13
BRANCH  12  17
ATOM     17  C   UNL     1      -8.373   2.501 -19.038  1.00  0.00    -0.006 C 
ATOM     18  C   UNL     1      -7.360   3.500 -19.622  1.00  0.00     0.008 C 
ATOM     19  C   UNL     1      -7.653   1.210 -18.618  1.00  0.00     0.008 C 
ENDBRANCH  12  17
ENDBRANCH  11  12
ENDBRANCH   1  11
TORSDOF 1
ENDMDL
