MODEL 1
REMARK VINA RESULT:    -7.633      0.000      0.000
REMARK INTER + INTRA:          -7.633
REMARK INTER:                  -7.633
REMARK INTRA:                   0.000
REMARK UNBOUND:                 0.000
REMARK SMILES C=C1CCCC(C)(C)[C@@]12CC=C(C)CC2
REMARK SMILES IDX 13 1 12 2 11 3 10 4 9 5 15 6 14 7 2 8 1 9 3 10 4 11 5 12
REMARK SMILES IDX 6 13 7 14 8 15
REMARK H PARENT
REMARK Flexibility Score: inf
ROOT
ATOM      1  C   UNL     1      -5.394 -15.348   4.849  1.00  0.00     0.039 C 
ATOM      2  C   UNL     1      -5.068 -15.423   6.314  1.00  0.00    -0.077 C 
ATOM      3  C   UNL     1      -4.709 -14.322   6.988  1.00  0.00    -0.027 C 
ATOM      4  C   UNL     1      -4.411 -14.444   8.458  1.00  0.00     0.039 C 
ATOM      5  C   UNL     1      -3.377 -15.605   8.779  1.00  0.00    -0.000 C 
ATOM      6  C   UNL     1      -3.667 -16.824   7.784  1.00  0.00     0.017 C 
ATOM      7  C   UNL     1      -5.017 -16.740   7.049  1.00  0.00     0.031 C 
ATOM      8  C   UNL     1      -1.940 -15.017   8.626  1.00  0.00    -0.070 C 
ATOM      9  C   UNL     1      -0.917 -15.648   8.003  1.00  0.00     0.008 C 
ATOM     10  C   UNL     1      -1.565 -13.842   9.519  1.00  0.00     0.031 C 
ATOM     11  C   UNL     1      -1.803 -14.199  10.991  1.00  0.00     0.005 C 
ATOM     12  C   UNL     1      -3.188 -14.827  11.239  1.00  0.00     0.008 C 
ATOM     13  C   UNL     1      -3.493 -16.051  10.315  1.00  0.00    -0.026 C 
ATOM     14  C   UNL     1      -4.902 -16.585  10.689  1.00  0.00     0.012 C 
ATOM     15  C   UNL     1      -2.488 -17.191  10.671  1.00  0.00     0.012 C 
ENDROOT
TORSDOF 0
ENDMDL
MODEL 2
REMARK VINA RESULT:    -6.556      1.458      4.750
REMARK INTER + INTRA:          -6.556
REMARK INTER:                  -6.556
REMARK INTRA:                   0.000
REMARK UNBOUND:                 0.000
REMARK SMILES C=C1CCCC(C)(C)[C@@]12CC=C(C)CC2
REMARK SMILES IDX 13 1 12 2 11 3 10 4 9 5 15 6 14 7 2 8 1 9 3 10 4 11 5 12
REMARK SMILES IDX 6 13 7 14 8 15
REMARK H PARENT
REMARK Flexibility Score: inf
ROOT
ATOM      1  C   UNL     1      -1.988 -16.551  13.482  1.00  0.00     0.039 C 
ATOM      2  C   UNL     1      -2.474 -15.962  12.188  1.00  0.00    -0.077 C 
ATOM      3  C   UNL     1      -3.739 -16.152  11.786  1.00  0.00    -0.027 C 
ATOM      4  C   UNL     1      -4.184 -15.525  10.493  1.00  0.00     0.039 C 
ATOM      5  C   UNL     1      -3.206 -15.850   9.286  1.00  0.00    -0.000 C 
ATOM      6  C   UNL     1      -1.707 -15.864   9.845  1.00  0.00     0.017 C 
ATOM      7  C   UNL     1      -1.542 -15.243  11.244  1.00  0.00     0.031 C 
ATOM      8  C   UNL     1      -3.644 -17.216   8.673  1.00  0.00    -0.070 C 
ATOM      9  C   UNL     1      -2.790 -18.203   8.314  1.00  0.00     0.008 C 
ATOM     10  C   UNL     1      -5.060 -17.315   8.123  1.00  0.00     0.031 C 
ATOM     11  C   UNL     1      -5.307 -16.206   7.094  1.00  0.00     0.005 C 
ATOM     12  C   UNL     1      -4.867 -14.816   7.594  1.00  0.00     0.008 C 
ATOM     13  C   UNL     1      -3.391 -14.778   8.109  1.00  0.00    -0.026 C 
ATOM     14  C   UNL     1      -3.087 -13.322   8.558  1.00  0.00     0.012 C 
ATOM     15  C   UNL     1      -2.446 -15.064   6.900  1.00  0.00     0.012 C 
ENDROOT
TORSDOF 0
ENDMDL
MODEL 3
REMARK VINA RESULT:    -6.254      1.204      4.287
REMARK INTER + INTRA:          -6.254
REMARK INTER:                  -6.254
REMARK INTRA:                   0.000
REMARK UNBOUND:                 0.000
REMARK SMILES C=C1CCCC(C)(C)[C@@]12CC=C(C)CC2
REMARK SMILES IDX 13 1 12 2 11 3 10 4 9 5 15 6 14 7 2 8 1 9 3 10 4 11 5 12
REMARK SMILES IDX 6 13 7 14 8 15
REMARK H PARENT
REMARK Flexibility Score: inf
ROOT
ATOM      1  C   UNL     1       0.626 -13.839   9.509  1.00  0.00     0.039 C 
ATOM      2  C   UNL     1      -0.551 -14.764   9.385  1.00  0.00    -0.077 C 
ATOM      3  C   UNL     1      -0.840 -15.346   8.213  1.00  0.00    -0.027 C 
ATOM      4  C   UNL     1      -2.017 -16.280   8.145  1.00  0.00     0.039 C 
ATOM      5  C   UNL     1      -3.342 -15.642   8.742  1.00  0.00    -0.000 C 
ATOM      6  C   UNL     1      -2.940 -14.742  10.004  1.00  0.00     0.017 C 
ATOM      7  C   UNL     1      -1.513 -14.981  10.528  1.00  0.00     0.031 C 
ATOM      8  C   UNL     1      -4.033 -14.828   7.605  1.00  0.00    -0.070 C 
ATOM      9  C   UNL     1      -4.567 -13.594   7.761  1.00  0.00     0.008 C 
ATOM     10  C   UNL     1      -4.445 -15.588   6.351  1.00  0.00     0.031 C 
ATOM     11  C   UNL     1      -5.335 -16.780   6.723  1.00  0.00     0.005 C 
ATOM     12  C   UNL     1      -4.754 -17.626   7.872  1.00  0.00     0.008 C 
ATOM     13  C   UNL     1      -4.388 -16.789   9.141  1.00  0.00    -0.026 C 
ATOM     14  C   UNL     1      -3.838 -17.771  10.211  1.00  0.00     0.012 C 
ATOM     15  C   UNL     1      -5.708 -16.199   9.731  1.00  0.00     0.012 C 
ENDROOT
TORSDOF 0
ENDMDL
MODEL 4
REMARK VINA RESULT:    -6.200      0.864      3.013
REMARK INTER + INTRA:          -6.200
REMARK INTER:                  -6.200
REMARK INTRA:                   0.000
REMARK UNBOUND:                 0.000
REMARK SMILES C=C1CCCC(C)(C)[C@@]12CC=C(C)CC2
REMARK SMILES IDX 13 1 12 2 11 3 10 4 9 5 15 6 14 7 2 8 1 9 3 10 4 11 5 12
REMARK SMILES IDX 6 13 7 14 8 15
REMARK H PARENT
REMARK Flexibility Score: inf
ROOT
ATOM      1  C   UNL     1      -5.750 -15.374   4.923  1.00  0.00     0.039 C 
ATOM      2  C   UNL     1      -4.764 -15.404   6.057  1.00  0.00    -0.077 C 
ATOM      3  C   UNL     1      -4.209 -16.560   6.446  1.00  0.00    -0.027 C 
ATOM      4  C   UNL     1      -3.212 -16.535   7.573  1.00  0.00     0.039 C 
ATOM      5  C   UNL     1      -3.754 -15.768   8.853  1.00  0.00    -0.000 C 
ATOM      6  C   UNL     1      -4.629 -14.523   8.358  1.00  0.00     0.017 C 
ATOM      7  C   UNL     1      -4.453 -14.171   6.870  1.00  0.00     0.031 C 
ATOM      8  C   UNL     1      -4.566 -16.787   9.710  1.00  0.00    -0.070 C 
ATOM      9  C   UNL     1      -5.762 -16.521  10.286  1.00  0.00     0.008 C 
ATOM     10  C   UNL     1      -3.829 -18.017  10.221  1.00  0.00     0.031 C 
ATOM     11  C   UNL     1      -2.577 -17.599  11.000  1.00  0.00     0.005 C 
ATOM     12  C   UNL     1      -1.725 -16.558  10.249  1.00  0.00     0.008 C 
ATOM     13  C   UNL     1      -2.536 -15.304   9.786  1.00  0.00    -0.026 C 
ATOM     14  C   UNL     1      -1.549 -14.343   9.067  1.00  0.00     0.012 C 
ATOM     15  C   UNL     1      -3.028 -14.546  11.059  1.00  0.00     0.012 C 
ENDROOT
TORSDOF 0
ENDMDL
MODEL 5
REMARK VINA RESULT:    -6.052      1.327      4.685
REMARK INTER + INTRA:          -6.052
REMARK INTER:                  -6.052
REMARK INTRA:                   0.000
REMARK UNBOUND:                 0.000
REMARK SMILES C=C1CCCC(C)(C)[C@@]12CC=C(C)CC2
REMARK SMILES IDX 13 1 12 2 11 3 10 4 9 5 15 6 14 7 2 8 1 9 3 10 4 11 5 12
REMARK SMILES IDX 6 13 7 14 8 15
REMARK H PARENT
REMARK Flexibility Score: inf
ROOT
ATOM      1  C   UNL     1      -2.403 -14.090  13.243  1.00  0.00     0.039 C 
ATOM      2  C   UNL     1      -2.419 -14.725  11.881  1.00  0.00    -0.077 C 
ATOM      3  C   UNL     1      -2.895 -14.054  10.823  1.00  0.00    -0.027 C 
ATOM      4  C   UNL     1      -2.871 -14.725   9.477  1.00  0.00     0.039 C 
ATOM      5  C   UNL     1      -3.521 -16.174   9.503  1.00  0.00    -0.000 C 
ATOM      6  C   UNL     1      -3.144 -16.867  10.895  1.00  0.00     0.017 C 
ATOM      7  C   UNL     1      -2.017 -16.165  11.673  1.00  0.00     0.031 C 
ATOM      8  C   UNL     1      -5.059 -16.008   9.296  1.00  0.00    -0.070 C 
ATOM      9  C   UNL     1      -6.002 -16.670  10.007  1.00  0.00     0.008 C 
ATOM     10  C   UNL     1      -5.525 -15.346   8.008  1.00  0.00     0.031 C 
ATOM     11  C   UNL     1      -4.936 -16.075   6.794  1.00  0.00     0.005 C 
ATOM     12  C   UNL     1      -3.420 -16.322   6.923  1.00  0.00     0.008 C 
ATOM     13  C   UNL     1      -3.015 -17.039   8.252  1.00  0.00    -0.026 C 
ATOM     14  C   UNL     1      -1.475 -17.235   8.231  1.00  0.00     0.012 C 
ATOM     15  C   UNL     1      -3.635 -18.471   8.240  1.00  0.00     0.012 C 
ENDROOT
TORSDOF 0
ENDMDL
MODEL 6
REMARK VINA RESULT:    -6.018      1.321      4.130
REMARK INTER + INTRA:          -6.018
REMARK INTER:                  -6.018
REMARK INTRA:                   0.000
REMARK UNBOUND:                 0.000
REMARK SMILES C=C1CCCC(C)(C)[C@@]12CC=C(C)CC2
REMARK SMILES IDX 13 1 12 2 11 3 10 4 9 5 15 6 14 7 2 8 1 9 3 10 4 11 5 12
REMARK SMILES IDX 6 13 7 14 8 15
REMARK H PARENT
REMARK Flexibility Score: inf
ROOT
ATOM      1  C   UNL     1       0.236 -13.135   9.873  1.00  0.00     0.039 C 
ATOM      2  C   UNL     1      -0.947 -13.886   9.331  1.00  0.00    -0.077 C 
ATOM      3  C   UNL     1      -2.180 -13.645   9.799  1.00  0.00    -0.027 C 
ATOM      4  C   UNL     1      -3.334 -14.408   9.210  1.00  0.00     0.039 C 
ATOM      5  C   UNL     1      -3.087 -15.976   9.191  1.00  0.00    -0.000 C 
ATOM      6  C   UNL     1      -1.541 -16.236   8.872  1.00  0.00     0.017 C 
ATOM      7  C   UNL     1      -0.785 -15.007   8.335  1.00  0.00     0.031 C 
ATOM      8  C   UNL     1      -3.532 -16.544  10.575  1.00  0.00    -0.070 C 
ATOM      9  C   UNL     1      -2.831 -17.455  11.289  1.00  0.00     0.008 C 
ATOM     10  C   UNL     1      -4.984 -16.338  10.982  1.00  0.00     0.031 C 
ATOM     11  C   UNL     1      -5.921 -16.881   9.897  1.00  0.00     0.005 C 
ATOM     12  C   UNL     1      -5.537 -16.406   8.482  1.00  0.00     0.008 C 
ATOM     13  C   UNL     1      -4.043 -16.682   8.115  1.00  0.00    -0.026 C 
ATOM     14  C   UNL     1      -3.811 -16.171   6.667  1.00  0.00     0.012 C 
ATOM     15  C   UNL     1      -3.831 -18.228   8.068  1.00  0.00     0.012 C 
ENDROOT
TORSDOF 0
ENDMDL
MODEL 7
REMARK VINA RESULT:    -5.648      1.703      4.954
REMARK INTER + INTRA:          -5.648
REMARK INTER:                  -5.648
REMARK INTRA:                   0.000
REMARK UNBOUND:                 0.000
REMARK SMILES C=C1CCCC(C)(C)[C@@]12CC=C(C)CC2
REMARK SMILES IDX 13 1 12 2 11 3 10 4 9 5 15 6 14 7 2 8 1 9 3 10 4 11 5 12
REMARK SMILES IDX 6 13 7 14 8 15
REMARK H PARENT
REMARK Flexibility Score: inf
ROOT
ATOM      1  C   UNL     1      -1.254 -16.234  14.370  1.00  0.00     0.039 C 
ATOM      2  C   UNL     1      -2.175 -16.443  13.200  1.00  0.00    -0.077 C 
ATOM      3  C   UNL     1      -2.043 -17.520  12.414  1.00  0.00    -0.027 C 
ATOM      4  C   UNL     1      -3.002 -17.695  11.268  1.00  0.00     0.039 C 
ATOM      5  C   UNL     1      -3.108 -16.401  10.355  1.00  0.00    -0.000 C 
ATOM      6  C   UNL     1      -3.012 -15.112  11.299  1.00  0.00     0.017 C 
ATOM      7  C   UNL     1      -3.195 -15.406  12.799  1.00  0.00     0.031 C 
ATOM      8  C   UNL     1      -1.965 -16.471   9.295  1.00  0.00    -0.070 C 
ATOM      9  C   UNL     1      -1.180 -15.425   8.945  1.00  0.00     0.008 C 
ATOM     10  C   UNL     1      -1.956 -17.667   8.353  1.00  0.00     0.031 C 
ATOM     11  C   UNL     1      -3.307 -17.788   7.637  1.00  0.00     0.005 C 
ATOM     12  C   UNL     1      -4.506 -17.689   8.601  1.00  0.00     0.008 C 
ATOM     13  C   UNL     1      -4.471 -16.419   9.512  1.00  0.00    -0.026 C 
ATOM     14  C   UNL     1      -5.740 -16.446  10.406  1.00  0.00     0.012 C 
ATOM     15  C   UNL     1      -4.612 -15.161   8.598  1.00  0.00     0.012 C 
ENDROOT
TORSDOF 0
ENDMDL
MODEL 8
REMARK VINA RESULT:    -4.765      1.489      4.168
REMARK INTER + INTRA:          -4.765
REMARK INTER:                  -4.765
REMARK INTRA:                   0.000
REMARK UNBOUND:                 0.000
REMARK SMILES C=C1CCCC(C)(C)[C@@]12CC=C(C)CC2
REMARK SMILES IDX 13 1 12 2 11 3 10 4 9 5 15 6 14 7 2 8 1 9 3 10 4 11 5 12
REMARK SMILES IDX 6 13 7 14 8 15
REMARK H PARENT
REMARK Flexibility Score: inf
ROOT
ATOM      1  C   UNL     1      -4.916 -15.413  13.639  1.00  0.00     0.039 C 
ATOM      2  C   UNL     1      -4.323 -15.956  12.370  1.00  0.00    -0.077 C 
ATOM      3  C   UNL     1      -3.004 -15.878  12.147  1.00  0.00    -0.027 C 
ATOM      4  C   UNL     1      -2.455 -16.454  10.870  1.00  0.00     0.039 C 
ATOM      5  C   UNL     1      -3.226 -15.936   9.583  1.00  0.00    -0.000 C 
ATOM      6  C   UNL     1      -4.778 -15.798   9.950  1.00  0.00     0.017 C 
ATOM      7  C   UNL     1      -5.188 -16.497  11.259  1.00  0.00     0.031 C 
ATOM      8  C   UNL     1      -2.576 -14.586   9.150  1.00  0.00    -0.070 C 
ATOM      9  C   UNL     1      -3.272 -13.487   8.774  1.00  0.00     0.008 C 
ATOM     10  C   UNL     1      -1.097 -14.604   8.791  1.00  0.00     0.031 C 
ATOM     11  C   UNL     1      -0.827 -15.656   7.709  1.00  0.00     0.005 C 
ATOM     12  C   UNL     1      -1.467 -17.021   8.028  1.00  0.00     0.008 C 
ATOM     13  C   UNL     1      -2.995 -16.934   8.350  1.00  0.00    -0.026 C 
ATOM     14  C   UNL     1      -3.500 -18.376   8.630  1.00  0.00     0.012 C 
ATOM     15  C   UNL     1      -3.737 -16.457   7.062  1.00  0.00     0.012 C 
ENDROOT
TORSDOF 0
ENDMDL
MODEL 9
REMARK VINA RESULT:    -4.650      1.979      5.311
REMARK INTER + INTRA:          -4.650
REMARK INTER:                  -4.650
REMARK INTRA:                   0.000
REMARK UNBOUND:                 0.000
REMARK SMILES C=C1CCCC(C)(C)[C@@]12CC=C(C)CC2
REMARK SMILES IDX 13 1 12 2 11 3 10 4 9 5 15 6 14 7 2 8 1 9 3 10 4 11 5 12
REMARK SMILES IDX 6 13 7 14 8 15
REMARK H PARENT
REMARK Flexibility Score: inf
ROOT
ATOM      1  C   UNL     1      -2.019 -16.883  15.141  1.00  0.00     0.039 C 
ATOM      2  C   UNL     1      -2.112 -16.431  13.711  1.00  0.00    -0.077 C 
ATOM      3  C   UNL     1      -3.200 -15.785  13.271  1.00  0.00    -0.027 C 
ATOM      4  C   UNL     1      -3.237 -15.335  11.836  1.00  0.00     0.039 C 
ATOM      5  C   UNL     1      -2.884 -16.501  10.818  1.00  0.00    -0.000 C 
ATOM      6  C   UNL     1      -1.747 -17.413  11.477  1.00  0.00     0.017 C 
ATOM      7  C   UNL     1      -1.051 -16.783  12.698  1.00  0.00     0.031 C 
ATOM      8  C   UNL     1      -4.199 -17.283  10.516  1.00  0.00    -0.070 C 
ATOM      9  C   UNL     1      -4.293 -18.633  10.467  1.00  0.00     0.008 C 
ATOM     10  C   UNL     1      -5.352 -16.503   9.898  1.00  0.00     0.031 C 
ATOM     11  C   UNL     1      -4.888 -15.796   8.620  1.00  0.00     0.005 C 
ATOM     12  C   UNL     1      -3.567 -15.024   8.808  1.00  0.00     0.008 C 
ATOM     13  C   UNL     1      -2.417 -15.894   9.410  1.00  0.00    -0.026 C 
ATOM     14  C   UNL     1      -1.155 -14.995   9.523  1.00  0.00     0.012 C 
ATOM     15  C   UNL     1      -2.061 -17.012   8.379  1.00  0.00     0.012 C 
ENDROOT
TORSDOF 0
ENDMDL
