MODEL 1
REMARK VINA RESULT:    -4.490      0.000      0.000
REMARK INTER + INTRA:          -5.404
REMARK INTER:                  -5.277
REMARK INTRA:                  -0.127
REMARK UNBOUND:                -0.127
REMARK SMILES O=C([O-])C=Cc1ccc(O)c(O)c1
REMARK SMILES IDX 6 1 13 2 7 3 11 4 8 5 9 6 5 7 4 8 2 9 1 10 3 11 12 12 10 14
REMARK H PARENT 12 13 10 15
REMARK Flexibility Score: inf
ROOT
ATOM      1  C   UNL     1      19.478 -46.104   6.961  1.00  0.00    -0.022 A 
ATOM      2  C   UNL     1      18.764 -46.608   8.062  1.00  0.00     0.058 A 
ATOM      3  C   UNL     1      19.655 -46.926   5.831  1.00  0.00     0.012 A 
ATOM      4  C   UNL     1      18.215 -47.899   8.028  1.00  0.00     0.157 A 
ATOM      5  C   UNL     1      19.108 -48.211   5.798  1.00  0.00     0.051 A 
ATOM      6  C   UNL     1      18.385 -48.700   6.893  1.00  0.00     0.157 A 
ENDROOT
BRANCH   1   7
ATOM      7  C   UNL     1      20.048 -44.736   7.052  1.00  0.00     0.010 C 
ATOM      8  C   UNL     1      20.880 -44.340   8.024  1.00  0.00     0.025 C 
BRANCH   8   9
ATOM      9  C   UNL     1      21.432 -42.976   8.068  1.00  0.00     0.064 C 
ATOM     10  O   UNL     1      20.760 -42.051   8.596  1.00  0.00    -0.545 OA
ATOM     11  O   UNL     1      22.683 -42.691   7.535  1.00  0.00    -0.545 OA
ENDBRANCH   8   9
ENDBRANCH   1   7
BRANCH   4  12
ATOM     12  O   UNL     1      17.500 -48.390   9.120  1.00  0.00    -0.504 OA
ATOM     13  H   UNL     1      16.585 -48.027   9.361  1.00  0.00     0.293 HD
ENDBRANCH   4  12
BRANCH   6  14
ATOM     14  O   UNL     1      17.838 -49.982   6.863  1.00  0.00    -0.504 OA
ATOM     15  H   UNL     1      18.396 -50.791   6.619  1.00  0.00     0.293 HD
ENDBRANCH   6  14
TORSDOF 4
ENDMDL
MODEL 2
REMARK VINA RESULT:    -4.410      1.034      1.938
REMARK INTER + INTRA:          -5.311
REMARK INTER:                  -5.177
REMARK INTRA:                  -0.134
REMARK UNBOUND:                -0.127
REMARK SMILES O=C([O-])C=Cc1ccc(O)c(O)c1
REMARK SMILES IDX 6 1 13 2 7 3 11 4 8 5 9 6 5 7 4 8 2 9 1 10 3 11 12 12 10 14
REMARK H PARENT 12 13 10 15
REMARK Flexibility Score: inf
ROOT
ATOM      1  C   UNL     1      19.656 -46.246   8.098  1.00  0.00    -0.022 A 
ATOM      2  C   UNL     1      19.591 -46.551   6.728  1.00  0.00     0.058 A 
ATOM      3  C   UNL     1      19.090 -47.146   9.023  1.00  0.00     0.012 A 
ATOM      4  C   UNL     1      18.997 -47.742   6.288  1.00  0.00     0.157 A 
ATOM      5  C   UNL     1      18.498 -48.332   8.583  1.00  0.00     0.051 A 
ATOM      6  C   UNL     1      18.452 -48.636   7.217  1.00  0.00     0.157 A 
ENDROOT
BRANCH   1   7
ATOM      7  C   UNL     1      20.285 -44.966   8.512  1.00  0.00     0.010 C 
ATOM      8  C   UNL     1      20.762 -44.059   7.649  1.00  0.00     0.025 C 
BRANCH   8   9
ATOM      9  C   UNL     1      21.369 -42.797   8.103  1.00  0.00     0.064 C 
ATOM     10  O   UNL     1      20.748 -42.069   8.922  1.00  0.00    -0.545 OA
ATOM     11  O   UNL     1      22.616 -42.394   7.642  1.00  0.00    -0.545 OA
ENDBRANCH   8   9
ENDBRANCH   1   7
BRANCH   4  12
ATOM     12  O   UNL     1      18.945 -48.044   4.927  1.00  0.00    -0.504 OA
ATOM     13  H   UNL     1      19.095 -47.333   4.220  1.00  0.00     0.293 HD
ENDBRANCH   4  12
BRANCH   6  14
ATOM     14  O   UNL     1      17.863 -49.819   6.775  1.00  0.00    -0.504 OA
ATOM     15  H   UNL     1      18.351 -50.456   6.157  1.00  0.00     0.293 HD
ENDBRANCH   6  14
TORSDOF 4
ENDMDL
MODEL 3
REMARK VINA RESULT:    -4.374      3.022      5.073
REMARK INTER + INTRA:          -5.268
REMARK INTER:                  -5.141
REMARK INTRA:                  -0.127
REMARK UNBOUND:                -0.127
REMARK SMILES O=C([O-])C=Cc1ccc(O)c(O)c1
REMARK SMILES IDX 6 1 13 2 7 3 11 4 8 5 9 6 5 7 4 8 2 9 1 10 3 11 12 12 10 14
REMARK H PARENT 12 13 10 15
REMARK Flexibility Score: inf
ROOT
ATOM      1  C   UNL     1      19.478 -47.350   6.172  1.00  0.00    -0.022 A 
ATOM      2  C   UNL     1      19.667 -45.963   6.042  1.00  0.00     0.058 A 
ATOM      3  C   UNL     1      18.508 -47.822   7.077  1.00  0.00     0.012 A 
ATOM      4  C   UNL     1      18.886 -45.063   6.782  1.00  0.00     0.157 A 
ATOM      5  C   UNL     1      17.731 -46.925   7.814  1.00  0.00     0.051 A 
ATOM      6  C   UNL     1      17.915 -45.544   7.667  1.00  0.00     0.157 A 
ENDROOT
BRANCH   1   7
ATOM      7  C   UNL     1      20.338 -48.260   5.375  1.00  0.00     0.010 C 
ATOM      8  C   UNL     1      21.677 -48.225   5.393  1.00  0.00     0.025 C 
BRANCH   8   9
ATOM      9  C   UNL     1      22.490 -49.156   4.595  1.00  0.00     0.064 C 
ATOM     10  O   UNL     1      23.323 -48.701   3.767  1.00  0.00    -0.545 OA
ATOM     11  O   UNL     1      22.354 -50.532   4.738  1.00  0.00    -0.545 OA
ENDBRANCH   8   9
ENDBRANCH   1   7
BRANCH   4  12
ATOM     12  O   UNL     1      19.072 -43.688   6.642  1.00  0.00    -0.504 OA
ATOM     13  H   UNL     1      19.828 -43.204   7.111  1.00  0.00     0.293 HD
ENDBRANCH   4  12
BRANCH   6  14
ATOM     14  O   UNL     1      17.140 -44.646   8.399  1.00  0.00    -0.504 OA
ATOM     15  H   UNL     1      16.523 -44.960   9.139  1.00  0.00     0.293 HD
ENDBRANCH   6  14
TORSDOF 4
ENDMDL
MODEL 4
REMARK VINA RESULT:    -4.337      2.194      2.795
REMARK INTER + INTRA:          -5.224
REMARK INTER:                  -5.089
REMARK INTRA:                  -0.136
REMARK UNBOUND:                -0.127
REMARK SMILES O=C([O-])C=Cc1ccc(O)c(O)c1
REMARK SMILES IDX 6 1 13 2 7 3 11 4 8 5 9 6 5 7 4 8 2 9 1 10 3 11 12 12 10 14
REMARK H PARENT 12 13 10 15
REMARK Flexibility Score: inf
ROOT
ATOM      1  C   UNL     1      21.364 -45.826   6.974  1.00  0.00    -0.022 A 
ATOM      2  C   UNL     1      20.207 -46.299   6.331  1.00  0.00     0.058 A 
ATOM      3  C   UNL     1      22.561 -46.557   6.845  1.00  0.00     0.012 A 
ATOM      4  C   UNL     1      20.248 -47.466   5.554  1.00  0.00     0.157 A 
ATOM      5  C   UNL     1      22.601 -47.719   6.071  1.00  0.00     0.051 A 
ATOM      6  C   UNL     1      21.448 -48.175   5.421  1.00  0.00     0.157 A 
ENDROOT
BRANCH   1   7
ATOM      7  C   UNL     1      21.264 -44.593   7.794  1.00  0.00     0.010 C 
ATOM      8  C   UNL     1      22.221 -43.656   7.850  1.00  0.00     0.025 C 
BRANCH   8   9
ATOM      9  C   UNL     1      22.075 -42.442   8.668  1.00  0.00     0.064 C 
ATOM     10  O   UNL     1      20.923 -42.025   8.961  1.00  0.00    -0.545 OA
ATOM     11  O   UNL     1      23.188 -41.745   9.123  1.00  0.00    -0.545 OA
ENDBRANCH   8   9
ENDBRANCH   1   7
BRANCH   4  12
ATOM     12  O   UNL     1      19.099 -47.926   4.910  1.00  0.00    -0.504 OA
ATOM     13  H   UNL     1      18.467 -47.291   4.437  1.00  0.00     0.293 HD
ENDBRANCH   4  12
BRANCH   6  14
ATOM     14  O   UNL     1      21.484 -49.333   4.646  1.00  0.00    -0.504 OA
ATOM     15  H   UNL     1      20.811 -50.079   4.777  1.00  0.00     0.293 HD
ENDBRANCH   6  14
TORSDOF 4
ENDMDL
MODEL 5
REMARK VINA RESULT:    -4.316      2.513      6.108
REMARK INTER + INTRA:          -5.199
REMARK INTER:                  -5.064
REMARK INTRA:                  -0.135
REMARK UNBOUND:                -0.127
REMARK SMILES O=C([O-])C=Cc1ccc(O)c(O)c1
REMARK SMILES IDX 6 1 13 2 7 3 11 4 8 5 9 6 5 7 4 8 2 9 1 10 3 11 12 12 10 14
REMARK H PARENT 12 13 10 15
REMARK Flexibility Score: inf
ROOT
ATOM      1  C   UNL     1      20.582 -44.260   8.327  1.00  0.00    -0.022 A 
ATOM      2  C   UNL     1      21.790 -44.760   7.814  1.00  0.00     0.058 A 
ATOM      3  C   UNL     1      20.540 -42.933   8.799  1.00  0.00     0.012 A 
ATOM      4  C   UNL     1      22.931 -43.946   7.748  1.00  0.00     0.157 A 
ATOM      5  C   UNL     1      21.676 -42.123   8.734  1.00  0.00     0.051 A 
ATOM      6  C   UNL     1      22.873 -42.624   8.206  1.00  0.00     0.157 A 
ENDROOT
BRANCH   1   7
ATOM      7  C   UNL     1      19.407 -45.166   8.385  1.00  0.00     0.010 C 
ATOM      8  C   UNL     1      18.143 -44.759   8.208  1.00  0.00     0.025 C 
BRANCH   8   9
ATOM      9  C   UNL     1      17.009 -45.695   8.262  1.00  0.00     0.064 C 
ATOM     10  O   UNL     1      15.851 -45.284   7.987  1.00  0.00    -0.545 OA
ATOM     11  O   UNL     1      17.195 -47.027   8.614  1.00  0.00    -0.545 OA
ENDBRANCH   8   9
ENDBRANCH   1   7
BRANCH   4  12
ATOM     12  O   UNL     1      24.125 -44.445   7.229  1.00  0.00    -0.504 OA
ATOM     13  H   UNL     1      24.248 -45.432   7.035  1.00  0.00     0.293 HD
ENDBRANCH   4  12
BRANCH   6  14
ATOM     14  O   UNL     1      24.008 -41.818   8.138  1.00  0.00    -0.504 OA
ATOM     15  H   UNL     1      24.917 -42.159   8.427  1.00  0.00     0.293 HD
ENDBRANCH   6  14
TORSDOF 4
ENDMDL
MODEL 6
REMARK VINA RESULT:    -4.085      2.832      4.667
REMARK INTER + INTRA:          -4.929
REMARK INTER:                  -4.794
REMARK INTRA:                  -0.135
REMARK UNBOUND:                -0.127
REMARK SMILES O=C([O-])C=Cc1ccc(O)c(O)c1
REMARK SMILES IDX 6 1 13 2 7 3 11 4 8 5 9 6 5 7 4 8 2 9 1 10 3 11 12 12 10 14
REMARK H PARENT 12 13 10 15
REMARK Flexibility Score: inf
ROOT
ATOM      1  C   UNL     1      19.997 -46.553   6.465  1.00  0.00    -0.022 A 
ATOM      2  C   UNL     1      19.200 -47.321   7.331  1.00  0.00     0.058 A 
ATOM      3  C   UNL     1      19.684 -45.192   6.281  1.00  0.00     0.012 A 
ATOM      4  C   UNL     1      18.126 -46.738   8.020  1.00  0.00     0.157 A 
ATOM      5  C   UNL     1      18.615 -44.612   6.968  1.00  0.00     0.051 A 
ATOM      6  C   UNL     1      17.835 -45.381   7.841  1.00  0.00     0.157 A 
ENDROOT
BRANCH   1   7
ATOM      7  C   UNL     1      21.114 -47.220   5.750  1.00  0.00     0.010 C 
ATOM      8  C   UNL     1      21.138 -48.529   5.464  1.00  0.00     0.025 C 
BRANCH   8   9
ATOM      9  C   UNL     1      22.262 -49.146   4.742  1.00  0.00     0.064 C 
ATOM     10  O   UNL     1      23.153 -48.414   4.236  1.00  0.00    -0.545 OA
ATOM     11  O   UNL     1      22.356 -50.526   4.607  1.00  0.00    -0.545 OA
ENDBRANCH   8   9
ENDBRANCH   1   7
BRANCH   4  12
ATOM     12  O   UNL     1      17.345 -47.504   8.886  1.00  0.00    -0.504 OA
ATOM     13  H   UNL     1      17.450 -47.439   9.892  1.00  0.00     0.293 HD
ENDBRANCH   4  12
BRANCH   6  14
ATOM     14  O   UNL     1      16.768 -44.806   8.529  1.00  0.00    -0.504 OA
ATOM     15  H   UNL     1      15.966 -45.354   8.816  1.00  0.00     0.293 HD
ENDBRANCH   6  14
TORSDOF 4
ENDMDL
MODEL 7
REMARK VINA RESULT:    -4.009      2.809      5.692
REMARK INTER + INTRA:          -4.839
REMARK INTER:                  -4.701
REMARK INTRA:                  -0.138
REMARK UNBOUND:                -0.127
REMARK SMILES O=C([O-])C=Cc1ccc(O)c(O)c1
REMARK SMILES IDX 6 1 13 2 7 3 11 4 8 5 9 6 5 7 4 8 2 9 1 10 3 11 12 12 10 14
REMARK H PARENT 12 13 10 15
REMARK Flexibility Score: inf
ROOT
ATOM      1  C   UNL     1      20.975 -46.374   6.456  1.00  0.00    -0.022 A 
ATOM      2  C   UNL     1      19.800 -45.640   6.222  1.00  0.00     0.058 A 
ATOM      3  C   UNL     1      21.995 -45.794   7.236  1.00  0.00     0.012 A 
ATOM      4  C   UNL     1      19.632 -44.362   6.775  1.00  0.00     0.157 A 
ATOM      5  C   UNL     1      21.827 -44.520   7.786  1.00  0.00     0.051 A 
ATOM      6  C   UNL     1      20.646 -43.802   7.561  1.00  0.00     0.157 A 
ENDROOT
BRANCH   1   7
ATOM      7  C   UNL     1      21.108 -47.717   5.838  1.00  0.00     0.010 C 
ATOM      8  C   UNL     1      22.259 -48.204   5.357  1.00  0.00     0.025 C 
BRANCH   8   9
ATOM      9  C   UNL     1      22.347 -49.548   4.763  1.00  0.00     0.064 C 
ATOM     10  O   UNL     1      21.889 -50.537   5.393  1.00  0.00    -0.545 OA
ATOM     11  O   UNL     1      22.931 -49.744   3.517  1.00  0.00    -0.545 OA
ENDBRANCH   8   9
ENDBRANCH   1   7
BRANCH   4  12
ATOM     12  O   UNL     1      18.459 -43.643   6.547  1.00  0.00    -0.504 OA
ATOM     13  H   UNL     1      17.554 -44.000   6.830  1.00  0.00     0.293 HD
ENDBRANCH   4  12
BRANCH   6  14
ATOM     14  O   UNL     1      20.475 -42.533   8.110  1.00  0.00    -0.504 OA
ATOM     15  H   UNL     1      20.970 -42.246   8.947  1.00  0.00     0.293 HD
ENDBRANCH   6  14
TORSDOF 4
ENDMDL
MODEL 8
REMARK VINA RESULT:    -3.793      1.826      6.130
REMARK INTER + INTRA:          -4.585
REMARK INTER:                  -4.456
REMARK INTRA:                  -0.130
REMARK UNBOUND:                -0.127
REMARK SMILES O=C([O-])C=Cc1ccc(O)c(O)c1
REMARK SMILES IDX 6 1 13 2 7 3 11 4 8 5 9 6 5 7 4 8 2 9 1 10 3 11 12 12 10 14
REMARK H PARENT 12 13 10 15
REMARK Flexibility Score: inf
ROOT
ATOM      1  C   UNL     1      21.947 -45.238   7.519  1.00  0.00    -0.022 A 
ATOM      2  C   UNL     1      21.111 -44.212   7.991  1.00  0.00     0.058 A 
ATOM      3  C   UNL     1      23.341 -45.032   7.513  1.00  0.00     0.012 A 
ATOM      4  C   UNL     1      21.655 -43.012   8.473  1.00  0.00     0.157 A 
ATOM      5  C   UNL     1      23.881 -43.836   7.992  1.00  0.00     0.051 A 
ATOM      6  C   UNL     1      23.042 -42.825   8.476  1.00  0.00     0.157 A 
ENDROOT
BRANCH   1   7
ATOM      7  C   UNL     1      21.321 -46.484   7.009  1.00  0.00     0.010 C 
ATOM      8  C   UNL     1      20.202 -46.508   6.273  1.00  0.00     0.025 C 
BRANCH   8   9
ATOM      9  C   UNL     1      19.623 -47.767   5.778  1.00  0.00     0.064 C 
ATOM     10  O   UNL     1      20.311 -48.518   5.036  1.00  0.00    -0.545 OA
ATOM     11  O   UNL     1      18.328 -48.141   6.114  1.00  0.00    -0.545 OA
ENDBRANCH   8   9
ENDBRANCH   1   7
BRANCH   4  12
ATOM     12  O   UNL     1      20.821 -42.001   8.949  1.00  0.00    -0.504 OA
ATOM     13  H   UNL     1      20.101 -41.588   8.367  1.00  0.00     0.293 HD
ENDBRANCH   4  12
BRANCH   6  14
ATOM     14  O   UNL     1      23.578 -41.631   8.957  1.00  0.00    -0.504 OA
ATOM     15  H   UNL     1      22.985 -40.856   9.229  1.00  0.00     0.293 HD
ENDBRANCH   6  14
TORSDOF 4
ENDMDL
MODEL 9
REMARK VINA RESULT:    -3.785      1.329      6.023
REMARK INTER + INTRA:          -4.576
REMARK INTER:                  -4.449
REMARK INTRA:                  -0.127
REMARK UNBOUND:                -0.127
REMARK SMILES O=C([O-])C=Cc1ccc(O)c(O)c1
REMARK SMILES IDX 6 1 13 2 7 3 11 4 8 5 9 6 5 7 4 8 2 9 1 10 3 11 12 12 10 14
REMARK H PARENT 12 13 10 15
REMARK Flexibility Score: inf
ROOT
ATOM      1  C   UNL     1      20.436 -45.133   8.258  1.00  0.00    -0.022 A 
ATOM      2  C   UNL     1      21.777 -45.370   8.603  1.00  0.00     0.058 A 
ATOM      3  C   UNL     1      20.067 -43.852   7.801  1.00  0.00     0.012 A 
ATOM      4  C   UNL     1      22.739 -44.358   8.472  1.00  0.00     0.157 A 
ATOM      5  C   UNL     1      21.026 -42.844   7.671  1.00  0.00     0.051 A 
ATOM      6  C   UNL     1      22.364 -43.094   8.002  1.00  0.00     0.157 A 
ENDROOT
BRANCH   1   7
ATOM      7  C   UNL     1      19.454 -46.234   8.426  1.00  0.00     0.010 C 
ATOM      8  C   UNL     1      19.387 -47.300   7.618  1.00  0.00     0.025 C 
BRANCH   8   9
ATOM      9  C   UNL     1      18.404 -48.376   7.830  1.00  0.00     0.064 C 
ATOM     10  O   UNL     1      18.122 -49.155   6.882  1.00  0.00    -0.545 OA
ATOM     11  O   UNL     1      17.780 -48.545   9.060  1.00  0.00    -0.545 OA
ENDBRANCH   8   9
ENDBRANCH   1   7
BRANCH   4  12
ATOM     12  O   UNL     1      24.071 -44.603   8.806  1.00  0.00    -0.504 OA
ATOM     13  H   UNL     1      24.341 -44.872   9.745  1.00  0.00     0.293 HD
ENDBRANCH   4  12
BRANCH   6  14
ATOM     14  O   UNL     1      23.323 -42.091   7.872  1.00  0.00    -0.504 OA
ATOM     15  H   UNL     1      23.895 -42.010   7.040  1.00  0.00     0.293 HD
ENDBRANCH   6  14
TORSDOF 4
ENDMDL
