MODEL 1
REMARK VINA RESULT:    -5.891      0.000      0.000
REMARK INTER + INTRA:          -7.247
REMARK INTER:                  -7.097
REMARK INTRA:                  -0.151
REMARK UNBOUND:                -0.151
REMARK SMILES Oc1cc(O)c2c(c1)O[C@H](c1ccc(O)c(O)c1)[C@H](O)C2
REMARK SMILES IDX 21 1 19 2 10 3 9 4 7 5 8 6 2 7 3 8 4 9 6 10 20 11 11 13
REMARK SMILES IDX 18 14 12 15 16 16 13 17 14 18 17 19 15 21 5 23 1 25
REMARK H PARENT 20 12 17 20 15 22 5 24 1 26
REMARK Flexibility Score: inf
ROOT
ATOM      1  C   UNL     1       8.991  19.246  22.360  1.00  0.00     0.079 C 
ATOM      2  C   UNL     1       7.485  19.107  22.064  1.00  0.00     0.164 C 
ATOM      3  C   UNL     1       6.716  20.227  22.787  1.00  0.00     0.232 C 
ATOM      4  O   UNL     1       6.979  20.169  24.189  1.00  0.00    -0.482 OA
ATOM      5  C   UNL     1       8.252  19.880  24.694  1.00  0.00     0.131 A 
ATOM      6  C   UNL     1       8.489  20.028  26.062  1.00  0.00     0.093 A 
ATOM      7  C   UNL     1       9.756  19.762  26.591  1.00  0.00     0.122 A 
ATOM      8  C   UNL     1      10.790  19.355  25.746  1.00  0.00     0.092 A 
ATOM      9  C   UNL     1      10.571  19.201  24.371  1.00  0.00     0.126 A 
ATOM     10  C   UNL     1       9.279  19.427  23.837  1.00  0.00     0.039 A 
ENDROOT
BRANCH   2  11
ATOM     11  O   UNL     1       7.025  17.853  22.502  1.00  0.00    -0.389 OA
ATOM     12  H   UNL     1       6.039  17.854  22.390  1.00  0.00     0.211 HD
ENDBRANCH   2  11
BRANCH   3  13
ATOM     13  C   UNL     1       5.231  20.139  22.522  1.00  0.00    -0.001 A 
ATOM     14  C   UNL     1       4.740  19.601  21.319  1.00  0.00     0.057 A 
ATOM     15  C   UNL     1       4.321  20.658  23.459  1.00  0.00     0.012 A 
ATOM     16  C   UNL     1       3.361  19.556  21.068  1.00  0.00     0.157 A 
ATOM     17  C   UNL     1       2.948  20.614  23.210  1.00  0.00     0.050 A 
ATOM     18  C   UNL     1       2.461  20.064  22.020  1.00  0.00     0.157 A 
BRANCH  16  19
ATOM     19  O   UNL     1       2.883  19.013  19.876  1.00  0.00    -0.504 OA
ATOM     20  H   UNL     1       3.478  18.463  19.267  1.00  0.00     0.293 HD
ENDBRANCH  16  19
BRANCH  18  21
ATOM     21  O   UNL     1       1.085  20.033  21.800  1.00  0.00    -0.504 OA
ATOM     22  H   UNL     1       0.678  20.253  20.899  1.00  0.00     0.293 HD
ENDBRANCH  18  21
ENDBRANCH   3  13
BRANCH   9  23
ATOM     23  O   UNL     1      11.655  18.836  23.571  1.00  0.00    -0.507 OA
ATOM     24  H   UNL     1      12.060  17.909  23.572  1.00  0.00     0.293 HD
ENDBRANCH   9  23
BRANCH   7  25
ATOM     25  O   UNL     1      10.001  19.907  27.955  1.00  0.00    -0.508 OA
ATOM     26  H   UNL     1      10.910  20.190  28.304  1.00  0.00     0.293 HD
ENDBRANCH   7  25
TORSDOF 6
ENDMDL
MODEL 2
REMARK VINA RESULT:    -5.611      1.452      2.558
REMARK INTER + INTRA:          -6.910
REMARK INTER:                  -6.669
REMARK INTRA:                  -0.241
REMARK UNBOUND:                -0.151
REMARK SMILES Oc1cc(O)c2c(c1)O[C@H](c1ccc(O)c(O)c1)[C@H](O)C2
REMARK SMILES IDX 21 1 19 2 10 3 9 4 7 5 8 6 2 7 3 8 4 9 6 10 20 11 11 13
REMARK SMILES IDX 18 14 12 15 16 16 13 17 14 18 17 19 15 21 5 23 1 25
REMARK H PARENT 20 12 17 20 15 22 5 24 1 26
REMARK Flexibility Score: inf
ROOT
ATOM      1  C   UNL     1       7.989  21.601  24.920  1.00  0.00     0.079 C 
ATOM      2  C   UNL     1       6.753  21.564  24.001  1.00  0.00     0.164 C 
ATOM      3  C   UNL     1       6.396  20.102  23.680  1.00  0.00     0.232 C 
ATOM      4  O   UNL     1       7.514  19.452  23.076  1.00  0.00    -0.482 OA
ATOM      5  C   UNL     1       8.827  19.679  23.506  1.00  0.00     0.131 A 
ATOM      6  C   UNL     1       9.853  18.872  23.009  1.00  0.00     0.093 A 
ATOM      7  C   UNL     1      11.171  19.066  23.434  1.00  0.00     0.122 A 
ATOM      8  C   UNL     1      11.460  20.064  24.367  1.00  0.00     0.092 A 
ATOM      9  C   UNL     1      10.444  20.883  24.877  1.00  0.00     0.126 A 
ATOM     10  C   UNL     1       9.115  20.719  24.416  1.00  0.00     0.039 A 
ENDROOT
BRANCH   2  11
ATOM     11  O   UNL     1       7.022  22.263  22.811  1.00  0.00    -0.389 OA
ATOM     12  H   UNL     1       7.302  23.178  23.073  1.00  0.00     0.211 HD
ENDBRANCH   2  11
BRANCH   3  13
ATOM     13  C   UNL     1       5.183  20.012  22.784  1.00  0.00    -0.001 A 
ATOM     14  C   UNL     1       5.118  19.066  21.746  1.00  0.00     0.057 A 
ATOM     15  C   UNL     1       4.126  20.924  22.944  1.00  0.00     0.012 A 
ATOM     16  C   UNL     1       4.002  19.013  20.897  1.00  0.00     0.157 A 
ATOM     17  C   UNL     1       3.014  20.872  22.100  1.00  0.00     0.050 A 
ATOM     18  C   UNL     1       2.945  19.920  21.078  1.00  0.00     0.157 A 
BRANCH  16  19
ATOM     19  O   UNL     1       3.943  18.067  19.876  1.00  0.00    -0.504 OA
ATOM     20  H   UNL     1       3.568  17.137  20.033  1.00  0.00     0.293 HD
ENDBRANCH  16  19
BRANCH  18  21
ATOM     21  O   UNL     1       1.822  19.892  20.252  1.00  0.00    -0.504 OA
ATOM     22  H   UNL     1       1.712  20.527  19.470  1.00  0.00     0.293 HD
ENDBRANCH  18  21
ENDBRANCH   3  13
BRANCH   9  23
ATOM     23  O   UNL     1      10.788  21.833  25.840  1.00  0.00    -0.507 OA
ATOM     24  H   UNL     1      10.892  21.616  26.822  1.00  0.00     0.293 HD
ENDBRANCH   9  23
BRANCH   7  25
ATOM     25  O   UNL     1      12.201  18.267  22.943  1.00  0.00    -0.508 OA
ATOM     26  H   UNL     1      13.163  18.587  22.933  1.00  0.00     0.293 HD
ENDBRANCH   7  25
TORSDOF 6
ENDMDL
MODEL 3
REMARK VINA RESULT:    -5.491      2.101      7.662
REMARK INTER + INTRA:          -6.765
REMARK INTER:                  -6.381
REMARK INTRA:                  -0.384
REMARK UNBOUND:                -0.151
REMARK SMILES Oc1cc(O)c2c(c1)O[C@H](c1ccc(O)c(O)c1)[C@H](O)C2
REMARK SMILES IDX 21 1 19 2 10 3 9 4 7 5 8 6 2 7 3 8 4 9 6 10 20 11 11 13
REMARK SMILES IDX 18 14 12 15 16 16 13 17 14 18 17 19 15 21 5 23 1 25
REMARK H PARENT 20 12 17 20 15 22 5 24 1 26
REMARK Flexibility Score: inf
ROOT
ATOM      1  C   UNL     1       6.151  21.943  25.520  1.00  0.00     0.079 C 
ATOM      2  C   UNL     1       7.254  21.455  26.478  1.00  0.00     0.164 C 
ATOM      3  C   UNL     1       8.454  20.945  25.661  1.00  0.00     0.232 C 
ATOM      4  O   UNL     1       8.034  19.906  24.778  1.00  0.00    -0.482 OA
ATOM      5  C   UNL     1       6.811  19.959  24.097  1.00  0.00     0.131 A 
ATOM      6  C   UNL     1       6.545  19.013  23.105  1.00  0.00     0.093 A 
ATOM      7  C   UNL     1       5.339  19.053  22.398  1.00  0.00     0.122 A 
ATOM      8  C   UNL     1       4.402  20.049  22.679  1.00  0.00     0.092 A 
ATOM      9  C   UNL     1       4.651  21.007  23.670  1.00  0.00     0.126 A 
ATOM     10  C   UNL     1       5.852  20.944  24.419  1.00  0.00     0.039 A 
ENDROOT
BRANCH   2  11
ATOM     11  O   UNL     1       6.757  20.421  27.291  1.00  0.00    -0.389 OA
ATOM     12  H   UNL     1       6.406  20.849  28.116  1.00  0.00     0.211 HD
ENDBRANCH   2  11
BRANCH   3  13
ATOM     13  C   UNL     1       9.569  20.460  26.558  1.00  0.00    -0.001 A 
ATOM     14  C   UNL     1      10.166  21.317  27.500  1.00  0.00     0.057 A 
ATOM     15  C   UNL     1      10.065  19.154  26.413  1.00  0.00     0.012 A 
ATOM     16  C   UNL     1      11.224  20.867  28.303  1.00  0.00     0.157 A 
ATOM     17  C   UNL     1      11.119  18.705  27.213  1.00  0.00     0.050 A 
ATOM     18  C   UNL     1      11.700  19.553  28.159  1.00  0.00     0.157 A 
BRANCH  16  19
ATOM     19  O   UNL     1      11.805  21.722  29.239  1.00  0.00    -0.504 OA
ATOM     20  H   UNL     1      12.001  21.417  30.187  1.00  0.00     0.293 HD
ENDBRANCH  16  19
BRANCH  18  21
ATOM     21  O   UNL     1      12.750  19.077  28.944  1.00  0.00    -0.504 OA
ATOM     22  H   UNL     1      13.604  19.604  29.079  1.00  0.00     0.293 HD
ENDBRANCH  18  21
ENDBRANCH   3  13
BRANCH   9  23
ATOM     23  O   UNL     1       3.697  22.004  23.874  1.00  0.00    -0.507 OA
ATOM     24  H   UNL     1       3.464  22.701  23.179  1.00  0.00     0.293 HD
ENDBRANCH   9  23
BRANCH   7  25
ATOM     25  O   UNL     1       5.065  18.112  21.408  1.00  0.00    -0.508 OA
ATOM     26  H   UNL     1       4.277  17.479  21.480  1.00  0.00     0.293 HD
ENDBRANCH   7  25
TORSDOF 6
ENDMDL
MODEL 4
REMARK VINA RESULT:    -5.487      2.317      6.917
REMARK INTER + INTRA:          -6.760
REMARK INTER:                  -6.438
REMARK INTRA:                  -0.322
REMARK UNBOUND:                -0.151
REMARK SMILES Oc1cc(O)c2c(c1)O[C@H](c1ccc(O)c(O)c1)[C@H](O)C2
REMARK SMILES IDX 21 1 19 2 10 3 9 4 7 5 8 6 2 7 3 8 4 9 6 10 20 11 11 13
REMARK SMILES IDX 18 14 12 15 16 16 13 17 14 18 17 19 15 21 5 23 1 25
REMARK H PARENT 20 12 17 20 15 22 5 24 1 26
REMARK Flexibility Score: inf
ROOT
ATOM      1  C   UNL     1       6.577  18.300  22.864  1.00  0.00     0.079 C 
ATOM      2  C   UNL     1       8.057  18.487  22.477  1.00  0.00     0.164 C 
ATOM      3  C   UNL     1       8.655  19.648  23.291  1.00  0.00     0.232 C 
ATOM      4  O   UNL     1       7.902  20.839  23.063  1.00  0.00    -0.482 OA
ATOM      5  C   UNL     1       6.507  20.826  22.956  1.00  0.00     0.131 A 
ATOM      6  C   UNL     1       5.817  22.040  22.928  1.00  0.00     0.093 A 
ATOM      7  C   UNL     1       4.421  22.056  22.838  1.00  0.00     0.122 A 
ATOM      8  C   UNL     1       3.715  20.853  22.786  1.00  0.00     0.092 A 
ATOM      9  C   UNL     1       4.389  19.626  22.814  1.00  0.00     0.126 A 
ATOM     10  C   UNL     1       5.804  19.605  22.860  1.00  0.00     0.039 A 
ENDROOT
BRANCH   2  11
ATOM     11  O   UNL     1       8.160  18.764  21.103  1.00  0.00    -0.389 OA
ATOM     12  H   UNL     1       8.331  19.739  21.019  1.00  0.00     0.211 HD
ENDBRANCH   2  11
BRANCH   3  13
ATOM     13  C   UNL     1      10.111  19.868  22.953  1.00  0.00    -0.001 A 
ATOM     14  C   UNL     1      10.507  20.920  22.107  1.00  0.00     0.057 A 
ATOM     15  C   UNL     1      11.084  18.976  23.434  1.00  0.00     0.012 A 
ATOM     16  C   UNL     1      11.858  21.095  21.771  1.00  0.00     0.157 A 
ATOM     17  C   UNL     1      12.429  19.150  23.100  1.00  0.00     0.050 A 
ATOM     18  C   UNL     1      12.823  20.205  22.272  1.00  0.00     0.157 A 
BRANCH  16  19
ATOM     19  O   UNL     1      12.242  22.145  20.938  1.00  0.00    -0.504 OA
ATOM     20  H   UNL     1      11.580  22.605  20.323  1.00  0.00     0.293 HD
ENDBRANCH  16  19
BRANCH  18  21
ATOM     21  O   UNL     1      14.173  20.354  21.957  1.00  0.00    -0.504 OA
ATOM     22  H   UNL     1      14.506  20.357  21.001  1.00  0.00     0.293 HD
ENDBRANCH  18  21
ENDBRANCH   3  13
BRANCH   9  23
ATOM     23  O   UNL     1       3.626  18.457  22.805  1.00  0.00    -0.507 OA
ATOM     24  H   UNL     1       3.888  17.618  23.305  1.00  0.00     0.293 HD
ENDBRANCH   9  23
BRANCH   7  25
ATOM     25  O   UNL     1       3.725  23.263  22.809  1.00  0.00    -0.508 OA
ATOM     26  H   UNL     1       4.037  24.041  22.239  1.00  0.00     0.293 HD
ENDBRANCH   7  25
TORSDOF 6
ENDMDL
MODEL 5
REMARK VINA RESULT:    -5.446      1.945      7.013
REMARK INTER + INTRA:          -6.711
REMARK INTER:                  -6.336
REMARK INTRA:                  -0.375
REMARK UNBOUND:                -0.151
REMARK SMILES Oc1cc(O)c2c(c1)O[C@H](c1ccc(O)c(O)c1)[C@H](O)C2
REMARK SMILES IDX 21 1 19 2 10 3 9 4 7 5 8 6 2 7 3 8 4 9 6 10 20 11 11 13
REMARK SMILES IDX 18 14 12 15 16 16 13 17 14 18 17 19 15 21 5 23 1 25
REMARK H PARENT 20 12 17 20 15 22 5 24 1 26
REMARK Flexibility Score: inf
ROOT
ATOM      1  C   UNL     1       7.307  18.340  22.392  1.00  0.00     0.079 C 
ATOM      2  C   UNL     1       8.627  18.928  22.926  1.00  0.00     0.164 C 
ATOM      3  C   UNL     1       8.418  19.432  24.365  1.00  0.00     0.232 C 
ATOM      4  O   UNL     1       7.367  20.398  24.393  1.00  0.00    -0.482 OA
ATOM      5  C   UNL     1       6.207  20.256  23.623  1.00  0.00     0.131 A 
ATOM      6  C   UNL     1       5.138  21.128  23.839  1.00  0.00     0.093 A 
ATOM      7  C   UNL     1       3.961  20.998  23.095  1.00  0.00     0.122 A 
ATOM      8  C   UNL     1       3.851  19.985  22.139  1.00  0.00     0.092 A 
ATOM      9  C   UNL     1       4.913  19.101  21.909  1.00  0.00     0.126 A 
ATOM     10  C   UNL     1       6.123  19.257  22.628  1.00  0.00     0.039 A 
ENDROOT
BRANCH   2  11
ATOM     11  O   UNL     1       9.043  19.990  22.104  1.00  0.00    -0.389 OA
ATOM     12  H   UNL     1      10.022  20.089  22.237  1.00  0.00     0.211 HD
ENDBRANCH   2  11
BRANCH   3  13
ATOM     13  C   UNL     1       9.689  20.015  24.938  1.00  0.00    -0.001 A 
ATOM     14  C   UNL     1       9.724  21.331  25.432  1.00  0.00     0.057 A 
ATOM     15  C   UNL     1      10.874  19.259  24.923  1.00  0.00     0.012 A 
ATOM     16  C   UNL     1      10.918  21.874  25.930  1.00  0.00     0.157 A 
ATOM     17  C   UNL     1      12.063  19.799  25.418  1.00  0.00     0.050 A 
ATOM     18  C   UNL     1      12.092  21.103  25.924  1.00  0.00     0.157 A 
BRANCH  16  19
ATOM     19  O   UNL     1      10.941  23.178  26.425  1.00  0.00    -0.504 OA
ATOM     20  H   UNL     1      11.812  23.638  26.667  1.00  0.00     0.293 HD
ENDBRANCH  16  19
BRANCH  18  21
ATOM     21  O   UNL     1      13.293  21.614  26.412  1.00  0.00    -0.504 OA
ATOM     22  H   UNL     1      13.377  21.994  27.348  1.00  0.00     0.293 HD
ENDBRANCH  18  21
ENDBRANCH   3  13
BRANCH   9  23
ATOM     23  O   UNL     1       4.727  18.082  20.973  1.00  0.00    -0.507 OA
ATOM     24  H   UNL     1       4.066  17.328  21.097  1.00  0.00     0.293 HD
ENDBRANCH   9  23
BRANCH   7  25
ATOM     25  O   UNL     1       2.890  21.864  23.303  1.00  0.00    -0.508 OA
ATOM     26  H   UNL     1       2.866  22.788  22.887  1.00  0.00     0.293 HD
ENDBRANCH   7  25
TORSDOF 6
ENDMDL
MODEL 6
REMARK VINA RESULT:    -5.388      4.401      6.952
REMARK INTER + INTRA:          -6.641
REMARK INTER:                  -6.274
REMARK INTRA:                  -0.367
REMARK UNBOUND:                -0.151
REMARK SMILES Oc1cc(O)c2c(c1)O[C@H](c1ccc(O)c(O)c1)[C@H](O)C2
REMARK SMILES IDX 21 1 19 2 10 3 9 4 7 5 8 6 2 7 3 8 4 9 6 10 20 11 11 13
REMARK SMILES IDX 18 14 12 15 16 16 13 17 14 18 17 19 15 21 5 23 1 25
REMARK H PARENT 20 12 17 20 15 22 5 24 1 26
REMARK Flexibility Score: inf
ROOT
ATOM      1  C   UNL     1      13.219  20.761  22.178  1.00  0.00     0.079 C 
ATOM      2  C   UNL     1      12.081  20.124  22.998  1.00  0.00     0.164 C 
ATOM      3  C   UNL     1      12.234  20.516  24.477  1.00  0.00     0.232 C 
ATOM      4  O   UNL     1      13.515  20.107  24.958  1.00  0.00    -0.482 OA
ATOM      5  C   UNL     1      14.671  20.216  24.175  1.00  0.00     0.131 A 
ATOM      6  C   UNL     1      15.915  19.982  24.765  1.00  0.00     0.093 A 
ATOM      7  C   UNL     1      17.087  20.100  24.011  1.00  0.00     0.122 A 
ATOM      8  C   UNL     1      17.012  20.463  22.664  1.00  0.00     0.092 A 
ATOM      9  C   UNL     1      15.774  20.701  22.055  1.00  0.00     0.126 A 
ATOM     10  C   UNL     1      14.582  20.540  22.803  1.00  0.00     0.039 A 
ENDROOT
BRANCH   2  11
ATOM     11  O   UNL     1      12.124  18.725  22.868  1.00  0.00    -0.389 OA
ATOM     12  H   UNL     1      11.227  18.439  22.553  1.00  0.00     0.211 HD
ENDBRANCH   2  11
BRANCH   3  13
ATOM     13  C   UNL     1      11.135  19.920  25.326  1.00  0.00    -0.001 A 
ATOM     14  C   UNL     1       9.782  20.112  24.996  1.00  0.00     0.057 A 
ATOM     15  C   UNL     1      11.460  19.216  26.497  1.00  0.00     0.012 A 
ATOM     16  C   UNL     1       8.768  19.584  25.810  1.00  0.00     0.157 A 
ATOM     17  C   UNL     1      10.451  18.690  27.308  1.00  0.00     0.050 A 
ATOM     18  C   UNL     1       9.106  18.868  26.970  1.00  0.00     0.157 A 
BRANCH  16  19
ATOM     19  O   UNL     1       7.429  19.773  25.472  1.00  0.00    -0.504 OA
ATOM     20  H   UNL     1       6.896  19.056  24.992  1.00  0.00     0.293 HD
ENDBRANCH  16  19
BRANCH  18  21
ATOM     21  O   UNL     1       8.122  18.330  27.798  1.00  0.00    -0.504 OA
ATOM     22  H   UNL     1       7.170  18.188  27.482  1.00  0.00     0.293 HD
ENDBRANCH  18  21
ENDBRANCH   3  13
BRANCH   9  23
ATOM     23  O   UNL     1      15.766  21.104  20.719  1.00  0.00    -0.507 OA
ATOM     24  H   UNL     1      15.977  22.048  20.422  1.00  0.00     0.293 HD
ENDBRANCH   9  23
BRANCH   7  25
ATOM     25  O   UNL     1      18.331  19.868  24.592  1.00  0.00    -0.508 OA
ATOM     26  H   UNL     1      19.096  20.525  24.488  1.00  0.00     0.293 HD
ENDBRANCH   7  25
TORSDOF 6
ENDMDL
MODEL 7
REMARK VINA RESULT:    -5.315      1.639      2.904
REMARK INTER + INTRA:          -6.554
REMARK INTER:                  -7.007
REMARK INTRA:                   0.454
REMARK UNBOUND:                -0.151
REMARK SMILES Oc1cc(O)c2c(c1)O[C@H](c1ccc(O)c(O)c1)[C@H](O)C2
REMARK SMILES IDX 21 1 19 2 10 3 9 4 7 5 8 6 2 7 3 8 4 9 6 10 20 11 11 13
REMARK SMILES IDX 18 14 12 15 16 16 13 17 14 18 17 19 15 21 5 23 1 25
REMARK H PARENT 20 12 17 20 15 22 5 24 1 26
REMARK Flexibility Score: inf
ROOT
ATOM      1  C   UNL     1       8.544  19.255  26.633  1.00  0.00     0.079 C 
ATOM      2  C   UNL     1       7.357  19.705  25.759  1.00  0.00     0.164 C 
ATOM      3  C   UNL     1       7.540  19.167  24.330  1.00  0.00     0.232 C 
ATOM      4  O   UNL     1       8.783  19.624  23.795  1.00  0.00    -0.482 OA
ATOM      5  C   UNL     1       9.944  19.695  24.574  1.00  0.00     0.131 A 
ATOM      6  C   UNL     1      11.165  19.962  23.949  1.00  0.00     0.093 A 
ATOM      7  C   UNL     1      12.343  20.023  24.700  1.00  0.00     0.122 A 
ATOM      8  C   UNL     1      12.300  19.804  26.079  1.00  0.00     0.092 A 
ATOM      9  C   UNL     1      11.085  19.535  26.722  1.00  0.00     0.126 A 
ATOM     10  C   UNL     1       9.884  19.516  25.973  1.00  0.00     0.039 A 
ENDROOT
BRANCH   2  11
ATOM     11  O   UNL     1       7.286  21.109  25.736  1.00  0.00    -0.389 OA
ATOM     12  H   UNL     1       6.697  21.353  24.975  1.00  0.00     0.211 HD
ENDBRANCH   2  11
BRANCH   3  13
ATOM     13  C   UNL     1       6.395  19.576  23.432  1.00  0.00    -0.001 A 
ATOM     14  C   UNL     1       5.899  18.703  22.448  1.00  0.00     0.057 A 
ATOM     15  C   UNL     1       5.855  20.869  23.533  1.00  0.00     0.012 A 
ATOM     16  C   UNL     1       4.859  19.105  21.597  1.00  0.00     0.157 A 
ATOM     17  C   UNL     1       4.820  21.271  22.687  1.00  0.00     0.050 A 
ATOM     18  C   UNL     1       4.316  20.396  21.720  1.00  0.00     0.157 A 
BRANCH  16  19
ATOM     19  O   UNL     1       4.368  18.230  20.629  1.00  0.00    -0.504 OA
ATOM     20  H   UNL     1       4.973  17.570  20.153  1.00  0.00     0.293 HD
ENDBRANCH  16  19
BRANCH  18  21
ATOM     21  O   UNL     1       3.282  20.824  20.889  1.00  0.00    -0.504 OA
ATOM     22  H   UNL     1       2.352  21.017  21.242  1.00  0.00     0.293 HD
ENDBRANCH  18  21
ENDBRANCH   3  13
BRANCH   9  23
ATOM     23  O   UNL     1      11.112  19.281  28.095  1.00  0.00    -0.507 OA
ATOM     24  H   UNL     1      11.436  19.952  28.778  1.00  0.00     0.293 HD
ENDBRANCH   9  23
BRANCH   7  25
ATOM     25  O   UNL     1      13.564  20.290  24.085  1.00  0.00    -0.508 OA
ATOM     26  H   UNL     1      14.127  19.551  23.680  1.00  0.00     0.293 HD
ENDBRANCH   7  25
TORSDOF 6
ENDMDL
MODEL 8
REMARK VINA RESULT:    -5.299      2.153      3.622
REMARK INTER + INTRA:          -6.534
REMARK INTER:                  -6.150
REMARK INTRA:                  -0.384
REMARK UNBOUND:                -0.151
REMARK SMILES Oc1cc(O)c2c(c1)O[C@H](c1ccc(O)c(O)c1)[C@H](O)C2
REMARK SMILES IDX 21 1 19 2 10 3 9 4 7 5 8 6 2 7 3 8 4 9 6 10 20 11 11 13
REMARK SMILES IDX 18 14 12 15 16 16 13 17 14 18 17 19 15 21 5 23 1 25
REMARK H PARENT 20 12 17 20 15 22 5 24 1 26
REMARK Flexibility Score: inf
ROOT
ATOM      1  C   UNL     1       8.930  22.601  26.180  1.00  0.00     0.079 C 
ATOM      2  C   UNL     1       8.191  22.001  24.969  1.00  0.00     0.164 C 
ATOM      3  C   UNL     1       7.602  20.633  25.355  1.00  0.00     0.232 C 
ATOM      4  O   UNL     1       8.642  19.768  25.811  1.00  0.00    -0.482 OA
ATOM      5  C   UNL     1       9.691  20.230  26.615  1.00  0.00     0.131 A 
ATOM      6  C   UNL     1      10.566  19.303  27.186  1.00  0.00     0.093 A 
ATOM      7  C   UNL     1      11.613  19.734  28.008  1.00  0.00     0.122 A 
ATOM      8  C   UNL     1      11.777  21.097  28.265  1.00  0.00     0.092 A 
ATOM      9  C   UNL     1      10.910  22.041  27.701  1.00  0.00     0.126 A 
ATOM     10  C   UNL     1       9.875  21.612  26.834  1.00  0.00     0.039 A 
ENDROOT
BRANCH   2  11
ATOM     11  O   UNL     1       9.082  21.851  23.892  1.00  0.00    -0.389 OA
ATOM     12  H   UNL     1       9.821  22.498  24.039  1.00  0.00     0.211 HD
ENDBRANCH   2  11
BRANCH   3  13
ATOM     13  C   UNL     1       6.859  20.004  24.199  1.00  0.00    -0.001 A 
ATOM     14  C   UNL     1       5.670  20.573  23.708  1.00  0.00     0.057 A 
ATOM     15  C   UNL     1       7.320  18.800  23.643  1.00  0.00     0.012 A 
ATOM     16  C   UNL     1       4.968  19.962  22.658  1.00  0.00     0.157 A 
ATOM     17  C   UNL     1       6.622  18.190  22.598  1.00  0.00     0.050 A 
ATOM     18  C   UNL     1       5.449  18.766  22.100  1.00  0.00     0.157 A 
BRANCH  16  19
ATOM     19  O   UNL     1       3.795  20.537  22.171  1.00  0.00    -0.504 OA
ATOM     20  H   UNL     1       3.626  21.535  22.236  1.00  0.00     0.293 HD
ENDBRANCH  16  19
BRANCH  18  21
ATOM     21  O   UNL     1       4.775  18.135  21.055  1.00  0.00    -0.504 OA
ATOM     22  H   UNL     1       4.717  18.541  20.129  1.00  0.00     0.293 HD
ENDBRANCH  18  21
ENDBRANCH   3  13
BRANCH   9  23
ATOM     23  O   UNL     1      11.097  23.384  28.031  1.00  0.00    -0.507 OA
ATOM     24  H   UNL     1      12.003  23.835  28.035  1.00  0.00     0.293 HD
ENDBRANCH   9  23
BRANCH   7  25
ATOM     25  O   UNL     1      12.491  18.817  28.580  1.00  0.00    -0.508 OA
ATOM     26  H   UNL     1      12.223  17.851  28.734  1.00  0.00     0.293 HD
ENDBRANCH   7  25
TORSDOF 6
ENDMDL
MODEL 9
REMARK VINA RESULT:    -5.255      1.907      2.508
REMARK INTER + INTRA:          -6.481
REMARK INTER:                  -6.144
REMARK INTRA:                  -0.337
REMARK UNBOUND:                -0.151
REMARK SMILES Oc1cc(O)c2c(c1)O[C@H](c1ccc(O)c(O)c1)[C@H](O)C2
REMARK SMILES IDX 21 1 19 2 10 3 9 4 7 5 8 6 2 7 3 8 4 9 6 10 20 11 11 13
REMARK SMILES IDX 18 14 12 15 16 16 13 17 14 18 17 19 15 21 5 23 1 25
REMARK H PARENT 20 12 17 20 15 22 5 24 1 26
REMARK Flexibility Score: inf
ROOT
ATOM      1  C   UNL     1      10.124  22.103  23.747  1.00  0.00     0.079 C 
ATOM      2  C   UNL     1       8.958  21.550  22.906  1.00  0.00     0.164 C 
ATOM      3  C   UNL     1       7.838  21.063  23.841  1.00  0.00     0.232 C 
ATOM      4  O   UNL     1       8.348  20.075  24.737  1.00  0.00    -0.482 OA
ATOM      5  C   UNL     1       9.619  20.182  25.313  1.00  0.00     0.131 A 
ATOM      6  C   UNL     1       9.983  19.291  26.325  1.00  0.00     0.093 A 
ATOM      7  C   UNL     1      11.241  19.385  26.929  1.00  0.00     0.122 A 
ATOM      8  C   UNL     1      12.133  20.381  26.525  1.00  0.00     0.092 A 
ATOM      9  C   UNL     1      11.786  21.284  25.512  1.00  0.00     0.126 A 
ATOM     10  C   UNL     1      10.531  21.165  24.867  1.00  0.00     0.039 A 
ENDROOT
BRANCH   2  11
ATOM     11  O   UNL     1       9.409  20.485  22.106  1.00  0.00    -0.389 OA
ATOM     12  H   UNL     1      10.094  20.858  21.493  1.00  0.00     0.211 HD
ENDBRANCH   2  11
BRANCH   3  13
ATOM     13  C   UNL     1       6.664  20.516  23.062  1.00  0.00    -0.001 A 
ATOM     14  C   UNL     1       6.445  19.131  22.961  1.00  0.00     0.057 A 
ATOM     15  C   UNL     1       5.811  21.394  22.374  1.00  0.00     0.012 A 
ATOM     16  C   UNL     1       5.373  18.631  22.206  1.00  0.00     0.157 A 
ATOM     17  C   UNL     1       4.743  20.899  21.622  1.00  0.00     0.050 A 
ATOM     18  C   UNL     1       4.517  19.522  21.535  1.00  0.00     0.157 A 
BRANCH  16  19
ATOM     19  O   UNL     1       5.159  17.257  22.117  1.00  0.00    -0.504 OA
ATOM     20  H   UNL     1       4.433  16.869  21.524  1.00  0.00     0.293 HD
ENDBRANCH  16  19
BRANCH  18  21
ATOM     21  O   UNL     1       3.443  19.057  20.778  1.00  0.00    -0.504 OA
ATOM     22  H   UNL     1       2.643  18.602  21.201  1.00  0.00     0.293 HD
ENDBRANCH  18  21
ENDBRANCH   3  13
BRANCH   9  23
ATOM     23  O   UNL     1      12.701  22.285  25.183  1.00  0.00    -0.507 OA
ATOM     24  H   UNL     1      12.619  22.865  24.359  1.00  0.00     0.293 HD
ENDBRANCH   9  23
BRANCH   7  25
ATOM     25  O   UNL     1      11.612  18.499  27.938  1.00  0.00    -0.508 OA
ATOM     26  H   UNL     1      11.872  18.826  28.862  1.00  0.00     0.293 HD
ENDBRANCH   7  25
TORSDOF 6
ENDMDL
