MODEL 1
REMARK VINA RESULT:    -3.044      0.000      0.000
REMARK INTER + INTRA:          -3.044
REMARK INTER:                  -3.044
REMARK INTRA:                   0.000
REMARK UNBOUND:                 0.000
REMARK SMILES CC(=O)[O-]
REMARK SMILES IDX 1 1 2 2 3 3 4 4
REMARK H PARENT
REMARK Flexibility Score: inf
ROOT
ATOM      1  C   UNL     1       7.486   1.594   8.696  1.00  0.00     0.063 C 
ATOM      2  C   UNL     1       6.541   2.679   8.304  1.00  0.00     0.038 C 
ATOM      3  O   UNL     1       5.905   2.601   7.221  1.00  0.00    -0.550 OA
ATOM      4  O   UNL     1       6.402   3.804   9.106  1.00  0.00    -0.550 OA
ENDROOT
TORSDOF 0
ENDMDL
MODEL 2
REMARK VINA RESULT:    -2.689     13.199     13.825
REMARK INTER + INTRA:          -2.689
REMARK INTER:                  -2.689
REMARK INTRA:                   0.000
REMARK UNBOUND:                 0.000
REMARK SMILES CC(=O)[O-]
REMARK SMILES IDX 1 1 2 2 3 3 4 4
REMARK H PARENT
REMARK Flexibility Score: inf
ROOT
ATOM      1  C   UNL     1       4.837  -9.484   3.497  1.00  0.00     0.063 C 
ATOM      2  C   UNL     1       3.652  -9.469   2.592  1.00  0.00     0.038 C 
ATOM      3  O   UNL     1       3.368  -8.428   1.942  1.00  0.00    -0.550 OA
ATOM      4  O   UNL     1       2.827 -10.582   2.505  1.00  0.00    -0.550 OA
ENDROOT
TORSDOF 0
ENDMDL
MODEL 3
REMARK VINA RESULT:    -2.687     13.181     13.761
REMARK INTER + INTRA:          -2.687
REMARK INTER:                  -2.687
REMARK INTRA:                   0.000
REMARK UNBOUND:                 0.000
REMARK SMILES CC(=O)[O-]
REMARK SMILES IDX 1 1 2 2 3 3 4 4
REMARK H PARENT
REMARK Flexibility Score: inf
ROOT
ATOM      1  C   UNL     1       4.809  -9.518   3.513  1.00  0.00     0.063 C 
ATOM      2  C   UNL     1       3.616  -9.472   2.619  1.00  0.00     0.038 C 
ATOM      3  O   UNL     1       2.894 -10.494   2.478  1.00  0.00    -0.550 OA
ATOM      4  O   UNL     1       3.330  -8.321   1.898  1.00  0.00    -0.550 OA
ENDROOT
TORSDOF 0
ENDMDL
MODEL 4
REMARK VINA RESULT:    -2.516     22.141     22.562
REMARK INTER + INTRA:          -2.516
REMARK INTER:                  -2.516
REMARK INTRA:                   0.000
REMARK UNBOUND:                 0.000
REMARK SMILES CC(=O)[O-]
REMARK SMILES IDX 1 1 2 2 3 3 4 4
REMARK H PARENT
REMARK Flexibility Score: inf
ROOT
ATOM      1  C   UNL     1      -6.483  -4.794  -9.287  1.00  0.00     0.063 C 
ATOM      2  C   UNL     1      -6.833  -5.145  -7.881  1.00  0.00     0.038 C 
ATOM      3  O   UNL     1      -6.035  -5.824  -7.183  1.00  0.00    -0.550 OA
ATOM      4  O   UNL     1      -8.063  -4.772  -7.356  1.00  0.00    -0.550 OA
ENDROOT
TORSDOF 0
ENDMDL
MODEL 5
REMARK VINA RESULT:    -2.323     12.739     13.206
REMARK INTER + INTRA:          -2.323
REMARK INTER:                  -2.323
REMARK INTRA:                   0.000
REMARK UNBOUND:                 0.000
REMARK SMILES CC(=O)[O-]
REMARK SMILES IDX 1 1 2 2 3 3 4 4
REMARK H PARENT
REMARK Flexibility Score: inf
ROOT
ATOM      1  C   UNL     1       4.520 -10.128   4.497  1.00  0.00     0.063 C 
ATOM      2  C   UNL     1       4.824  -9.356   3.258  1.00  0.00     0.038 C 
ATOM      3  O   UNL     1       4.217  -9.618   2.186  1.00  0.00    -0.550 OA
ATOM      4  O   UNL     1       5.815  -8.384   3.269  1.00  0.00    -0.550 OA
ENDROOT
TORSDOF 0
ENDMDL
MODEL 6
REMARK VINA RESULT:    -2.320     22.582     23.147
REMARK INTER + INTRA:          -2.320
REMARK INTER:                  -2.320
REMARK INTRA:                   0.000
REMARK UNBOUND:                 0.000
REMARK SMILES CC(=O)[O-]
REMARK SMILES IDX 1 1 2 2 3 3 4 4
REMARK H PARENT
REMARK Flexibility Score: inf
ROOT
ATOM      1  C   UNL     1      -8.195  -6.102  -9.069  1.00  0.00     0.063 C 
ATOM      2  C   UNL     1      -7.726  -5.393  -7.844  1.00  0.00     0.038 C 
ATOM      3  O   UNL     1      -8.512  -4.642  -7.210  1.00  0.00    -0.550 OA
ATOM      4  O   UNL     1      -6.407  -5.516  -7.431  1.00  0.00    -0.550 OA
ENDROOT
TORSDOF 0
ENDMDL
MODEL 7
REMARK VINA RESULT:    -2.138     21.310     21.713
REMARK INTER + INTRA:          -2.138
REMARK INTER:                  -2.138
REMARK INTRA:                   0.000
REMARK UNBOUND:                 0.000
REMARK SMILES CC(=O)[O-]
REMARK SMILES IDX 1 1 2 2 3 3 4 4
REMARK H PARENT
REMARK Flexibility Score: inf
ROOT
ATOM      1  C   UNL     1      -8.315  -9.242  -3.174  1.00  0.00     0.063 C 
ATOM      2  C   UNL     1      -6.888  -9.260  -3.608  1.00  0.00     0.038 C 
ATOM      3  O   UNL     1      -6.004  -9.740  -2.851  1.00  0.00    -0.550 OA
ATOM      4  O   UNL     1      -6.523  -8.699  -4.824  1.00  0.00    -0.550 OA
ENDROOT
TORSDOF 0
ENDMDL
MODEL 8
REMARK VINA RESULT:    -2.007     21.321     21.676
REMARK INTER + INTRA:          -2.007
REMARK INTER:                  -2.007
REMARK INTRA:                   0.000
REMARK UNBOUND:                 0.000
REMARK SMILES CC(=O)[O-]
REMARK SMILES IDX 1 1 2 2 3 3 4 4
REMARK H PARENT
REMARK Flexibility Score: inf
ROOT
ATOM      1  C   UNL     1      -5.028  -9.930  -5.318  1.00  0.00     0.063 C 
ATOM      2  C   UNL     1      -6.096  -9.443  -4.397  1.00  0.00     0.038 C 
ATOM      3  O   UNL     1      -7.112  -8.862  -4.861  1.00  0.00    -0.550 OA
ATOM      4  O   UNL     1      -5.947  -9.580  -3.024  1.00  0.00    -0.550 OA
ENDROOT
TORSDOF 0
ENDMDL
MODEL 9
REMARK VINA RESULT:    -2.007     21.285     21.712
REMARK INTER + INTRA:          -2.007
REMARK INTER:                  -2.007
REMARK INTRA:                   0.000
REMARK UNBOUND:                 0.000
REMARK SMILES CC(=O)[O-]
REMARK SMILES IDX 1 1 2 2 3 3 4 4
REMARK H PARENT
REMARK Flexibility Score: inf
ROOT
ATOM      1  C   UNL     1      -5.309   3.438  -8.999  1.00  0.00     0.063 C 
ATOM      2  C   UNL     1      -6.325   2.349  -9.096  1.00  0.00     0.038 C 
ATOM      3  O   UNL     1      -6.376   1.625 -10.125  1.00  0.00    -0.550 OA
ATOM      4  O   UNL     1      -7.250   2.168  -8.078  1.00  0.00    -0.550 OA
ENDROOT
TORSDOF 0
ENDMDL
