MODEL 1
REMARK VINA RESULT:    -5.678      0.000      0.000
REMARK INTER + INTRA:         -12.172
REMARK INTER:                 -10.325
REMARK INTRA:                  -1.846
REMARK UNBOUND:                -1.846
REMARK SMILES CCCCCCCCCCCCCC[C@@H](C)C(=O)[O-]
REMARK SMILES IDX 9 1 10 2 11 3 12 4 13 5 14 6 15 7 16 8 17 9 18 10 19 11 8 12
REMARK SMILES IDX 7 13 6 14 5 15 4 16 3 17 2 18 1 19
REMARK H PARENT
REMARK Flexibility Score: inf
ROOT
ATOM      1  C   UNL     1       7.994  22.982  -5.210  1.00  0.00     0.000 C 
ENDROOT
BRANCH   1   2
ATOM      2  C   UNL     1       8.787  21.668  -5.322  1.00  0.00     0.000 C 
BRANCH   2   3
ATOM      3  C   UNL     1      10.053  21.818  -6.193  1.00  0.00     0.000 C 
BRANCH   3   4
ATOM      4  C   UNL     1      10.025  20.964  -7.476  1.00  0.00     0.000 C 
BRANCH   4   5
ATOM      5  C   UNL     1       9.932  21.767  -8.787  1.00  0.00     0.001 C 
BRANCH   5   6
ATOM      6  C   UNL     1      10.437  23.223  -8.702  1.00  0.00     0.009 C 
BRANCH   6   7
ATOM      7  C   UNL     1      11.842  23.450  -9.303  1.00  0.00     0.032 C 
ATOM      8  C   UNL     1      11.884  24.768 -10.083  1.00  0.00     0.014 C 
BRANCH   7   9
ATOM      9  C   UNL     1      12.903  23.461  -8.236  1.00  0.00     0.044 C 
ATOM     10  O   UNL     1      13.402  24.551  -7.851  1.00  0.00    -0.550 OA
ATOM     11  O   UNL     1      13.340  22.270  -7.669  1.00  0.00    -0.550 OA
ENDBRANCH   7   9
ENDBRANCH   6   7
ENDBRANCH   5   6
ENDBRANCH   4   5
ENDBRANCH   3   4
ENDBRANCH   2   3
ENDBRANCH   1   2
BRANCH   1  12
ATOM     12  C   UNL     1       6.922  23.121  -6.302  1.00  0.00     0.000 C 
BRANCH  12  13
ATOM     13  C   UNL     1       6.769  24.565  -6.804  1.00  0.00    -0.000 C 
BRANCH  13  14
ATOM     14  C   UNL     1       7.267  24.698  -8.251  1.00  0.00    -0.000 C 
BRANCH  14  15
ATOM     15  C   UNL     1       6.831  23.521  -9.138  1.00  0.00    -0.000 C 
BRANCH  15  16
ATOM     16  C   UNL     1       5.419  23.705  -9.713  1.00  0.00    -0.000 C 
BRANCH  16  17
ATOM     17  C   UNL     1       4.551  22.470  -9.440  1.00  0.00    -0.000 C 
BRANCH  17  18
ATOM     18  C   UNL     1       3.862  22.572  -8.074  1.00  0.00    -0.003 C 
ATOM     19  C   UNL     1       2.443  22.015  -8.129  1.00  0.00     0.004 C 
ENDBRANCH  17  18
ENDBRANCH  16  17
ENDBRANCH  15  16
ENDBRANCH  14  15
ENDBRANCH  13  14
ENDBRANCH  12  13
ENDBRANCH   1  12
TORSDOF 14
ENDMDL
MODEL 2
REMARK VINA RESULT:    -5.482      2.809      6.462
REMARK INTER + INTRA:         -11.816
REMARK INTER:                 -10.042
REMARK INTRA:                  -1.774
REMARK UNBOUND:                -1.846
REMARK SMILES CCCCCCCCCCCCCC[C@@H](C)C(=O)[O-]
REMARK SMILES IDX 9 1 10 2 11 3 12 4 13 5 14 6 15 7 16 8 17 9 18 10 19 11 8 12
REMARK SMILES IDX 7 13 6 14 5 15 4 16 3 17 2 18 1 19
REMARK H PARENT
REMARK Flexibility Score: inf
ROOT
ATOM      1  C   UNL     1       9.913  23.272  -9.342  1.00  0.00     0.000 C 
ENDROOT
BRANCH   1   2
ATOM      2  C   UNL     1       8.981  22.105  -9.714  1.00  0.00     0.000 C 
BRANCH   2   3
ATOM      3  C   UNL     1       7.871  22.530 -10.700  1.00  0.00     0.000 C 
BRANCH   3   4
ATOM      4  C   UNL     1       6.458  22.092 -10.267  1.00  0.00     0.000 C 
BRANCH   4   5
ATOM      5  C   UNL     1       5.593  23.208  -9.652  1.00  0.00     0.001 C 
BRANCH   5   6
ATOM      6  C   UNL     1       5.633  23.296  -8.112  1.00  0.00     0.009 C 
BRANCH   6   7
ATOM      7  C   UNL     1       6.919  23.931  -7.538  1.00  0.00     0.032 C 
ATOM      8  C   UNL     1       7.207  25.270  -8.224  1.00  0.00     0.014 C 
BRANCH   7   9
ATOM      9  C   UNL     1       6.816  24.136  -6.051  1.00  0.00     0.044 C 
ATOM     10  O   UNL     1       6.915  23.154  -5.269  1.00  0.00    -0.550 OA
ATOM     11  O   UNL     1       6.611  25.408  -5.531  1.00  0.00    -0.550 OA
ENDBRANCH   7   9
ENDBRANCH   6   7
ENDBRANCH   5   6
ENDBRANCH   4   5
ENDBRANCH   3   4
ENDBRANCH   2   3
ENDBRANCH   1   2
BRANCH   1  12
ATOM     12  C   UNL     1      11.003  23.518 -10.397  1.00  0.00     0.000 C 
BRANCH  12  13
ATOM     13  C   UNL     1      12.113  24.456  -9.898  1.00  0.00    -0.000 C 
BRANCH  13  14
ATOM     14  C   UNL     1      12.333  24.290  -8.387  1.00  0.00    -0.000 C 
BRANCH  14  15
ATOM     15  C   UNL     1      13.790  23.955  -8.034  1.00  0.00    -0.000 C 
BRANCH  15  16
ATOM     16  C   UNL     1      13.963  22.510  -7.543  1.00  0.00    -0.000 C 
BRANCH  16  17
ATOM     17  C   UNL     1      12.601  21.834  -7.337  1.00  0.00    -0.000 C 
BRANCH  17  18
ATOM     18  C   UNL     1      12.417  20.661  -8.307  1.00  0.00    -0.003 C 
ATOM     19  C   UNL     1      11.203  19.818  -7.930  1.00  0.00     0.004 C 
ENDBRANCH  17  18
ENDBRANCH  16  17
ENDBRANCH  15  16
ENDBRANCH  14  15
ENDBRANCH  13  14
ENDBRANCH  12  13
ENDBRANCH   1  12
TORSDOF 14
ENDMDL
MODEL 3
REMARK VINA RESULT:    -5.482      2.512      4.310
REMARK INTER + INTRA:         -11.814
REMARK INTER:                 -10.163
REMARK INTRA:                  -1.652
REMARK UNBOUND:                -1.846
REMARK SMILES CCCCCCCCCCCCCC[C@@H](C)C(=O)[O-]
REMARK SMILES IDX 9 1 10 2 11 3 12 4 13 5 14 6 15 7 16 8 17 9 18 10 19 11 8 12
REMARK SMILES IDX 7 13 6 14 5 15 4 16 3 17 2 18 1 19
REMARK H PARENT
REMARK Flexibility Score: inf
ROOT
ATOM      1  C   UNL     1       4.403  22.508  -7.713  1.00  0.00     0.000 C 
ENDROOT
BRANCH   1   2
ATOM      2  C   UNL     1       5.036  23.516  -6.738  1.00  0.00     0.000 C 
BRANCH   2   3
ATOM      3  C   UNL     1       6.578  23.532  -6.828  1.00  0.00     0.000 C 
BRANCH   3   4
ATOM      4  C   UNL     1       7.127  24.566  -7.830  1.00  0.00     0.000 C 
BRANCH   4   5
ATOM      5  C   UNL     1       8.290  24.066  -8.707  1.00  0.00     0.001 C 
BRANCH   5   6
ATOM      6  C   UNL     1       8.406  22.531  -8.829  1.00  0.00     0.009 C 
BRANCH   6   7
ATOM      7  C   UNL     1       9.856  22.000  -8.888  1.00  0.00     0.032 C 
ATOM      8  C   UNL     1      10.840  23.155  -9.099  1.00  0.00     0.014 C 
BRANCH   7   9
ATOM      9  C   UNL     1      10.219  21.248  -7.637  1.00  0.00     0.044 C 
ATOM     10  O   UNL     1      10.270  19.990  -7.648  1.00  0.00    -0.550 OA
ATOM     11  O   UNL     1      10.500  21.934  -6.462  1.00  0.00    -0.550 OA
ENDBRANCH   7   9
ENDBRANCH   6   7
ENDBRANCH   5   6
ENDBRANCH   4   5
ENDBRANCH   3   4
ENDBRANCH   2   3
ENDBRANCH   1   2
BRANCH   1  12
ATOM     12  C   UNL     1       4.248  23.075  -9.133  1.00  0.00     0.000 C 
BRANCH  12  13
ATOM     13  C   UNL     1       5.178  22.396 -10.151  1.00  0.00    -0.000 C 
BRANCH  13  14
ATOM     14  C   UNL     1       5.414  23.303 -11.367  1.00  0.00    -0.000 C 
BRANCH  14  15
ATOM     15  C   UNL     1       4.818  24.707 -11.186  1.00  0.00    -0.000 C 
BRANCH  15  16
ATOM     16  C   UNL     1       4.067  25.197 -12.433  1.00  0.00    -0.000 C 
BRANCH  16  17
ATOM     17  C   UNL     1       4.027  26.730 -12.482  1.00  0.00    -0.000 C 
BRANCH  17  18
ATOM     18  C   UNL     1       5.089  27.338 -11.558  1.00  0.00    -0.003 C 
ATOM     19  C   UNL     1       5.157  28.854 -11.718  1.00  0.00     0.004 C 
ENDBRANCH  17  18
ENDBRANCH  16  17
ENDBRANCH  15  16
ENDBRANCH  14  15
ENDBRANCH  13  14
ENDBRANCH  12  13
ENDBRANCH   1  12
TORSDOF 14
ENDMDL
MODEL 4
REMARK VINA RESULT:    -5.436      1.464      2.722
REMARK INTER + INTRA:         -11.731
REMARK INTER:                  -9.870
REMARK INTRA:                  -1.861
REMARK UNBOUND:                -1.846
REMARK SMILES CCCCCCCCCCCCCC[C@@H](C)C(=O)[O-]
REMARK SMILES IDX 9 1 10 2 11 3 12 4 13 5 14 6 15 7 16 8 17 9 18 10 19 11 8 12
REMARK SMILES IDX 7 13 6 14 5 15 4 16 3 17 2 18 1 19
REMARK H PARENT
REMARK Flexibility Score: inf
ROOT
ATOM      1  C   UNL     1       9.894  21.919  -6.521  1.00  0.00     0.000 C 
ENDROOT
BRANCH   1   2
ATOM      2  C   UNL     1       9.895  21.135  -7.845  1.00  0.00     0.000 C 
BRANCH   2   3
ATOM      3  C   UNL     1       9.554  22.028  -9.058  1.00  0.00     0.000 C 
BRANCH   3   4
ATOM      4  C   UNL     1      10.160  23.442  -8.973  1.00  0.00     0.000 C 
BRANCH   4   5
ATOM      5  C   UNL     1      11.625  23.549  -9.433  1.00  0.00     0.001 C 
BRANCH   5   6
ATOM      6  C   UNL     1      12.554  24.342  -8.489  1.00  0.00     0.009 C 
BRANCH   6   7
ATOM      7  C   UNL     1      13.820  23.577  -8.043  1.00  0.00     0.032 C 
ATOM      8  C   UNL     1      14.708  24.474  -7.174  1.00  0.00     0.014 C 
BRANCH   7   9
ATOM      9  C   UNL     1      13.470  22.325  -7.286  1.00  0.00     0.044 C 
ATOM     10  O   UNL     1      13.325  22.362  -6.035  1.00  0.00    -0.550 OA
ATOM     11  O   UNL     1      13.306  21.120  -7.959  1.00  0.00    -0.550 OA
ENDBRANCH   7   9
ENDBRANCH   6   7
ENDBRANCH   5   6
ENDBRANCH   4   5
ENDBRANCH   3   4
ENDBRANCH   2   3
ENDBRANCH   1   2
BRANCH   1  12
ATOM     12  C   UNL     1       8.660  21.619  -5.655  1.00  0.00     0.000 C 
BRANCH  12  13
ATOM     13  C   UNL     1       7.935  22.892  -5.192  1.00  0.00    -0.000 C 
BRANCH  13  14
ATOM     14  C   UNL     1       6.774  23.236  -6.136  1.00  0.00    -0.000 C 
BRANCH  14  15
ATOM     15  C   UNL     1       6.933  24.615  -6.794  1.00  0.00    -0.000 C 
BRANCH  15  16
ATOM     16  C   UNL     1       6.951  24.540  -8.328  1.00  0.00    -0.000 C 
BRANCH  16  17
ATOM     17  C   UNL     1       6.062  23.396  -8.831  1.00  0.00    -0.000 C 
BRANCH  17  18
ATOM     18  C   UNL     1       6.359  23.075 -10.301  1.00  0.00    -0.003 C 
ATOM     19  C   UNL     1       5.087  23.114 -11.142  1.00  0.00     0.004 C 
ENDBRANCH  17  18
ENDBRANCH  16  17
ENDBRANCH  15  16
ENDBRANCH  14  15
ENDBRANCH  13  14
ENDBRANCH  12  13
ENDBRANCH   1  12
TORSDOF 14
ENDMDL
MODEL 5
REMARK VINA RESULT:    -5.333      1.488      2.020
REMARK INTER + INTRA:         -11.544
REMARK INTER:                  -9.825
REMARK INTRA:                  -1.719
REMARK UNBOUND:                -1.846
REMARK SMILES CCCCCCCCCCCCCC[C@@H](C)C(=O)[O-]
REMARK SMILES IDX 9 1 10 2 11 3 12 4 13 5 14 6 15 7 16 8 17 9 18 10 19 11 8 12
REMARK SMILES IDX 7 13 6 14 5 15 4 16 3 17 2 18 1 19
REMARK H PARENT
REMARK Flexibility Score: inf
ROOT
ATOM      1  C   UNL     1       7.860  23.054  -5.280  1.00  0.00     0.000 C 
ENDROOT
BRANCH   1   2
ATOM      2  C   UNL     1       8.538  21.684  -5.456  1.00  0.00     0.000 C 
BRANCH   2   3
ATOM      3  C   UNL     1       9.924  21.795  -6.128  1.00  0.00     0.000 C 
BRANCH   3   4
ATOM      4  C   UNL     1      10.088  20.883  -7.359  1.00  0.00     0.000 C 
BRANCH   4   5
ATOM      5  C   UNL     1      11.124  21.368  -8.391  1.00  0.00     0.001 C 
BRANCH   5   6
ATOM      6  C   UNL     1      12.597  21.254  -7.944  1.00  0.00     0.009 C 
BRANCH   6   7
ATOM      7  C   UNL     1      13.344  22.603  -7.846  1.00  0.00     0.032 C 
ATOM      8  C   UNL     1      12.429  23.754  -8.279  1.00  0.00     0.014 C 
BRANCH   7   9
ATOM      9  C   UNL     1      13.845  22.855  -6.450  1.00  0.00     0.044 C 
ATOM     10  O   UNL     1      13.280  22.309  -5.466  1.00  0.00    -0.550 OA
ATOM     11  O   UNL     1      14.934  23.692  -6.235  1.00  0.00    -0.550 OA
ENDBRANCH   7   9
ENDBRANCH   6   7
ENDBRANCH   5   6
ENDBRANCH   4   5
ENDBRANCH   3   4
ENDBRANCH   2   3
ENDBRANCH   1   2
BRANCH   1  12
ATOM     12  C   UNL     1       6.825  23.348  -6.377  1.00  0.00     0.000 C 
BRANCH  12  13
ATOM     13  C   UNL     1       6.980  24.753  -6.979  1.00  0.00    -0.000 C 
BRANCH  13  14
ATOM     14  C   UNL     1       7.363  24.674  -8.464  1.00  0.00    -0.000 C 
BRANCH  14  15
ATOM     15  C   UNL     1       7.715  23.247  -8.910  1.00  0.00    -0.000 C 
BRANCH  15  16
ATOM     16  C   UNL     1       6.847  22.762 -10.080  1.00  0.00    -0.000 C 
BRANCH  16  17
ATOM     17  C   UNL     1       5.386  22.591  -9.645  1.00  0.00    -0.000 C 
BRANCH  17  18
ATOM     18  C   UNL     1       4.481  23.613 -10.343  1.00  0.00    -0.003 C 
ATOM     19  C   UNL     1       5.040  24.005 -11.708  1.00  0.00     0.004 C 
ENDBRANCH  17  18
ENDBRANCH  16  17
ENDBRANCH  15  16
ENDBRANCH  14  15
ENDBRANCH  13  14
ENDBRANCH  12  13
ENDBRANCH   1  12
TORSDOF 14
ENDMDL
MODEL 6
REMARK VINA RESULT:    -5.253      3.175      6.412
REMARK INTER + INTRA:         -11.399
REMARK INTER:                  -9.504
REMARK INTRA:                  -1.896
REMARK UNBOUND:                -1.846
REMARK SMILES CCCCCCCCCCCCCC[C@@H](C)C(=O)[O-]
REMARK SMILES IDX 9 1 10 2 11 3 12 4 13 5 14 6 15 7 16 8 17 9 18 10 19 11 8 12
REMARK SMILES IDX 7 13 6 14 5 15 4 16 3 17 2 18 1 19
REMARK H PARENT
REMARK Flexibility Score: inf
ROOT
ATOM      1  C   UNL     1      12.103  24.258  -9.529  1.00  0.00     0.000 C 
ENDROOT
BRANCH   1   2
ATOM      2  C   UNL     1      10.595  24.178  -9.236  1.00  0.00     0.000 C 
BRANCH   2   3
ATOM      3  C   UNL     1       9.930  22.954  -9.902  1.00  0.00     0.000 C 
BRANCH   3   4
ATOM      4  C   UNL     1       8.412  22.862  -9.651  1.00  0.00     0.000 C 
BRANCH   4   5
ATOM      5  C   UNL     1       7.828  23.996  -8.789  1.00  0.00     0.001 C 
BRANCH   5   6
ATOM      6  C   UNL     1       6.289  23.998  -8.663  1.00  0.00     0.009 C 
BRANCH   6   7
ATOM      7  C   UNL     1       5.556  23.168  -9.739  1.00  0.00     0.032 C 
ATOM      8  C   UNL     1       4.303  22.513  -9.149  1.00  0.00     0.014 C 
BRANCH   7   9
ATOM      9  C   UNL     1       5.173  24.015 -10.923  1.00  0.00     0.044 C 
ATOM     10  O   UNL     1       5.176  25.270 -10.829  1.00  0.00    -0.550 OA
ATOM     11  O   UNL     1       4.814  23.419 -12.126  1.00  0.00    -0.550 OA
ENDBRANCH   7   9
ENDBRANCH   6   7
ENDBRANCH   5   6
ENDBRANCH   4   5
ENDBRANCH   3   4
ENDBRANCH   2   3
ENDBRANCH   1   2
BRANCH   1  12
ATOM     12  C   UNL     1      12.958  24.206  -8.254  1.00  0.00     0.000 C 
BRANCH  12  13
ATOM     13  C   UNL     1      13.601  22.830  -8.023  1.00  0.00    -0.000 C 
BRANCH  13  14
ATOM     14  C   UNL     1      12.762  21.989  -7.051  1.00  0.00    -0.000 C 
BRANCH  14  15
ATOM     15  C   UNL     1      11.918  20.922  -7.765  1.00  0.00    -0.000 C 
BRANCH  15  16
ATOM     16  C   UNL     1      10.470  20.875  -7.256  1.00  0.00    -0.000 C 
BRANCH  16  17
ATOM     17  C   UNL     1      10.188  22.037  -6.296  1.00  0.00    -0.000 C 
BRANCH  17  18
ATOM     18  C   UNL     1       8.695  22.120  -5.955  1.00  0.00    -0.003 C 
ATOM     19  C   UNL     1       8.429  21.663  -4.524  1.00  0.00     0.004 C 
ENDBRANCH  17  18
ENDBRANCH  16  17
ENDBRANCH  15  16
ENDBRANCH  14  15
ENDBRANCH  13  14
ENDBRANCH  12  13
ENDBRANCH   1  12
TORSDOF 14
ENDMDL
MODEL 7
REMARK VINA RESULT:    -5.215      2.179      3.898
REMARK INTER + INTRA:         -11.329
REMARK INTER:                  -9.534
REMARK INTRA:                  -1.795
REMARK UNBOUND:                -1.846
REMARK SMILES CCCCCCCCCCCCCC[C@@H](C)C(=O)[O-]
REMARK SMILES IDX 9 1 10 2 11 3 12 4 13 5 14 6 15 7 16 8 17 9 18 10 19 11 8 12
REMARK SMILES IDX 7 13 6 14 5 15 4 16 3 17 2 18 1 19
REMARK H PARENT
REMARK Flexibility Score: inf
ROOT
ATOM      1  C   UNL     1       9.964  20.990  -7.453  1.00  0.00     0.000 C 
ENDROOT
BRANCH   1   2
ATOM      2  C   UNL     1      10.950  21.403  -8.559  1.00  0.00     0.000 C 
BRANCH   2   3
ATOM      3  C   UNL     1      10.957  22.928  -8.803  1.00  0.00     0.000 C 
BRANCH   3   4
ATOM      4  C   UNL     1      12.297  23.604  -8.454  1.00  0.00     0.000 C 
BRANCH   4   5
ATOM      5  C   UNL     1      13.364  22.663  -7.866  1.00  0.00     0.001 C 
BRANCH   5   6
ATOM      6  C   UNL     1      13.322  22.501  -6.331  1.00  0.00     0.009 C 
BRANCH   6   7
ATOM      7  C   UNL     1      14.622  22.914  -5.606  1.00  0.00     0.032 C 
ATOM      8  C   UNL     1      15.231  24.155  -6.266  1.00  0.00     0.014 C 
BRANCH   7   9
ATOM      9  C   UNL     1      14.378  23.186  -4.147  1.00  0.00     0.044 C 
ATOM     10  O   UNL     1      15.145  23.953  -3.509  1.00  0.00    -0.550 OA
ATOM     11  O   UNL     1      13.306  22.591  -3.492  1.00  0.00    -0.550 OA
ENDBRANCH   7   9
ENDBRANCH   6   7
ENDBRANCH   5   6
ENDBRANCH   4   5
ENDBRANCH   3   4
ENDBRANCH   2   3
ENDBRANCH   1   2
BRANCH   1  12
ATOM     12  C   UNL     1       9.713  22.113  -6.434  1.00  0.00     0.000 C 
BRANCH  12  13
ATOM     13  C   UNL     1       8.523  21.821  -5.507  1.00  0.00    -0.000 C 
BRANCH  13  14
ATOM     14  C   UNL     1       7.677  23.083  -5.286  1.00  0.00    -0.000 C 
BRANCH  14  15
ATOM     15  C   UNL     1       6.729  23.376  -6.459  1.00  0.00    -0.000 C 
BRANCH  15  16
ATOM     16  C   UNL     1       7.039  24.712  -7.151  1.00  0.00    -0.000 C 
BRANCH  16  17
ATOM     17  C   UNL     1       7.502  24.487  -8.595  1.00  0.00    -0.000 C 
BRANCH  17  18
ATOM     18  C   UNL     1       6.688  23.375  -9.268  1.00  0.00    -0.003 C 
ATOM     19  C   UNL     1       7.588  22.442 -10.072  1.00  0.00     0.004 C 
ENDBRANCH  17  18
ENDBRANCH  16  17
ENDBRANCH  15  16
ENDBRANCH  14  15
ENDBRANCH  13  14
ENDBRANCH  12  13
ENDBRANCH   1  12
TORSDOF 14
ENDMDL
MODEL 8
REMARK VINA RESULT:    -5.186      3.353      6.874
REMARK INTER + INTRA:         -11.276
REMARK INTER:                  -9.452
REMARK INTRA:                  -1.824
REMARK UNBOUND:                -1.846
REMARK SMILES CCCCCCCCCCCCCC[C@@H](C)C(=O)[O-]
REMARK SMILES IDX 9 1 10 2 11 3 12 4 13 5 14 6 15 7 16 8 17 9 18 10 19 11 8 12
REMARK SMILES IDX 7 13 6 14 5 15 4 16 3 17 2 18 1 19
REMARK H PARENT
REMARK Flexibility Score: inf
ROOT
ATOM      1  C   UNL     1       9.987  22.237  -6.794  1.00  0.00     0.000 C 
ENDROOT
BRANCH   1   2
ATOM      2  C   UNL     1       8.967  21.647  -5.804  1.00  0.00     0.000 C 
BRANCH   2   3
ATOM      3  C   UNL     1       7.859  22.655  -5.430  1.00  0.00     0.000 C 
BRANCH   3   4
ATOM      4  C   UNL     1       7.667  23.776  -6.470  1.00  0.00     0.000 C 
BRANCH   4   5
ATOM      5  C   UNL     1       6.646  23.465  -7.580  1.00  0.00     0.001 C 
BRANCH   5   6
ATOM      6  C   UNL     1       6.812  24.287  -8.875  1.00  0.00     0.009 C 
BRANCH   6   7
ATOM      7  C   UNL     1       6.271  23.598 -10.147  1.00  0.00     0.032 C 
ATOM      8  C   UNL     1       6.671  22.119 -10.165  1.00  0.00     0.014 C 
BRANCH   7   9
ATOM      9  C   UNL     1       4.775  23.719 -10.246  1.00  0.00     0.044 C 
ATOM     10  O   UNL     1       4.035  23.069  -9.462  1.00  0.00    -0.550 OA
ATOM     11  O   UNL     1       4.199  24.547 -11.202  1.00  0.00    -0.550 OA
ENDBRANCH   7   9
ENDBRANCH   6   7
ENDBRANCH   5   6
ENDBRANCH   4   5
ENDBRANCH   3   4
ENDBRANCH   2   3
ENDBRANCH   1   2
BRANCH   1  12
ATOM     12  C   UNL     1      10.191  21.350  -8.032  1.00  0.00     0.000 C 
BRANCH  12  13
ATOM     13  C   UNL     1      10.117  22.139  -9.348  1.00  0.00    -0.000 C 
BRANCH  13  14
ATOM     14  C   UNL     1      10.399  23.630  -9.111  1.00  0.00    -0.000 C 
BRANCH  14  15
ATOM     15  C   UNL     1      11.787  24.058  -9.612  1.00  0.00    -0.000 C 
BRANCH  15  16
ATOM     16  C   UNL     1      12.737  24.440  -8.467  1.00  0.00    -0.000 C 
BRANCH  16  17
ATOM     17  C   UNL     1      13.401  23.194  -7.866  1.00  0.00    -0.000 C 
BRANCH  17  18
ATOM     18  C   UNL     1      14.423  23.581  -6.791  1.00  0.00    -0.003 C 
ATOM     19  C   UNL     1      15.791  23.862  -7.406  1.00  0.00     0.004 C 
ENDBRANCH  17  18
ENDBRANCH  16  17
ENDBRANCH  15  16
ENDBRANCH  14  15
ENDBRANCH  13  14
ENDBRANCH  12  13
ENDBRANCH   1  12
TORSDOF 14
ENDMDL
MODEL 9
REMARK VINA RESULT:    -5.184      1.340      4.030
REMARK INTER + INTRA:         -11.274
REMARK INTER:                  -9.845
REMARK INTRA:                  -1.428
REMARK UNBOUND:                -1.846
REMARK SMILES CCCCCCCCCCCCCC[C@@H](C)C(=O)[O-]
REMARK SMILES IDX 9 1 10 2 11 3 12 4 13 5 14 6 15 7 16 8 17 9 18 10 19 11 8 12
REMARK SMILES IDX 7 13 6 14 5 15 4 16 3 17 2 18 1 19
REMARK H PARENT
REMARK Flexibility Score: inf
ROOT
ATOM      1  C   UNL     1       5.278  22.869  -9.031  1.00  0.00     0.000 C 
ENDROOT
BRANCH   1   2
ATOM      2  C   UNL     1       5.532  22.454 -10.491  1.00  0.00     0.000 C 
BRANCH   2   3
ATOM      3  C   UNL     1       7.033  22.259 -10.794  1.00  0.00     0.000 C 
BRANCH   3   4
ATOM      4  C   UNL     1       7.964  22.924  -9.762  1.00  0.00     0.000 C 
BRANCH   4   5
ATOM      5  C   UNL     1       9.171  22.069  -9.332  1.00  0.00     0.001 C 
BRANCH   5   6
ATOM      6  C   UNL     1      10.550  22.631  -9.736  1.00  0.00     0.009 C 
BRANCH   6   7
ATOM      7  C   UNL     1      11.417  23.119  -8.554  1.00  0.00     0.032 C 
ATOM      8  C   UNL     1      12.185  21.947  -7.935  1.00  0.00     0.014 C 
BRANCH   7   9
ATOM      9  C   UNL     1      12.384  24.188  -8.983  1.00  0.00     0.044 C 
ATOM     10  O   UNL     1      12.146  24.883 -10.007  1.00  0.00    -0.550 OA
ATOM     11  O   UNL     1      13.546  24.417  -8.256  1.00  0.00    -0.550 OA
ENDBRANCH   7   9
ENDBRANCH   6   7
ENDBRANCH   5   6
ENDBRANCH   4   5
ENDBRANCH   3   4
ENDBRANCH   2   3
ENDBRANCH   1   2
BRANCH   1  12
ATOM     12  C   UNL     1       3.833  22.602  -8.582  1.00  0.00     0.000 C 
BRANCH  12  13
ATOM     13  C   UNL     1       3.610  22.892  -7.090  1.00  0.00    -0.000 C 
BRANCH  13  14
ATOM     14  C   UNL     1       4.944  22.906  -6.328  1.00  0.00    -0.000 C 
BRANCH  14  15
ATOM     15  C   UNL     1       5.319  24.304  -5.814  1.00  0.00    -0.000 C 
BRANCH  15  16
ATOM     16  C   UNL     1       6.835  24.486  -5.647  1.00  0.00    -0.000 C 
BRANCH  16  17
ATOM     17  C   UNL     1       7.598  23.285  -6.219  1.00  0.00    -0.000 C 
BRANCH  17  18
ATOM     18  C   UNL     1       8.095  22.365  -5.098  1.00  0.00    -0.003 C 
ATOM     19  C   UNL     1       9.419  21.705  -5.472  1.00  0.00     0.004 C 
ENDBRANCH  17  18
ENDBRANCH  16  17
ENDBRANCH  15  16
ENDBRANCH  14  15
ENDBRANCH  13  14
ENDBRANCH  12  13
ENDBRANCH   1  12
TORSDOF 14
ENDMDL
