MODEL 1
REMARK VINA RESULT:     5.630      0.000      0.000
REMARK INTER + INTRA:           8.438
REMARK INTER:                   7.934
REMARK INTRA:                   0.504
REMARK UNBOUND:                 0.504
REMARK SMILES C[C@@H](CO)CCC(=O)[C@@H](C)[C@H]1C(=O)C[C@H]2[C@H]3CC=C4C[C@@H](O)CC[C@]4(C)[C@@H]3CC[C@@]12C
REMARK SMILES IDX 6 1 5 2 2 3 1 4 3 5 4 6 7 8 8 9 9 10 10 11 11 12 12 13 30 14
REMARK SMILES IDX 13 15 14 16 15 17 29 18 31 19 16 20 28 21 27 22 17 23 25 24
REMARK SMILES IDX 18 25 19 26 24 27 26 28 20 29 23 30 21 31 22 32
REMARK H PARENT 4 7 22 33
REMARK Flexibility Score: inf
ROOT
ATOM      1  C   UNL     1       5.904 -32.747  14.784  1.00  0.00     0.076 C 
ENDROOT
BRANCH   1   2
ATOM      2  C   UNL     1       6.512 -31.428  15.286  1.00  0.00     0.013 C 
BRANCH   2   3
ATOM      3  C   UNL     1       6.622 -31.351  16.827  1.00  0.00     0.012 C 
ATOM      4  C   UNL     1       8.089 -31.418  17.286  1.00  0.00     0.010 C 
BRANCH   3   5
ATOM      5  C   UNL     1       5.963 -30.049  17.329  1.00  0.00     0.159 C 
BRANCH   5   6
ATOM      6  O   UNL     1       5.889 -29.088  16.308  1.00  0.00    -0.396 OA
ATOM      7  H   UNL     1       5.209 -28.427  16.595  1.00  0.00     0.210 HD
ENDBRANCH   5   6
ENDBRANCH   3   5
ENDBRANCH   2   3
ENDBRANCH   1   2
BRANCH   1   8
ATOM      8  C   UNL     1       7.003 -33.753  14.533  1.00  0.00     0.136 C 
ATOM      9  O   UNL     1       7.475 -34.327  15.505  1.00  0.00    -0.299 OA
BRANCH   8  10
ATOM     10  C   UNL     1       7.434 -34.197  13.138  1.00  0.00     0.064 C 
ATOM     11  C   UNL     1       6.414 -35.112  12.419  1.00  0.00     0.017 C 
BRANCH  10  12
ATOM     12  C   UNL     1       8.014 -33.015  12.279  1.00  0.00     0.072 C 
ATOM     13  C   UNL     1       7.087 -31.847  12.157  1.00  0.00     0.137 C 
ATOM     14  C   UNL     1       9.389 -32.342  12.637  1.00  0.00    -0.019 C 
ATOM     15  O   UNL     1       5.879 -31.953  12.019  1.00  0.00    -0.299 OA
ATOM     16  C   UNL     1       7.791 -30.542  12.117  1.00  0.00     0.080 C 
ATOM     17  C   UNL     1       9.266 -30.944  11.957  1.00  0.00     0.007 C 
ATOM     18  C   UNL     1       9.578 -32.160  14.166  1.00  0.00     0.008 C 
ATOM     19  C   UNL     1      10.577 -33.132  12.032  1.00  0.00     0.012 C 
ATOM     20  C   UNL     1      10.309 -29.876  12.414  1.00  0.00     0.001 C 
ATOM     21  C   UNL     1      10.724 -31.212  14.523  1.00  0.00     0.005 C 
ATOM     22  C   UNL     1      10.485 -29.794  13.945  1.00  0.00     0.003 C 
ATOM     23  C   UNL     1       9.944 -28.485  11.875  1.00  0.00     0.031 C 
ATOM     24  C   UNL     1      11.596 -28.738  14.373  1.00  0.00    -0.008 C 
ATOM     25  C   UNL     1      10.971 -27.472  12.261  1.00  0.00    -0.027 C 
ATOM     26  C   UNL     1      11.661 -27.527  13.420  1.00  0.00    -0.065 C 
ATOM     27  C   UNL     1      13.024 -29.374  14.383  1.00  0.00     0.014 C 
ATOM     28  C   UNL     1      11.238 -28.232  15.795  1.00  0.00     0.016 C 
ATOM     29  C   UNL     1      12.752 -26.503  13.656  1.00  0.00     0.063 C 
ATOM     30  C   UNL     1      14.169 -28.363  14.601  1.00  0.00     0.033 C 
ATOM     31  C   UNL     1      14.117 -27.198  13.602  1.00  0.00     0.118 C 
BRANCH  31  32
ATOM     32  O   UNL     1      15.128 -26.276  13.915  1.00  0.00    -0.393 OA
ATOM     33  H   UNL     1      15.818 -26.768  14.432  1.00  0.00     0.210 HD
ENDBRANCH  31  32
ENDBRANCH  10  12
ENDBRANCH   8  10
ENDBRANCH   1   8
TORSDOF 8
ENDMDL
MODEL 2
REMARK VINA RESULT:     6.593      2.058      5.645
REMARK INTER + INTRA:           9.795
REMARK INTER:                   5.276
REMARK INTRA:                   4.519
REMARK UNBOUND:                 0.504
REMARK SMILES C[C@@H](CO)CCC(=O)[C@@H](C)[C@H]1C(=O)C[C@H]2[C@H]3CC=C4C[C@@H](O)CC[C@]4(C)[C@@H]3CC[C@@]12C
REMARK SMILES IDX 6 1 5 2 2 3 1 4 3 5 4 6 7 8 8 9 9 10 10 11 11 12 12 13 30 14
REMARK SMILES IDX 13 15 14 16 15 17 29 18 31 19 16 20 28 21 27 22 17 23 25 24
REMARK SMILES IDX 18 25 19 26 24 27 26 28 20 29 23 30 21 31 22 32
REMARK H PARENT 4 7 22 33
REMARK Flexibility Score: inf
ROOT
ATOM      1  C   UNL     1      12.312 -31.418  12.227  1.00  0.00     0.076 C 
ENDROOT
BRANCH   1   2
ATOM      2  C   UNL     1      12.777 -30.754  13.532  1.00  0.00     0.013 C 
BRANCH   2   3
ATOM      3  C   UNL     1      12.758 -29.208  13.474  1.00  0.00     0.012 C 
ATOM      4  C   UNL     1      11.356 -28.656  13.783  1.00  0.00     0.010 C 
BRANCH   3   5
ATOM      5  C   UNL     1      13.790 -28.639  14.469  1.00  0.00     0.159 C 
BRANCH   5   6
ATOM      6  O   UNL     1      13.969 -27.259  14.286  1.00  0.00    -0.396 OA
ATOM      7  H   UNL     1      14.924 -27.130  14.050  1.00  0.00     0.210 HD
ENDBRANCH   5   6
ENDBRANCH   3   5
ENDBRANCH   2   3
ENDBRANCH   1   2
BRANCH   1   8
ATOM      8  C   UNL     1      11.938 -32.858  12.492  1.00  0.00     0.136 C 
ATOM      9  O   UNL     1      12.578 -33.460  13.344  1.00  0.00    -0.299 OA
BRANCH   8  10
ATOM     10  C   UNL     1      10.718 -33.537  11.875  1.00  0.00     0.064 C 
ATOM     11  C   UNL     1      10.721 -35.080  11.996  1.00  0.00     0.017 C 
BRANCH  10  12
ATOM     12  C   UNL     1       9.370 -32.825  12.259  1.00  0.00     0.072 C 
ATOM     13  C   UNL     1       8.334 -33.753  12.810  1.00  0.00     0.137 C 
ATOM     14  C   UNL     1       9.340 -31.620  13.267  1.00  0.00    -0.019 C 
ATOM     15  O   UNL     1       8.142 -34.882  12.386  1.00  0.00    -0.299 OA
ATOM     16  C   UNL     1       7.489 -33.131  13.857  1.00  0.00     0.080 C 
ATOM     17  C   UNL     1       7.867 -31.644  13.776  1.00  0.00     0.007 C 
ATOM     18  C   UNL     1      10.306 -31.826  14.464  1.00  0.00     0.008 C 
ATOM     19  C   UNL     1       9.640 -30.278  12.551  1.00  0.00     0.012 C 
ATOM     20  C   UNL     1       7.581 -30.805  15.061  1.00  0.00     0.001 C 
ATOM     21  C   UNL     1      10.050 -30.856  15.618  1.00  0.00     0.005 C 
ATOM     22  C   UNL     1       8.617 -31.018  16.186  1.00  0.00     0.003 C 
ATOM     23  C   UNL     1       6.177 -31.098  15.609  1.00  0.00     0.031 C 
ATOM     24  C   UNL     1       8.329 -30.107  17.458  1.00  0.00    -0.008 C 
ATOM     25  C   UNL     1       5.879 -30.253  16.804  1.00  0.00    -0.027 C 
ATOM     26  C   UNL     1       6.823 -29.871  17.690  1.00  0.00    -0.065 C 
ATOM     27  C   UNL     1       8.984 -28.694  17.315  1.00  0.00     0.014 C 
ATOM     28  C   UNL     1       8.916 -30.832  18.697  1.00  0.00     0.016 C 
ATOM     29  C   UNL     1       6.421 -28.928  18.806  1.00  0.00     0.063 C 
ATOM     30  C   UNL     1       8.586 -27.693  18.420  1.00  0.00     0.033 C 
ATOM     31  C   UNL     1       7.064 -27.558  18.564  1.00  0.00     0.118 C 
BRANCH  31  32
ATOM     32  O   UNL     1       6.776 -26.706  19.642  1.00  0.00    -0.393 OA
ATOM     33  H   UNL     1       6.499 -27.283  20.401  1.00  0.00     0.210 HD
ENDBRANCH  31  32
ENDBRANCH  10  12
ENDBRANCH   8  10
ENDBRANCH   1   8
TORSDOF 8
ENDMDL
MODEL 3
REMARK VINA RESULT:     6.601      1.598      2.482
REMARK INTER + INTRA:           9.807
REMARK INTER:                   9.547
REMARK INTRA:                   0.259
REMARK UNBOUND:                 0.504
REMARK SMILES C[C@@H](CO)CCC(=O)[C@@H](C)[C@H]1C(=O)C[C@H]2[C@H]3CC=C4C[C@@H](O)CC[C@]4(C)[C@@H]3CC[C@@]12C
REMARK SMILES IDX 6 1 5 2 2 3 1 4 3 5 4 6 7 8 8 9 9 10 10 11 11 12 12 13 30 14
REMARK SMILES IDX 13 15 14 16 15 17 29 18 31 19 16 20 28 21 27 22 17 23 25 24
REMARK SMILES IDX 18 25 19 26 24 27 26 28 20 29 23 30 21 31 22 32
REMARK H PARENT 4 7 22 33
REMARK Flexibility Score: inf
ROOT
ATOM      1  C   UNL     1       5.875 -31.930  15.629  1.00  0.00     0.076 C 
ENDROOT
BRANCH   1   2
ATOM      2  C   UNL     1       5.928 -31.504  17.104  1.00  0.00     0.013 C 
BRANCH   2   3
ATOM      3  C   UNL     1       6.785 -30.239  17.346  1.00  0.00     0.012 C 
ATOM      4  C   UNL     1       5.900 -29.004  17.588  1.00  0.00     0.010 C 
BRANCH   3   5
ATOM      5  C   UNL     1       7.723 -30.471  18.549  1.00  0.00     0.159 C 
BRANCH   5   6
ATOM      6  O   UNL     1       8.348 -29.278  18.946  1.00  0.00    -0.396 OA
ATOM      7  H   UNL     1       8.738 -28.881  18.126  1.00  0.00     0.210 HD
ENDBRANCH   5   6
ENDBRANCH   3   5
ENDBRANCH   2   3
ENDBRANCH   1   2
BRANCH   1   8
ATOM      8  C   UNL     1       6.195 -33.403  15.511  1.00  0.00     0.136 C 
ATOM      9  O   UNL     1       5.875 -34.126  16.444  1.00  0.00    -0.299 OA
BRANCH   8  10
ATOM     10  C   UNL     1       6.742 -34.045  14.239  1.00  0.00     0.064 C 
ATOM     11  C   UNL     1       5.979 -33.654  12.951  1.00  0.00     0.017 C 
BRANCH  10  12
ATOM     12  C   UNL     1       8.310 -33.973  14.151  1.00  0.00     0.072 C 
ATOM     13  C   UNL     1       8.842 -34.102  12.759  1.00  0.00     0.137 C 
ATOM     14  C   UNL     1       9.106 -32.744  14.724  1.00  0.00    -0.019 C 
ATOM     15  O   UNL     1       8.379 -34.863  11.924  1.00  0.00    -0.299 OA
ATOM     16  C   UNL     1      10.057 -33.285  12.518  1.00  0.00     0.080 C 
ATOM     17  C   UNL     1      10.445 -32.810  13.927  1.00  0.00     0.007 C 
ATOM     18  C   UNL     1       8.396 -31.394  14.436  1.00  0.00     0.008 C 
ATOM     19  C   UNL     1       9.375 -32.904  16.242  1.00  0.00     0.012 C 
ATOM     20  C   UNL     1      11.330 -31.525  13.985  1.00  0.00     0.001 C 
ATOM     21  C   UNL     1       9.297 -30.180  14.666  1.00  0.00     0.005 C 
ATOM     22  C   UNL     1      10.544 -30.217  13.747  1.00  0.00     0.003 C 
ATOM     23  C   UNL     1      12.485 -31.607  12.977  1.00  0.00     0.031 C 
ATOM     24  C   UNL     1      11.464 -28.925  13.869  1.00  0.00    -0.008 C 
ATOM     25  C   UNL     1      13.368 -30.406  13.071  1.00  0.00    -0.027 C 
ATOM     26  C   UNL     1      12.907 -29.177  13.388  1.00  0.00    -0.065 C 
ATOM     27  C   UNL     1      11.568 -28.429  15.349  1.00  0.00     0.014 C 
ATOM     28  C   UNL     1      10.833 -27.815  12.988  1.00  0.00     0.016 C 
ATOM     29  C   UNL     1      13.912 -28.055  13.556  1.00  0.00     0.063 C 
ATOM     30  C   UNL     1      12.595 -27.299  15.570  1.00  0.00     0.033 C 
ATOM     31  C   UNL     1      13.988 -27.663  15.036  1.00  0.00     0.118 C 
BRANCH  31  32
ATOM     32  O   UNL     1      14.843 -26.561  15.188  1.00  0.00    -0.393 OA
ATOM     33  H   UNL     1      14.267 -25.762  15.314  1.00  0.00     0.210 HD
ENDBRANCH  31  32
ENDBRANCH  10  12
ENDBRANCH   8  10
ENDBRANCH   1   8
TORSDOF 8
ENDMDL
