MODEL 1
REMARK VINA RESULT:    -6.784      0.000      0.000
REMARK INTER + INTRA:          -7.304
REMARK INTER:                  -7.379
REMARK INTRA:                   0.075
REMARK UNBOUND:                 0.075
REMARK SMILES COc1cc2ccc(=O)oc2cc1O
REMARK SMILES IDX 3 1 13 2 12 3 11 4 5 5 4 6 6 7 7 8 8 9 9 10 10 11 2 12 1 13
REMARK SMILES IDX 14 14
REMARK H PARENT 14 15
REMARK Flexibility Score: inf
ROOT
ATOM      1  C   UNL     1     109.620 111.840 112.212  1.00  0.00     0.161 A 
ATOM      2  C   UNL     1     109.245 110.483 112.239  1.00  0.00     0.161 A 
ATOM      3  C   UNL     1     109.075 109.774 111.044  1.00  0.00     0.098 A 
ATOM      4  C   UNL     1     109.274 110.405 109.813  1.00  0.00     0.142 A 
ATOM      5  C   UNL     1     109.649 111.764 109.776  1.00  0.00     0.022 A 
ATOM      6  C   UNL     1     109.821 112.476 110.970  1.00  0.00     0.062 A 
ATOM      7  C   UNL     1     109.842 112.367 108.529  1.00  0.00     0.019 A 
ATOM      8  C   UNL     1     109.658 111.615 107.369  1.00  0.00     0.094 A 
ATOM      9  C   UNL     1     109.286 110.271 107.484  1.00  0.00     0.336 A 
ATOM     10  O   UNL     1     109.116 109.576 106.448  1.00  0.00    -0.246 OA
ATOM     11  O   UNL     1     109.110 109.722 108.683  1.00  0.00    -0.423 OA
ENDROOT
BRANCH   1  12
ATOM     12  O   UNL     1     109.782 112.521 113.430  1.00  0.00    -0.493 OA
ATOM     13  C   UNL     1     110.861 112.311 114.335  1.00  0.00     0.278 C 
ENDBRANCH   1  12
BRANCH   2  14
ATOM     14  O   UNL     1     109.038 109.818 113.448  1.00  0.00    -0.504 OA
ATOM     15  H   UNL     1     108.446 110.196 114.177  1.00  0.00     0.293 HD
ENDBRANCH   2  14
TORSDOF 2
ENDMDL
MODEL 2
REMARK VINA RESULT:    -6.739      3.504      3.978
REMARK INTER + INTRA:          -7.254
REMARK INTER:                  -7.278
REMARK INTRA:                   0.023
REMARK UNBOUND:                 0.075
REMARK SMILES COc1cc2ccc(=O)oc2cc1O
REMARK SMILES IDX 3 1 13 2 12 3 11 4 5 5 4 6 6 7 7 8 8 9 9 10 10 11 2 12 1 13
REMARK SMILES IDX 14 14
REMARK H PARENT 14 15
REMARK Flexibility Score: inf
ROOT
ATOM      1  C   UNL     1     112.559 110.480 112.114  1.00  0.00     0.161 A 
ATOM      2  C   UNL     1     112.977 111.825 112.135  1.00  0.00     0.161 A 
ATOM      3  C   UNL     1     113.172 112.522 110.937  1.00  0.00     0.098 A 
ATOM      4  C   UNL     1     112.953 111.892 109.709  1.00  0.00     0.142 A 
ATOM      5  C   UNL     1     112.535 110.546 109.678  1.00  0.00     0.022 A 
ATOM      6  C   UNL     1     112.339 109.845 110.875  1.00  0.00     0.062 A 
ATOM      7  C   UNL     1     112.323 109.943 108.434  1.00  0.00     0.019 A 
ATOM      8  C   UNL     1     112.532 110.683 107.270  1.00  0.00     0.094 A 
ATOM      9  C   UNL     1     112.947 112.015 107.379  1.00  0.00     0.336 A 
ATOM     10  O   UNL     1     113.141 112.700 106.340  1.00  0.00    -0.246 OA
ATOM     11  O   UNL     1     113.140 112.564 108.575  1.00  0.00    -0.423 OA
ENDROOT
BRANCH   1  12
ATOM     12  O   UNL     1     112.374 109.811 113.335  1.00  0.00    -0.493 OA
ATOM     13  C   UNL     1     111.246 109.981 114.186  1.00  0.00     0.278 C 
ENDBRANCH   1  12
BRANCH   2  14
ATOM     14  O   UNL     1     113.205 112.489 113.341  1.00  0.00    -0.504 OA
ATOM     15  H   UNL     1     112.641 113.274 113.640  1.00  0.00     0.293 HD
ENDBRANCH   2  14
TORSDOF 2
ENDMDL
MODEL 3
REMARK VINA RESULT:    -6.670      3.442      6.386
REMARK INTER + INTRA:          -7.180
REMARK INTER:                  -7.140
REMARK INTRA:                  -0.040
REMARK UNBOUND:                 0.075
REMARK SMILES COc1cc2ccc(=O)oc2cc1O
REMARK SMILES IDX 3 1 13 2 12 3 11 4 5 5 4 6 6 7 7 8 8 9 9 10 10 11 2 12 1 13
REMARK SMILES IDX 14 14
REMARK H PARENT 14 15
REMARK Flexibility Score: inf
ROOT
ATOM      1  C   UNL     1     112.449 110.507 109.650  1.00  0.00     0.161 A 
ATOM      2  C   UNL     1     112.891 111.844 109.664  1.00  0.00     0.161 A 
ATOM      3  C   UNL     1     113.144 112.490 110.880  1.00  0.00     0.098 A 
ATOM      4  C   UNL     1     112.960 111.817 112.090  1.00  0.00     0.142 A 
ATOM      5  C   UNL     1     112.517 110.478 112.086  1.00  0.00     0.022 A 
ATOM      6  C   UNL     1     112.264 109.828 110.871  1.00  0.00     0.062 A 
ATOM      7  C   UNL     1     112.343 109.831 113.314  1.00  0.00     0.019 A 
ATOM      8  C   UNL     1     112.609 110.521 114.496  1.00  0.00     0.094 A 
ATOM      9  C   UNL     1     113.046 111.848 114.422  1.00  0.00     0.336 A 
ATOM     10  O   UNL     1     113.291 112.489 115.477  1.00  0.00    -0.246 OA
ATOM     11  O   UNL     1     113.204 112.440 113.241  1.00  0.00    -0.423 OA
ENDROOT
BRANCH   1  12
ATOM     12  O   UNL     1     112.205 109.889 108.412  1.00  0.00    -0.493 OA
ATOM     13  C   UNL     1     113.191 109.215 107.637  1.00  0.00     0.278 C 
ENDBRANCH   1  12
BRANCH   2  14
ATOM     14  O   UNL     1     113.087 112.549 108.476  1.00  0.00    -0.504 OA
ATOM     15  H   UNL     1     112.791 113.511 108.365  1.00  0.00     0.293 HD
ENDBRANCH   2  14
TORSDOF 2
ENDMDL
MODEL 4
REMARK VINA RESULT:    -6.643      4.391      6.085
REMARK INTER + INTRA:          -7.151
REMARK INTER:                  -7.137
REMARK INTRA:                  -0.014
REMARK UNBOUND:                 0.075
REMARK SMILES COc1cc2ccc(=O)oc2cc1O
REMARK SMILES IDX 3 1 13 2 12 3 11 4 5 5 4 6 6 7 7 8 8 9 9 10 10 11 2 12 1 13
REMARK SMILES IDX 14 14
REMARK H PARENT 14 15
REMARK Flexibility Score: inf
ROOT
ATOM      1  C   UNL     1     112.294 110.575 116.923  1.00  0.00     0.161 A 
ATOM      2  C   UNL     1     112.921 111.836 116.947  1.00  0.00     0.161 A 
ATOM      3  C   UNL     1     113.223 112.496 115.751  1.00  0.00     0.098 A 
ATOM      4  C   UNL     1     112.907 111.912 114.521  1.00  0.00     0.142 A 
ATOM      5  C   UNL     1     112.279 110.650 114.487  1.00  0.00     0.022 A 
ATOM      6  C   UNL     1     111.975 109.986 115.683  1.00  0.00     0.062 A 
ATOM      7  C   UNL     1     111.974 110.092 113.242  1.00  0.00     0.019 A 
ATOM      8  C   UNL     1     112.297 110.792 112.080  1.00  0.00     0.094 A 
ATOM      9  C   UNL     1     112.919 112.041 112.192  1.00  0.00     0.336 A 
ATOM     10  O   UNL     1     113.219 112.689 111.155  1.00  0.00    -0.246 OA
ATOM     11  O   UNL     1     113.197 112.549 113.389  1.00  0.00    -0.423 OA
ENDROOT
BRANCH   1  12
ATOM     12  O   UNL     1     112.006 109.940 118.143  1.00  0.00    -0.493 OA
ATOM     13  C   UNL     1     110.861 110.213 118.944  1.00  0.00     0.278 C 
ENDBRANCH   1  12
BRANCH   2  14
ATOM     14  O   UNL     1     113.253 112.452 118.155  1.00  0.00    -0.504 OA
ATOM     15  H   UNL     1     114.072 113.038 118.254  1.00  0.00     0.293 HD
ENDBRANCH   2  14
TORSDOF 2
ENDMDL
MODEL 5
REMARK VINA RESULT:    -6.569      2.913      4.806
REMARK INTER + INTRA:          -7.070
REMARK INTER:                  -7.016
REMARK INTRA:                  -0.054
REMARK UNBOUND:                 0.075
REMARK SMILES COc1cc2ccc(=O)oc2cc1O
REMARK SMILES IDX 3 1 13 2 12 3 11 4 5 5 4 6 6 7 7 8 8 9 9 10 10 11 2 12 1 13
REMARK SMILES IDX 14 14
REMARK H PARENT 14 15
REMARK Flexibility Score: inf
ROOT
ATOM      1  C   UNL     1     110.642 111.309 116.945  1.00  0.00     0.161 A 
ATOM      2  C   UNL     1     109.588 110.374 116.980  1.00  0.00     0.161 A 
ATOM      3  C   UNL     1     109.055 109.867 115.790  1.00  0.00     0.098 A 
ATOM      4  C   UNL     1     109.562 110.281 114.555  1.00  0.00     0.142 A 
ATOM      5  C   UNL     1     110.616 111.216 114.510  1.00  0.00     0.022 A 
ATOM      6  C   UNL     1     111.152 111.726 115.699  1.00  0.00     0.062 A 
ATOM      7  C   UNL     1     111.102 111.611 113.259  1.00  0.00     0.019 A 
ATOM      8  C   UNL     1     110.535 111.075 112.103  1.00  0.00     0.094 A 
ATOM      9  C   UNL     1     109.491 110.151 112.226  1.00  0.00     0.336 A 
ATOM     10  O   UNL     1     108.966 109.655 111.195  1.00  0.00    -0.246 OA
ATOM     11  O   UNL     1     109.049 109.792 113.429  1.00  0.00    -0.423 OA
ENDROOT
BRANCH   1  12
ATOM     12  O   UNL     1     111.152 111.797 118.158  1.00  0.00    -0.493 OA
ATOM     13  C   UNL     1     112.528 111.771 118.525  1.00  0.00     0.278 C 
ENDBRANCH   1  12
BRANCH   2  14
ATOM     14  O   UNL     1     109.056 109.936 118.193  1.00  0.00    -0.504 OA
ATOM     15  H   UNL     1     108.097 109.622 118.280  1.00  0.00     0.293 HD
ENDBRANCH   2  14
TORSDOF 2
ENDMDL
MODEL 6
REMARK VINA RESULT:    -6.489      2.352      3.178
REMARK INTER + INTRA:          -6.983
REMARK INTER:                  -6.919
REMARK INTRA:                  -0.065
REMARK UNBOUND:                 0.075
REMARK SMILES COc1cc2ccc(=O)oc2cc1O
REMARK SMILES IDX 3 1 13 2 12 3 11 4 5 5 4 6 6 7 7 8 8 9 9 10 10 11 2 12 1 13
REMARK SMILES IDX 14 14
REMARK H PARENT 14 15
REMARK Flexibility Score: inf
ROOT
ATOM      1  C   UNL     1     110.779 110.198 110.235  1.00  0.00     0.161 A 
ATOM      2  C   UNL     1     109.687 109.849 109.417  1.00  0.00     0.161 A 
ATOM      3  C   UNL     1     109.666 110.227 108.069  1.00  0.00     0.098 A 
ATOM      4  C   UNL     1     110.727 110.952 107.522  1.00  0.00     0.142 A 
ATOM      5  C   UNL     1     111.825 111.306 108.333  1.00  0.00     0.022 A 
ATOM      6  C   UNL     1     111.849 110.930 109.682  1.00  0.00     0.062 A 
ATOM      7  C   UNL     1     112.872 112.032 107.755  1.00  0.00     0.019 A 
ATOM      8  C   UNL     1     112.800 112.384 106.408  1.00  0.00     0.094 A 
ATOM      9  C   UNL     1     111.679 111.997 105.665  1.00  0.00     0.336 A 
ATOM     10  O   UNL     1     111.596 112.304 104.447  1.00  0.00    -0.246 OA
ATOM     11  O   UNL     1     110.698 111.306 106.239  1.00  0.00    -0.423 OA
ENDROOT
BRANCH   1  12
ATOM     12  O   UNL     1     110.768 109.803 111.583  1.00  0.00    -0.493 OA
ATOM     13  C   UNL     1     110.350 110.630 112.663  1.00  0.00     0.278 C 
ENDBRANCH   1  12
BRANCH   2  14
ATOM     14  O   UNL     1     108.609 109.124 109.927  1.00  0.00    -0.504 OA
ATOM     15  H   UNL     1     108.724 108.417 110.642  1.00  0.00     0.293 HD
ENDBRANCH   2  14
TORSDOF 2
ENDMDL
MODEL 7
REMARK VINA RESULT:    -6.477      2.872      3.913
REMARK INTER + INTRA:          -6.970
REMARK INTER:                  -6.905
REMARK INTRA:                  -0.065
REMARK UNBOUND:                 0.075
REMARK SMILES COc1cc2ccc(=O)oc2cc1O
REMARK SMILES IDX 3 1 13 2 12 3 11 4 5 5 4 6 6 7 7 8 8 9 9 10 10 11 2 12 1 13
REMARK SMILES IDX 14 14
REMARK H PARENT 14 15
REMARK Flexibility Score: inf
ROOT
ATOM      1  C   UNL     1     110.645 110.203 115.275  1.00  0.00     0.161 A 
ATOM      2  C   UNL     1     109.564 109.873 114.435  1.00  0.00     0.161 A 
ATOM      3  C   UNL     1     109.586 110.233 113.083  1.00  0.00     0.098 A 
ATOM      4  C   UNL     1     110.679 110.923 112.553  1.00  0.00     0.142 A 
ATOM      5  C   UNL     1     111.766 111.258 113.386  1.00  0.00     0.022 A 
ATOM      6  C   UNL     1     111.748 110.899 114.740  1.00  0.00     0.062 A 
ATOM      7  C   UNL     1     112.846 111.948 112.826  1.00  0.00     0.019 A 
ATOM      8  C   UNL     1     112.817 112.284 111.473  1.00  0.00     0.094 A 
ATOM      9  C   UNL     1     111.704 111.918 110.708  1.00  0.00     0.336 A 
ATOM     10  O   UNL     1     111.658 112.212 109.484  1.00  0.00    -0.246 OA
ATOM     11  O   UNL     1     110.691 111.261 111.266  1.00  0.00    -0.423 OA
ENDROOT
BRANCH   1  12
ATOM     12  O   UNL     1     110.590 109.825 116.627  1.00  0.00    -0.493 OA
ATOM     13  C   UNL     1     110.242 110.700 117.696  1.00  0.00     0.278 C 
ENDBRANCH   1  12
BRANCH   2  14
ATOM     14  O   UNL     1     108.454 109.184 114.927  1.00  0.00    -0.504 OA
ATOM     15  H   UNL     1     108.386 108.174 114.891  1.00  0.00     0.293 HD
ENDBRANCH   2  14
TORSDOF 2
ENDMDL
MODEL 8
REMARK VINA RESULT:    -6.470      2.557      5.521
REMARK INTER + INTRA:          -6.962
REMARK INTER:                  -6.898
REMARK INTRA:                  -0.064
REMARK UNBOUND:                 0.075
REMARK SMILES COc1cc2ccc(=O)oc2cc1O
REMARK SMILES IDX 3 1 13 2 12 3 11 4 5 5 4 6 6 7 7 8 8 9 9 10 10 11 2 12 1 13
REMARK SMILES IDX 14 14
REMARK H PARENT 14 15
REMARK Flexibility Score: inf
ROOT
ATOM      1  C   UNL     1     111.628 111.947 109.578  1.00  0.00     0.161 A 
ATOM      2  C   UNL     1     112.638 112.491 110.395  1.00  0.00     0.161 A 
ATOM      3  C   UNL     1     112.581 112.336 111.784  1.00  0.00     0.098 A 
ATOM      4  C   UNL     1     111.524 111.639 112.375  1.00  0.00     0.142 A 
ATOM      5  C   UNL     1     110.508 111.091 111.566  1.00  0.00     0.022 A 
ATOM      6  C   UNL     1     110.561 111.244 110.174  1.00  0.00     0.062 A 
ATOM      7  C   UNL     1     109.463 110.398 112.187  1.00  0.00     0.019 A 
ATOM      8  C   UNL     1     109.455 110.273 113.575  1.00  0.00     0.094 A 
ATOM      9  C   UNL     1     110.498 110.844 114.314  1.00  0.00     0.336 A 
ATOM     10  O   UNL     1     110.509 110.741 115.569  1.00  0.00    -0.246 OA
ATOM     11  O   UNL     1     111.480 111.496 113.698  1.00  0.00    -0.423 OA
ENDROOT
BRANCH   1  12
ATOM     12  O   UNL     1     111.716 112.122 108.187  1.00  0.00    -0.493 OA
ATOM     13  C   UNL     1     112.258 111.163 107.285  1.00  0.00     0.278 C 
ENDBRANCH   1  12
BRANCH   2  14
ATOM     14  O   UNL     1     113.710 113.193 109.842  1.00  0.00    -0.504 OA
ATOM     15  H   UNL     1     114.181 112.884 109.001  1.00  0.00     0.293 HD
ENDBRANCH   2  14
TORSDOF 2
ENDMDL
MODEL 9
REMARK VINA RESULT:    -6.468      1.888      5.259
REMARK INTER + INTRA:          -6.960
REMARK INTER:                  -6.916
REMARK INTRA:                  -0.044
REMARK UNBOUND:                 0.075
REMARK SMILES COc1cc2ccc(=O)oc2cc1O
REMARK SMILES IDX 3 1 13 2 12 3 11 4 5 5 4 6 6 7 7 8 8 9 9 10 10 11 2 12 1 13
REMARK SMILES IDX 14 14
REMARK H PARENT 14 15
REMARK Flexibility Score: inf
ROOT
ATOM      1  C   UNL     1     110.508 110.398 109.721  1.00  0.00     0.161 A 
ATOM      2  C   UNL     1     109.548 109.779 110.545  1.00  0.00     0.161 A 
ATOM      3  C   UNL     1     109.639 109.887 111.938  1.00  0.00     0.098 A 
ATOM      4  C   UNL     1     110.681 110.610 112.524  1.00  0.00     0.142 A 
ATOM      5  C   UNL     1     111.647 111.233 111.707  1.00  0.00     0.022 A 
ATOM      6  C   UNL     1     111.559 111.127 110.313  1.00  0.00     0.062 A 
ATOM      7  C   UNL     1     112.678 111.950 112.324  1.00  0.00     0.019 A 
ATOM      8  C   UNL     1     112.722 112.026 113.716  1.00  0.00     0.094 A 
ATOM      9  C   UNL     1     111.728 111.382 114.461  1.00  0.00     0.336 A 
ATOM     10  O   UNL     1     111.750 111.439 115.719  1.00  0.00    -0.246 OA
ATOM     11  O   UNL     1     110.758 110.708 113.849  1.00  0.00    -0.423 OA
ENDROOT
BRANCH   1  12
ATOM     12  O   UNL     1     110.386 110.269 108.328  1.00  0.00    -0.493 OA
ATOM     13  C   UNL     1     111.424 110.557 107.396  1.00  0.00     0.278 C 
ENDBRANCH   1  12
BRANCH   2  14
ATOM     14  O   UNL     1     108.492 109.049 109.997  1.00  0.00    -0.504 OA
ATOM     15  H   UNL     1     107.526 109.332 110.107  1.00  0.00     0.293 HD
ENDBRANCH   2  14
TORSDOF 2
ENDMDL
