MODEL 1
REMARK VINA RESULT:    -4.874      0.000      0.000
REMARK INTER + INTRA:          -7.382
REMARK INTER:                  -6.868
REMARK INTRA:                  -0.514
REMARK UNBOUND:                -0.514
REMARK SMILES CCCCCCCCC(=O)[O-]
REMARK SMILES IDX 6 1 7 2 8 3 9 4 10 5 11 6 5 7 4 8 3 9 2 10 1 11
REMARK H PARENT
REMARK Flexibility Score: inf
ROOT
ATOM      1  C   UNL     1      45.986  -7.598  26.224  1.00  0.00     0.000 C 
ENDROOT
BRANCH   1   2
ATOM      2  C   UNL     1      45.458  -6.473  27.128  1.00  0.00     0.006 C 
BRANCH   2   3
ATOM      3  C   UNL     1      45.328  -5.135  26.391  1.00  0.00     0.053 C 
BRANCH   3   4
ATOM      4  C   UNL     1      46.452  -4.221  26.766  1.00  0.00     0.041 C 
ATOM      5  O   UNL     1      46.216  -3.137  27.361  1.00  0.00    -0.550 OA
ATOM      6  O   UNL     1      47.757  -4.542  26.416  1.00  0.00    -0.550 OA
ENDBRANCH   3   4
ENDBRANCH   2   3
ENDBRANCH   1   2
BRANCH   1   7
ATOM      7  C   UNL     1      45.337  -7.592  24.831  1.00  0.00     0.000 C 
BRANCH   7   8
ATOM      8  C   UNL     1      46.398  -7.462  23.732  1.00  0.00    -0.000 C 
BRANCH   8   9
ATOM      9  C   UNL     1      47.799  -7.304  24.332  1.00  0.00    -0.000 C 
BRANCH   9  10
ATOM     10  C   UNL     1      48.875  -7.364  23.242  1.00  0.00    -0.003 C 
ATOM     11  C   UNL     1      48.272  -7.741  21.893  1.00  0.00     0.004 C 
ENDBRANCH   9  10
ENDBRANCH   8   9
ENDBRANCH   7   8
ENDBRANCH   1   7
TORSDOF 7
ENDMDL
MODEL 2
REMARK VINA RESULT:    -4.820      2.005      4.091
REMARK INTER + INTRA:          -7.307
REMARK INTER:                  -6.560
REMARK INTRA:                  -0.747
REMARK UNBOUND:                -0.514
REMARK SMILES CCCCCCCCC(=O)[O-]
REMARK SMILES IDX 6 1 7 2 8 3 9 4 10 5 11 6 5 7 4 8 3 9 2 10 1 11
REMARK H PARENT
REMARK Flexibility Score: inf
ROOT
ATOM      1  C   UNL     1      45.517  -7.488  24.764  1.00  0.00     0.000 C 
ENDROOT
BRANCH   1   2
ATOM      2  C   UNL     1      46.914  -7.327  24.143  1.00  0.00     0.006 C 
BRANCH   2   3
ATOM      3  C   UNL     1      48.033  -7.367  25.191  1.00  0.00     0.053 C 
BRANCH   3   4
ATOM      4  C   UNL     1      49.129  -6.418  24.821  1.00  0.00     0.041 C 
ATOM      5  O   UNL     1      48.890  -5.435  24.071  1.00  0.00    -0.550 OA
ATOM      6  O   UNL     1      50.426  -6.646  25.263  1.00  0.00    -0.550 OA
ENDBRANCH   3   4
ENDBRANCH   2   3
ENDBRANCH   1   2
BRANCH   1   7
ATOM      7  C   UNL     1      45.567  -7.735  26.279  1.00  0.00     0.000 C 
BRANCH   7   8
ATOM      8  C   UNL     1      44.721  -6.702  27.032  1.00  0.00    -0.000 C 
BRANCH   8   9
ATOM      9  C   UNL     1      44.948  -5.291  26.476  1.00  0.00    -0.000 C 
BRANCH   9  10
ATOM     10  C   UNL     1      45.999  -4.538  27.298  1.00  0.00    -0.003 C 
ATOM     11  C   UNL     1      46.911  -3.709  26.399  1.00  0.00     0.004 C 
ENDBRANCH   9  10
ENDBRANCH   8   9
ENDBRANCH   7   8
ENDBRANCH   1   7
TORSDOF 7
ENDMDL
MODEL 3
REMARK VINA RESULT:    -4.797      1.194      1.851
REMARK INTER + INTRA:          -7.274
REMARK INTER:                  -6.647
REMARK INTRA:                  -0.627
REMARK UNBOUND:                -0.514
REMARK SMILES CCCCCCCCC(=O)[O-]
REMARK SMILES IDX 6 1 7 2 8 3 9 4 10 5 11 6 5 7 4 8 3 9 2 10 1 11
REMARK H PARENT
REMARK Flexibility Score: inf
ROOT
ATOM      1  C   UNL     1      45.220  -7.152  26.462  1.00  0.00     0.000 C 
ENDROOT
BRANCH   1   2
ATOM      2  C   UNL     1      45.085  -5.630  26.299  1.00  0.00     0.006 C 
BRANCH   2   3
ATOM      3  C   UNL     1      45.995  -4.851  27.256  1.00  0.00     0.053 C 
BRANCH   3   4
ATOM      4  C   UNL     1      47.030  -4.089  26.489  1.00  0.00     0.041 C 
ATOM      5  O   UNL     1      48.248  -4.390  26.597  1.00  0.00    -0.550 OA
ATOM      6  O   UNL     1      46.654  -3.015  25.692  1.00  0.00    -0.550 OA
ENDBRANCH   3   4
ENDBRANCH   2   3
ENDBRANCH   1   2
BRANCH   1   7
ATOM      7  C   UNL     1      46.532  -7.696  25.876  1.00  0.00     0.000 C 
BRANCH   7   8
ATOM      8  C   UNL     1      46.706  -7.256  24.417  1.00  0.00    -0.000 C 
BRANCH   8   9
ATOM      9  C   UNL     1      48.185  -7.247  24.016  1.00  0.00    -0.000 C 
BRANCH   9  10
ATOM     10  C   UNL     1      49.088  -7.439  25.240  1.00  0.00    -0.003 C 
ATOM     11  C   UNL     1      50.404  -6.683  25.078  1.00  0.00     0.004 C 
ENDBRANCH   9  10
ENDBRANCH   8   9
ENDBRANCH   7   8
ENDBRANCH   1   7
TORSDOF 7
ENDMDL
MODEL 4
REMARK VINA RESULT:    -4.727      1.786      2.408
REMARK INTER + INTRA:          -7.175
REMARK INTER:                  -6.563
REMARK INTRA:                  -0.612
REMARK UNBOUND:                -0.514
REMARK SMILES CCCCCCCCC(=O)[O-]
REMARK SMILES IDX 6 1 7 2 8 3 9 4 10 5 11 6 5 7 4 8 3 9 2 10 1 11
REMARK H PARENT
REMARK Flexibility Score: inf
ROOT
ATOM      1  C   UNL     1      47.257  -7.390  25.699  1.00  0.00     0.000 C 
ENDROOT
BRANCH   1   2
ATOM      2  C   UNL     1      45.837  -7.441  26.285  1.00  0.00     0.006 C 
BRANCH   2   3
ATOM      3  C   UNL     1      44.875  -6.472  25.587  1.00  0.00     0.053 C 
BRANCH   3   4
ATOM      4  C   UNL     1      44.247  -5.551  26.585  1.00  0.00     0.041 C 
ATOM      5  O   UNL     1      44.952  -4.997  27.469  1.00  0.00    -0.550 OA
ATOM      6  O   UNL     1      42.873  -5.342  26.570  1.00  0.00    -0.550 OA
ENDBRANCH   3   4
ENDBRANCH   2   3
ENDBRANCH   1   2
BRANCH   1   7
ATOM      7  C   UNL     1      47.722  -5.957  25.400  1.00  0.00     0.000 C 
BRANCH   7   8
ATOM      8  C   UNL     1      48.560  -5.908  24.117  1.00  0.00    -0.000 C 
BRANCH   8   9
ATOM      9  C   UNL     1      48.861  -7.320  23.599  1.00  0.00    -0.000 C 
BRANCH   9  10
ATOM     10  C   UNL     1      48.340  -7.505  22.170  1.00  0.00    -0.003 C 
ATOM     11  C   UNL     1      46.834  -7.743  22.158  1.00  0.00     0.004 C 
ENDBRANCH   9  10
ENDBRANCH   8   9
ENDBRANCH   7   8
ENDBRANCH   1   7
TORSDOF 7
ENDMDL
MODEL 5
REMARK VINA RESULT:    -4.693      1.440      3.927
REMARK INTER + INTRA:          -7.127
REMARK INTER:                  -6.480
REMARK INTRA:                  -0.647
REMARK UNBOUND:                -0.514
REMARK SMILES CCCCCCCCC(=O)[O-]
REMARK SMILES IDX 6 1 7 2 8 3 9 4 10 5 11 6 5 7 4 8 3 9 2 10 1 11
REMARK H PARENT
REMARK Flexibility Score: inf
ROOT
ATOM      1  C   UNL     1      46.486  -7.440  23.611  1.00  0.00     0.000 C 
ENDROOT
BRANCH   1   2
ATOM      2  C   UNL     1      47.875  -7.418  24.267  1.00  0.00     0.006 C 
BRANCH   2   3
ATOM      3  C   UNL     1      48.582  -6.066  24.107  1.00  0.00     0.053 C 
BRANCH   3   4
ATOM      4  C   UNL     1      49.055  -5.565  25.435  1.00  0.00     0.041 C 
ATOM      5  O   UNL     1      48.303  -4.851  26.149  1.00  0.00    -0.550 OA
ATOM      6  O   UNL     1      50.347  -5.844  25.864  1.00  0.00    -0.550 OA
ENDBRANCH   3   4
ENDBRANCH   2   3
ENDBRANCH   1   2
BRANCH   1   7
ATOM      7  C   UNL     1      45.347  -7.504  24.639  1.00  0.00     0.000 C 
BRANCH   7   8
ATOM      8  C   UNL     1      45.890  -7.780  26.046  1.00  0.00    -0.000 C 
BRANCH   8   9
ATOM      9  C   UNL     1      45.456  -6.688  27.030  1.00  0.00    -0.000 C 
BRANCH   9  10
ATOM     10  C   UNL     1      44.739  -5.545  26.302  1.00  0.00    -0.003 C 
ATOM     11  C   UNL     1      43.311  -5.376  26.812  1.00  0.00     0.004 C 
ENDBRANCH   9  10
ENDBRANCH   8   9
ENDBRANCH   7   8
ENDBRANCH   1   7
TORSDOF 7
ENDMDL
MODEL 6
REMARK VINA RESULT:    -4.691      2.192      3.036
REMARK INTER + INTRA:          -7.124
REMARK INTER:                  -6.387
REMARK INTRA:                  -0.737
REMARK UNBOUND:                -0.514
REMARK SMILES CCCCCCCCC(=O)[O-]
REMARK SMILES IDX 6 1 7 2 8 3 9 4 10 5 11 6 5 7 4 8 3 9 2 10 1 11
REMARK H PARENT
REMARK Flexibility Score: inf
ROOT
ATOM      1  C   UNL     1      46.861  -4.438  26.096  1.00  0.00     0.000 C 
ENDROOT
BRANCH   1   2
ATOM      2  C   UNL     1      45.867  -5.295  26.895  1.00  0.00     0.006 C 
BRANCH   2   3
ATOM      3  C   UNL     1      44.853  -6.014  25.997  1.00  0.00     0.053 C 
BRANCH   3   4
ATOM      4  C   UNL     1      45.347  -7.382  25.644  1.00  0.00     0.041 C 
ATOM      5  O   UNL     1      45.977  -8.067  26.492  1.00  0.00    -0.550 OA
ATOM      6  O   UNL     1      45.155  -7.881  24.362  1.00  0.00    -0.550 OA
ENDBRANCH   3   4
ENDBRANCH   2   3
ENDBRANCH   1   2
BRANCH   1   7
ATOM      7  C   UNL     1      48.254  -5.080  26.003  1.00  0.00     0.000 C 
BRANCH   7   8
ATOM      8  C   UNL     1      48.541  -5.567  24.578  1.00  0.00    -0.000 C 
BRANCH   8   9
ATOM      9  C   UNL     1      48.909  -7.056  24.567  1.00  0.00    -0.000 C 
BRANCH   9  10
ATOM     10  C   UNL     1      48.518  -7.710  23.237  1.00  0.00    -0.003 C 
ATOM     11  C   UNL     1      47.857  -6.703  22.301  1.00  0.00     0.004 C 
ENDBRANCH   9  10
ENDBRANCH   8   9
ENDBRANCH   7   8
ENDBRANCH   1   7
TORSDOF 7
ENDMDL
MODEL 7
REMARK VINA RESULT:    -4.661      2.865      4.959
REMARK INTER + INTRA:          -7.082
REMARK INTER:                  -6.522
REMARK INTRA:                  -0.560
REMARK UNBOUND:                -0.514
REMARK SMILES CCCCCCCCC(=O)[O-]
REMARK SMILES IDX 6 1 7 2 8 3 9 4 10 5 11 6 5 7 4 8 3 9 2 10 1 11
REMARK H PARENT
REMARK Flexibility Score: inf
ROOT
ATOM      1  C   UNL     1      47.086  -7.369  25.573  1.00  0.00     0.000 C 
ENDROOT
BRANCH   1   2
ATOM      2  C   UNL     1      47.771  -6.605  24.429  1.00  0.00     0.006 C 
BRANCH   2   3
ATOM      3  C   UNL     1      48.767  -7.474  23.652  1.00  0.00     0.053 C 
BRANCH   3   4
ATOM      4  C   UNL     1      48.253  -7.754  22.275  1.00  0.00     0.041 C 
ATOM      5  O   UNL     1      47.029  -7.981  22.089  1.00  0.00    -0.550 OA
ATOM      6  O   UNL     1      49.134  -7.814  21.202  1.00  0.00    -0.550 OA
ENDBRANCH   3   4
ENDBRANCH   2   3
ENDBRANCH   1   2
BRANCH   1   7
ATOM      7  C   UNL     1      45.565  -7.477  25.385  1.00  0.00     0.000 C 
BRANCH   7   8
ATOM      8  C   UNL     1      44.852  -6.241  25.946  1.00  0.00    -0.000 C 
BRANCH   8   9
ATOM      9  C   UNL     1      45.405  -5.864  27.325  1.00  0.00    -0.000 C 
BRANCH   9  10
ATOM     10  C   UNL     1      45.555  -4.344  27.461  1.00  0.00    -0.003 C 
ATOM     11  C   UNL     1      46.690  -3.821  26.586  1.00  0.00     0.004 C 
ENDBRANCH   9  10
ENDBRANCH   8   9
ENDBRANCH   7   8
ENDBRANCH   1   7
TORSDOF 7
ENDMDL
MODEL 8
REMARK VINA RESULT:    -4.607      2.381      4.285
REMARK INTER + INTRA:          -7.005
REMARK INTER:                  -6.259
REMARK INTRA:                  -0.746
REMARK UNBOUND:                -0.514
REMARK SMILES CCCCCCCCC(=O)[O-]
REMARK SMILES IDX 6 1 7 2 8 3 9 4 10 5 11 6 5 7 4 8 3 9 2 10 1 11
REMARK H PARENT
REMARK Flexibility Score: inf
ROOT
ATOM      1  C   UNL     1      47.683  -4.268  26.473  1.00  0.00     0.000 C 
ENDROOT
BRANCH   1   2
ATOM      2  C   UNL     1      48.662  -5.269  25.840  1.00  0.00     0.006 C 
BRANCH   2   3
ATOM      3  C   UNL     1      48.276  -5.645  24.405  1.00  0.00     0.053 C 
BRANCH   3   4
ATOM      4  C   UNL     1      48.756  -7.024  24.079  1.00  0.00     0.041 C 
ATOM      5  O   UNL     1      49.100  -7.810  25.001  1.00  0.00    -0.550 OA
ATOM      6  O   UNL     1      48.873  -7.425  22.754  1.00  0.00    -0.550 OA
ENDBRANCH   3   4
ENDBRANCH   2   3
ENDBRANCH   1   2
BRANCH   1   7
ATOM      7  C   UNL     1      46.214  -4.666  26.266  1.00  0.00     0.000 C 
BRANCH   7   8
ATOM      8  C   UNL     1      45.691  -5.477  27.457  1.00  0.00    -0.000 C 
BRANCH   8   9
ATOM      9  C   UNL     1      44.841  -6.663  26.987  1.00  0.00    -0.000 C 
BRANCH   9  10
ATOM     10  C   UNL     1      45.690  -7.673  26.207  1.00  0.00    -0.003 C 
ATOM     11  C   UNL     1      45.210  -7.801  24.765  1.00  0.00     0.004 C 
ENDBRANCH   9  10
ENDBRANCH   8   9
ENDBRANCH   7   8
ENDBRANCH   1   7
TORSDOF 7
ENDMDL
MODEL 9
REMARK VINA RESULT:    -4.479      1.561      2.850
REMARK INTER + INTRA:          -6.826
REMARK INTER:                  -6.158
REMARK INTRA:                  -0.668
REMARK UNBOUND:                -0.514
REMARK SMILES CCCCCCCCC(=O)[O-]
REMARK SMILES IDX 6 1 7 2 8 3 9 4 10 5 11 6 5 7 4 8 3 9 2 10 1 11
REMARK H PARENT
REMARK Flexibility Score: inf
ROOT
ATOM      1  C   UNL     1      48.951  -5.321  25.041  1.00  0.00     0.000 C 
ENDROOT
BRANCH   1   2
ATOM      2  C   UNL     1      48.280  -4.828  26.333  1.00  0.00     0.006 C 
BRANCH   2   3
ATOM      3  C   UNL     1      46.869  -4.277  26.092  1.00  0.00     0.053 C 
BRANCH   3   4
ATOM      4  C   UNL     1      45.928  -4.771  27.145  1.00  0.00     0.041 C 
ATOM      5  O   UNL     1      45.743  -6.007  27.300  1.00  0.00    -0.550 OA
ATOM      6  O   UNL     1      45.217  -3.867  27.923  1.00  0.00    -0.550 OA
ENDBRANCH   3   4
ENDBRANCH   2   3
ENDBRANCH   1   2
BRANCH   1   7
ATOM      7  C   UNL     1      49.562  -6.723  25.190  1.00  0.00     0.000 C 
BRANCH   7   8
ATOM      8  C   UNL     1      48.714  -7.772  24.461  1.00  0.00    -0.000 C 
BRANCH   8   9
ATOM      9  C   UNL     1      48.286  -7.271  23.076  1.00  0.00    -0.000 C 
BRANCH   9  10
ATOM     10  C   UNL     1      46.812  -7.595  22.806  1.00  0.00    -0.003 C 
ATOM     11  C   UNL     1      45.985  -7.509  24.084  1.00  0.00     0.004 C 
ENDBRANCH   9  10
ENDBRANCH   8   9
ENDBRANCH   7   8
ENDBRANCH   1   7
TORSDOF 7
ENDMDL
