MODEL 1
REMARK VINA RESULT:    -5.202      0.000      0.000
REMARK INTER + INTRA:          -7.836
REMARK INTER:                  -7.026
REMARK INTRA:                  -0.810
REMARK UNBOUND:                -0.810
REMARK SMILES CC(=O)CCC=C(C)CCC=C(C)C
REMARK SMILES IDX 7 1 6 2 8 3 9 4 10 5 11 6 13 7 12 8 14 9 5 10 4 11 2 12 3 13
REMARK SMILES IDX 1 14
REMARK H PARENT
REMARK Flexibility Score: inf
ROOT
ATOM      1  C   UNL     1     -41.171  17.757  14.110  1.00  0.00    -0.077 C 
ATOM      2  C   UNL     1     -40.567  16.857  14.918  1.00  0.00    -0.028 C 
ATOM      3  C   UNL     1     -40.549  18.204  12.807  1.00  0.00     0.039 C 
ENDROOT
BRANCH   1   4
ATOM      4  C   UNL     1     -42.501  18.342  14.530  1.00  0.00     0.034 C 
BRANCH   4   5
ATOM      5  C   UNL     1     -43.278  17.350  15.405  1.00  0.00     0.032 C 
BRANCH   5   6
ATOM      6  C   UNL     1     -43.966  18.064  16.542  1.00  0.00    -0.028 C 
ATOM      7  C   UNL     1     -42.141  17.549  18.179  1.00  0.00     0.039 C 
ATOM      8  C   UNL     1     -43.480  18.140  17.801  1.00  0.00    -0.080 C 
ATOM      9  C   UNL     1     -44.298  18.854  18.845  1.00  0.00     0.039 C 
ENDBRANCH   5   6
ENDBRANCH   4   5
ENDBRANCH   1   4
BRANCH   2  10
ATOM     10  C   UNL     1     -39.287  16.129  14.585  1.00  0.00     0.035 C 
BRANCH  10  11
ATOM     11  C   UNL     1     -39.559  14.682  14.152  1.00  0.00     0.079 C 
BRANCH  11  12
ATOM     12  C   UNL     1     -39.431  13.723  15.309  1.00  0.00     0.130 C 
ATOM     13  O   UNL     1     -38.325  13.473  15.764  1.00  0.00    -0.300 OA
ATOM     14  C   UNL     1     -40.638  13.073  15.917  1.00  0.00     0.087 C 
ENDBRANCH  11  12
ENDBRANCH  10  11
ENDBRANCH   2  10
TORSDOF 6
ENDMDL
MODEL 2
REMARK VINA RESULT:    -4.988      2.377      5.340
REMARK INTER + INTRA:          -7.548
REMARK INTER:                  -6.799
REMARK INTRA:                  -0.749
REMARK UNBOUND:                -0.810
REMARK SMILES CC(=O)CCC=C(C)CCC=C(C)C
REMARK SMILES IDX 7 1 6 2 8 3 9 4 10 5 11 6 13 7 12 8 14 9 5 10 4 11 2 12 3 13
REMARK SMILES IDX 1 14
REMARK H PARENT
REMARK Flexibility Score: inf
ROOT
ATOM      1  C   UNL     1     -42.464  18.278  15.227  1.00  0.00    -0.077 C 
ATOM      2  C   UNL     1     -43.350  17.617  16.005  1.00  0.00    -0.028 C 
ATOM      3  C   UNL     1     -42.497  19.782  15.080  1.00  0.00     0.039 C 
ENDROOT
BRANCH   1   4
ATOM      4  C   UNL     1     -41.420  17.486  14.470  1.00  0.00     0.034 C 
BRANCH   4   5
ATOM      5  C   UNL     1     -40.414  16.853  15.438  1.00  0.00     0.032 C 
BRANCH   5   6
ATOM      6  C   UNL     1     -40.731  15.395  15.661  1.00  0.00    -0.028 C 
ATOM      7  C   UNL     1     -38.333  14.687  15.507  1.00  0.00     0.039 C 
ATOM      8  C   UNL     1     -39.809  14.407  15.670  1.00  0.00    -0.080 C 
ATOM      9  C   UNL     1     -40.279  12.988  15.867  1.00  0.00     0.039 C 
ENDBRANCH   5   6
ENDBRANCH   4   5
ENDBRANCH   1   4
BRANCH   2  10
ATOM     10  C   UNL     1     -44.384  18.281  16.882  1.00  0.00     0.035 C 
BRANCH  10  11
ATOM     11  C   UNL     1     -44.139  17.982  18.367  1.00  0.00     0.079 C 
BRANCH  11  12
ATOM     12  C   UNL     1     -42.755  18.401  18.797  1.00  0.00     0.130 C 
ATOM     13  O   UNL     1     -42.487  19.589  18.886  1.00  0.00    -0.300 OA
ATOM     14  C   UNL     1     -41.702  17.385  19.124  1.00  0.00     0.087 C 
ENDBRANCH  11  12
ENDBRANCH  10  11
ENDBRANCH   2  10
TORSDOF 6
ENDMDL
MODEL 3
REMARK VINA RESULT:    -4.981      2.742      4.084
REMARK INTER + INTRA:          -7.539
REMARK INTER:                  -7.125
REMARK INTRA:                  -0.414
REMARK UNBOUND:                -0.810
REMARK SMILES CC(=O)CCC=C(C)CCC=C(C)C
REMARK SMILES IDX 7 1 6 2 8 3 9 4 10 5 11 6 13 7 12 8 14 9 5 10 4 11 2 12 3 13
REMARK SMILES IDX 1 14
REMARK H PARENT
REMARK Flexibility Score: inf
ROOT
ATOM      1  C   UNL     1     -39.020  15.840  15.159  1.00  0.00    -0.077 C 
ATOM      2  C   UNL     1     -38.991  16.755  14.165  1.00  0.00    -0.028 C 
ATOM      3  C   UNL     1     -37.790  15.060  15.563  1.00  0.00     0.039 C 
ENDROOT
BRANCH   1   4
ATOM      4  C   UNL     1     -40.326  15.580  15.878  1.00  0.00     0.034 C 
BRANCH   4   5
ATOM      5  C   UNL     1     -40.691  16.762  16.784  1.00  0.00     0.032 C 
BRANCH   5   6
ATOM      6  C   UNL     1     -42.055  17.303  16.435  1.00  0.00    -0.028 C 
ATOM      7  C   UNL     1     -42.625  17.839  18.814  1.00  0.00     0.039 C 
ATOM      8  C   UNL     1     -42.946  17.767  17.340  1.00  0.00    -0.080 C 
ATOM      9  C   UNL     1     -44.289  18.241  16.847  1.00  0.00     0.039 C 
ENDBRANCH   5   6
ENDBRANCH   4   5
ENDBRANCH   1   4
BRANCH   2  10
ATOM     10  C   UNL     1     -37.744  17.178  13.425  1.00  0.00     0.035 C 
BRANCH  10  11
ATOM     11  C   UNL     1     -37.977  17.218  11.908  1.00  0.00     0.079 C 
BRANCH  11  12
ATOM     12  C   UNL     1     -36.695  17.001  11.144  1.00  0.00     0.130 C 
ATOM     13  O   UNL     1     -36.061  15.971  11.311  1.00  0.00    -0.300 OA
ATOM     14  C   UNL     1     -36.184  18.027  10.175  1.00  0.00     0.087 C 
ENDBRANCH  11  12
ENDBRANCH  10  11
ENDBRANCH   2  10
TORSDOF 6
ENDMDL
MODEL 4
REMARK VINA RESULT:    -4.886      2.773      4.919
REMARK INTER + INTRA:          -7.410
REMARK INTER:                  -6.688
REMARK INTRA:                  -0.722
REMARK UNBOUND:                -0.810
REMARK SMILES CC(=O)CCC=C(C)CCC=C(C)C
REMARK SMILES IDX 7 1 6 2 8 3 9 4 10 5 11 6 13 7 12 8 14 9 5 10 4 11 2 12 3 13
REMARK SMILES IDX 1 14
REMARK H PARENT
REMARK Flexibility Score: inf
ROOT
ATOM      1  C   UNL     1     -40.719  17.456  13.651  1.00  0.00    -0.077 C 
ATOM      2  C   UNL     1     -39.466  17.034  13.368  1.00  0.00    -0.028 C 
ATOM      3  C   UNL     1     -41.583  18.140  12.616  1.00  0.00     0.039 C 
ENDROOT
BRANCH   1   4
ATOM      4  C   UNL     1     -41.264  17.250  15.046  1.00  0.00     0.034 C 
BRANCH   4   5
ATOM      5  C   UNL     1     -40.284  16.433  15.896  1.00  0.00     0.032 C 
BRANCH   5   6
ATOM      6  C   UNL     1     -40.785  15.023  16.085  1.00  0.00    -0.028 C 
ATOM      7  C   UNL     1     -38.615  13.988  15.381  1.00  0.00     0.039 C 
ATOM      8  C   UNL     1     -40.055  13.913  15.833  1.00  0.00    -0.080 C 
ATOM      9  C   UNL     1     -40.703  12.567  16.031  1.00  0.00     0.039 C 
ENDBRANCH   5   6
ENDBRANCH   4   5
ENDBRANCH   1   4
BRANCH   2  10
ATOM     10  C   UNL     1     -38.829  17.095  12.001  1.00  0.00     0.035 C 
BRANCH  10  11
ATOM     11  C   UNL     1     -37.422  17.705  12.062  1.00  0.00     0.079 C 
BRANCH  11  12
ATOM     12  C   UNL     1     -36.488  17.050  11.075  1.00  0.00     0.130 C 
ATOM     13  O   UNL     1     -35.998  15.963  11.339  1.00  0.00    -0.300 OA
ATOM     14  C   UNL     1     -36.154  17.707   9.768  1.00  0.00     0.087 C 
ENDBRANCH  11  12
ENDBRANCH  10  11
ENDBRANCH   2  10
TORSDOF 6
ENDMDL
MODEL 5
REMARK VINA RESULT:    -4.884      2.059      3.153
REMARK INTER + INTRA:          -7.407
REMARK INTER:                  -6.486
REMARK INTRA:                  -0.921
REMARK UNBOUND:                -0.810
REMARK SMILES CC(=O)CCC=C(C)CCC=C(C)C
REMARK SMILES IDX 7 1 6 2 8 3 9 4 10 5 11 6 13 7 12 8 14 9 5 10 4 11 2 12 3 13
REMARK SMILES IDX 1 14
REMARK H PARENT
REMARK Flexibility Score: inf
ROOT
ATOM      1  C   UNL     1     -39.965  16.407  15.009  1.00  0.00    -0.077 C 
ATOM      2  C   UNL     1     -40.638  17.072  14.044  1.00  0.00    -0.028 C 
ATOM      3  C   UNL     1     -38.517  16.009  14.843  1.00  0.00     0.039 C 
ENDROOT
BRANCH   1   4
ATOM      4  C   UNL     1     -40.689  16.037  16.285  1.00  0.00     0.034 C 
BRANCH   4   5
ATOM      5  C   UNL     1     -40.738  17.231  17.245  1.00  0.00     0.032 C 
BRANCH   5   6
ATOM      6  C   UNL     1     -42.101  17.352  17.881  1.00  0.00    -0.028 C 
ATOM      7  C   UNL     1     -42.959  18.914  16.121  1.00  0.00     0.039 C 
ATOM      8  C   UNL     1     -43.101  18.124  17.401  1.00  0.00    -0.080 C 
ATOM      9  C   UNL     1     -44.398  18.177  18.166  1.00  0.00     0.039 C 
ENDBRANCH   5   6
ENDBRANCH   4   5
ENDBRANCH   1   4
BRANCH   2  10
ATOM     10  C   UNL     1     -40.022  17.579  12.763  1.00  0.00     0.035 C 
BRANCH  10  11
ATOM     11  C   UNL     1     -40.452  16.733  11.557  1.00  0.00     0.079 C 
BRANCH  11  12
ATOM     12  C   UNL     1     -39.519  15.569  11.333  1.00  0.00     0.130 C 
ATOM     13  O   UNL     1     -38.366  15.780  10.992  1.00  0.00    -0.300 OA
ATOM     14  C   UNL     1     -39.979  14.155  11.529  1.00  0.00     0.087 C 
ENDBRANCH  11  12
ENDBRANCH  10  11
ENDBRANCH   2  10
TORSDOF 6
ENDMDL
MODEL 6
REMARK VINA RESULT:    -4.814      2.874      6.207
REMARK INTER + INTRA:          -7.313
REMARK INTER:                  -6.532
REMARK INTRA:                  -0.781
REMARK UNBOUND:                -0.810
REMARK SMILES CC(=O)CCC=C(C)CCC=C(C)C
REMARK SMILES IDX 7 1 6 2 8 3 9 4 10 5 11 6 13 7 12 8 14 9 5 10 4 11 2 12 3 13
REMARK SMILES IDX 1 14
REMARK H PARENT
REMARK Flexibility Score: inf
ROOT
ATOM      1  C   UNL     1     -41.043  16.755  16.548  1.00  0.00    -0.077 C 
ATOM      2  C   UNL     1     -41.887  17.287  15.636  1.00  0.00    -0.028 C 
ATOM      3  C   UNL     1     -40.874  17.356  17.925  1.00  0.00     0.039 C 
ENDROOT
BRANCH   1   4
ATOM      4  C   UNL     1     -40.236  15.532  16.175  1.00  0.00     0.034 C 
BRANCH   4   5
ATOM      5  C   UNL     1     -39.240  15.861  15.056  1.00  0.00     0.032 C 
BRANCH   5   6
ATOM      6  C   UNL     1     -39.519  15.030  13.829  1.00  0.00    -0.028 C 
ATOM      7  C   UNL     1     -39.426  16.996  12.281  1.00  0.00     0.039 C 
ATOM      8  C   UNL     1     -39.631  15.529  12.578  1.00  0.00    -0.080 C 
ATOM      9  C   UNL     1     -39.953  14.581  11.452  1.00  0.00     0.039 C 
ENDBRANCH   5   6
ENDBRANCH   4   5
ENDBRANCH   1   4
BRANCH   2  10
ATOM     10  C   UNL     1     -42.815  18.448  15.900  1.00  0.00     0.035 C 
BRANCH  10  11
ATOM     11  C   UNL     1     -44.155  17.975  16.480  1.00  0.00     0.079 C 
BRANCH  11  12
ATOM     12  C   UNL     1     -44.488  18.693  17.765  1.00  0.00     0.130 C 
ATOM     13  O   UNL     1     -44.910  19.838  17.722  1.00  0.00    -0.300 OA
ATOM     14  C   UNL     1     -44.316  18.024  19.096  1.00  0.00     0.087 C 
ENDBRANCH  11  12
ENDBRANCH  10  11
ENDBRANCH   2  10
TORSDOF 6
ENDMDL
MODEL 7
REMARK VINA RESULT:    -4.774      3.057      4.434
REMARK INTER + INTRA:          -7.258
REMARK INTER:                  -6.282
REMARK INTRA:                  -0.976
REMARK UNBOUND:                -0.810
REMARK SMILES CC(=O)CCC=C(C)CCC=C(C)C
REMARK SMILES IDX 7 1 6 2 8 3 9 4 10 5 11 6 13 7 12 8 14 9 5 10 4 11 2 12 3 13
REMARK SMILES IDX 1 14
REMARK H PARENT
REMARK Flexibility Score: inf
ROOT
ATOM      1  C   UNL     1     -38.754  16.776  13.478  1.00  0.00    -0.077 C 
ATOM      2  C   UNL     1     -37.855  17.728  13.142  1.00  0.00    -0.028 C 
ATOM      3  C   UNL     1     -39.918  16.425  12.580  1.00  0.00     0.039 C 
ENDROOT
BRANCH   1   4
ATOM      4  C   UNL     1     -38.598  16.053  14.797  1.00  0.00     0.034 C 
BRANCH   4   5
ATOM      5  C   UNL     1     -39.956  15.560  15.309  1.00  0.00     0.032 C 
BRANCH   5   6
ATOM      6  C   UNL     1     -40.382  16.336  16.530  1.00  0.00    -0.028 C 
ATOM      7  C   UNL     1     -42.202  17.555  15.315  1.00  0.00     0.039 C 
ATOM      8  C   UNL     1     -41.374  17.255  16.542  1.00  0.00    -0.080 C 
ATOM      9  C   UNL     1     -41.663  17.983  17.830  1.00  0.00     0.039 C 
ENDBRANCH   5   6
ENDBRANCH   4   5
ENDBRANCH   1   4
BRANCH   2  10
ATOM     10  C   UNL     1     -37.837  18.464  11.824  1.00  0.00     0.035 C 
BRANCH  10  11
ATOM     11  C   UNL     1     -36.584  18.124  11.006  1.00  0.00     0.079 C 
BRANCH  11  12
ATOM     12  C   UNL     1     -36.576  16.678  10.577  1.00  0.00     0.130 C 
ATOM     13  O   UNL     1     -35.736  15.919  11.036  1.00  0.00    -0.300 OA
ATOM     14  C   UNL     1     -37.585  16.150   9.601  1.00  0.00     0.087 C 
ENDBRANCH  11  12
ENDBRANCH  10  11
ENDBRANCH   2  10
TORSDOF 6
ENDMDL
MODEL 8
REMARK VINA RESULT:    -4.715      3.346      5.264
REMARK INTER + INTRA:          -7.179
REMARK INTER:                  -5.951
REMARK INTRA:                  -1.227
REMARK UNBOUND:                -0.810
REMARK SMILES CC(=O)CCC=C(C)CCC=C(C)C
REMARK SMILES IDX 7 1 6 2 8 3 9 4 10 5 11 6 13 7 12 8 14 9 5 10 4 11 2 12 3 13
REMARK SMILES IDX 1 14
REMARK H PARENT
REMARK Flexibility Score: inf
ROOT
ATOM      1  C   UNL     1     -39.917  16.345  10.940  1.00  0.00    -0.077 C 
ATOM      2  C   UNL     1     -39.213  16.979   9.976  1.00  0.00    -0.028 C 
ATOM      3  C   UNL     1     -39.687  14.888  11.269  1.00  0.00     0.039 C 
ENDROOT
BRANCH   1   4
ATOM      4  C   UNL     1     -40.975  17.113  11.701  1.00  0.00     0.034 C 
BRANCH   4   5
ATOM      5  C   UNL     1     -40.356  17.847  12.897  1.00  0.00     0.032 C 
BRANCH   5   6
ATOM      6  C   UNL     1     -40.644  17.112  14.183  1.00  0.00    -0.028 C 
ATOM      7  C   UNL     1     -38.277  16.340  14.456  1.00  0.00     0.039 C 
ATOM      8  C   UNL     1     -39.725  16.409  14.882  1.00  0.00    -0.080 C 
ATOM      9  C   UNL     1     -40.167  15.692  16.131  1.00  0.00     0.039 C 
ENDBRANCH   5   6
ENDBRANCH   4   5
ENDBRANCH   1   4
BRANCH   2  10
ATOM     10  C   UNL     1     -38.073  16.364   9.201  1.00  0.00     0.035 C 
BRANCH  10  11
ATOM     11  C   UNL     1     -36.753  17.105   9.459  1.00  0.00     0.079 C 
BRANCH  11  12
ATOM     12  C   UNL     1     -36.335  17.009  10.904  1.00  0.00     0.130 C 
ATOM     13  O   UNL     1     -36.021  15.925  11.370  1.00  0.00    -0.300 OA
ATOM     14  C   UNL     1     -36.292  18.224  11.783  1.00  0.00     0.087 C 
ENDBRANCH  11  12
ENDBRANCH  10  11
ENDBRANCH   2  10
TORSDOF 6
ENDMDL
MODEL 9
REMARK VINA RESULT:    -4.678      2.513      3.106
REMARK INTER + INTRA:          -7.129
REMARK INTER:                  -6.519
REMARK INTRA:                  -0.611
REMARK UNBOUND:                -0.810
REMARK SMILES CC(=O)CCC=C(C)CCC=C(C)C
REMARK SMILES IDX 7 1 6 2 8 3 9 4 10 5 11 6 13 7 12 8 14 9 5 10 4 11 2 12 3 13
REMARK SMILES IDX 1 14
REMARK H PARENT
REMARK Flexibility Score: inf
ROOT
ATOM      1  C   UNL     1     -41.281  18.332  13.155  1.00  0.00    -0.077 C 
ATOM      2  C   UNL     1     -40.407  17.356  13.489  1.00  0.00    -0.028 C 
ATOM      3  C   UNL     1     -41.106  19.170  11.909  1.00  0.00     0.039 C 
ENDROOT
BRANCH   1   4
ATOM      4  C   UNL     1     -42.460  18.602  14.064  1.00  0.00     0.034 C 
BRANCH   4   5
ATOM      5  C   UNL     1     -42.614  17.482  15.099  1.00  0.00     0.032 C 
BRANCH   5   6
ATOM      6  C   UNL     1     -43.660  17.841  16.125  1.00  0.00    -0.028 C 
ATOM      7  C   UNL     1     -42.052  17.714  18.041  1.00  0.00     0.039 C 
ATOM      8  C   UNL     1     -43.428  17.924  17.454  1.00  0.00    -0.080 C 
ATOM      9  C   UNL     1     -44.582  18.255  18.366  1.00  0.00     0.039 C 
ENDBRANCH   5   6
ENDBRANCH   4   5
ENDBRANCH   1   4
BRANCH   2  10
ATOM     10  C   UNL     1     -39.241  16.921  12.635  1.00  0.00     0.035 C 
BRANCH  10  11
ATOM     11  C   UNL     1     -39.608  15.720  11.752  1.00  0.00     0.079 C 
BRANCH  11  12
ATOM     12  C   UNL     1     -38.742  15.652  10.519  1.00  0.00     0.130 C 
ATOM     13  O   UNL     1     -37.979  14.710  10.371  1.00  0.00    -0.300 OA
ATOM     14  C   UNL     1     -38.804  16.717   9.465  1.00  0.00     0.087 C 
ENDBRANCH  11  12
ENDBRANCH  10  11
ENDBRANCH   2  10
TORSDOF 6
ENDMDL
