MODEL 1
REMARK VINA RESULT:    -7.732      0.000      0.000
REMARK INTER + INTRA:         -11.215
REMARK INTER:                 -10.671
REMARK INTRA:                  -0.544
REMARK UNBOUND:                -0.544
REMARK SMILES C[C@H]1OC(=O)[C@H](C)[C@@H]1C[C@@H](O)[C@@](C)(O)[C@H]1CC[C@]2(O)C3=CC(=O)[C@@H]4C[C@H](O)[C@@H](O)C[C@@]4(C)[C@@H]3CC[C@]12C
REMARK SMILES IDX 12 1 13 2 10 3 9 4 8 5 7 6 6 7 4 8 2 9 3 10 5 11 1 12 11 13
REMARK SMILES IDX 15 15 16 16 36 17 17 18 18 19 35 20 37 21 20 22 34 23 33 24
REMARK SMILES IDX 21 25 31 26 22 27 24 28 30 29 32 30 23 31 25 32 28 33 26 34
REMARK SMILES IDX 19 35 29 37 27 39 14 41
REMARK H PARENT 11 14 19 36 29 38 27 40 14 42
REMARK Flexibility Score: inf
ROOT
ATOM      1  C   UNL     1     149.426 163.797 166.556  1.00  0.00     0.091 C 
ATOM      2  C   UNL     1     148.426 163.234 165.490  1.00  0.00     0.045 C 
ENDROOT
BRANCH   1   3
ATOM      3  C   UNL     1     149.336 162.867 167.829  1.00  0.00     0.146 C 
BRANCH   3   4
ATOM      4  C   UNL     1     148.091 163.153 168.723  1.00  0.00     0.043 C 
BRANCH   4   5
ATOM      5  C   UNL     1     148.376 163.079 170.253  1.00  0.00     0.046 C 
ATOM      6  C   UNL     1     147.520 165.588 170.323  1.00  0.00     0.020 C 
ATOM      7  C   UNL     1     147.829 164.290 171.080  1.00  0.00     0.103 C 
ATOM      8  C   UNL     1     146.616 163.719 171.714  1.00  0.00     0.309 C 
ATOM      9  C   UNL     1     147.667 161.840 170.893  1.00  0.00     0.177 C 
ATOM     10  O   UNL     1     146.545 162.352 171.591  1.00  0.00    -0.462 OA
ATOM     11  O   UNL     1     145.756 164.390 172.347  1.00  0.00    -0.252 OA
ATOM     12  C   UNL     1     148.575 161.103 171.878  1.00  0.00     0.053 C 
ENDBRANCH   4   5
ENDBRANCH   3   4
BRANCH   3  13
ATOM     13  O   UNL     1     149.360 161.521 167.419  1.00  0.00    -0.390 OA
ATOM     14  H   UNL     1     149.755 161.487 166.506  1.00  0.00     0.211 HD
ENDBRANCH   3  13
ENDBRANCH   1   3
BRANCH   1  15
ATOM     15  C   UNL     1     150.918 163.802 165.985  1.00  0.00     0.032 C 
ATOM     16  C   UNL     1     151.068 164.571 164.651  1.00  0.00     0.010 C 
ATOM     17  C   UNL     1     152.097 164.413 166.855  1.00  0.00     0.006 C 
ATOM     18  C   UNL     1     151.647 165.939 164.975  1.00  0.00     0.041 C 
ATOM     19  C   UNL     1     152.193 165.914 166.420  1.00  0.00     0.092 C 
ATOM     20  C   UNL     1     153.406 163.681 166.432  1.00  0.00     0.011 C 
ATOM     21  C   UNL     1     151.940 164.264 168.394  1.00  0.00     0.015 C 
ATOM     22  C   UNL     1     153.609 166.524 166.444  1.00  0.00    -0.031 C 
ATOM     23  C   UNL     1     154.666 164.234 167.090  1.00  0.00     0.009 C 
ATOM     24  C   UNL     1     154.863 165.771 166.923  1.00  0.00     0.025 C 
ATOM     25  C   UNL     1     153.731 167.802 166.030  1.00  0.00     0.050 C 
ATOM     26  C   UNL     1     156.138 166.177 166.078  1.00  0.00    -0.013 C 
ATOM     27  C   UNL     1     155.031 168.456 165.841  1.00  0.00     0.159 C 
ATOM     28  C   UNL     1     156.298 167.731 166.220  1.00  0.00     0.070 C 
ATOM     29  C   UNL     1     157.444 165.537 166.655  1.00  0.00     0.042 C 
ATOM     30  C   UNL     1     155.935 165.736 164.599  1.00  0.00     0.013 C 
ATOM     31  O   UNL     1     155.070 169.646 165.431  1.00  0.00    -0.295 OA
ATOM     32  C   UNL     1     157.539 168.261 165.478  1.00  0.00     0.047 C 
ATOM     33  C   UNL     1     158.748 166.087 166.017  1.00  0.00     0.143 C 
ATOM     34  C   UNL     1     158.819 167.630 166.046  1.00  0.00     0.143 C 
BRANCH  19  35
ATOM     35  O   UNL     1     151.329 166.712 167.205  1.00  0.00    -0.385 OA
ATOM     36  H   UNL     1     151.354 167.645 166.859  1.00  0.00     0.211 HD
ENDBRANCH  19  35
BRANCH  33  37
ATOM     37  O   UNL     1     159.872 165.533 166.661  1.00  0.00    -0.390 OA
ATOM     38  H   UNL     1     159.642 165.395 167.616  1.00  0.00     0.211 HD
ENDBRANCH  33  37
BRANCH  34  39
ATOM     39  O   UNL     1     159.918 168.072 165.288  1.00  0.00    -0.390 OA
ATOM     40  H   UNL     1     159.885 167.593 164.421  1.00  0.00     0.211 HD
ENDBRANCH  34  39
ENDBRANCH   1  15
BRANCH   1  41
ATOM     41  O   UNL     1     149.059 165.123 166.874  1.00  0.00    -0.387 OA
ATOM     42  H   UNL     1     148.189 165.333 166.439  1.00  0.00     0.211 HD
ENDBRANCH   1  41
TORSDOF 9
ENDMDL
MODEL 2
REMARK VINA RESULT:    -7.615      1.687      2.778
REMARK INTER + INTRA:         -11.052
REMARK INTER:                 -10.584
REMARK INTRA:                  -0.469
REMARK UNBOUND:                -0.544
REMARK SMILES C[C@H]1OC(=O)[C@H](C)[C@@H]1C[C@@H](O)[C@@](C)(O)[C@H]1CC[C@]2(O)C3=CC(=O)[C@@H]4C[C@H](O)[C@@H](O)C[C@@]4(C)[C@@H]3CC[C@]12C
REMARK SMILES IDX 12 1 13 2 10 3 9 4 8 5 7 6 6 7 4 8 2 9 3 10 5 11 1 12 11 13
REMARK SMILES IDX 15 15 16 16 36 17 17 18 18 19 35 20 37 21 20 22 34 23 33 24
REMARK SMILES IDX 21 25 31 26 22 27 24 28 30 29 32 30 23 31 25 32 28 33 26 34
REMARK SMILES IDX 19 35 29 37 27 39 14 41
REMARK H PARENT 11 14 19 36 29 38 27 40 14 42
REMARK Flexibility Score: inf
ROOT
ATOM      1  C   UNL     1     149.052 163.835 167.299  1.00  0.00     0.091 C 
ATOM      2  C   UNL     1     149.198 162.280 167.172  1.00  0.00     0.045 C 
ENDROOT
BRANCH   1   3
ATOM      3  C   UNL     1     147.967 164.120 168.410  1.00  0.00     0.146 C 
BRANCH   3   4
ATOM      4  C   UNL     1     147.687 162.897 169.336  1.00  0.00     0.043 C 
BRANCH   4   5
ATOM      5  C   UNL     1     148.644 162.793 170.560  1.00  0.00     0.046 C 
ATOM      6  C   UNL     1     146.675 163.919 171.933  1.00  0.00     0.020 C 
ATOM      7  C   UNL     1     147.979 163.111 171.940  1.00  0.00     0.103 C 
ATOM      8  C   UNL     1     147.788 161.760 172.520  1.00  0.00     0.309 C 
ATOM      9  C   UNL     1     149.175 161.331 170.731  1.00  0.00     0.177 C 
ATOM     10  O   UNL     1     148.459 160.783 171.825  1.00  0.00    -0.462 OA
ATOM     11  O   UNL     1     147.127 161.517 173.566  1.00  0.00    -0.252 OA
ATOM     12  C   UNL     1     150.672 161.295 171.044  1.00  0.00     0.053 C 
ENDBRANCH   4   5
ENDBRANCH   3   4
BRANCH   3  13
ATOM     13  O   UNL     1     148.362 165.240 169.164  1.00  0.00    -0.390 OA
ATOM     14  H   UNL     1     148.140 165.060 170.117  1.00  0.00     0.211 HD
ENDBRANCH   3  13
ENDBRANCH   1   3
BRANCH   1  15
ATOM     15  C   UNL     1     150.444 164.502 167.708  1.00  0.00     0.032 C 
ATOM     16  C   UNL     1     151.545 163.473 168.058  1.00  0.00     0.010 C 
ATOM     17  C   UNL     1     151.195 165.458 166.687  1.00  0.00     0.006 C 
ATOM     18  C   UNL     1     152.454 163.348 166.846  1.00  0.00     0.041 C 
ATOM     19  C   UNL     1     152.164 164.523 165.887  1.00  0.00     0.092 C 
ATOM     20  C   UNL     1     152.041 166.458 167.531  1.00  0.00     0.011 C 
ATOM     21  C   UNL     1     150.277 166.283 165.744  1.00  0.00     0.015 C 
ATOM     22  C   UNL     1     153.495 165.166 165.447  1.00  0.00    -0.031 C 
ATOM     23  C   UNL     1     152.927 167.378 166.698  1.00  0.00     0.009 C 
ATOM     24  C   UNL     1     153.860 166.642 165.691  1.00  0.00     0.025 C 
ATOM     25  C   UNL     1     154.371 164.374 164.797  1.00  0.00     0.050 C 
ATOM     26  C   UNL     1     155.406 166.811 165.990  1.00  0.00    -0.013 C 
ATOM     27  C   UNL     1     155.737 164.799 164.468  1.00  0.00     0.159 C 
ATOM     28  C   UNL     1     156.172 166.213 164.760  1.00  0.00     0.070 C 
ATOM     29  C   UNL     1     155.816 168.318 166.085  1.00  0.00     0.042 C 
ATOM     30  C   UNL     1     155.754 166.078 167.318  1.00  0.00     0.013 C 
ATOM     31  O   UNL     1     156.508 163.998 163.878  1.00  0.00    -0.295 OA
ATOM     32  C   UNL     1     157.700 166.355 164.898  1.00  0.00     0.047 C 
ATOM     33  C   UNL     1     157.349 168.550 166.139  1.00  0.00     0.143 C 
ATOM     34  C   UNL     1     158.099 167.836 164.992  1.00  0.00     0.143 C 
BRANCH  19  35
ATOM     35  O   UNL     1     151.510 163.986 164.755  1.00  0.00    -0.385 OA
ATOM     36  H   UNL     1     151.864 163.072 164.586  1.00  0.00     0.211 HD
ENDBRANCH  19  35
BRANCH  33  37
ATOM     37  O   UNL     1     157.632 169.930 166.122  1.00  0.00    -0.390 OA
ATOM     38  H   UNL     1     156.773 170.419 166.209  1.00  0.00     0.211 HD
ENDBRANCH  33  37
BRANCH  34  39
ATOM     39  O   UNL     1     159.487 167.919 165.203  1.00  0.00    -0.390 OA
ATOM     40  H   UNL     1     159.623 168.419 166.048  1.00  0.00     0.211 HD
ENDBRANCH  34  39
ENDBRANCH   1  15
BRANCH   1  41
ATOM     41  O   UNL     1     148.647 164.361 166.053  1.00  0.00    -0.387 OA
ATOM     42  H   UNL     1     147.653 164.373 166.012  1.00  0.00     0.211 HD
ENDBRANCH   1  41
TORSDOF 9
ENDMDL
MODEL 3
REMARK VINA RESULT:    -7.467      1.848      2.457
REMARK INTER + INTRA:         -10.848
REMARK INTER:                 -10.111
REMARK INTRA:                  -0.737
REMARK UNBOUND:                -0.544
REMARK SMILES C[C@H]1OC(=O)[C@H](C)[C@@H]1C[C@@H](O)[C@@](C)(O)[C@H]1CC[C@]2(O)C3=CC(=O)[C@@H]4C[C@H](O)[C@@H](O)C[C@@]4(C)[C@@H]3CC[C@]12C
REMARK SMILES IDX 12 1 13 2 10 3 9 4 8 5 7 6 6 7 4 8 2 9 3 10 5 11 1 12 11 13
REMARK SMILES IDX 15 15 16 16 36 17 17 18 18 19 35 20 37 21 20 22 34 23 33 24
REMARK SMILES IDX 21 25 31 26 22 27 24 28 30 29 32 30 23 31 25 32 28 33 26 34
REMARK SMILES IDX 19 35 29 37 27 39 14 41
REMARK H PARENT 11 14 19 36 29 38 27 40 14 42
REMARK Flexibility Score: inf
ROOT
ATOM      1  C   UNL     1     150.464 163.816 165.739  1.00  0.00     0.091 C 
ATOM      2  C   UNL     1     149.775 164.066 164.354  1.00  0.00     0.045 C 
ENDROOT
BRANCH   1   3
ATOM      3  C   UNL     1     149.666 162.662 166.465  1.00  0.00     0.146 C 
BRANCH   3   4
ATOM      4  C   UNL     1     148.615 163.183 167.492  1.00  0.00     0.043 C 
BRANCH   4   5
ATOM      5  C   UNL     1     148.990 162.913 168.979  1.00  0.00     0.046 C 
ATOM      6  C   UNL     1     147.708 165.175 169.498  1.00  0.00     0.020 C 
ATOM      7  C   UNL     1     148.282 163.849 170.013  1.00  0.00     0.103 C 
ATOM      8  C   UNL     1     147.226 162.969 170.569  1.00  0.00     0.309 C 
ATOM      9  C   UNL     1     148.547 161.476 169.413  1.00  0.00     0.177 C 
ATOM     10  O   UNL     1     147.391 161.652 170.215  1.00  0.00    -0.462 OA
ATOM     11  O   UNL     1     146.296 163.358 171.327  1.00  0.00    -0.252 OA
ATOM     12  C   UNL     1     149.624 160.767 170.237  1.00  0.00     0.053 C 
ENDBRANCH   4   5
ENDBRANCH   3   4
BRANCH   3  13
ATOM     13  O   UNL     1     149.058 161.843 165.496  1.00  0.00    -0.390 OA
ATOM     14  H   UNL     1     148.200 161.511 165.872  1.00  0.00     0.211 HD
ENDBRANCH   3  13
ENDBRANCH   1   3
BRANCH   1  15
ATOM     15  C   UNL     1     151.990 163.386 165.541  1.00  0.00     0.032 C 
ATOM     16  C   UNL     1     152.723 164.193 164.443  1.00  0.00     0.010 C 
ATOM     17  C   UNL     1     153.005 163.484 166.758  1.00  0.00     0.006 C 
ATOM     18  C   UNL     1     153.562 165.253 165.139  1.00  0.00     0.041 C 
ATOM     19  C   UNL     1     153.651 164.906 166.641  1.00  0.00     0.092 C 
ATOM     20  C   UNL     1     154.107 162.408 166.525  1.00  0.00     0.011 C 
ATOM     21  C   UNL     1     152.389 163.242 168.164  1.00  0.00     0.015 C 
ATOM     22  C   UNL     1     155.117 165.009 167.105  1.00  0.00    -0.031 C 
ATOM     23  C   UNL     1     155.238 162.446 167.547  1.00  0.00     0.009 C 
ATOM     24  C   UNL     1     155.912 163.841 167.716  1.00  0.00     0.025 C 
ATOM     25  C   UNL     1     155.717 166.210 166.973  1.00  0.00     0.050 C 
ATOM     26  C   UNL     1     157.433 163.887 167.280  1.00  0.00    -0.013 C 
ATOM     27  C   UNL     1     157.150 166.415 167.214  1.00  0.00     0.159 C 
ATOM     28  C   UNL     1     157.992 165.279 167.738  1.00  0.00     0.070 C 
ATOM     29  C   UNL     1     158.281 162.798 168.017  1.00  0.00     0.042 C 
ATOM     30  C   UNL     1     157.531 163.688 165.739  1.00  0.00     0.013 C 
ATOM     31  O   UNL     1     157.647 167.560 167.050  1.00  0.00    -0.295 OA
ATOM     32  C   UNL     1     159.490 165.442 167.415  1.00  0.00     0.047 C 
ATOM     33  C   UNL     1     159.812 162.949 167.812  1.00  0.00     0.143 C 
ATOM     34  C   UNL     1     160.319 164.371 168.139  1.00  0.00     0.143 C 
BRANCH  19  35
ATOM     35  O   UNL     1     152.874 165.861 167.336  1.00  0.00    -0.385 OA
ATOM     36  H   UNL     1     152.435 166.459 166.673  1.00  0.00     0.211 HD
ENDBRANCH  19  35
BRANCH  33  37
ATOM     37  O   UNL     1     160.500 161.994 168.586  1.00  0.00    -0.390 OA
ATOM     38  H   UNL     1     159.834 161.355 168.948  1.00  0.00     0.211 HD
ENDBRANCH  33  37
BRANCH  34  39
ATOM     39  O   UNL     1     161.665 164.500 167.752  1.00  0.00    -0.390 OA
ATOM     40  H   UNL     1     161.668 164.841 166.820  1.00  0.00     0.211 HD
ENDBRANCH  34  39
ENDBRANCH   1  15
BRANCH   1  41
ATOM     41  O   UNL     1     150.424 165.008 166.494  1.00  0.00    -0.387 OA
ATOM     42  H   UNL     1     149.730 164.922 167.202  1.00  0.00     0.211 HD
ENDBRANCH   1  41
TORSDOF 9
ENDMDL
MODEL 4
REMARK VINA RESULT:    -7.460      7.921     10.173
REMARK INTER + INTRA:         -10.839
REMARK INTER:                 -10.187
REMARK INTRA:                  -0.652
REMARK UNBOUND:                -0.544
REMARK SMILES C[C@H]1OC(=O)[C@H](C)[C@@H]1C[C@@H](O)[C@@](C)(O)[C@H]1CC[C@]2(O)C3=CC(=O)[C@@H]4C[C@H](O)[C@@H](O)C[C@@]4(C)[C@@H]3CC[C@]12C
REMARK SMILES IDX 12 1 13 2 10 3 9 4 8 5 7 6 6 7 4 8 2 9 3 10 5 11 1 12 11 13
REMARK SMILES IDX 15 15 16 16 36 17 17 18 18 19 35 20 37 21 20 22 34 23 33 24
REMARK SMILES IDX 21 25 31 26 22 27 24 28 30 29 32 30 23 31 25 32 28 33 26 34
REMARK SMILES IDX 19 35 29 37 27 39 14 41
REMARK H PARENT 11 14 19 36 29 38 27 40 14 42
REMARK Flexibility Score: inf
ROOT
ATOM      1  C   UNL     1     153.159 159.345 170.190  1.00  0.00     0.091 C 
ATOM      2  C   UNL     1     154.084 160.601 170.336  1.00  0.00     0.045 C 
ENDROOT
BRANCH   1   3
ATOM      3  C   UNL     1     151.664 159.853 170.210  1.00  0.00     0.146 C 
BRANCH   3   4
ATOM      4  C   UNL     1     151.527 161.395 170.022  1.00  0.00     0.043 C 
BRANCH   4   5
ATOM      5  C   UNL     1     150.381 162.039 170.857  1.00  0.00     0.046 C 
ATOM      6  C   UNL     1     149.153 162.374 168.531  1.00  0.00     0.020 C 
ATOM      7  C   UNL     1     149.061 162.307 170.061  1.00  0.00     0.103 C 
ATOM      8  C   UNL     1     148.186 161.198 170.513  1.00  0.00     0.309 C 
ATOM      9  C   UNL     1     149.931 161.085 172.014  1.00  0.00     0.177 C 
ATOM     10  O   UNL     1     148.696 160.528 171.599  1.00  0.00    -0.462 OA
ATOM     11  O   UNL     1     147.068 160.915 170.003  1.00  0.00    -0.252 OA
ATOM     12  C   UNL     1     149.725 161.836 173.331  1.00  0.00     0.053 C 
ENDBRANCH   4   5
ENDBRANCH   3   4
BRANCH   3  13
ATOM     13  O   UNL     1     150.929 159.161 169.230  1.00  0.00    -0.390 OA
ATOM     14  H   UNL     1     150.071 158.871 169.640  1.00  0.00     0.211 HD
ENDBRANCH   3  13
ENDBRANCH   1   3
BRANCH   1  15
ATOM     15  C   UNL     1     153.459 158.577 168.823  1.00  0.00     0.032 C 
ATOM     16  C   UNL     1     154.776 159.018 168.141  1.00  0.00     0.010 C 
ATOM     17  C   UNL     1     153.595 156.996 168.815  1.00  0.00     0.006 C 
ATOM     18  C   UNL     1     155.829 157.968 168.460  1.00  0.00     0.041 C 
ATOM     19  C   UNL     1     155.122 156.714 169.017  1.00  0.00     0.092 C 
ATOM     20  C   UNL     1     153.175 156.505 167.397  1.00  0.00     0.011 C 
ATOM     21  C   UNL     1     152.724 156.244 169.860  1.00  0.00     0.015 C 
ATOM     22  C   UNL     1     155.666 155.459 168.305  1.00  0.00    -0.031 C 
ATOM     23  C   UNL     1     153.363 155.008 167.177  1.00  0.00     0.009 C 
ATOM     24  C   UNL     1     154.794 154.481 167.498  1.00  0.00     0.025 C 
ATOM     25  C   UNL     1     156.987 155.215 168.421  1.00  0.00     0.050 C 
ATOM     26  C   UNL     1     155.575 153.910 166.245  1.00  0.00    -0.013 C 
ATOM     27  C   UNL     1     157.671 154.159 167.665  1.00  0.00     0.159 C 
ATOM     28  C   UNL     1     156.872 153.222 166.795  1.00  0.00     0.070 C 
ATOM     29  C   UNL     1     154.756 152.800 165.507  1.00  0.00     0.042 C 
ATOM     30  C   UNL     1     155.894 155.077 165.265  1.00  0.00     0.013 C 
ATOM     31  O   UNL     1     158.912 154.002 167.808  1.00  0.00    -0.295 OA
ATOM     32  C   UNL     1     157.711 152.577 165.676  1.00  0.00     0.047 C 
ATOM     33  C   UNL     1     155.563 152.041 164.421  1.00  0.00     0.143 C 
ATOM     34  C   UNL     1     156.904 151.488 164.954  1.00  0.00     0.143 C 
BRANCH  19  35
ATOM     35  O   UNL     1     155.432 156.638 170.395  1.00  0.00    -0.385 OA
ATOM     36  H   UNL     1     156.307 156.177 170.500  1.00  0.00     0.211 HD
ENDBRANCH  19  35
BRANCH  33  37
ATOM     37  O   UNL     1     154.785 150.998 163.880  1.00  0.00    -0.390 OA
ATOM     38  H   UNL     1     154.325 150.538 164.629  1.00  0.00     0.211 HD
ENDBRANCH  33  37
BRANCH  34  39
ATOM     39  O   UNL     1     157.672 150.985 163.888  1.00  0.00    -0.390 OA
ATOM     40  H   UNL     1     157.036 150.642 163.208  1.00  0.00     0.211 HD
ENDBRANCH  34  39
ENDBRANCH   1  15
BRANCH   1  41
ATOM     41  O   UNL     1     153.407 158.466 171.267  1.00  0.00    -0.387 OA
ATOM     42  H   UNL     1     154.389 158.355 171.377  1.00  0.00     0.211 HD
ENDBRANCH   1  41
TORSDOF 9
ENDMDL
MODEL 5
REMARK VINA RESULT:    -7.442      8.130     10.572
REMARK INTER + INTRA:         -10.814
REMARK INTER:                 -10.119
REMARK INTRA:                  -0.695
REMARK UNBOUND:                -0.544
REMARK SMILES C[C@H]1OC(=O)[C@H](C)[C@@H]1C[C@@H](O)[C@@](C)(O)[C@H]1CC[C@]2(O)C3=CC(=O)[C@@H]4C[C@H](O)[C@@H](O)C[C@@]4(C)[C@@H]3CC[C@]12C
REMARK SMILES IDX 12 1 13 2 10 3 9 4 8 5 7 6 6 7 4 8 2 9 3 10 5 11 1 12 11 13
REMARK SMILES IDX 15 15 16 16 36 17 17 18 18 19 35 20 37 21 20 22 34 23 33 24
REMARK SMILES IDX 21 25 31 26 22 27 24 28 30 29 32 30 23 31 25 32 28 33 26 34
REMARK SMILES IDX 19 35 29 37 27 39 14 41
REMARK H PARENT 11 14 19 36 29 38 27 40 14 42
REMARK Flexibility Score: inf
ROOT
ATOM      1  C   UNL     1     154.108 159.471 170.629  1.00  0.00     0.091 C 
ATOM      2  C   UNL     1     155.341 160.438 170.609  1.00  0.00     0.045 C 
ENDROOT
BRANCH   1   3
ATOM      3  C   UNL     1     152.810 160.359 170.769  1.00  0.00     0.146 C 
BRANCH   3   4
ATOM      4  C   UNL     1     151.503 159.625 170.339  1.00  0.00     0.043 C 
BRANCH   4   5
ATOM      5  C   UNL     1     150.764 160.289 169.140  1.00  0.00     0.046 C 
ATOM      6  C   UNL     1     148.676 160.421 170.769  1.00  0.00     0.020 C 
ATOM      7  C   UNL     1     149.372 160.911 169.492  1.00  0.00     0.103 C 
ATOM      8  C   UNL     1     149.677 162.361 169.552  1.00  0.00     0.309 C 
ATOM      9  C   UNL     1     151.583 161.501 168.584  1.00  0.00     0.177 C 
ATOM     10  O   UNL     1     150.918 162.664 169.046  1.00  0.00    -0.462 OA
ATOM     11  O   UNL     1     148.880 163.244 169.971  1.00  0.00    -0.252 OA
ATOM     12  C   UNL     1     151.617 161.518 167.054  1.00  0.00     0.053 C 
ENDBRANCH   4   5
ENDBRANCH   3   4
BRANCH   3  13
ATOM     13  O   UNL     1     152.711 160.827 172.092  1.00  0.00    -0.390 OA
ATOM     14  H   UNL     1     153.435 161.494 172.235  1.00  0.00     0.211 HD
ENDBRANCH   3  13
ENDBRANCH   1   3
BRANCH   1  15
ATOM     15  C   UNL     1     154.043 158.612 169.285  1.00  0.00     0.032 C 
ATOM     16  C   UNL     1     155.145 158.976 168.262  1.00  0.00     0.010 C 
ATOM     17  C   UNL     1     154.160 157.030 169.349  1.00  0.00     0.006 C 
ATOM     18  C   UNL     1     156.236 157.923 168.372  1.00  0.00     0.041 C 
ATOM     19  C   UNL     1     155.685 156.723 169.174  1.00  0.00     0.092 C 
ATOM     20  C   UNL     1     153.387 156.461 168.121  1.00  0.00     0.011 C 
ATOM     21  C   UNL     1     153.579 156.367 170.629  1.00  0.00     0.015 C 
ATOM     22  C   UNL     1     156.019 155.414 168.432  1.00  0.00    -0.031 C 
ATOM     23  C   UNL     1     153.501 154.949 167.961  1.00  0.00     0.009 C 
ATOM     24  C   UNL     1     154.962 154.408 167.941  1.00  0.00     0.025 C 
ATOM     25  C   UNL     1     157.324 155.144 168.224  1.00  0.00     0.050 C 
ATOM     26  C   UNL     1     155.392 153.741 166.572  1.00  0.00    -0.013 C 
ATOM     27  C   UNL     1     157.784 154.027 167.391  1.00  0.00     0.159 C 
ATOM     28  C   UNL     1     156.781 153.057 166.819  1.00  0.00     0.070 C 
ATOM     29  C   UNL     1     154.403 152.607 166.143  1.00  0.00     0.042 C 
ATOM     30  C   UNL     1     155.459 154.836 165.467  1.00  0.00     0.013 C 
ATOM     31  O   UNL     1     159.019 153.848 167.223  1.00  0.00    -0.295 OA
ATOM     32  C   UNL     1     157.302 152.323 165.568  1.00  0.00     0.047 C 
ATOM     33  C   UNL     1     154.900 151.762 164.940  1.00  0.00     0.143 C 
ATOM     34  C   UNL     1     156.328 151.211 165.150  1.00  0.00     0.143 C 
BRANCH  19  35
ATOM     35  O   UNL     1     156.337 156.727 170.429  1.00  0.00    -0.385 OA
ATOM     36  H   UNL     1     155.655 156.601 171.142  1.00  0.00     0.211 HD
ENDBRANCH  19  35
BRANCH  33  37
ATOM     37  O   UNL     1     154.001 150.707 164.686  1.00  0.00    -0.390 OA
ATOM     38  H   UNL     1     153.112 150.970 165.036  1.00  0.00     0.211 HD
ENDBRANCH  33  37
BRANCH  34  39
ATOM     39  O   UNL     1     156.794 150.623 163.960  1.00  0.00    -0.390 OA
ATOM     40  H   UNL     1     157.360 149.851 164.219  1.00  0.00     0.211 HD
ENDBRANCH  34  39
ENDBRANCH   1  15
BRANCH   1  41
ATOM     41  O   UNL     1     154.235 158.589 171.724  1.00  0.00    -0.387 OA
ATOM     42  H   UNL     1     154.547 157.703 171.395  1.00  0.00     0.211 HD
ENDBRANCH   1  41
TORSDOF 9
ENDMDL
MODEL 6
REMARK VINA RESULT:    -7.374      6.283      9.884
REMARK INTER + INTRA:         -10.720
REMARK INTER:                  -9.792
REMARK INTRA:                  -0.928
REMARK UNBOUND:                -0.544
REMARK SMILES C[C@H]1OC(=O)[C@H](C)[C@@H]1C[C@@H](O)[C@@](C)(O)[C@H]1CC[C@]2(O)C3=CC(=O)[C@@H]4C[C@H](O)[C@@H](O)C[C@@]4(C)[C@@H]3CC[C@]12C
REMARK SMILES IDX 12 1 13 2 10 3 9 4 8 5 7 6 6 7 4 8 2 9 3 10 5 11 1 12 11 13
REMARK SMILES IDX 15 15 16 16 36 17 17 18 18 19 35 20 37 21 20 22 34 23 33 24
REMARK SMILES IDX 21 25 31 26 22 27 24 28 30 29 32 30 23 31 25 32 28 33 26 34
REMARK SMILES IDX 19 35 29 37 27 39 14 41
REMARK H PARENT 11 14 19 36 29 38 27 40 14 42
REMARK Flexibility Score: inf
ROOT
ATOM      1  C   UNL     1     154.649 156.831 169.642  1.00  0.00     0.091 C 
ATOM      2  C   UNL     1     153.915 155.497 169.272  1.00  0.00     0.045 C 
ENDROOT
BRANCH   1   3
ATOM      3  C   UNL     1     156.202 156.562 169.538  1.00  0.00     0.146 C 
BRANCH   3   4
ATOM      4  C   UNL     1     156.825 157.023 168.185  1.00  0.00     0.043 C 
BRANCH   4   5
ATOM      5  C   UNL     1     157.074 155.866 167.173  1.00  0.00     0.046 C 
ATOM      6  C   UNL     1     159.066 157.364 166.268  1.00  0.00     0.020 C 
ATOM      7  C   UNL     1     158.407 155.982 166.361  1.00  0.00     0.103 C 
ATOM      8  C   UNL     1     159.281 154.997 167.042  1.00  0.00     0.309 C 
ATOM      9  C   UNL     1     157.209 154.495 167.915  1.00  0.00     0.177 C 
ATOM     10  O   UNL     1     158.591 154.184 167.909  1.00  0.00    -0.462 OA
ATOM     11  O   UNL     1     160.517 154.869 166.829  1.00  0.00    -0.252 OA
ATOM     12  C   UNL     1     156.442 153.378 167.204  1.00  0.00     0.053 C 
ENDBRANCH   4   5
ENDBRANCH   3   4
BRANCH   3  13
ATOM     13  O   UNL     1     156.850 157.178 170.624  1.00  0.00    -0.390 OA
ATOM     14  H   UNL     1     157.432 157.900 170.263  1.00  0.00     0.211 HD
ENDBRANCH   3  13
ENDBRANCH   1   3
BRANCH   1  15
ATOM     15  C   UNL     1     154.228 158.003 168.644  1.00  0.00     0.032 C 
ATOM     16  C   UNL     1     152.987 157.668 167.782  1.00  0.00     0.010 C 
ATOM     17  C   UNL     1     153.856 159.437 169.216  1.00  0.00     0.006 C 
ATOM     18  C   UNL     1     151.791 158.361 168.414  1.00  0.00     0.041 C 
ATOM     19  C   UNL     1     152.305 159.403 169.432  1.00  0.00     0.092 C 
ATOM     20  C   UNL     1     154.188 160.477 168.105  1.00  0.00     0.011 C 
ATOM     21  C   UNL     1     154.611 159.858 170.508  1.00  0.00     0.015 C 
ATOM     22  C   UNL     1     151.573 160.741 169.209  1.00  0.00    -0.031 C 
ATOM     23  C   UNL     1     153.775 161.904 168.447  1.00  0.00     0.009 C 
ATOM     24  C   UNL     1     152.284 162.064 168.868  1.00  0.00     0.025 C 
ATOM     25  C   UNL     1     150.231 160.734 169.342  1.00  0.00     0.050 C 
ATOM     26  C   UNL     1     151.417 162.945 167.878  1.00  0.00    -0.013 C 
ATOM     27  C   UNL     1     149.391 161.887 168.997  1.00  0.00     0.159 C 
ATOM     28  C   UNL     1     150.035 163.185 168.579  1.00  0.00     0.070 C 
ATOM     29  C   UNL     1     152.055 164.355 167.648  1.00  0.00     0.042 C 
ATOM     30  C   UNL     1     151.270 162.197 166.521  1.00  0.00     0.013 C 
ATOM     31  O   UNL     1     148.142 161.802 169.126  1.00  0.00    -0.295 OA
ATOM     32  C   UNL     1     149.100 164.076 167.738  1.00  0.00     0.047 C 
ATOM     33  C   UNL     1     151.135 165.343 166.881  1.00  0.00     0.143 C 
ATOM     34  C   UNL     1     149.730 165.459 167.513  1.00  0.00     0.143 C 
BRANCH  19  35
ATOM     35  O   UNL     1     151.996 158.912 170.722  1.00  0.00    -0.385 OA
ATOM     36  H   UNL     1     152.222 157.943 170.757  1.00  0.00     0.211 HD
ENDBRANCH  19  35
BRANCH  33  37
ATOM     37  O   UNL     1     151.744 166.611 166.806  1.00  0.00    -0.390 OA
ATOM     38  H   UNL     1     152.008 166.768 165.863  1.00  0.00     0.211 HD
ENDBRANCH  33  37
BRANCH  34  39
ATOM     39  O   UNL     1     148.888 166.209 166.673  1.00  0.00    -0.390 OA
ATOM     40  H   UNL     1     149.453 166.569 165.941  1.00  0.00     0.211 HD
ENDBRANCH  34  39
ENDBRANCH   1  15
BRANCH   1  41
ATOM     41  O   UNL     1     154.289 157.203 170.955  1.00  0.00    -0.387 OA
ATOM     42  H   UNL     1     153.776 158.055 170.923  1.00  0.00     0.211 HD
ENDBRANCH   1  41
TORSDOF 9
ENDMDL
MODEL 7
REMARK VINA RESULT:    -7.367      4.801      9.147
REMARK INTER + INTRA:         -10.710
REMARK INTER:                  -9.528
REMARK INTRA:                  -1.182
REMARK UNBOUND:                -0.544
REMARK SMILES C[C@H]1OC(=O)[C@H](C)[C@@H]1C[C@@H](O)[C@@](C)(O)[C@H]1CC[C@]2(O)C3=CC(=O)[C@@H]4C[C@H](O)[C@@H](O)C[C@@]4(C)[C@@H]3CC[C@]12C
REMARK SMILES IDX 12 1 13 2 10 3 9 4 8 5 7 6 6 7 4 8 2 9 3 10 5 11 1 12 11 13
REMARK SMILES IDX 15 15 16 16 36 17 17 18 18 19 35 20 37 21 20 22 34 23 33 24
REMARK SMILES IDX 21 25 31 26 22 27 24 28 30 29 32 30 23 31 25 32 28 33 26 34
REMARK SMILES IDX 19 35 29 37 27 39 14 41
REMARK H PARENT 11 14 19 36 29 38 27 40 14 42
REMARK Flexibility Score: inf
ROOT
ATOM      1  C   UNL     1     154.484 157.423 169.342  1.00  0.00     0.091 C 
ATOM      2  C   UNL     1     153.832 156.094 168.829  1.00  0.00     0.045 C 
ENDROOT
BRANCH   1   3
ATOM      3  C   UNL     1     156.049 157.217 169.335  1.00  0.00     0.146 C 
BRANCH   3   4
ATOM      4  C   UNL     1     156.805 158.216 168.407  1.00  0.00     0.043 C 
BRANCH   4   5
ATOM      5  C   UNL     1     157.918 159.036 169.125  1.00  0.00     0.046 C 
ATOM      6  C   UNL     1     159.615 157.648 167.633  1.00  0.00     0.020 C 
ATOM      7  C   UNL     1     159.348 158.879 168.509  1.00  0.00     0.103 C 
ATOM      8  C   UNL     1     159.507 160.142 167.750  1.00  0.00     0.309 C 
ATOM      9  C   UNL     1     157.634 160.571 169.021  1.00  0.00     0.177 C 
ATOM     10  O   UNL     1     158.536 161.067 168.047  1.00  0.00    -0.462 OA
ATOM     11  O   UNL     1     160.452 160.382 166.950  1.00  0.00    -0.252 OA
ATOM     12  C   UNL     1     157.883 161.293 170.347  1.00  0.00     0.053 C 
ENDBRANCH   4   5
ENDBRANCH   3   4
BRANCH   3  13
ATOM     13  O   UNL     1     156.531 157.297 170.655  1.00  0.00    -0.390 OA
ATOM     14  H   UNL     1     156.127 156.550 171.173  1.00  0.00     0.211 HD
ENDBRANCH   3  13
ENDBRANCH   1   3
BRANCH   1  15
ATOM     15  C   UNL     1     154.088 158.648 168.397  1.00  0.00     0.032 C 
ATOM     16  C   UNL     1     152.923 158.332 167.429  1.00  0.00     0.010 C 
ATOM     17  C   UNL     1     153.623 160.025 169.037  1.00  0.00     0.006 C 
ATOM     18  C   UNL     1     151.661 158.940 168.019  1.00  0.00     0.041 C 
ATOM     19  C   UNL     1     152.064 159.924 169.139  1.00  0.00     0.092 C 
ATOM     20  C   UNL     1     153.991 161.150 168.024  1.00  0.00     0.011 C 
ATOM     21  C   UNL     1     154.271 160.380 170.404  1.00  0.00     0.015 C 
ATOM     22  C   UNL     1     151.299 161.250 168.955  1.00  0.00    -0.031 C 
ATOM     23  C   UNL     1     153.502 162.536 168.431  1.00  0.00     0.009 C 
ATOM     24  C   UNL     1     151.980 162.616 168.754  1.00  0.00     0.025 C 
ATOM     25  C   UNL     1     149.952 161.190 168.991  1.00  0.00     0.050 C 
ATOM     26  C   UNL     1     151.151 163.535 167.767  1.00  0.00    -0.013 C 
ATOM     27  C   UNL     1     149.095 162.336 168.665  1.00  0.00     0.159 C 
ATOM     28  C   UNL     1     149.716 163.680 168.382  1.00  0.00     0.070 C 
ATOM     29  C   UNL     1     151.749 164.978 167.677  1.00  0.00     0.042 C 
ATOM     30  C   UNL     1     151.126 162.879 166.355  1.00  0.00     0.013 C 
ATOM     31  O   UNL     1     147.843 162.200 168.699  1.00  0.00    -0.295 OA
ATOM     32  C   UNL     1     148.808 164.595 167.539  1.00  0.00     0.047 C 
ATOM     33  C   UNL     1     150.848 165.985 166.916  1.00  0.00     0.143 C 
ATOM     34  C   UNL     1     149.399 166.011 167.452  1.00  0.00     0.143 C 
BRANCH  19  35
ATOM     35  O   UNL     1     151.686 159.335 170.368  1.00  0.00    -0.385 OA
ATOM     36  H   UNL     1     151.063 159.952 170.839  1.00  0.00     0.211 HD
ENDBRANCH  19  35
BRANCH  33  37
ATOM     37  O   UNL     1     151.411 167.275 166.968  1.00  0.00    -0.390 OA
ATOM     38  H   UNL     1     151.418 167.568 167.916  1.00  0.00     0.211 HD
ENDBRANCH  33  37
BRANCH  34  39
ATOM     39  O   UNL     1     148.589 166.790 166.606  1.00  0.00    -0.390 OA
ATOM     40  H   UNL     1     149.168 167.497 166.219  1.00  0.00     0.211 HD
ENDBRANCH  34  39
ENDBRANCH   1  15
BRANCH   1  41
ATOM     41  O   UNL     1     154.016 157.689 170.648  1.00  0.00    -0.387 OA
ATOM     42  H   UNL     1     153.741 158.643 170.707  1.00  0.00     0.211 HD
ENDBRANCH   1  41
TORSDOF 9
ENDMDL
MODEL 8
REMARK VINA RESULT:    -7.259      5.648      7.664
REMARK INTER + INTRA:         -10.562
REMARK INTER:                  -9.693
REMARK INTRA:                  -0.869
REMARK UNBOUND:                -0.544
REMARK SMILES C[C@H]1OC(=O)[C@H](C)[C@@H]1C[C@@H](O)[C@@](C)(O)[C@H]1CC[C@]2(O)C3=CC(=O)[C@@H]4C[C@H](O)[C@@H](O)C[C@@]4(C)[C@@H]3CC[C@]12C
REMARK SMILES IDX 12 1 13 2 10 3 9 4 8 5 7 6 6 7 4 8 2 9 3 10 5 11 1 12 11 13
REMARK SMILES IDX 15 15 16 16 36 17 17 18 18 19 35 20 37 21 20 22 34 23 33 24
REMARK SMILES IDX 21 25 31 26 22 27 24 28 30 29 32 30 23 31 25 32 28 33 26 34
REMARK SMILES IDX 19 35 29 37 27 39 14 41
REMARK H PARENT 11 14 19 36 29 38 27 40 14 42
REMARK Flexibility Score: inf
ROOT
ATOM      1  C   UNL     1     151.102 162.569 168.199  1.00  0.00     0.091 C 
ATOM      2  C   UNL     1     151.291 163.899 167.392  1.00  0.00     0.045 C 
ENDROOT
BRANCH   1   3
ATOM      3  C   UNL     1     149.552 162.270 168.262  1.00  0.00     0.146 C 
BRANCH   3   4
ATOM      4  C   UNL     1     148.901 162.644 169.629  1.00  0.00     0.043 C 
BRANCH   4   5
ATOM      5  C   UNL     1     148.050 161.502 170.261  1.00  0.00     0.046 C 
ATOM      6  C   UNL     1     149.780 161.606 172.268  1.00  0.00     0.020 C 
ATOM      7  C   UNL     1     148.404 161.168 171.748  1.00  0.00     0.103 C 
ATOM      8  C   UNL     1     147.300 161.820 172.492  1.00  0.00     0.309 C 
ATOM      9  C   UNL     1     146.538 161.902 170.320  1.00  0.00     0.177 C 
ATOM     10  O   UNL     1     146.274 162.226 171.674  1.00  0.00    -0.462 OA
ATOM     11  O   UNL     1     147.263 161.953 173.746  1.00  0.00    -0.252 OA
ATOM     12  C   UNL     1     145.623 160.753 169.893  1.00  0.00     0.053 C 
ENDBRANCH   4   5
ENDBRANCH   3   4
BRANCH   3  13
ATOM     13  O   UNL     1     148.911 162.936 167.202  1.00  0.00    -0.390 OA
ATOM     14  H   UNL     1     148.222 162.323 166.828  1.00  0.00     0.211 HD
ENDBRANCH   3  13
ENDBRANCH   1   3
BRANCH   1  15
ATOM     15  C   UNL     1     151.864 161.362 167.485  1.00  0.00     0.032 C 
ATOM     16  C   UNL     1     153.240 161.758 166.898  1.00  0.00     0.010 C 
ATOM     17  C   UNL     1     152.220 160.052 168.308  1.00  0.00     0.006 C 
ATOM     18  C   UNL     1     154.306 161.286 167.875  1.00  0.00     0.041 C 
ATOM     19  C   UNL     1     153.660 160.299 168.871  1.00  0.00     0.092 C 
ATOM     20  C   UNL     1     152.271 158.871 167.293  1.00  0.00     0.011 C 
ATOM     21  C   UNL     1     151.215 159.675 169.432  1.00  0.00     0.015 C 
ATOM     22  C   UNL     1     154.548 159.045 168.999  1.00  0.00    -0.031 C 
ATOM     23  C   UNL     1     152.722 157.547 167.902  1.00  0.00     0.009 C 
ATOM     24  C   UNL     1     154.073 157.617 168.675  1.00  0.00     0.025 C 
ATOM     25  C   UNL     1     155.810 159.231 169.437  1.00  0.00     0.050 C 
ATOM     26  C   UNL     1     155.235 156.753 168.035  1.00  0.00    -0.013 C 
ATOM     27  C   UNL     1     156.815 158.161 169.448  1.00  0.00     0.159 C 
ATOM     28  C   UNL     1     156.420 156.758 169.063  1.00  0.00     0.070 C 
ATOM     29  C   UNL     1     154.811 155.259 167.846  1.00  0.00     0.042 C 
ATOM     30  C   UNL     1     155.638 157.371 166.664  1.00  0.00     0.013 C 
ATOM     31  O   UNL     1     157.981 158.413 169.851  1.00  0.00    -0.295 OA
ATOM     32  C   UNL     1     157.612 155.908 168.584  1.00  0.00     0.047 C 
ATOM     33  C   UNL     1     155.980 154.319 167.448  1.00  0.00     0.143 C 
ATOM     34  C   UNL     1     157.192 154.442 168.398  1.00  0.00     0.143 C 
BRANCH  19  35
ATOM     35  O   UNL     1     153.596 160.953 170.123  1.00  0.00    -0.385 OA
ATOM     36  H   UNL     1     152.837 160.573 170.642  1.00  0.00     0.211 HD
ENDBRANCH  19  35
BRANCH  33  37
ATOM     37  O   UNL     1     155.532 152.985 167.397  1.00  0.00    -0.390 OA
ATOM     38  H   UNL     1     154.768 152.941 166.767  1.00  0.00     0.211 HD
ENDBRANCH  33  37
BRANCH  34  39
ATOM     39  O   UNL     1     158.281 153.720 167.880  1.00  0.00    -0.390 OA
ATOM     40  H   UNL     1     158.041 152.759 167.926  1.00  0.00     0.211 HD
ENDBRANCH  34  39
ENDBRANCH   1  15
BRANCH   1  41
ATOM     41  O   UNL     1     151.635 162.739 169.495  1.00  0.00    -0.387 OA
ATOM     42  H   UNL     1     152.628 162.753 169.439  1.00  0.00     0.211 HD
ENDBRANCH   1  41
TORSDOF 9
ENDMDL
MODEL 9
REMARK VINA RESULT:    -7.216      6.550      8.415
REMARK INTER + INTRA:         -10.502
REMARK INTER:                  -9.966
REMARK INTRA:                  -0.536
REMARK UNBOUND:                -0.544
REMARK SMILES C[C@H]1OC(=O)[C@H](C)[C@@H]1C[C@@H](O)[C@@](C)(O)[C@H]1CC[C@]2(O)C3=CC(=O)[C@@H]4C[C@H](O)[C@@H](O)C[C@@]4(C)[C@@H]3CC[C@]12C
REMARK SMILES IDX 12 1 13 2 10 3 9 4 8 5 7 6 6 7 4 8 2 9 3 10 5 11 1 12 11 13
REMARK SMILES IDX 15 15 16 16 36 17 17 18 18 19 35 20 37 21 20 22 34 23 33 24
REMARK SMILES IDX 21 25 31 26 22 27 24 28 30 29 32 30 23 31 25 32 28 33 26 34
REMARK SMILES IDX 19 35 29 37 27 39 14 41
REMARK H PARENT 11 14 19 36 29 38 27 40 14 42
REMARK Flexibility Score: inf
ROOT
ATOM      1  C   UNL     1     152.053 160.970 169.736  1.00  0.00     0.091 C 
ATOM      2  C   UNL     1     151.853 162.347 169.016  1.00  0.00     0.045 C 
ENDROOT
BRANCH   1   3
ATOM      3  C   UNL     1     150.662 160.553 170.358  1.00  0.00     0.146 C 
BRANCH   3   4
ATOM      4  C   UNL     1     149.753 161.767 170.721  1.00  0.00     0.043 C 
BRANCH   4   5
ATOM      5  C   UNL     1     148.305 161.375 171.138  1.00  0.00     0.046 C 
ATOM      6  C   UNL     1     149.099 161.894 173.614  1.00  0.00     0.020 C 
ATOM      7  C   UNL     1     147.942 161.696 172.626  1.00  0.00     0.103 C 
ATOM      8  C   UNL     1     147.113 162.918 172.494  1.00  0.00     0.309 C 
ATOM      9  C   UNL     1     147.249 162.184 170.315  1.00  0.00     0.177 C 
ATOM     10  O   UNL     1     146.745 163.173 171.196  1.00  0.00    -0.462 OA
ATOM     11  O   UNL     1     146.734 163.633 173.461  1.00  0.00    -0.252 OA
ATOM     12  C   UNL     1     146.093 161.303 169.837  1.00  0.00     0.053 C 
ENDBRANCH   4   5
ENDBRANCH   3   4
BRANCH   3  13
ATOM     13  O   UNL     1     150.004 159.681 169.471  1.00  0.00    -0.390 OA
ATOM     14  H   UNL     1     149.051 159.626 169.748  1.00  0.00     0.211 HD
ENDBRANCH   3  13
ENDBRANCH   1   3
BRANCH   1  15
ATOM     15  C   UNL     1     152.547 159.858 168.702  1.00  0.00     0.032 C 
ATOM     16  C   UNL     1     153.426 160.420 167.559  1.00  0.00     0.010 C 
ATOM     17  C   UNL     1     153.413 158.629 169.212  1.00  0.00     0.006 C 
ATOM     18  C   UNL     1     154.875 160.122 167.909  1.00  0.00     0.041 C 
ATOM     19  C   UNL     1     154.903 159.082 169.051  1.00  0.00     0.092 C 
ATOM     20  C   UNL     1     153.140 157.440 168.243  1.00  0.00     0.011 C 
ATOM     21  C   UNL     1     153.107 158.150 170.658  1.00  0.00     0.015 C 
ATOM     22  C   UNL     1     155.904 157.963 168.700  1.00  0.00    -0.031 C 
ATOM     23  C   UNL     1     153.992 156.206 168.520  1.00  0.00     0.009 C 
ATOM     24  C   UNL     1     155.525 156.476 168.578  1.00  0.00     0.025 C 
ATOM     25  C   UNL     1     157.188 158.329 168.509  1.00  0.00     0.050 C 
ATOM     26  C   UNL     1     156.357 155.761 167.437  1.00  0.00    -0.013 C 
ATOM     27  C   UNL     1     158.213 157.405 168.009  1.00  0.00     0.159 C 
ATOM     28  C   UNL     1     157.872 155.952 167.796  1.00  0.00     0.070 C 
ATOM     29  C   UNL     1     156.093 154.219 167.408  1.00  0.00     0.042 C 
ATOM     30  C   UNL     1     155.990 156.392 166.062  1.00  0.00     0.013 C 
ATOM     31  O   UNL     1     159.388 157.822 167.834  1.00  0.00    -0.295 OA
ATOM     32  C   UNL     1     158.804 155.258 166.784  1.00  0.00     0.047 C 
ATOM     33  C   UNL     1     157.054 153.435 166.475  1.00  0.00     0.143 C 
ATOM     34  C   UNL     1     158.542 153.745 166.756  1.00  0.00     0.143 C 
BRANCH  19  35
ATOM     35  O   UNL     1     155.344 159.754 170.215  1.00  0.00    -0.385 OA
ATOM     36  H   UNL     1     155.243 160.734 170.074  1.00  0.00     0.211 HD
ENDBRANCH  19  35
BRANCH  33  37
ATOM     37  O   UNL     1     156.814 152.051 166.584  1.00  0.00    -0.390 OA
ATOM     38  H   UNL     1     157.591 151.574 166.193  1.00  0.00     0.211 HD
ENDBRANCH  33  37
BRANCH  34  39
ATOM     39  O   UNL     1     159.349 153.162 165.763  1.00  0.00    -0.390 OA
ATOM     40  H   UNL     1     159.133 153.618 164.909  1.00  0.00     0.211 HD
ENDBRANCH  34  39
ENDBRANCH   1  15
BRANCH   1  41
ATOM     41  O   UNL     1     153.031 161.117 170.744  1.00  0.00    -0.387 OA
ATOM     42  H   UNL     1     153.329 160.215 171.042  1.00  0.00     0.211 HD
ENDBRANCH   1  41
TORSDOF 9
ENDMDL
