MODEL 1
REMARK VINA RESULT:    12.095      0.000      0.000
REMARK INTER + INTRA:          25.096
REMARK INTER:                  26.237
REMARK INTRA:                  -1.141
REMARK UNBOUND:                -1.141
REMARK SMILES CCCCCCCCCCCCCCCCCCCCCC(=O)[O-]
REMARK SMILES IDX 12 1 11 2 10 3 9 4 8 5 7 6 6 7 5 8 4 9 3 10 2 11 1 12 13 13
REMARK SMILES IDX 14 14 15 15 16 16 17 17 18 18 19 19 20 20 21 21 22 22 23 23
REMARK SMILES IDX 24 24
REMARK H PARENT
REMARK Flexibility Score: inf
ROOT
ATOM      1  C   UNL     1      35.164  13.255  42.509  1.00  0.00     0.000 C 
ENDROOT
BRANCH   1   2
ATOM      2  C   UNL     1      36.416  13.876  43.153  1.00  0.00     0.000 C 
BRANCH   2   3
ATOM      3  C   UNL     1      36.184  15.214  43.886  1.00  0.00     0.000 C 
BRANCH   3   4
ATOM      4  C   UNL     1      34.936  15.999  43.437  1.00  0.00    -0.000 C 
BRANCH   4   5
ATOM      5  C   UNL     1      35.030  17.530  43.603  1.00  0.00    -0.000 C 
BRANCH   5   6
ATOM      6  C   UNL     1      34.853  18.336  42.302  1.00  0.00    -0.000 C 
BRANCH   6   7
ATOM      7  C   UNL     1      33.878  17.713  41.287  1.00  0.00    -0.000 C 
BRANCH   7   8
ATOM      8  C   UNL     1      34.261  17.989  39.814  1.00  0.00    -0.000 C 
BRANCH   8   9
ATOM      9  C   UNL     1      33.088  17.826  38.831  1.00  0.00    -0.000 C 
BRANCH   9  10
ATOM     10  C   UNL     1      32.121  19.023  38.875  1.00  0.00    -0.000 C 
BRANCH  10  11
ATOM     11  C   UNL     1      31.039  18.943  37.788  1.00  0.00    -0.003 C 
ATOM     12  C   UNL     1      31.019  17.595  37.069  1.00  0.00     0.004 C 
ENDBRANCH  10  11
ENDBRANCH   9  10
ENDBRANCH   8   9
ENDBRANCH   7   8
ENDBRANCH   6   7
ENDBRANCH   5   6
ENDBRANCH   4   5
ENDBRANCH   3   4
ENDBRANCH   2   3
ENDBRANCH   1   2
BRANCH   1  13
ATOM     13  C   UNL     1      35.233  13.226  40.973  1.00  0.00     0.000 C 
BRANCH  13  14
ATOM     14  C   UNL     1      34.123  12.368  40.336  1.00  0.00     0.000 C 
BRANCH  14  15
ATOM     15  C   UNL     1      33.905  10.987  40.982  1.00  0.00     0.000 C 
BRANCH  15  16
ATOM     16  C   UNL     1      33.634   9.878  39.951  1.00  0.00     0.000 C 
BRANCH  16  17
ATOM     17  C   UNL     1      32.194   9.343  40.026  1.00  0.00     0.000 C 
BRANCH  17  18
ATOM     18  C   UNL     1      31.463   9.781  41.308  1.00  0.00     0.000 C 
BRANCH  18  19
ATOM     19  C   UNL     1      30.095   9.100  41.470  1.00  0.00     0.000 C 
BRANCH  19  20
ATOM     20  C   UNL     1      30.056   7.696  40.841  1.00  0.00     0.006 C 
BRANCH  20  21
ATOM     21  C   UNL     1      28.923   6.836  41.416  1.00  0.00     0.053 C 
BRANCH  21  22
ATOM     22  C   UNL     1      29.449   5.631  42.134  1.00  0.00     0.041 C 
ATOM     23  O   UNL     1      30.675   5.345  42.079  1.00  0.00    -0.550 OA
ATOM     24  O   UNL     1      28.591   4.841  42.887  1.00  0.00    -0.550 OA
ENDBRANCH  21  22
ENDBRANCH  20  21
ENDBRANCH  19  20
ENDBRANCH  18  19
ENDBRANCH  17  18
ENDBRANCH  16  17
ENDBRANCH  15  16
ENDBRANCH  14  15
ENDBRANCH  13  14
ENDBRANCH   1  13
TORSDOF 20
ENDMDL
MODEL 2
REMARK VINA RESULT:    12.101      2.918      4.819
REMARK INTER + INTRA:          25.109
REMARK INTER:                  26.622
REMARK INTRA:                  -1.513
REMARK UNBOUND:                -1.141
REMARK SMILES CCCCCCCCCCCCCCCCCCCCCC(=O)[O-]
REMARK SMILES IDX 12 1 11 2 10 3 9 4 8 5 7 6 6 7 5 8 4 9 3 10 2 11 1 12 13 13
REMARK SMILES IDX 14 14 15 15 16 16 17 17 18 18 19 19 20 20 21 21 22 22 23 23
REMARK SMILES IDX 24 24
REMARK H PARENT
REMARK Flexibility Score: inf
ROOT
ATOM      1  C   UNL     1      32.535   9.892  40.742  1.00  0.00     0.000 C 
ENDROOT
BRANCH   1   2
ATOM      2  C   UNL     1      32.575  11.384  41.118  1.00  0.00     0.000 C 
BRANCH   2   3
ATOM      3  C   UNL     1      33.056  12.331  39.999  1.00  0.00     0.000 C 
BRANCH   3   4
ATOM      4  C   UNL     1      34.463  12.926  40.203  1.00  0.00    -0.000 C 
BRANCH   4   5
ATOM      5  C   UNL     1      35.295  12.272  41.325  1.00  0.00    -0.000 C 
BRANCH   5   6
ATOM      6  C   UNL     1      35.261  13.012  42.676  1.00  0.00    -0.000 C 
BRANCH   6   7
ATOM      7  C   UNL     1      36.598  13.654  43.090  1.00  0.00    -0.000 C 
BRANCH   7   8
ATOM      8  C   UNL     1      36.450  15.098  43.624  1.00  0.00    -0.000 C 
BRANCH   8   9
ATOM      9  C   UNL     1      34.991  15.581  43.698  1.00  0.00    -0.000 C 
BRANCH   9  10
ATOM     10  C   UNL     1      34.886  17.045  44.162  1.00  0.00    -0.000 C 
BRANCH  10  11
ATOM     11  C   UNL     1      35.717  17.998  43.289  1.00  0.00    -0.003 C 
ATOM     12  C   UNL     1      35.400  19.469  43.551  1.00  0.00     0.004 C 
ENDBRANCH  10  11
ENDBRANCH   9  10
ENDBRANCH   8   9
ENDBRANCH   7   8
ENDBRANCH   6   7
ENDBRANCH   5   6
ENDBRANCH   4   5
ENDBRANCH   3   4
ENDBRANCH   2   3
ENDBRANCH   1   2
BRANCH   1  13
ATOM     13  C   UNL     1      33.291   9.582  39.440  1.00  0.00     0.000 C 
BRANCH  13  14
ATOM     14  C   UNL     1      34.594   8.793  39.673  1.00  0.00     0.000 C 
BRANCH  14  15
ATOM     15  C   UNL     1      34.884   8.418  41.138  1.00  0.00     0.000 C 
BRANCH  15  16
ATOM     16  C   UNL     1      35.755   7.158  41.275  1.00  0.00     0.000 C 
BRANCH  16  17
ATOM     17  C   UNL     1      34.925   5.900  41.582  1.00  0.00     0.000 C 
BRANCH  17  18
ATOM     18  C   UNL     1      33.577   5.881  40.840  1.00  0.00     0.000 C 
BRANCH  18  19
ATOM     19  C   UNL     1      32.663   4.735  41.304  1.00  0.00     0.000 C 
BRANCH  19  20
ATOM     20  C   UNL     1      31.181   4.994  40.980  1.00  0.00     0.006 C 
BRANCH  20  21
ATOM     21  C   UNL     1      30.328   5.137  42.247  1.00  0.00     0.053 C 
BRANCH  21  22
ATOM     22  C   UNL     1      29.126   5.999  42.014  1.00  0.00     0.041 C 
ATOM     23  O   UNL     1      27.974   5.571  42.294  1.00  0.00    -0.550 OA
ATOM     24  O   UNL     1      29.279   7.286  41.514  1.00  0.00    -0.550 OA
ENDBRANCH  21  22
ENDBRANCH  20  21
ENDBRANCH  19  20
ENDBRANCH  18  19
ENDBRANCH  17  18
ENDBRANCH  16  17
ENDBRANCH  15  16
ENDBRANCH  14  15
ENDBRANCH  13  14
ENDBRANCH   1  13
TORSDOF 20
ENDMDL
MODEL 3
REMARK VINA RESULT:    12.190      1.587      2.377
REMARK INTER + INTRA:          25.302
REMARK INTER:                  26.369
REMARK INTRA:                  -1.067
REMARK UNBOUND:                -1.141
REMARK SMILES CCCCCCCCCCCCCCCCCCCCCC(=O)[O-]
REMARK SMILES IDX 12 1 11 2 10 3 9 4 8 5 7 6 6 7 5 8 4 9 3 10 2 11 1 12 13 13
REMARK SMILES IDX 14 14 15 15 16 16 17 17 18 18 19 19 20 20 21 21 22 22 23 23
REMARK SMILES IDX 24 24
REMARK H PARENT
REMARK Flexibility Score: inf
ROOT
ATOM      1  C   UNL     1      34.443  12.364  40.471  1.00  0.00     0.000 C 
ENDROOT
BRANCH   1   2
ATOM      2  C   UNL     1      35.520  13.119  41.272  1.00  0.00     0.000 C 
BRANCH   2   3
ATOM      3  C   UNL     1      35.133  13.472  42.723  1.00  0.00     0.000 C 
BRANCH   3   4
ATOM      4  C   UNL     1      35.958  14.606  43.363  1.00  0.00    -0.000 C 
BRANCH   4   5
ATOM      5  C   UNL     1      35.257  15.979  43.414  1.00  0.00    -0.000 C 
BRANCH   5   6
ATOM      6  C   UNL     1      34.056  16.131  42.462  1.00  0.00    -0.000 C 
BRANCH   6   7
ATOM      7  C   UNL     1      34.024  17.453  41.673  1.00  0.00    -0.000 C 
BRANCH   7   8
ATOM      8  C   UNL     1      33.962  17.255  40.141  1.00  0.00    -0.000 C 
BRANCH   8   9
ATOM      9  C   UNL     1      33.022  18.243  39.429  1.00  0.00    -0.000 C 
BRANCH   9  10
ATOM     10  C   UNL     1      32.577  17.732  38.047  1.00  0.00    -0.000 C 
BRANCH  10  11
ATOM     11  C   UNL     1      31.284  18.403  37.560  1.00  0.00    -0.003 C 
ATOM     12  C   UNL     1      31.056  19.776  38.189  1.00  0.00     0.004 C 
ENDBRANCH  10  11
ENDBRANCH   9  10
ENDBRANCH   8   9
ENDBRANCH   7   8
ENDBRANCH   6   7
ENDBRANCH   5   6
ENDBRANCH   4   5
ENDBRANCH   3   4
ENDBRANCH   2   3
ENDBRANCH   1   2
BRANCH   1  13
ATOM     13  C   UNL     1      33.596  11.424  41.346  1.00  0.00     0.000 C 
BRANCH  13  14
ATOM     14  C   UNL     1      32.618  10.560  40.529  1.00  0.00     0.000 C 
BRANCH  14  15
ATOM     15  C   UNL     1      33.273   9.540  39.579  1.00  0.00     0.000 C 
BRANCH  15  16
ATOM     16  C   UNL     1      34.277   8.617  40.290  1.00  0.00     0.000 C 
BRANCH  16  17
ATOM     17  C   UNL     1      34.154   7.152  39.836  1.00  0.00     0.000 C 
BRANCH  17  18
ATOM     18  C   UNL     1      34.045   6.171  41.017  1.00  0.00     0.000 C 
BRANCH  18  19
ATOM     19  C   UNL     1      32.875   5.186  40.861  1.00  0.00     0.000 C 
BRANCH  19  20
ATOM     20  C   UNL     1      31.775   5.405  41.913  1.00  0.00     0.006 C 
BRANCH  20  21
ATOM     21  C   UNL     1      30.392   4.980  41.401  1.00  0.00     0.053 C 
BRANCH  21  22
ATOM     22  C   UNL     1      29.304   5.846  41.956  1.00  0.00     0.041 C 
ATOM     23  O   UNL     1      28.416   5.351  42.701  1.00  0.00    -0.550 OA
ATOM     24  O   UNL     1      29.285   7.206  41.674  1.00  0.00    -0.550 OA
ENDBRANCH  21  22
ENDBRANCH  20  21
ENDBRANCH  19  20
ENDBRANCH  18  19
ENDBRANCH  17  18
ENDBRANCH  16  17
ENDBRANCH  15  16
ENDBRANCH  14  15
ENDBRANCH  13  14
ENDBRANCH   1  13
TORSDOF 20
ENDMDL
MODEL 4
REMARK VINA RESULT:    12.445      4.130      9.782
REMARK INTER + INTRA:          25.853
REMARK INTER:                  27.089
REMARK INTRA:                  -1.235
REMARK UNBOUND:                -1.141
REMARK SMILES CCCCCCCCCCCCCCCCCCCCCC(=O)[O-]
REMARK SMILES IDX 12 1 11 2 10 3 9 4 8 5 7 6 6 7 5 8 4 9 3 10 2 11 1 12 13 13
REMARK SMILES IDX 14 14 15 15 16 16 17 17 18 18 19 19 20 20 21 21 22 22 23 23
REMARK SMILES IDX 24 24
REMARK H PARENT
REMARK Flexibility Score: inf
ROOT
ATOM      1  C   UNL     1      35.451  13.121  42.280  1.00  0.00     0.000 C 
ENDROOT
BRANCH   1   2
ATOM      2  C   UNL     1      35.123  13.402  40.802  1.00  0.00     0.000 C 
BRANCH   2   3
ATOM      3  C   UNL     1      33.833  12.739  40.277  1.00  0.00     0.000 C 
BRANCH   3   4
ATOM      4  C   UNL     1      33.463  11.402  40.950  1.00  0.00    -0.000 C 
BRANCH   4   5
ATOM      5  C   UNL     1      34.108  10.150  40.319  1.00  0.00    -0.000 C 
BRANCH   5   6
ATOM      6  C   UNL     1      33.111   9.122  39.752  1.00  0.00    -0.000 C 
BRANCH   6   7
ATOM      7  C   UNL     1      31.658   9.304  40.229  1.00  0.00    -0.000 C 
BRANCH   7   8
ATOM      8  C   UNL     1      31.091   8.069  40.966  1.00  0.00    -0.000 C 
BRANCH   8   9
ATOM      9  C   UNL     1      29.587   8.170  41.272  1.00  0.00    -0.000 C 
BRANCH   9  10
ATOM     10  C   UNL     1      28.865   6.821  41.102  1.00  0.00    -0.000 C 
BRANCH  10  11
ATOM     11  C   UNL     1      29.172   5.843  42.246  1.00  0.00    -0.003 C 
ATOM     12  C   UNL     1      30.437   5.022  42.001  1.00  0.00     0.004 C 
ENDBRANCH  10  11
ENDBRANCH   9  10
ENDBRANCH   8   9
ENDBRANCH   7   8
ENDBRANCH   6   7
ENDBRANCH   5   6
ENDBRANCH   4   5
ENDBRANCH   3   4
ENDBRANCH   2   3
ENDBRANCH   1   2
BRANCH   1  13
ATOM     13  C   UNL     1      36.822  13.673  42.704  1.00  0.00     0.000 C 
BRANCH  13  14
ATOM     14  C   UNL     1      36.744  14.606  43.928  1.00  0.00     0.000 C 
BRANCH  14  15
ATOM     15  C   UNL     1      35.396  15.323  44.124  1.00  0.00     0.000 C 
BRANCH  15  16
ATOM     16  C   UNL     1      35.265  16.599  43.275  1.00  0.00     0.000 C 
BRANCH  16  17
ATOM     17  C   UNL     1      33.988  16.608  42.418  1.00  0.00     0.000 C 
BRANCH  17  18
ATOM     18  C   UNL     1      34.026  17.671  41.305  1.00  0.00     0.000 C 
BRANCH  18  19
ATOM     19  C   UNL     1      33.701  17.088  39.920  1.00  0.00     0.000 C 
BRANCH  19  20
ATOM     20  C   UNL     1      33.591  18.172  38.834  1.00  0.00     0.006 C 
BRANCH  20  21
ATOM     21  C   UNL     1      32.233  18.885  38.865  1.00  0.00     0.053 C 
BRANCH  21  22
ATOM     22  C   UNL     1      31.412  18.573  37.652  1.00  0.00     0.041 C 
ATOM     23  O   UNL     1      31.500  17.443  37.100  1.00  0.00    -0.550 OA
ATOM     24  O   UNL     1      30.530  19.518  37.147  1.00  0.00    -0.550 OA
ENDBRANCH  21  22
ENDBRANCH  20  21
ENDBRANCH  19  20
ENDBRANCH  18  19
ENDBRANCH  17  18
ENDBRANCH  16  17
ENDBRANCH  15  16
ENDBRANCH  14  15
ENDBRANCH  13  14
ENDBRANCH   1  13
TORSDOF 20
ENDMDL
MODEL 5
REMARK VINA RESULT:    12.705      4.383      9.603
REMARK INTER + INTRA:          26.418
REMARK INTER:                  27.637
REMARK INTRA:                  -1.219
REMARK UNBOUND:                -1.141
REMARK SMILES CCCCCCCCCCCCCCCCCCCCCC(=O)[O-]
REMARK SMILES IDX 12 1 11 2 10 3 9 4 8 5 7 6 6 7 5 8 4 9 3 10 2 11 1 12 13 13
REMARK SMILES IDX 14 14 15 15 16 16 17 17 18 18 19 19 20 20 21 21 22 22 23 23
REMARK SMILES IDX 24 24
REMARK H PARENT
REMARK Flexibility Score: inf
ROOT
ATOM      1  C   UNL     1      35.111  13.625  42.439  1.00  0.00     0.000 C 
ENDROOT
BRANCH   1   2
ATOM      2  C   UNL     1      35.569  12.909  41.156  1.00  0.00     0.000 C 
BRANCH   2   3
ATOM      3  C   UNL     1      34.517  12.840  40.030  1.00  0.00     0.000 C 
BRANCH   3   4
ATOM      4  C   UNL     1      33.087  12.494  40.490  1.00  0.00    -0.000 C 
BRANCH   4   5
ATOM      5  C   UNL     1      32.986  11.337  41.504  1.00  0.00    -0.000 C 
BRANCH   5   6
ATOM      6  C   UNL     1      32.101  10.157  41.059  1.00  0.00    -0.000 C 
BRANCH   6   7
ATOM      7  C   UNL     1      32.610   9.407  39.814  1.00  0.00    -0.000 C 
BRANCH   7   8
ATOM      8  C   UNL     1      34.137   9.522  39.605  1.00  0.00    -0.000 C 
BRANCH   8   9
ATOM      9  C   UNL     1      34.951   8.505  40.424  1.00  0.00    -0.000 C 
BRANCH   9  10
ATOM     10  C   UNL     1      34.240   7.144  40.534  1.00  0.00    -0.000 C 
BRANCH  10  11
ATOM     11  C   UNL     1      35.062   6.115  41.324  1.00  0.00    -0.003 C 
ATOM     12  C   UNL     1      36.168   6.756  42.161  1.00  0.00     0.004 C 
ENDBRANCH  10  11
ENDBRANCH   9  10
ENDBRANCH   8   9
ENDBRANCH   7   8
ENDBRANCH   6   7
ENDBRANCH   5   6
ENDBRANCH   4   5
ENDBRANCH   3   4
ENDBRANCH   2   3
ENDBRANCH   1   2
BRANCH   1  13
ATOM     13  C   UNL     1      36.282  14.029  43.350  1.00  0.00     0.000 C 
BRANCH  13  14
ATOM     14  C   UNL     1      36.007  15.316  44.150  1.00  0.00     0.000 C 
BRANCH  14  15
ATOM     15  C   UNL     1      34.920  16.237  43.564  1.00  0.00     0.000 C 
BRANCH  15  16
ATOM     16  C   UNL     1      35.360  17.708  43.479  1.00  0.00     0.000 C 
BRANCH  16  17
ATOM     17  C   UNL     1      34.882  18.392  42.187  1.00  0.00     0.000 C 
BRANCH  17  18
ATOM     18  C   UNL     1      33.746  17.621  41.492  1.00  0.00     0.000 C 
BRANCH  18  19
ATOM     19  C   UNL     1      34.141  17.119  40.094  1.00  0.00     0.000 C 
BRANCH  19  20
ATOM     20  C   UNL     1      33.715  18.088  38.977  1.00  0.00     0.006 C 
BRANCH  20  21
ATOM     21  C   UNL     1      32.250  18.523  39.116  1.00  0.00     0.053 C 
BRANCH  21  22
ATOM     22  C   UNL     1      31.551  18.554  37.792  1.00  0.00     0.041 C 
ATOM     23  O   UNL     1      31.561  17.540  37.045  1.00  0.00    -0.550 OA
ATOM     24  O   UNL     1      30.866  19.695  37.395  1.00  0.00    -0.550 OA
ENDBRANCH  21  22
ENDBRANCH  20  21
ENDBRANCH  19  20
ENDBRANCH  18  19
ENDBRANCH  17  18
ENDBRANCH  16  17
ENDBRANCH  15  16
ENDBRANCH  14  15
ENDBRANCH  13  14
ENDBRANCH   1  13
TORSDOF 20
ENDMDL
MODEL 6
REMARK VINA RESULT:    12.755      1.675      3.180
REMARK INTER + INTRA:          26.526
REMARK INTER:                  27.972
REMARK INTRA:                  -1.445
REMARK UNBOUND:                -1.141
REMARK SMILES CCCCCCCCCCCCCCCCCCCCCC(=O)[O-]
REMARK SMILES IDX 12 1 11 2 10 3 9 4 8 5 7 6 6 7 5 8 4 9 3 10 2 11 1 12 13 13
REMARK SMILES IDX 14 14 15 15 16 16 17 17 18 18 19 19 20 20 21 21 22 22 23 23
REMARK SMILES IDX 24 24
REMARK H PARENT
REMARK Flexibility Score: inf
ROOT
ATOM      1  C   UNL     1      33.077  12.136  40.006  1.00  0.00     0.000 C 
ENDROOT
BRANCH   1   2
ATOM      2  C   UNL     1      34.419  12.868  40.192  1.00  0.00     0.000 C 
BRANCH   2   3
ATOM      3  C   UNL     1      35.248  12.420  41.413  1.00  0.00     0.000 C 
BRANCH   3   4
ATOM      4  C   UNL     1      35.123  13.322  42.657  1.00  0.00    -0.000 C 
BRANCH   4   5
ATOM      5  C   UNL     1      36.424  14.030  43.087  1.00  0.00    -0.000 C 
BRANCH   5   6
ATOM      6  C   UNL     1      36.225  15.397  43.769  1.00  0.00    -0.000 C 
BRANCH   6   7
ATOM      7  C   UNL     1      34.762  15.870  43.845  1.00  0.00    -0.000 C 
BRANCH   7   8
ATOM      8  C   UNL     1      34.456  17.079  42.932  1.00  0.00    -0.000 C 
BRANCH   8   9
ATOM      9  C   UNL     1      34.240  16.699  41.456  1.00  0.00    -0.000 C 
BRANCH   9  10
ATOM     10  C   UNL     1      33.774  17.895  40.608  1.00  0.00    -0.000 C 
BRANCH  10  11
ATOM     11  C   UNL     1      33.449  17.497  39.160  1.00  0.00    -0.003 C 
ATOM     12  C   UNL     1      32.454  18.446  38.495  1.00  0.00     0.004 C 
ENDBRANCH  10  11
ENDBRANCH   9  10
ENDBRANCH   8   9
ENDBRANCH   7   8
ENDBRANCH   6   7
ENDBRANCH   5   6
ENDBRANCH   4   5
ENDBRANCH   3   4
ENDBRANCH   2   3
ENDBRANCH   1   2
BRANCH   1  13
ATOM     13  C   UNL     1      32.970  10.858  40.854  1.00  0.00     0.000 C 
BRANCH  13  14
ATOM     14  C   UNL     1      32.750   9.590  40.007  1.00  0.00     0.000 C 
BRANCH  14  15
ATOM     15  C   UNL     1      34.032   8.866  39.558  1.00  0.00     0.000 C 
BRANCH  15  16
ATOM     16  C   UNL     1      34.542   7.849  40.593  1.00  0.00     0.000 C 
BRANCH  16  17
ATOM     17  C   UNL     1      34.115   6.409  40.262  1.00  0.00     0.000 C 
BRANCH  17  18
ATOM     18  C   UNL     1      33.264   5.770  41.374  1.00  0.00     0.000 C 
BRANCH  18  19
ATOM     19  C   UNL     1      32.533   4.502  40.904  1.00  0.00     0.000 C 
BRANCH  19  20
ATOM     20  C   UNL     1      31.010   4.591  41.101  1.00  0.00     0.006 C 
BRANCH  20  21
ATOM     21  C   UNL     1      30.620   5.683  42.106  1.00  0.00     0.053 C 
BRANCH  21  22
ATOM     22  C   UNL     1      29.184   6.084  41.961  1.00  0.00     0.041 C 
ATOM     23  O   UNL     1      28.885   7.246  41.577  1.00  0.00    -0.550 OA
ATOM     24  O   UNL     1      28.176   5.165  42.222  1.00  0.00    -0.550 OA
ENDBRANCH  21  22
ENDBRANCH  20  21
ENDBRANCH  19  20
ENDBRANCH  18  19
ENDBRANCH  17  18
ENDBRANCH  16  17
ENDBRANCH  15  16
ENDBRANCH  14  15
ENDBRANCH  13  14
ENDBRANCH   1  13
TORSDOF 20
ENDMDL
MODEL 7
REMARK VINA RESULT:    12.961      2.857      3.767
REMARK INTER + INTRA:          26.973
REMARK INTER:                  27.953
REMARK INTRA:                  -0.980
REMARK UNBOUND:                -1.141
REMARK SMILES CCCCCCCCCCCCCCCCCCCCCC(=O)[O-]
REMARK SMILES IDX 12 1 11 2 10 3 9 4 8 5 7 6 6 7 5 8 4 9 3 10 2 11 1 12 13 13
REMARK SMILES IDX 14 14 15 15 16 16 17 17 18 18 19 19 20 20 21 21 22 22 23 23
REMARK SMILES IDX 24 24
REMARK H PARENT
REMARK Flexibility Score: inf
ROOT
ATOM      1  C   UNL     1      35.026  15.369  43.639  1.00  0.00     0.000 C 
ENDROOT
BRANCH   1   2
ATOM      2  C   UNL     1      34.839  16.721  44.351  1.00  0.00     0.000 C 
BRANCH   2   3
ATOM      3  C   UNL     1      35.946  17.762  44.087  1.00  0.00     0.000 C 
BRANCH   3   4
ATOM      4  C   UNL     1      35.486  19.035  43.350  1.00  0.00    -0.000 C 
BRANCH   4   5
ATOM      5  C   UNL     1      35.241  18.865  41.837  1.00  0.00    -0.000 C 
BRANCH   5   6
ATOM      6  C   UNL     1      34.046  17.966  41.468  1.00  0.00    -0.000 C 
BRANCH   6   7
ATOM      7  C   UNL     1      34.085  17.399  40.038  1.00  0.00    -0.000 C 
BRANCH   7   8
ATOM      8  C   UNL     1      32.735  17.512  39.292  1.00  0.00    -0.000 C 
BRANCH   8   9
ATOM      9  C   UNL     1      32.839  18.230  37.935  1.00  0.00    -0.000 C 
BRANCH   9  10
ATOM     10  C   UNL     1      31.574  18.041  37.077  1.00  0.00    -0.000 C 
BRANCH  10  11
ATOM     11  C   UNL     1      30.535  19.148  37.311  1.00  0.00    -0.003 C 
ATOM     12  C   UNL     1      31.062  20.278  38.194  1.00  0.00     0.004 C 
ENDBRANCH  10  11
ENDBRANCH   9  10
ENDBRANCH   8   9
ENDBRANCH   7   8
ENDBRANCH   6   7
ENDBRANCH   5   6
ENDBRANCH   4   5
ENDBRANCH   3   4
ENDBRANCH   2   3
ENDBRANCH   1   2
BRANCH   1  13
ATOM     13  C   UNL     1      36.478  14.866  43.681  1.00  0.00     0.000 C 
BRANCH  13  14
ATOM     14  C   UNL     1      36.655  13.481  43.030  1.00  0.00     0.000 C 
BRANCH  14  15
ATOM     15  C   UNL     1      35.394  12.899  42.365  1.00  0.00     0.000 C 
BRANCH  15  16
ATOM     16  C   UNL     1      35.491  12.852  40.831  1.00  0.00     0.000 C 
BRANCH  16  17
ATOM     17  C   UNL     1      34.262  13.471  40.144  1.00  0.00     0.000 C 
BRANCH  17  18
ATOM     18  C   UNL     1      33.114  12.463  39.959  1.00  0.00     0.000 C 
BRANCH  18  19
ATOM     19  C   UNL     1      32.584  11.919  41.296  1.00  0.00     0.000 C 
BRANCH  19  20
ATOM     20  C   UNL     1      32.604  10.382  41.357  1.00  0.00     0.006 C 
BRANCH  20  21
ATOM     21  C   UNL     1      32.682   9.748  39.962  1.00  0.00     0.053 C 
BRANCH  21  22
ATOM     22  C   UNL     1      34.077   9.318  39.624  1.00  0.00     0.041 C 
ATOM     23  O   UNL     1      35.013   9.497  40.447  1.00  0.00    -0.550 OA
ATOM     24  O   UNL     1      34.337   8.693  38.411  1.00  0.00    -0.550 OA
ENDBRANCH  21  22
ENDBRANCH  20  21
ENDBRANCH  19  20
ENDBRANCH  18  19
ENDBRANCH  17  18
ENDBRANCH  16  17
ENDBRANCH  15  16
ENDBRANCH  14  15
ENDBRANCH  13  14
ENDBRANCH   1  13
TORSDOF 20
ENDMDL
MODEL 8
REMARK VINA RESULT:    13.169      4.681     10.123
REMARK INTER + INTRA:          27.425
REMARK INTER:                  28.575
REMARK INTRA:                  -1.149
REMARK UNBOUND:                -1.141
REMARK SMILES CCCCCCCCCCCCCCCCCCCCCC(=O)[O-]
REMARK SMILES IDX 12 1 11 2 10 3 9 4 8 5 7 6 6 7 5 8 4 9 3 10 2 11 1 12 13 13
REMARK SMILES IDX 14 14 15 15 16 16 17 17 18 18 19 19 20 20 21 21 22 22 23 23
REMARK SMILES IDX 24 24
REMARK H PARENT
REMARK Flexibility Score: inf
ROOT
ATOM      1  C   UNL     1      32.480   9.850  39.987  1.00  0.00     0.000 C 
ENDROOT
BRANCH   1   2
ATOM      2  C   UNL     1      33.685   9.117  39.369  1.00  0.00     0.000 C 
BRANCH   2   3
ATOM      3  C   UNL     1      34.973   9.137  40.218  1.00  0.00     0.000 C 
BRANCH   3   4
ATOM      4  C   UNL     1      34.927   8.281  41.499  1.00  0.00    -0.000 C 
BRANCH   4   5
ATOM      5  C   UNL     1      35.764   6.987  41.453  1.00  0.00    -0.000 C 
BRANCH   5   6
ATOM      6  C   UNL     1      34.945   5.684  41.389  1.00  0.00    -0.000 C 
BRANCH   6   7
ATOM      7  C   UNL     1      33.438   5.884  41.142  1.00  0.00    -0.000 C 
BRANCH   7   8
ATOM      8  C   UNL     1      32.697   4.581  40.762  1.00  0.00    -0.000 C 
BRANCH   8   9
ATOM      9  C   UNL     1      31.208   4.583  41.149  1.00  0.00    -0.000 C 
BRANCH   9  10
ATOM     10  C   UNL     1      30.820   5.829  41.966  1.00  0.00    -0.000 C 
BRANCH  10  11
ATOM     11  C   UNL     1      29.342   6.210  41.789  1.00  0.00    -0.003 C 
ATOM     12  C   UNL     1      28.396   5.278  42.542  1.00  0.00     0.004 C 
ENDBRANCH  10  11
ENDBRANCH   9  10
ENDBRANCH   8   9
ENDBRANCH   7   8
ENDBRANCH   6   7
ENDBRANCH   5   6
ENDBRANCH   4   5
ENDBRANCH   3   4
ENDBRANCH   2   3
ENDBRANCH   1   2
BRANCH   1  13
ATOM     13  C   UNL     1      32.810  10.513  41.335  1.00  0.00     0.000 C 
BRANCH  13  14
ATOM     14  C   UNL     1      32.833  12.051  41.261  1.00  0.00     0.000 C 
BRANCH  14  15
ATOM     15  C   UNL     1      33.429  12.640  39.969  1.00  0.00     0.000 C 
BRANCH  15  16
ATOM     16  C   UNL     1      34.846  13.206  40.164  1.00  0.00     0.000 C 
BRANCH  16  17
ATOM     17  C   UNL     1      35.586  12.548  41.342  1.00  0.00     0.000 C 
BRANCH  17  18
ATOM     18  C   UNL     1      35.380  13.301  42.668  1.00  0.00     0.000 C 
BRANCH  18  19
ATOM     19  C   UNL     1      36.662  13.992  43.160  1.00  0.00     0.000 C 
BRANCH  19  20
ATOM     20  C   UNL     1      36.374  15.308  43.904  1.00  0.00     0.006 C 
BRANCH  20  21
ATOM     21  C   UNL     1      34.926  15.777  43.711  1.00  0.00     0.053 C 
BRANCH  21  22
ATOM     22  C   UNL     1      34.861  17.179  43.186  1.00  0.00     0.041 C 
ATOM     23  O   UNL     1      34.018  17.486  42.301  1.00  0.00    -0.550 OA
ATOM     24  O   UNL     1      35.712  18.151  43.694  1.00  0.00    -0.550 OA
ENDBRANCH  21  22
ENDBRANCH  20  21
ENDBRANCH  19  20
ENDBRANCH  18  19
ENDBRANCH  17  18
ENDBRANCH  16  17
ENDBRANCH  15  16
ENDBRANCH  14  15
ENDBRANCH  13  14
ENDBRANCH   1  13
TORSDOF 20
ENDMDL
MODEL 9
REMARK VINA RESULT:    13.270      4.284     10.237
REMARK INTER + INTRA:          27.645
REMARK INTER:                  28.865
REMARK INTRA:                  -1.221
REMARK UNBOUND:                -1.141
REMARK SMILES CCCCCCCCCCCCCCCCCCCCCC(=O)[O-]
REMARK SMILES IDX 12 1 11 2 10 3 9 4 8 5 7 6 6 7 5 8 4 9 3 10 2 11 1 12 13 13
REMARK SMILES IDX 14 14 15 15 16 16 17 17 18 18 19 19 20 20 21 21 22 22 23 23
REMARK SMILES IDX 24 24
REMARK H PARENT
REMARK Flexibility Score: inf
ROOT
ATOM      1  C   UNL     1      34.622  12.994  41.682  1.00  0.00     0.000 C 
ENDROOT
BRANCH   1   2
ATOM      2  C   UNL     1      34.399  11.489  41.451  1.00  0.00     0.000 C 
BRANCH   2   3
ATOM      3  C   UNL     1      32.924  11.044  41.393  1.00  0.00     0.000 C 
BRANCH   3   4
ATOM      4  C   UNL     1      32.591  10.016  40.293  1.00  0.00    -0.000 C 
BRANCH   4   5
ATOM      5  C   UNL     1      33.798   9.531  39.464  1.00  0.00    -0.000 C 
BRANCH   5   6
ATOM      6  C   UNL     1      34.333   8.138  39.849  1.00  0.00    -0.000 C 
BRANCH   6   7
ATOM      7  C   UNL     1      33.398   7.319  40.759  1.00  0.00    -0.000 C 
BRANCH   7   8
ATOM      8  C   UNL     1      33.676   5.799  40.720  1.00  0.00    -0.000 C 
BRANCH   8   9
ATOM      9  C   UNL     1      32.461   4.940  41.111  1.00  0.00    -0.000 C 
BRANCH   9  10
ATOM     10  C   UNL     1      31.296   5.790  41.649  1.00  0.00    -0.000 C 
BRANCH  10  11
ATOM     11  C   UNL     1      30.035   4.954  41.918  1.00  0.00    -0.003 C 
ATOM     12  C   UNL     1      28.805   5.814  42.205  1.00  0.00     0.004 C 
ENDBRANCH  10  11
ENDBRANCH   9  10
ENDBRANCH   8   9
ENDBRANCH   7   8
ENDBRANCH   6   7
ENDBRANCH   5   6
ENDBRANCH   4   5
ENDBRANCH   3   4
ENDBRANCH   2   3
ENDBRANCH   1   2
BRANCH   1  13
ATOM     13  C   UNL     1      36.036  13.318  42.195  1.00  0.00     0.000 C 
BRANCH  13  14
ATOM     14  C   UNL     1      36.035  14.292  43.389  1.00  0.00     0.000 C 
BRANCH  14  15
ATOM     15  C   UNL     1      34.848  15.272  43.440  1.00  0.00     0.000 C 
BRANCH  15  16
ATOM     16  C   UNL     1      35.240  16.663  43.967  1.00  0.00     0.000 C 
BRANCH  16  17
ATOM     17  C   UNL     1      34.977  17.777  42.940  1.00  0.00     0.000 C 
BRANCH  17  18
ATOM     18  C   UNL     1      33.881  17.404  41.925  1.00  0.00     0.000 C 
BRANCH  18  19
ATOM     19  C   UNL     1      34.088  18.076  40.559  1.00  0.00     0.000 C 
BRANCH  19  20
ATOM     20  C   UNL     1      33.382  17.323  39.418  1.00  0.00     0.006 C 
BRANCH  20  21
ATOM     21  C   UNL     1      33.151  18.216  38.191  1.00  0.00     0.053 C 
BRANCH  21  22
ATOM     22  C   UNL     1      31.697  18.513  37.986  1.00  0.00     0.041 C 
ATOM     23  O   UNL     1      31.209  19.603  38.389  1.00  0.00    -0.550 OA
ATOM     24  O   UNL     1      30.888  17.600  37.323  1.00  0.00    -0.550 OA
ENDBRANCH  21  22
ENDBRANCH  20  21
ENDBRANCH  19  20
ENDBRANCH  18  19
ENDBRANCH  17  18
ENDBRANCH  16  17
ENDBRANCH  15  16
ENDBRANCH  14  15
ENDBRANCH  13  14
ENDBRANCH   1  13
TORSDOF 20
ENDMDL
