MODEL 1
REMARK VINA RESULT:    -3.001      0.000      0.000
REMARK INTER + INTRA:          -3.001
REMARK INTER:                  -3.001
REMARK INTRA:                   0.000
REMARK UNBOUND:                 0.000
REMARK SMILES CC(=O)[O-]
REMARK SMILES IDX 1 1 2 2 3 3 4 4
REMARK H PARENT
REMARK Flexibility Score: inf
ROOT
ATOM      1  C   UNL     1      -7.482  -7.621  17.482  1.00  0.00     0.063 C 
ATOM      2  C   UNL     1      -7.474  -7.335  16.019  1.00  0.00     0.038 C 
ATOM      3  O   UNL     1      -6.612  -7.872  15.276  1.00  0.00    -0.550 OA
ATOM      4  O   UNL     1      -8.384  -6.436  15.480  1.00  0.00    -0.550 OA
ENDROOT
TORSDOF 0
ENDMDL
MODEL 2
REMARK VINA RESULT:    -2.986      2.277      2.385
REMARK INTER + INTRA:          -2.986
REMARK INTER:                  -2.986
REMARK INTRA:                   0.000
REMARK UNBOUND:                 0.000
REMARK SMILES CC(=O)[O-]
REMARK SMILES IDX 1 1 2 2 3 3 4 4
REMARK H PARENT
REMARK Flexibility Score: inf
ROOT
ATOM      1  C   UNL     1      -7.472  -7.262  17.977  1.00  0.00     0.063 C 
ATOM      2  C   UNL     1      -6.238  -6.592  17.476  1.00  0.00     0.038 C 
ATOM      3  O   UNL     1      -5.636  -7.048  16.468  1.00  0.00    -0.550 OA
ATOM      4  O   UNL     1      -5.718  -5.495  18.150  1.00  0.00    -0.550 OA
ENDROOT
TORSDOF 0
ENDMDL
MODEL 3
REMARK VINA RESULT:    -2.978      2.403      2.796
REMARK INTER + INTRA:          -2.978
REMARK INTER:                  -2.978
REMARK INTRA:                   0.000
REMARK UNBOUND:                 0.000
REMARK SMILES CC(=O)[O-]
REMARK SMILES IDX 1 1 2 2 3 3 4 4
REMARK H PARENT
REMARK Flexibility Score: inf
ROOT
ATOM      1  C   UNL     1      -8.276  -6.959  17.613  1.00  0.00     0.063 C 
ATOM      2  C   UNL     1      -8.220  -5.517  17.240  1.00  0.00     0.038 C 
ATOM      3  O   UNL     1      -9.061  -5.040  16.435  1.00  0.00    -0.550 OA
ATOM      4  O   UNL     1      -7.208  -4.708  17.738  1.00  0.00    -0.550 OA
ENDROOT
TORSDOF 0
ENDMDL
MODEL 4
REMARK VINA RESULT:    -2.974      2.218      2.595
REMARK INTER + INTRA:          -2.974
REMARK INTER:                  -2.974
REMARK INTRA:                   0.000
REMARK UNBOUND:                 0.000
REMARK SMILES CC(=O)[O-]
REMARK SMILES IDX 1 1 2 2 3 3 4 4
REMARK H PARENT
REMARK Flexibility Score: inf
ROOT
ATOM      1  C   UNL     1      -7.400  -7.292  17.944  1.00  0.00     0.063 C 
ATOM      2  C   UNL     1      -6.202  -6.565  17.435  1.00  0.00     0.038 C 
ATOM      3  O   UNL     1      -5.760  -5.563  18.056  1.00  0.00    -0.550 OA
ATOM      4  O   UNL     1      -5.602  -6.957  16.246  1.00  0.00    -0.550 OA
ENDROOT
TORSDOF 0
ENDMDL
MODEL 5
REMARK VINA RESULT:    -2.942      0.990      1.720
REMARK INTER + INTRA:          -2.942
REMARK INTER:                  -2.942
REMARK INTRA:                   0.000
REMARK UNBOUND:                 0.000
REMARK SMILES CC(=O)[O-]
REMARK SMILES IDX 1 1 2 2 3 3 4 4
REMARK H PARENT
REMARK Flexibility Score: inf
ROOT
ATOM      1  C   UNL     1      -6.447  -7.330  17.727  1.00  0.00     0.063 C 
ATOM      2  C   UNL     1      -7.256  -7.537  16.492  1.00  0.00     0.038 C 
ATOM      3  O   UNL     1      -8.514  -7.537  16.554  1.00  0.00    -0.550 OA
ATOM      4  O   UNL     1      -6.626  -7.784  15.280  1.00  0.00    -0.550 OA
ENDROOT
TORSDOF 0
ENDMDL
MODEL 6
REMARK VINA RESULT:    -2.938      0.421      1.667
REMARK INTER + INTRA:          -2.938
REMARK INTER:                  -2.938
REMARK INTRA:                   0.000
REMARK UNBOUND:                 0.000
REMARK SMILES CC(=O)[O-]
REMARK SMILES IDX 1 1 2 2 3 3 4 4
REMARK H PARENT
REMARK Flexibility Score: inf
ROOT
ATOM      1  C   UNL     1      -8.056  -7.298  17.373  1.00  0.00     0.063 C 
ATOM      2  C   UNL     1      -7.726  -7.049  15.941  1.00  0.00     0.038 C 
ATOM      3  O   UNL     1      -8.400  -6.224  15.271  1.00  0.00    -0.550 OA
ATOM      4  O   UNL     1      -6.708  -7.767  15.326  1.00  0.00    -0.550 OA
ENDROOT
TORSDOF 0
ENDMDL
MODEL 7
REMARK VINA RESULT:    -2.917      2.449      2.568
REMARK INTER + INTRA:          -2.917
REMARK INTER:                  -2.917
REMARK INTRA:                   0.000
REMARK UNBOUND:                 0.000
REMARK SMILES CC(=O)[O-]
REMARK SMILES IDX 1 1 2 2 3 3 4 4
REMARK H PARENT
REMARK Flexibility Score: inf
ROOT
ATOM      1  C   UNL     1      -7.971  -6.802  17.895  1.00  0.00     0.063 C 
ATOM      2  C   UNL     1      -7.956  -5.424  17.324  1.00  0.00     0.038 C 
ATOM      3  O   UNL     1      -7.033  -4.625  17.628  1.00  0.00    -0.550 OA
ATOM      4  O   UNL     1      -8.989  -5.002  16.499  1.00  0.00    -0.550 OA
ENDROOT
TORSDOF 0
ENDMDL
MODEL 8
REMARK VINA RESULT:    -2.881      1.363      1.701
REMARK INTER + INTRA:          -2.881
REMARK INTER:                  -2.881
REMARK INTRA:                   0.000
REMARK UNBOUND:                 0.000
REMARK SMILES CC(=O)[O-]
REMARK SMILES IDX 1 1 2 2 3 3 4 4
REMARK H PARENT
REMARK Flexibility Score: inf
ROOT
ATOM      1  C   UNL     1      -8.397  -7.140  17.167  1.00  0.00     0.063 C 
ATOM      2  C   UNL     1      -7.009  -7.405  16.690  1.00  0.00     0.038 C 
ATOM      3  O   UNL     1      -6.040  -7.315  17.488  1.00  0.00    -0.550 OA
ATOM      4  O   UNL     1      -6.776  -7.699  15.353  1.00  0.00    -0.550 OA
ENDROOT
TORSDOF 0
ENDMDL
MODEL 9
REMARK VINA RESULT:    -2.783      0.997      0.997
REMARK INTER + INTRA:          -2.783
REMARK INTER:                  -2.783
REMARK INTRA:                   0.000
REMARK UNBOUND:                 0.000
REMARK SMILES CC(=O)[O-]
REMARK SMILES IDX 1 1 2 2 3 3 4 4
REMARK H PARENT
REMARK Flexibility Score: inf
ROOT
ATOM      1  C   UNL     1      -6.372  -6.871  17.388  1.00  0.00     0.063 C 
ATOM      2  C   UNL     1      -7.161  -7.461  16.269  1.00  0.00     0.038 C 
ATOM      3  O   UNL     1      -6.578  -7.853  15.224  1.00  0.00    -0.550 OA
ATOM      4  O   UNL     1      -8.545  -7.532  16.354  1.00  0.00    -0.550 OA
ENDROOT
TORSDOF 0
ENDMDL
