MODEL 1
REMARK VINA RESULT:    -3.166      0.000      0.000
REMARK INTER + INTRA:          -3.572
REMARK INTER:                  -3.444
REMARK INTRA:                  -0.128
REMARK UNBOUND:                -0.128
REMARK SMILES C=C(C)[C@H]1CC[C@H](C)C[C@@H]1O
REMARK SMILES IDX 8 1 7 2 6 3 5 4 4 5 10 6 9 7 11 8 2 10 1 11 3 12
REMARK H PARENT 11 9
REMARK Flexibility Score: inf
ROOT
ATOM      1  C   UNL     1     -19.125 -12.229  12.742  1.00  0.00     0.008 C 
ATOM      2  C   UNL     1     -19.109 -13.156  11.522  1.00  0.00    -0.012 C 
ATOM      3  C   UNL     1     -17.915 -12.821  10.607  1.00  0.00     0.004 C 
ATOM      4  C   UNL     1     -17.878 -13.753   9.390  1.00  0.00     0.011 C 
ATOM      5  C   UNL     1     -17.828 -15.231   9.827  1.00  0.00     0.043 C 
ATOM      6  C   UNL     1     -19.023 -15.576  10.747  1.00  0.00     0.121 C 
ATOM      7  C   UNL     1     -19.054 -14.631  11.963  1.00  0.00     0.035 C 
ENDROOT
BRANCH   6   8
ATOM      8  O   UNL     1     -18.902 -16.904  11.189  1.00  0.00    -0.392 OA
ATOM      9  H   UNL     1     -18.320 -17.372  10.535  1.00  0.00     0.210 HD
ENDBRANCH   6   8
BRANCH   5  10
ATOM     10  C   UNL     1     -17.763 -16.157   8.617  1.00  0.00    -0.075 C 
ATOM     11  C   UNL     1     -18.855 -16.416   7.876  1.00  0.00     0.008 C 
ATOM     12  C   UNL     1     -16.459 -16.804   8.230  1.00  0.00     0.039 C 
ENDBRANCH   5  10
TORSDOF 2
ENDMDL
MODEL 2
REMARK VINA RESULT:    -3.064      1.719      2.313
REMARK INTER + INTRA:          -3.460
REMARK INTER:                  -3.314
REMARK INTRA:                  -0.146
REMARK UNBOUND:                -0.128
REMARK SMILES C=C(C)[C@H]1CC[C@H](C)C[C@@H]1O
REMARK SMILES IDX 8 1 7 2 6 3 5 4 4 5 10 6 9 7 11 8 2 10 1 11 3 12
REMARK H PARENT 11 9
REMARK Flexibility Score: inf
ROOT
ATOM      1  C   UNL     1     -19.125 -12.111  12.284  1.00  0.00     0.008 C 
ATOM      2  C   UNL     1     -18.259 -13.158  11.577  1.00  0.00    -0.012 C 
ATOM      3  C   UNL     1     -18.936 -14.541  11.626  1.00  0.00     0.004 C 
ATOM      4  C   UNL     1     -18.086 -15.595  10.907  1.00  0.00     0.011 C 
ATOM      5  C   UNL     1     -17.810 -15.180   9.448  1.00  0.00     0.043 C 
ATOM      6  C   UNL     1     -17.130 -13.791   9.387  1.00  0.00     0.121 C 
ATOM      7  C   UNL     1     -17.989 -12.742  10.118  1.00  0.00     0.035 C 
ENDROOT
BRANCH   6   8
ATOM      8  O   UNL     1     -16.966 -13.410   8.045  1.00  0.00    -0.392 OA
ATOM      9  H   UNL     1     -16.793 -14.242   7.531  1.00  0.00     0.210 HD
ENDBRANCH   6   8
BRANCH   5  10
ATOM     10  C   UNL     1     -16.988 -16.241   8.723  1.00  0.00    -0.075 C 
ATOM     11  C   UNL     1     -17.565 -17.115   7.881  1.00  0.00     0.008 C 
ATOM     12  C   UNL     1     -15.500 -16.327   8.946  1.00  0.00     0.039 C 
ENDBRANCH   5  10
TORSDOF 2
ENDMDL
MODEL 3
REMARK VINA RESULT:    -1.965      1.974      3.697
REMARK INTER + INTRA:          -2.265
REMARK INTER:                  -2.521
REMARK INTRA:                   0.256
REMARK UNBOUND:                -0.128
REMARK SMILES C=C(C)[C@H]1CC[C@H](C)C[C@@H]1O
REMARK SMILES IDX 8 1 7 2 6 3 5 4 4 5 10 6 9 7 11 8 2 10 1 11 3 12
REMARK H PARENT 11 9
REMARK Flexibility Score: inf
ROOT
ATOM      1  C   UNL     1     -16.294 -12.634   7.890  1.00  0.00     0.008 C 
ATOM      2  C   UNL     1     -17.190 -13.555   8.723  1.00  0.00    -0.012 C 
ATOM      3  C   UNL     1     -16.423 -14.825   9.136  1.00  0.00     0.004 C 
ATOM      4  C   UNL     1     -17.306 -15.748   9.985  1.00  0.00     0.011 C 
ATOM      5  C   UNL     1     -17.841 -15.011  11.229  1.00  0.00     0.043 C 
ATOM      6  C   UNL     1     -18.613 -13.733  10.823  1.00  0.00     0.121 C 
ATOM      7  C   UNL     1     -17.720 -12.816   9.967  1.00  0.00     0.035 C 
ENDROOT
BRANCH   6   8
ATOM      8  O   UNL     1     -19.016 -13.046  11.980  1.00  0.00    -0.392 OA
ATOM      9  H   UNL     1     -18.188 -12.749  12.441  1.00  0.00     0.210 HD
ENDBRANCH   6   8
BRANCH   5  10
ATOM     10  C   UNL     1     -18.695 -15.936  12.088  1.00  0.00    -0.075 C 
ATOM     11  C   UNL     1     -19.124 -17.123  11.622  1.00  0.00     0.008 C 
ATOM     12  C   UNL     1     -19.078 -15.530  13.487  1.00  0.00     0.039 C 
ENDBRANCH   5  10
TORSDOF 2
ENDMDL
MODEL 4
REMARK VINA RESULT:    -1.945      1.948      3.238
REMARK INTER + INTRA:          -2.243
REMARK INTER:                  -2.649
REMARK INTRA:                   0.406
REMARK UNBOUND:                -0.128
REMARK SMILES C=C(C)[C@H]1CC[C@H](C)C[C@@H]1O
REMARK SMILES IDX 8 1 7 2 6 3 5 4 4 5 10 6 9 7 11 8 2 10 1 11 3 12
REMARK H PARENT 11 9
REMARK Flexibility Score: inf
ROOT
ATOM      1  C   UNL     1     -19.125 -16.947  13.033  1.00  0.00     0.008 C 
ATOM      2  C   UNL     1     -18.376 -16.029  12.062  1.00  0.00    -0.012 C 
ATOM      3  C   UNL     1     -18.540 -16.527  10.614  1.00  0.00     0.004 C 
ATOM      4  C   UNL     1     -17.807 -15.606   9.630  1.00  0.00     0.011 C 
ATOM      5  C   UNL     1     -18.303 -14.152   9.762  1.00  0.00     0.043 C 
ATOM      6  C   UNL     1     -18.143 -13.643  11.214  1.00  0.00     0.121 C 
ATOM      7  C   UNL     1     -18.877 -14.578  12.194  1.00  0.00     0.035 C 
ENDROOT
BRANCH   6   8
ATOM      8  O   UNL     1     -18.677 -12.347  11.315  1.00  0.00    -0.392 OA
ATOM      9  H   UNL     1     -18.965 -12.084  10.402  1.00  0.00     0.210 HD
ENDBRANCH   6   8
BRANCH   5  10
ATOM     10  C   UNL     1     -17.595 -13.241   8.765  1.00  0.00    -0.075 C 
ATOM     11  C   UNL     1     -17.921 -11.941   8.653  1.00  0.00     0.008 C 
ATOM     12  C   UNL     1     -16.508 -13.791   7.878  1.00  0.00     0.039 C 
ENDBRANCH   5  10
TORSDOF 2
ENDMDL
MODEL 5
REMARK VINA RESULT:    -1.687      1.758      2.467
REMARK INTER + INTRA:          -1.963
REMARK INTER:                  -2.457
REMARK INTRA:                   0.494
REMARK UNBOUND:                -0.128
REMARK SMILES C=C(C)[C@H]1CC[C@H](C)C[C@@H]1O
REMARK SMILES IDX 8 1 7 2 6 3 5 4 4 5 10 6 9 7 11 8 2 10 1 11 3 12
REMARK H PARENT 11 9
REMARK Flexibility Score: inf
ROOT
ATOM      1  C   UNL     1     -19.125 -15.225  13.849  1.00  0.00     0.008 C 
ATOM      2  C   UNL     1     -18.805 -15.168  12.352  1.00  0.00    -0.012 C 
ATOM      3  C   UNL     1     -18.812 -13.711  11.854  1.00  0.00     0.004 C 
ATOM      4  C   UNL     1     -18.476 -13.640  10.359  1.00  0.00     0.011 C 
ATOM      5  C   UNL     1     -17.117 -14.306  10.066  1.00  0.00     0.043 C 
ATOM      6  C   UNL     1     -17.100 -15.771  10.564  1.00  0.00     0.121 C 
ATOM      7  C   UNL     1     -17.444 -15.831  12.064  1.00  0.00     0.035 C 
ENDROOT
BRANCH   6   8
ATOM      8  O   UNL     1     -15.824 -16.319  10.354  1.00  0.00    -0.392 OA
ATOM      9  H   UNL     1     -15.842 -17.238  10.729  1.00  0.00     0.210 HD
ENDBRANCH   6   8
BRANCH   5  10
ATOM     10  C   UNL     1     -16.770 -14.211   8.584  1.00  0.00    -0.075 C 
ATOM     11  C   UNL     1     -16.395 -15.295   7.884  1.00  0.00     0.008 C 
ATOM     12  C   UNL     1     -16.841 -12.883   7.875  1.00  0.00     0.039 C 
ENDBRANCH   5  10
TORSDOF 2
ENDMDL
MODEL 6
REMARK VINA RESULT:    -0.941      1.593      2.039
REMARK INTER + INTRA:          -1.151
REMARK INTER:                  -1.519
REMARK INTRA:                   0.368
REMARK UNBOUND:                -0.128
REMARK SMILES C=C(C)[C@H]1CC[C@H](C)C[C@@H]1O
REMARK SMILES IDX 8 1 7 2 6 3 5 4 4 5 10 6 9 7 11 8 2 10 1 11 3 12
REMARK H PARENT 11 9
REMARK Flexibility Score: inf
ROOT
ATOM      1  C   UNL     1     -18.767 -12.007  12.135  1.00  0.00     0.008 C 
ATOM      2  C   UNL     1     -18.518 -13.331  11.406  1.00  0.00    -0.012 C 
ATOM      3  C   UNL     1     -19.125 -13.290   9.991  1.00  0.00     0.004 C 
ATOM      4  C   UNL     1     -18.867 -14.605   9.244  1.00  0.00     0.011 C 
ATOM      5  C   UNL     1     -17.358 -14.915   9.178  1.00  0.00     0.043 C 
ATOM      6  C   UNL     1     -16.739 -14.958  10.595  1.00  0.00     0.121 C 
ATOM      7  C   UNL     1     -17.009 -13.636  11.338  1.00  0.00     0.035 C 
ENDROOT
BRANCH   6   8
ATOM      8  O   UNL     1     -15.354 -15.163  10.492  1.00  0.00    -0.392 OA
ATOM      9  H   UNL     1     -15.225 -16.082  10.138  1.00  0.00     0.210 HD
ENDBRANCH   6   8
BRANCH   5  10
ATOM     10  C   UNL     1     -17.100 -16.208   8.411  1.00  0.00    -0.075 C 
ATOM     11  C   UNL     1     -15.850 -16.608   8.118  1.00  0.00     0.008 C 
ATOM     12  C   UNL     1     -18.255 -17.066   7.964  1.00  0.00     0.039 C 
ENDBRANCH   5  10
TORSDOF 2
ENDMDL
