MODEL 1
REMARK VINA RESULT:    -5.454      0.000      0.000
REMARK INTER + INTRA:          -9.487
REMARK INTER:                  -8.482
REMARK INTRA:                  -1.004
REMARK UNBOUND:                -1.004
REMARK SMILES COc1cc(CNC(=O)CCCCC=CC(C)C)ccc1O
REMARK SMILES IDX 11 1 12 2 13 3 14 4 15 5 16 6 17 7 18 8 10 9 8 10 9 11 7 12
REMARK SMILES IDX 6 14 5 15 4 16 19 17 3 18 20 19 21 20 2 21 1 22 22 23
REMARK H PARENT 7 13 22 24
REMARK Flexibility Score: inf
ROOT
ATOM      1  C   UNL     1      15.167 -12.307  -0.738  1.00  0.00     0.010 C 
ENDROOT
BRANCH   1   2
ATOM      2  C   UNL     1      14.764 -10.840  -0.515  1.00  0.00     0.005 C 
BRANCH   2   3
ATOM      3  C   UNL     1      14.283 -10.573   0.919  1.00  0.00     0.027 C 
BRANCH   3   4
ATOM      4  C   UNL     1      15.264  -9.717   1.672  1.00  0.00    -0.031 C 
ATOM      5  C   UNL     1      16.518 -10.128   1.916  1.00  0.00    -0.028 C 
BRANCH   5   6
ATOM      6  C   UNL     1      17.495  -9.261   2.673  1.00  0.00     0.005 C 
ATOM      7  C   UNL     1      18.891  -9.352   2.045  1.00  0.00     0.012 C 
ATOM      8  C   UNL     1      17.015  -7.806   2.700  1.00  0.00     0.012 C 
ENDBRANCH   5   6
ENDBRANCH   3   4
ENDBRANCH   2   3
ENDBRANCH   1   2
BRANCH   1   9
ATOM      9  C   UNL     1      15.817 -12.539  -2.108  1.00  0.00     0.100 C 
BRANCH   9  10
ATOM     10  C   UNL     1      17.006 -13.442  -1.973  1.00  0.00     0.220 C 
ATOM     11  O   UNL     1      17.789 -13.589  -2.952  1.00  0.00    -0.275 OA
ATOM     12  N   UNL     1      17.222 -14.169  -0.756  1.00  0.00    -0.352 N 
ATOM     13  H   UNL     1      16.531 -14.073   0.022  1.00  0.00     0.163 HD
BRANCH  12  14
ATOM     14  C   UNL     1      18.367 -15.056  -0.564  1.00  0.00     0.151 C 
BRANCH  14  15
ATOM     15  C   UNL     1      19.604 -14.254  -0.259  1.00  0.00    -0.025 A 
ATOM     16  C   UNL     1      20.870 -14.764  -0.588  1.00  0.00     0.056 A 
ATOM     17  C   UNL     1      19.506 -13.007   0.376  1.00  0.00     0.009 A 
ATOM     18  C   UNL     1      22.036 -14.030  -0.291  1.00  0.00     0.160 A 
ATOM     19  C   UNL     1      20.658 -12.276   0.671  1.00  0.00     0.050 A 
ATOM     20  C   UNL     1      21.921 -12.783   0.339  1.00  0.00     0.157 A 
BRANCH  18  21
ATOM     21  O   UNL     1      23.319 -14.506  -0.603  1.00  0.00    -0.493 OA
ATOM     22  C   UNL     1      24.069 -15.398   0.215  1.00  0.00     0.278 C 
ENDBRANCH  18  21
BRANCH  20  23
ATOM     23  O   UNL     1      23.070 -12.052   0.635  1.00  0.00    -0.504 OA
ATOM     24  H   UNL     1      23.078 -11.039   0.607  1.00  0.00     0.293 HD
ENDBRANCH  20  23
ENDBRANCH  14  15
ENDBRANCH  12  14
ENDBRANCH   9  10
ENDBRANCH   1   9
TORSDOF 10
ENDMDL
MODEL 2
REMARK VINA RESULT:    -5.376     12.197     13.263
REMARK INTER + INTRA:          -9.366
REMARK INTER:                  -7.985
REMARK INTRA:                  -1.381
REMARK UNBOUND:                -1.004
REMARK SMILES COc1cc(CNC(=O)CCCCC=CC(C)C)ccc1O
REMARK SMILES IDX 11 1 12 2 13 3 14 4 15 5 16 6 17 7 18 8 10 9 8 10 9 11 7 12
REMARK SMILES IDX 6 14 5 15 4 16 19 17 3 18 20 19 21 20 2 21 1 22 22 23
REMARK H PARENT 7 13 22 24
REMARK Flexibility Score: inf
ROOT
ATOM      1  C   UNL     1      21.870  -0.670  -6.363  1.00  0.00     0.010 C 
ENDROOT
BRANCH   1   2
ATOM      2  C   UNL     1      20.370  -0.979  -6.498  1.00  0.00     0.005 C 
BRANCH   2   3
ATOM      3  C   UNL     1      19.805  -0.564  -7.864  1.00  0.00     0.027 C 
BRANCH   3   4
ATOM      4  C   UNL     1      19.294  -1.756  -8.627  1.00  0.00    -0.031 C 
ATOM      5  C   UNL     1      20.068  -2.826  -8.866  1.00  0.00    -0.028 C 
BRANCH   5   6
ATOM      6  C   UNL     1      19.546  -4.017  -9.632  1.00  0.00     0.005 C 
ATOM      7  C   UNL     1      18.014  -4.057  -9.583  1.00  0.00     0.012 C 
ATOM      8  C   UNL     1      20.033  -3.979 -11.085  1.00  0.00     0.012 C 
ENDBRANCH   5   6
ENDBRANCH   3   4
ENDBRANCH   2   3
ENDBRANCH   1   2
BRANCH   1   9
ATOM      9  C   UNL     1      22.500  -1.331  -5.130  1.00  0.00     0.100 C 
BRANCH   9  10
ATOM     10  C   UNL     1      23.659  -2.190  -5.536  1.00  0.00     0.220 C 
ATOM     11  O   UNL     1      24.230  -2.911  -4.672  1.00  0.00    -0.275 OA
ATOM     12  N   UNL     1      24.144  -2.153  -6.885  1.00  0.00    -0.352 N 
ATOM     13  H   UNL     1      23.688  -1.508  -7.570  1.00  0.00     0.163 HD
BRANCH  12  14
ATOM     14  C   UNL     1      25.263  -2.975  -7.340  1.00  0.00     0.151 C 
BRANCH  14  15
ATOM     15  C   UNL     1      24.756  -4.217  -8.021  1.00  0.00    -0.025 A 
ATOM     16  C   UNL     1      25.561  -5.366  -8.075  1.00  0.00     0.056 A 
ATOM     17  C   UNL     1      23.492  -4.232  -8.628  1.00  0.00     0.009 A 
ATOM     18  C   UNL     1      25.105  -6.530  -8.726  1.00  0.00     0.160 A 
ATOM     19  C   UNL     1      23.035  -5.383  -9.273  1.00  0.00     0.050 A 
ATOM     20  C   UNL     1      23.836  -6.531  -9.323  1.00  0.00     0.157 A 
BRANCH  18  21
ATOM     21  O   UNL     1      25.880  -7.697  -8.802  1.00  0.00    -0.493 OA
ATOM     22  C   UNL     1      27.122  -7.798  -9.492  1.00  0.00     0.278 C 
ENDBRANCH  18  21
BRANCH  20  23
ATOM     23  O   UNL     1      23.379  -7.678  -9.968  1.00  0.00    -0.504 OA
ATOM     24  H   UNL     1      22.547  -7.668 -10.545  1.00  0.00     0.293 HD
ENDBRANCH  20  23
ENDBRANCH  14  15
ENDBRANCH  12  14
ENDBRANCH   9  10
ENDBRANCH   1   9
TORSDOF 10
ENDMDL
MODEL 3
REMARK VINA RESULT:    -4.961     12.222     13.275
REMARK INTER + INTRA:          -8.720
REMARK INTER:                  -7.793
REMARK INTRA:                  -0.927
REMARK UNBOUND:                -1.004
REMARK SMILES COc1cc(CNC(=O)CCCCC=CC(C)C)ccc1O
REMARK SMILES IDX 11 1 12 2 13 3 14 4 15 5 16 6 17 7 18 8 10 9 8 10 9 11 7 12
REMARK SMILES IDX 6 14 5 15 4 16 19 17 3 18 20 19 21 20 2 21 1 22 22 23
REMARK H PARENT 7 13 22 24
REMARK Flexibility Score: inf
ROOT
ATOM      1  C   UNL     1      21.844  -0.967  -5.644  1.00  0.00     0.010 C 
ENDROOT
BRANCH   1   2
ATOM      2  C   UNL     1      20.396  -0.960  -6.162  1.00  0.00     0.005 C 
BRANCH   2   3
ATOM      3  C   UNL     1      20.312  -0.702  -7.673  1.00  0.00     0.027 C 
BRANCH   3   4
ATOM      4  C   UNL     1      19.636  -1.843  -8.383  1.00  0.00    -0.031 C 
ATOM      5  C   UNL     1      20.336  -2.782  -9.039  1.00  0.00    -0.028 C 
BRANCH   5   6
ATOM      6  C   UNL     1      19.648  -3.923  -9.748  1.00  0.00     0.005 C 
ATOM      7  C   UNL     1      20.310  -5.257  -9.385  1.00  0.00     0.012 C 
ATOM      8  C   UNL     1      18.156  -3.955  -9.396  1.00  0.00     0.012 C 
ENDBRANCH   5   6
ENDBRANCH   3   4
ENDBRANCH   2   3
ENDBRANCH   1   2
BRANCH   1   9
ATOM      9  C   UNL     1      22.858  -1.340  -6.733  1.00  0.00     0.100 C 
BRANCH   9  10
ATOM     10  C   UNL     1      23.924  -2.230  -6.168  1.00  0.00     0.220 C 
ATOM     11  O   UNL     1      23.951  -2.454  -4.927  1.00  0.00    -0.275 OA
ATOM     12  N   UNL     1      24.931  -2.781  -7.027  1.00  0.00    -0.352 N 
ATOM     13  H   UNL     1      24.919  -2.537  -8.044  1.00  0.00     0.163 HD
BRANCH  12  14
ATOM     14  C   UNL     1      25.988  -3.661  -6.534  1.00  0.00     0.151 C 
BRANCH  14  15
ATOM     15  C   UNL     1      26.159  -4.839  -7.455  1.00  0.00    -0.025 A 
ATOM     16  C   UNL     1      25.031  -5.508  -7.956  1.00  0.00     0.056 A 
ATOM     17  C   UNL     1      27.440  -5.294  -7.800  1.00  0.00     0.009 A 
ATOM     18  C   UNL     1      25.179  -6.624  -8.804  1.00  0.00     0.160 A 
ATOM     19  C   UNL     1      27.592  -6.398  -8.641  1.00  0.00     0.050 A 
ATOM     20  C   UNL     1      26.467  -7.063  -9.144  1.00  0.00     0.157 A 
BRANCH  18  21
ATOM     21  O   UNL     1      24.077  -7.320  -9.324  1.00  0.00    -0.493 OA
ATOM     22  C   UNL     1      23.413  -6.987 -10.540  1.00  0.00     0.278 C 
ENDBRANCH  18  21
BRANCH  20  23
ATOM     23  O   UNL     1      26.620  -8.166  -9.983  1.00  0.00    -0.504 OA
ATOM     24  H   UNL     1      26.920  -8.064 -10.945  1.00  0.00     0.293 HD
ENDBRANCH  20  23
ENDBRANCH  14  15
ENDBRANCH  12  14
ENDBRANCH   9  10
ENDBRANCH   1   9
TORSDOF 10
ENDMDL
MODEL 4
REMARK VINA RESULT:    -4.797     12.209     12.671
REMARK INTER + INTRA:          -8.465
REMARK INTER:                  -7.344
REMARK INTRA:                  -1.122
REMARK UNBOUND:                -1.004
REMARK SMILES COc1cc(CNC(=O)CCCCC=CC(C)C)ccc1O
REMARK SMILES IDX 11 1 12 2 13 3 14 4 15 5 16 6 17 7 18 8 10 9 8 10 9 11 7 12
REMARK SMILES IDX 6 14 5 15 4 16 19 17 3 18 20 19 21 20 2 21 1 22 22 23
REMARK H PARENT 7 13 22 24
REMARK Flexibility Score: inf
ROOT
ATOM      1  C   UNL     1      20.589  -4.591  -9.705  1.00  0.00     0.010 C 
ENDROOT
BRANCH   1   2
ATOM      2  C   UNL     1      19.146  -4.087  -9.543  1.00  0.00     0.005 C 
BRANCH   2   3
ATOM      3  C   UNL     1      19.081  -2.591  -9.200  1.00  0.00     0.027 C 
BRANCH   3   4
ATOM      4  C   UNL     1      20.359  -2.123  -8.561  1.00  0.00    -0.031 C 
ATOM      5  C   UNL     1      20.360  -1.371  -7.449  1.00  0.00    -0.028 C 
BRANCH   5   6
ATOM      6  C   UNL     1      21.649  -0.907  -6.815  1.00  0.00     0.005 C 
ATOM      7  C   UNL     1      21.564  -1.012  -5.288  1.00  0.00     0.012 C 
ATOM      8  C   UNL     1      22.833  -1.724  -7.342  1.00  0.00     0.012 C 
ENDBRANCH   5   6
ENDBRANCH   3   4
ENDBRANCH   2   3
ENDBRANCH   1   2
BRANCH   1   9
ATOM      9  C   UNL     1      20.783  -5.427 -10.977  1.00  0.00     0.100 C 
BRANCH   9  10
ATOM     10  C   UNL     1      22.093  -6.153 -10.927  1.00  0.00     0.220 C 
ATOM     11  O   UNL     1      22.722  -6.374 -11.999  1.00  0.00    -0.275 OA
ATOM     12  N   UNL     1      22.601  -6.634  -9.676  1.00  0.00    -0.352 N 
ATOM     13  H   UNL     1      22.037  -6.486  -8.809  1.00  0.00     0.163 HD
BRANCH  12  14
ATOM     14  C   UNL     1      23.876  -7.340  -9.565  1.00  0.00     0.151 C 
BRANCH  14  15
ATOM     15  C   UNL     1      24.896  -6.472  -8.877  1.00  0.00    -0.025 A 
ATOM     16  C   UNL     1      26.247  -6.853  -8.865  1.00  0.00     0.056 A 
ATOM     17  C   UNL     1      24.504  -5.295  -8.223  1.00  0.00     0.009 A 
ATOM     18  C   UNL     1      27.208  -6.058  -8.208  1.00  0.00     0.160 A 
ATOM     19  C   UNL     1      25.453  -4.504  -7.572  1.00  0.00     0.050 A 
ATOM     20  C   UNL     1      26.802  -4.880  -7.564  1.00  0.00     0.157 A 
BRANCH  18  21
ATOM     21  O   UNL     1      28.567  -6.404  -8.173  1.00  0.00    -0.493 OA
ATOM     22  C   UNL     1      29.114  -7.447  -7.371  1.00  0.00     0.278 C 
ENDBRANCH  18  21
BRANCH  20  23
ATOM     23  O   UNL     1      27.747  -4.090  -6.913  1.00  0.00    -0.504 OA
ATOM     24  H   UNL     1      27.527  -3.155  -6.591  1.00  0.00     0.293 HD
ENDBRANCH  20  23
ENDBRANCH  14  15
ENDBRANCH  12  14
ENDBRANCH   9  10
ENDBRANCH   1   9
TORSDOF 10
ENDMDL
MODEL 5
REMARK VINA RESULT:    -4.740     12.117     12.717
REMARK INTER + INTRA:          -8.377
REMARK INTER:                  -7.211
REMARK INTRA:                  -1.166
REMARK UNBOUND:                -1.004
REMARK SMILES COc1cc(CNC(=O)CCCCC=CC(C)C)ccc1O
REMARK SMILES IDX 11 1 12 2 13 3 14 4 15 5 16 6 17 7 18 8 10 9 8 10 9 11 7 12
REMARK SMILES IDX 6 14 5 15 4 16 19 17 3 18 20 19 21 20 2 21 1 22 22 23
REMARK H PARENT 7 13 22 24
REMARK Flexibility Score: inf
ROOT
ATOM      1  C   UNL     1      20.175  -1.950  -8.852  1.00  0.00     0.010 C 
ENDROOT
BRANCH   1   2
ATOM      2  C   UNL     1      19.657  -1.438  -7.498  1.00  0.00     0.005 C 
BRANCH   2   3
ATOM      3  C   UNL     1      20.724  -0.659  -6.715  1.00  0.00     0.027 C 
BRANCH   3   4
ATOM      4  C   UNL     1      22.054  -1.360  -6.763  1.00  0.00    -0.031 C 
ATOM      5  C   UNL     1      22.888  -1.366  -5.711  1.00  0.00    -0.028 C 
BRANCH   5   6
ATOM      6  C   UNL     1      24.220  -2.074  -5.770  1.00  0.00     0.005 C 
ATOM      7  C   UNL     1      25.368  -1.067  -5.631  1.00  0.00     0.012 C 
ATOM      8  C   UNL     1      24.311  -3.142  -4.674  1.00  0.00     0.012 C 
ENDBRANCH   5   6
ENDBRANCH   3   4
ENDBRANCH   2   3
ENDBRANCH   1   2
BRANCH   1   9
ATOM      9  C   UNL     1      19.299  -3.066  -9.436  1.00  0.00     0.100 C 
BRANCH   9  10
ATOM     10  C   UNL     1      20.157  -4.145 -10.024  1.00  0.00     0.220 C 
ATOM     11  O   UNL     1      19.982  -4.492 -11.224  1.00  0.00    -0.275 OA
ATOM     12  N   UNL     1      21.133  -4.810  -9.211  1.00  0.00    -0.352 N 
ATOM     13  H   UNL     1      21.222  -4.543  -8.204  1.00  0.00     0.163 HD
BRANCH  12  14
ATOM     14  C   UNL     1      22.003  -5.863  -9.731  1.00  0.00     0.151 C 
BRANCH  14  15
ATOM     15  C   UNL     1      23.395  -5.711  -9.181  1.00  0.00    -0.025 A 
ATOM     16  C   UNL     1      24.278  -6.802  -9.194  1.00  0.00     0.056 A 
ATOM     17  C   UNL     1      23.814  -4.491  -8.628  1.00  0.00     0.009 A 
ATOM     18  C   UNL     1      25.578  -6.677  -8.665  1.00  0.00     0.160 A 
ATOM     19  C   UNL     1      25.101  -4.362  -8.104  1.00  0.00     0.050 A 
ATOM     20  C   UNL     1      25.984  -5.449  -8.122  1.00  0.00     0.157 A 
BRANCH  18  21
ATOM     21  O   UNL     1      26.489  -7.744  -8.660  1.00  0.00    -0.493 OA
ATOM     22  C   UNL     1      27.458  -7.983  -9.676  1.00  0.00     0.278 C 
ENDBRANCH  18  21
BRANCH  20  23
ATOM     23  O   UNL     1      27.268  -5.319  -7.597  1.00  0.00    -0.504 OA
ATOM     24  H   UNL     1      27.602  -4.439  -7.221  1.00  0.00     0.293 HD
ENDBRANCH  20  23
ENDBRANCH  14  15
ENDBRANCH  12  14
ENDBRANCH   9  10
ENDBRANCH   1   9
TORSDOF 10
ENDMDL
MODEL 6
REMARK VINA RESULT:    -4.730      1.125      1.986
REMARK INTER + INTRA:          -8.361
REMARK INTER:                  -7.443
REMARK INTRA:                  -0.917
REMARK UNBOUND:                -1.004
REMARK SMILES COc1cc(CNC(=O)CCCCC=CC(C)C)ccc1O
REMARK SMILES IDX 11 1 12 2 13 3 14 4 15 5 16 6 17 7 18 8 10 9 8 10 9 11 7 12
REMARK SMILES IDX 6 14 5 15 4 16 19 17 3 18 20 19 21 20 2 21 1 22 22 23
REMARK H PARENT 7 13 22 24
REMARK Flexibility Score: inf
ROOT
ATOM      1  C   UNL     1      15.246 -11.984  -1.439  1.00  0.00     0.010 C 
ENDROOT
BRANCH   1   2
ATOM      2  C   UNL     1      14.736 -10.746  -0.685  1.00  0.00     0.005 C 
BRANCH   2   3
ATOM      3  C   UNL     1      14.479 -11.027   0.803  1.00  0.00     0.027 C 
BRANCH   3   4
ATOM      4  C   UNL     1      15.340 -10.157   1.678  1.00  0.00    -0.031 C 
ATOM      5  C   UNL     1      16.675 -10.289   1.710  1.00  0.00    -0.028 C 
BRANCH   5   6
ATOM      6  C   UNL     1      17.530  -9.410   2.591  1.00  0.00     0.005 C 
ATOM      7  C   UNL     1      18.970  -9.365   2.068  1.00  0.00     0.012 C 
ATOM      8  C   UNL     1      16.946  -7.995   2.671  1.00  0.00     0.012 C 
ENDBRANCH   5   6
ENDBRANCH   3   4
ENDBRANCH   2   3
ENDBRANCH   1   2
BRANCH   1   9
ATOM      9  C   UNL     1      15.724 -13.096  -0.495  1.00  0.00     0.100 C 
BRANCH   9  10
ATOM     10  C   UNL     1      16.770 -13.934  -1.167  1.00  0.00     0.220 C 
ATOM     11  O   UNL     1      16.427 -14.751  -2.065  1.00  0.00    -0.275 OA
ATOM     12  N   UNL     1      18.140 -13.842  -0.754  1.00  0.00    -0.352 N 
ATOM     13  H   UNL     1      18.391 -13.197   0.029  1.00  0.00     0.163 HD
BRANCH  12  14
ATOM     14  C   UNL     1      19.202 -14.627  -1.378  1.00  0.00     0.151 C 
BRANCH  14  15
ATOM     15  C   UNL     1      20.506 -14.408  -0.659  1.00  0.00    -0.025 A 
ATOM     16  C   UNL     1      20.753 -13.189  -0.008  1.00  0.00     0.056 A 
ATOM     17  C   UNL     1      21.492 -15.406  -0.653  1.00  0.00     0.009 A 
ATOM     18  C   UNL     1      21.977 -12.966   0.653  1.00  0.00     0.160 A 
ATOM     19  C   UNL     1      22.706 -15.190   0.002  1.00  0.00     0.050 A 
ATOM     20  C   UNL     1      22.951 -13.976   0.655  1.00  0.00     0.157 A 
BRANCH  18  21
ATOM     21  O   UNL     1      22.262 -11.762   1.314  1.00  0.00    -0.493 OA
ATOM     22  C   UNL     1      21.926 -11.487   2.671  1.00  0.00     0.278 C 
ENDBRANCH  18  21
BRANCH  20  23
ATOM     23  O   UNL     1      24.164 -13.762   1.308  1.00  0.00    -0.504 OA
ATOM     24  H   UNL     1      24.231 -13.765   2.319  1.00  0.00     0.293 HD
ENDBRANCH  20  23
ENDBRANCH  14  15
ENDBRANCH  12  14
ENDBRANCH   9  10
ENDBRANCH   1   9
TORSDOF 10
ENDMDL
MODEL 7
REMARK VINA RESULT:    -4.720     12.634     14.885
REMARK INTER + INTRA:          -8.346
REMARK INTER:                  -7.301
REMARK INTRA:                  -1.045
REMARK UNBOUND:                -1.004
REMARK SMILES COc1cc(CNC(=O)CCCCC=CC(C)C)ccc1O
REMARK SMILES IDX 11 1 12 2 13 3 14 4 15 5 16 6 17 7 18 8 10 9 8 10 9 11 7 12
REMARK SMILES IDX 6 14 5 15 4 16 19 17 3 18 20 19 21 20 2 21 1 22 22 23
REMARK H PARENT 7 13 22 24
REMARK Flexibility Score: inf
ROOT
ATOM      1  C   UNL     1      26.154  -3.824  -7.319  1.00  0.00     0.010 C 
ENDROOT
BRANCH   1   2
ATOM      2  C   UNL     1      24.967  -4.663  -7.820  1.00  0.00     0.005 C 
BRANCH   2   3
ATOM      3  C   UNL     1      25.398  -6.045  -8.333  1.00  0.00     0.027 C 
BRANCH   3   4
ATOM      4  C   UNL     1      26.870  -6.271  -8.119  1.00  0.00    -0.031 C 
ATOM      5  C   UNL     1      27.582  -7.084  -8.913  1.00  0.00    -0.028 C 
BRANCH   5   6
ATOM      6  C   UNL     1      29.059  -7.304  -8.690  1.00  0.00     0.005 C 
ATOM      7  C   UNL     1      29.475  -6.789  -7.307  1.00  0.00     0.012 C 
ATOM      8  C   UNL     1      29.411  -8.789  -8.835  1.00  0.00     0.012 C 
ENDBRANCH   5   6
ENDBRANCH   3   4
ENDBRANCH   2   3
ENDBRANCH   1   2
BRANCH   1   9
ATOM      9  C   UNL     1      26.167  -3.671  -5.793  1.00  0.00     0.100 C 
BRANCH   9  10
ATOM     10  C   UNL     1      24.969  -2.894  -5.338  1.00  0.00     0.220 C 
ATOM     11  O   UNL     1      24.224  -3.372  -4.439  1.00  0.00    -0.275 OA
ATOM     12  N   UNL     1      24.646  -1.641  -5.958  1.00  0.00    -0.352 N 
ATOM     13  H   UNL     1      25.248  -1.292  -6.738  1.00  0.00     0.163 HD
BRANCH  12  14
ATOM     14  C   UNL     1      23.497  -0.837  -5.551  1.00  0.00     0.151 C 
BRANCH  14  15
ATOM     15  C   UNL     1      22.313  -1.133  -6.431  1.00  0.00    -0.025 A 
ATOM     16  C   UNL     1      22.504  -1.726  -7.689  1.00  0.00     0.056 A 
ATOM     17  C   UNL     1      21.015  -0.799  -6.015  1.00  0.00     0.009 A 
ATOM     18  C   UNL     1      21.404  -1.991  -8.529  1.00  0.00     0.160 A 
ATOM     19  C   UNL     1      19.922  -1.061  -6.844  1.00  0.00     0.050 A 
ATOM     20  C   UNL     1      20.112  -1.656  -8.097  1.00  0.00     0.157 A 
BRANCH  18  21
ATOM     21  O   UNL     1      21.554  -2.581  -9.794  1.00  0.00    -0.493 OA
ATOM     22  C   UNL     1      22.803  -2.959 -10.365  1.00  0.00     0.278 C 
ENDBRANCH  18  21
BRANCH  20  23
ATOM     23  O   UNL     1      19.020  -1.917  -8.924  1.00  0.00    -0.504 OA
ATOM     24  H   UNL     1      18.092  -2.066  -8.546  1.00  0.00     0.293 HD
ENDBRANCH  20  23
ENDBRANCH  14  15
ENDBRANCH  12  14
ENDBRANCH   9  10
ENDBRANCH   1   9
TORSDOF 10
ENDMDL
MODEL 8
REMARK VINA RESULT:    -4.652      2.684      7.149
REMARK INTER + INTRA:          -8.240
REMARK INTER:                  -6.854
REMARK INTRA:                  -1.386
REMARK UNBOUND:                -1.004
REMARK SMILES COc1cc(CNC(=O)CCCCC=CC(C)C)ccc1O
REMARK SMILES IDX 11 1 12 2 13 3 14 4 15 5 16 6 17 7 18 8 10 9 8 10 9 11 7 12
REMARK SMILES IDX 6 14 5 15 4 16 19 17 3 18 20 19 21 20 2 21 1 22 22 23
REMARK H PARENT 7 13 22 24
REMARK Flexibility Score: inf
ROOT
ATOM      1  C   UNL     1      23.603 -15.129   0.097  1.00  0.00     0.010 C 
ENDROOT
BRANCH   1   2
ATOM      2  C   UNL     1      22.778 -15.825  -0.998  1.00  0.00     0.005 C 
BRANCH   2   3
ATOM      3  C   UNL     1      21.357 -16.173  -0.532  1.00  0.00     0.027 C 
BRANCH   3   4
ATOM      4  C   UNL     1      20.322 -15.554  -1.431  1.00  0.00    -0.031 C 
ATOM      5  C   UNL     1      19.626 -14.468  -1.063  1.00  0.00    -0.028 C 
BRANCH   5   6
ATOM      6  C   UNL     1      18.590 -13.853  -1.973  1.00  0.00     0.005 C 
ATOM      7  C   UNL     1      18.643 -14.502  -3.361  1.00  0.00     0.012 C 
ATOM      8  C   UNL     1      17.189 -13.998  -1.370  1.00  0.00     0.012 C 
ENDBRANCH   5   6
ENDBRANCH   3   4
ENDBRANCH   2   3
ENDBRANCH   1   2
BRANCH   1   9
ATOM      9  C   UNL     1      22.746 -14.681   1.288  1.00  0.00     0.100 C 
BRANCH   9  10
ATOM     10  C   UNL     1      22.459 -13.213   1.199  1.00  0.00     0.220 C 
ATOM     11  O   UNL     1      23.059 -12.514   0.337  1.00  0.00    -0.275 OA
ATOM     12  N   UNL     1      21.545 -12.601   2.120  1.00  0.00    -0.352 N 
ATOM     13  H   UNL     1      21.101 -13.191   2.860  1.00  0.00     0.163 HD
BRANCH  12  14
ATOM     14  C   UNL     1      21.220 -11.178   2.075  1.00  0.00     0.151 C 
BRANCH  14  15
ATOM     15  C   UNL     1      19.730 -10.983   2.007  1.00  0.00    -0.025 A 
ATOM     16  C   UNL     1      19.170  -9.732   2.311  1.00  0.00     0.056 A 
ATOM     17  C   UNL     1      18.887 -12.051   1.665  1.00  0.00     0.009 A 
ATOM     18  C   UNL     1      17.774  -9.543   2.268  1.00  0.00     0.160 A 
ATOM     19  C   UNL     1      17.504 -11.869   1.620  1.00  0.00     0.050 A 
ATOM     20  C   UNL     1      16.946 -10.619   1.919  1.00  0.00     0.157 A 
BRANCH  18  21
ATOM     21  O   UNL     1      17.177  -8.309   2.566  1.00  0.00    -0.493 OA
ATOM     22  C   UNL     1      17.534  -7.486   3.672  1.00  0.00     0.278 C 
ENDBRANCH  18  21
BRANCH  20  23
ATOM     23  O   UNL     1      15.564 -10.439   1.874  1.00  0.00    -0.504 OA
ATOM     24  H   UNL     1      14.958 -11.092   1.393  1.00  0.00     0.293 HD
ENDBRANCH  20  23
ENDBRANCH  14  15
ENDBRANCH  12  14
ENDBRANCH   9  10
ENDBRANCH   1   9
TORSDOF 10
ENDMDL
MODEL 9
REMARK VINA RESULT:    -4.617     12.598     14.654
REMARK INTER + INTRA:          -8.185
REMARK INTER:                  -7.374
REMARK INTRA:                  -0.811
REMARK UNBOUND:                -1.004
REMARK SMILES COc1cc(CNC(=O)CCCCC=CC(C)C)ccc1O
REMARK SMILES IDX 11 1 12 2 13 3 14 4 15 5 16 6 17 7 18 8 10 9 8 10 9 11 7 12
REMARK SMILES IDX 6 14 5 15 4 16 19 17 3 18 20 19 21 20 2 21 1 22 22 23
REMARK H PARENT 7 13 22 24
REMARK Flexibility Score: inf
ROOT
ATOM      1  C   UNL     1      24.689  -6.449  -8.503  1.00  0.00     0.010 C 
ENDROOT
BRANCH   1   2
ATOM      2  C   UNL     1      26.211  -6.258  -8.406  1.00  0.00     0.005 C 
BRANCH   2   3
ATOM      3  C   UNL     1      26.954  -6.822  -9.626  1.00  0.00     0.027 C 
BRANCH   3   4
ATOM      4  C   UNL     1      28.103  -7.697  -9.208  1.00  0.00    -0.031 C 
ATOM      5  C   UNL     1      28.830  -7.433  -8.111  1.00  0.00    -0.028 C 
BRANCH   5   6
ATOM      6  C   UNL     1      29.981  -8.318  -7.699  1.00  0.00     0.005 C 
ATOM      7  C   UNL     1      30.333  -9.299  -8.824  1.00  0.00     0.012 C 
ATOM      8  C   UNL     1      31.204  -7.473  -7.325  1.00  0.00     0.012 C 
ENDBRANCH   5   6
ENDBRANCH   3   4
ENDBRANCH   2   3
ENDBRANCH   1   2
BRANCH   1   9
ATOM      9  C   UNL     1      24.282  -7.374  -9.657  1.00  0.00     0.100 C 
BRANCH   9  10
ATOM     10  C   UNL     1      23.111  -6.799 -10.395  1.00  0.00     0.220 C 
ATOM     11  O   UNL     1      23.127  -6.767 -11.656  1.00  0.00    -0.275 OA
ATOM     12  N   UNL     1      22.005  -6.245  -9.669  1.00  0.00    -0.352 N 
ATOM     13  H   UNL     1      22.038  -6.235  -8.625  1.00  0.00     0.163 HD
BRANCH  12  14
ATOM     14  C   UNL     1      20.833  -5.680 -10.335  1.00  0.00     0.151 C 
BRANCH  14  15
ATOM     15  C   UNL     1      20.488  -4.342  -9.740  1.00  0.00    -0.025 A 
ATOM     16  C   UNL     1      21.501  -3.527  -9.211  1.00  0.00     0.056 A 
ATOM     17  C   UNL     1      19.155  -3.909  -9.685  1.00  0.00     0.009 A 
ATOM     18  C   UNL     1      21.188  -2.279  -8.635  1.00  0.00     0.160 A 
ATOM     19  C   UNL     1      18.840  -2.674  -9.116  1.00  0.00     0.050 A 
ATOM     20  C   UNL     1      19.851  -1.858  -8.593  1.00  0.00     0.157 A 
BRANCH  18  21
ATOM     21  O   UNL     1      22.172  -1.436  -8.095  1.00  0.00    -0.493 OA
ATOM     22  C   UNL     1      23.293  -1.885  -7.340  1.00  0.00     0.278 C 
ENDBRANCH  18  21
BRANCH  20  23
ATOM     23  O   UNL     1      19.534  -0.625  -8.024  1.00  0.00    -0.504 OA
ATOM     24  H   UNL     1      19.408  -0.518  -7.025  1.00  0.00     0.293 HD
ENDBRANCH  20  23
ENDBRANCH  14  15
ENDBRANCH  12  14
ENDBRANCH   9  10
ENDBRANCH   1   9
TORSDOF 10
ENDMDL
