MODEL 1
REMARK VINA RESULT:    -3.229      0.000      0.000
REMARK INTER + INTRA:         -10.915
REMARK INTER:                  -7.005
REMARK INTRA:                  -3.910
REMARK UNBOUND:                -3.910
REMARK SMILES CCCCCCCCCCCCCCCCCCCCCC(=O)[O-]
REMARK SMILES IDX 12 1 11 2 10 3 9 4 8 5 7 6 6 7 5 8 4 9 3 10 2 11 1 12 13 13
REMARK SMILES IDX 14 14 15 15 16 16 17 17 18 18 19 19 20 20 21 21 22 22 23 23
REMARK SMILES IDX 24 24
REMARK H PARENT
REMARK Flexibility Score: inf
ROOT
ATOM      1  C   UNL     1      44.822  23.025  75.873  1.00  0.00     0.000 C 
ENDROOT
BRANCH   1   2
ATOM      2  C   UNL     1      44.581  23.246  74.368  1.00  0.00     0.000 C 
BRANCH   2   3
ATOM      3  C   UNL     1      43.437  22.364  73.825  1.00  0.00     0.000 C 
BRANCH   3   4
ATOM      4  C   UNL     1      42.777  21.483  74.900  1.00  0.00    -0.000 C 
BRANCH   4   5
ATOM      5  C   UNL     1      41.261  21.709  75.008  1.00  0.00    -0.000 C 
BRANCH   5   6
ATOM      6  C   UNL     1      40.751  21.612  76.455  1.00  0.00    -0.000 C 
BRANCH   6   7
ATOM      7  C   UNL     1      41.403  22.653  77.380  1.00  0.00    -0.000 C 
BRANCH   7   8
ATOM      8  C   UNL     1      42.089  22.017  78.604  1.00  0.00    -0.000 C 
BRANCH   8   9
ATOM      9  C   UNL     1      41.939  20.488  78.707  1.00  0.00    -0.000 C 
BRANCH   9  10
ATOM     10  C   UNL     1      41.167  20.046  79.958  1.00  0.00    -0.000 C 
BRANCH  10  11
ATOM     11  C   UNL     1      39.711  19.705  79.616  1.00  0.00    -0.003 C 
ATOM     12  C   UNL     1      38.793  20.898  79.869  1.00  0.00     0.004 C 
ENDBRANCH  10  11
ENDBRANCH   9  10
ENDBRANCH   8   9
ENDBRANCH   7   8
ENDBRANCH   6   7
ENDBRANCH   5   6
ENDBRANCH   4   5
ENDBRANCH   3   4
ENDBRANCH   2   3
ENDBRANCH   1   2
BRANCH   1  13
ATOM     13  C   UNL     1      46.314  23.024  76.239  1.00  0.00     0.000 C 
BRANCH  13  14
ATOM     14  C   UNL     1      47.215  22.665  75.048  1.00  0.00     0.000 C 
BRANCH  14  15
ATOM     15  C   UNL     1      47.799  21.254  75.209  1.00  0.00     0.000 C 
BRANCH  15  16
ATOM     16  C   UNL     1      47.231  20.245  74.193  1.00  0.00     0.000 C 
BRANCH  16  17
ATOM     17  C   UNL     1      45.903  19.583  74.605  1.00  0.00     0.000 C 
BRANCH  17  18
ATOM     18  C   UNL     1      45.927  18.866  75.969  1.00  0.00     0.000 C 
BRANCH  18  19
ATOM     19  C   UNL     1      44.998  19.504  77.024  1.00  0.00     0.000 C 
BRANCH  19  20
ATOM     20  C   UNL     1      45.762  19.965  78.278  1.00  0.00     0.006 C 
BRANCH  20  21
ATOM     21  C   UNL     1      47.083  19.208  78.466  1.00  0.00     0.053 C 
BRANCH  21  22
ATOM     22  C   UNL     1      48.170  20.103  78.979  1.00  0.00     0.041 C 
ATOM     23  O   UNL     1      49.271  20.175  78.371  1.00  0.00    -0.550 OA
ATOM     24  O   UNL     1      47.955  20.881  80.109  1.00  0.00    -0.550 OA
ENDBRANCH  21  22
ENDBRANCH  20  21
ENDBRANCH  19  20
ENDBRANCH  18  19
ENDBRANCH  17  18
ENDBRANCH  16  17
ENDBRANCH  15  16
ENDBRANCH  14  15
ENDBRANCH  13  14
ENDBRANCH   1  13
TORSDOF 20
ENDMDL
MODEL 2
REMARK VINA RESULT:    -3.128     15.387     17.638
REMARK INTER + INTRA:         -10.696
REMARK INTER:                  -6.520
REMARK INTRA:                  -4.176
REMARK UNBOUND:                -3.910
REMARK SMILES CCCCCCCCCCCCCCCCCCCCCC(=O)[O-]
REMARK SMILES IDX 12 1 11 2 10 3 9 4 8 5 7 6 6 7 5 8 4 9 3 10 2 11 1 12 13 13
REMARK SMILES IDX 14 14 15 15 16 16 17 17 18 18 19 19 20 20 21 21 22 22 23 23
REMARK SMILES IDX 24 24
REMARK H PARENT
REMARK Flexibility Score: inf
ROOT
ATOM      1  C   UNL     1      53.270  32.364  86.143  1.00  0.00     0.000 C 
ENDROOT
BRANCH   1   2
ATOM      2  C   UNL     1      52.993  33.343  84.987  1.00  0.00     0.000 C 
BRANCH   2   3
ATOM      3  C   UNL     1      52.633  34.756  85.493  1.00  0.00     0.000 C 
BRANCH   3   4
ATOM      4  C   UNL     1      53.116  35.037  86.926  1.00  0.00    -0.000 C 
BRANCH   4   5
ATOM      5  C   UNL     1      51.972  35.428  87.875  1.00  0.00    -0.000 C 
BRANCH   5   6
ATOM      6  C   UNL     1      50.615  35.519  87.159  1.00  0.00    -0.000 C 
BRANCH   6   7
ATOM      7  C   UNL     1      49.631  34.431  87.623  1.00  0.00    -0.000 C 
BRANCH   7   8
ATOM      8  C   UNL     1      48.534  34.136  86.583  1.00  0.00    -0.000 C 
BRANCH   8   9
ATOM      9  C   UNL     1      48.732  32.833  85.786  1.00  0.00    -0.000 C 
BRANCH   9  10
ATOM     10  C   UNL     1      49.307  33.072  84.383  1.00  0.00    -0.000 C 
BRANCH  10  11
ATOM     11  C   UNL     1      49.159  34.541  83.968  1.00  0.00    -0.003 C 
ATOM     12  C   UNL     1      49.744  34.781  82.580  1.00  0.00     0.004 C 
ENDBRANCH  10  11
ENDBRANCH   9  10
ENDBRANCH   8   9
ENDBRANCH   7   8
ENDBRANCH   6   7
ENDBRANCH   5   6
ENDBRANCH   4   5
ENDBRANCH   3   4
ENDBRANCH   2   3
ENDBRANCH   1   2
BRANCH   1  13
ATOM     13  C   UNL     1      52.231  31.235  86.222  1.00  0.00     0.000 C 
BRANCH  13  14
ATOM     14  C   UNL     1      51.536  31.164  87.590  1.00  0.00     0.000 C 
BRANCH  14  15
ATOM     15  C   UNL     1      52.436  31.744  88.692  1.00  0.00     0.000 C 
BRANCH  15  16
ATOM     16  C   UNL     1      51.643  32.312  89.883  1.00  0.00     0.000 C 
BRANCH  16  17
ATOM     17  C   UNL     1      51.171  31.266  90.910  1.00  0.00     0.000 C 
BRANCH  17  18
ATOM     18  C   UNL     1      49.662  31.289  91.219  1.00  0.00     0.000 C 
BRANCH  18  19
ATOM     19  C   UNL     1      48.813  30.455  90.235  1.00  0.00     0.000 C 
BRANCH  19  20
ATOM     20  C   UNL     1      48.147  31.323  89.152  1.00  0.00     0.006 C 
BRANCH  20  21
ATOM     21  C   UNL     1      46.732  31.763  89.548  1.00  0.00     0.053 C 
BRANCH  21  22
ATOM     22  C   UNL     1      45.847  30.592  89.845  1.00  0.00     0.041 C 
ATOM     23  O   UNL     1      45.586  29.750  88.946  1.00  0.00    -0.550 OA
ATOM     24  O   UNL     1      45.337  30.412  91.125  1.00  0.00    -0.550 OA
ENDBRANCH  21  22
ENDBRANCH  20  21
ENDBRANCH  19  20
ENDBRANCH  18  19
ENDBRANCH  17  18
ENDBRANCH  16  17
ENDBRANCH  15  16
ENDBRANCH  14  15
ENDBRANCH  13  14
ENDBRANCH   1  13
TORSDOF 20
ENDMDL
MODEL 3
REMARK VINA RESULT:    -3.105     15.336     17.590
REMARK INTER + INTRA:         -10.645
REMARK INTER:                  -6.840
REMARK INTRA:                  -3.806
REMARK UNBOUND:                -3.910
REMARK SMILES CCCCCCCCCCCCCCCCCCCCCC(=O)[O-]
REMARK SMILES IDX 12 1 11 2 10 3 9 4 8 5 7 6 6 7 5 8 4 9 3 10 2 11 1 12 13 13
REMARK SMILES IDX 14 14 15 15 16 16 17 17 18 18 19 19 20 20 21 21 22 22 23 23
REMARK SMILES IDX 24 24
REMARK H PARENT
REMARK Flexibility Score: inf
ROOT
ATOM      1  C   UNL     1      48.292  33.775  87.602  1.00  0.00     0.000 C 
ENDROOT
BRANCH   1   2
ATOM      2  C   UNL     1      48.020  32.466  86.837  1.00  0.00     0.000 C 
BRANCH   2   3
ATOM      3  C   UNL     1      47.336  31.404  87.724  1.00  0.00     0.000 C 
BRANCH   3   4
ATOM      4  C   UNL     1      46.855  31.953  89.078  1.00  0.00    -0.000 C 
BRANCH   4   5
ATOM      5  C   UNL     1      47.286  31.075  90.264  1.00  0.00    -0.000 C 
BRANCH   5   6
ATOM      6  C   UNL     1      48.586  30.303  89.986  1.00  0.00    -0.000 C 
BRANCH   6   7
ATOM      7  C   UNL     1      49.795  30.902  90.724  1.00  0.00    -0.000 C 
BRANCH   7   8
ATOM      8  C   UNL     1      50.594  31.892  89.856  1.00  0.00    -0.000 C 
BRANCH   8   9
ATOM      9  C   UNL     1      51.065  31.331  88.502  1.00  0.00    -0.000 C 
BRANCH   9  10
ATOM     10  C   UNL     1      52.559  30.978  88.488  1.00  0.00    -0.000 C 
BRANCH  10  11
ATOM     11  C   UNL     1      53.415  32.189  88.879  1.00  0.00    -0.003 C 
ATOM     12  C   UNL     1      54.566  31.775  89.793  1.00  0.00     0.004 C 
ENDBRANCH  10  11
ENDBRANCH   9  10
ENDBRANCH   8   9
ENDBRANCH   7   8
ENDBRANCH   6   7
ENDBRANCH   5   6
ENDBRANCH   4   5
ENDBRANCH   3   4
ENDBRANCH   2   3
ENDBRANCH   1   2
BRANCH   1  13
ATOM     13  C   UNL     1      48.582  34.958  86.665  1.00  0.00     0.000 C 
BRANCH  13  14
ATOM     14  C   UNL     1      49.759  35.819  87.145  1.00  0.00     0.000 C 
BRANCH  14  15
ATOM     15  C   UNL     1      50.837  34.950  87.810  1.00  0.00     0.000 C 
BRANCH  15  16
ATOM     16  C   UNL     1      52.246  35.190  87.236  1.00  0.00     0.000 C 
BRANCH  16  17
ATOM     17  C   UNL     1      52.399  34.886  85.734  1.00  0.00     0.000 C 
BRANCH  17  18
ATOM     18  C   UNL     1      52.180  33.412  85.341  1.00  0.00     0.000 C 
BRANCH  18  19
ATOM     19  C   UNL     1      50.908  33.175  84.499  1.00  0.00     0.000 C 
BRANCH  19  20
ATOM     20  C   UNL     1      50.589  34.360  83.570  1.00  0.00     0.006 C 
BRANCH  20  21
ATOM     21  C   UNL     1      49.117  34.381  83.139  1.00  0.00     0.053 C 
BRANCH  21  22
ATOM     22  C   UNL     1      48.972  34.355  81.648  1.00  0.00     0.041 C 
ATOM     23  O   UNL     1      49.712  35.074  80.926  1.00  0.00    -0.550 OA
ATOM     24  O   UNL     1      48.042  33.511  81.054  1.00  0.00    -0.550 OA
ENDBRANCH  21  22
ENDBRANCH  20  21
ENDBRANCH  19  20
ENDBRANCH  18  19
ENDBRANCH  17  18
ENDBRANCH  16  17
ENDBRANCH  15  16
ENDBRANCH  14  15
ENDBRANCH  13  14
ENDBRANCH   1  13
TORSDOF 20
ENDMDL
MODEL 4
REMARK VINA RESULT:    -3.095      1.278      3.440
REMARK INTER + INTRA:         -10.624
REMARK INTER:                  -6.884
REMARK INTRA:                  -3.740
REMARK UNBOUND:                -3.910
REMARK SMILES CCCCCCCCCCCCCCCCCCCCCC(=O)[O-]
REMARK SMILES IDX 12 1 11 2 10 3 9 4 8 5 7 6 6 7 5 8 4 9 3 10 2 11 1 12 13 13
REMARK SMILES IDX 14 14 15 15 16 16 17 17 18 18 19 19 20 20 21 21 22 22 23 23
REMARK SMILES IDX 24 24
REMARK H PARENT
REMARK Flexibility Score: inf
ROOT
ATOM      1  C   UNL     1      44.372  20.008  77.777  1.00  0.00     0.000 C 
ENDROOT
BRANCH   1   2
ATOM      2  C   UNL     1      44.371  20.797  79.099  1.00  0.00     0.000 C 
BRANCH   2   3
ATOM      3  C   UNL     1      45.032  22.185  78.951  1.00  0.00     0.000 C 
BRANCH   3   4
ATOM      4  C   UNL     1      45.334  22.568  77.492  1.00  0.00    -0.000 C 
BRANCH   4   5
ATOM      5  C   UNL     1      44.212  23.398  76.849  1.00  0.00    -0.000 C 
BRANCH   5   6
ATOM      6  C   UNL     1      43.915  22.971  75.403  1.00  0.00    -0.000 C 
BRANCH   6   7
ATOM      7  C   UNL     1      42.614  22.159  75.285  1.00  0.00    -0.000 C 
BRANCH   7   8
ATOM      8  C   UNL     1      41.352  23.036  75.394  1.00  0.00    -0.000 C 
BRANCH   8   9
ATOM      9  C   UNL     1      40.312  22.548  76.419  1.00  0.00    -0.000 C 
BRANCH   9  10
ATOM     10  C   UNL     1      40.717  21.235  77.102  1.00  0.00    -0.000 C 
BRANCH  10  11
ATOM     11  C   UNL     1      40.816  21.411  78.623  1.00  0.00    -0.003 C 
ATOM     12  C   UNL     1      40.664  20.074  79.342  1.00  0.00     0.004 C 
ENDBRANCH  10  11
ENDBRANCH   9  10
ENDBRANCH   8   9
ENDBRANCH   7   8
ENDBRANCH   6   7
ENDBRANCH   5   6
ENDBRANCH   4   5
ENDBRANCH   3   4
ENDBRANCH   2   3
ENDBRANCH   1   2
BRANCH   1  13
ATOM     13  C   UNL     1      45.444  18.909  77.745  1.00  0.00     0.000 C 
BRANCH  13  14
ATOM     14  C   UNL     1      45.802  18.472  76.316  1.00  0.00     0.000 C 
BRANCH  14  15
ATOM     15  C   UNL     1      45.532  19.605  75.314  1.00  0.00     0.000 C 
BRANCH  15  16
ATOM     16  C   UNL     1      46.643  19.755  74.258  1.00  0.00     0.000 C 
BRANCH  16  17
ATOM     17  C   UNL     1      46.903  21.197  73.786  1.00  0.00     0.000 C 
BRANCH  17  18
ATOM     18  C   UNL     1      47.569  22.115  74.829  1.00  0.00     0.000 C 
BRANCH  18  19
ATOM     19  C   UNL     1      49.065  21.810  75.061  1.00  0.00     0.000 C 
BRANCH  19  20
ATOM     20  C   UNL     1      49.423  21.730  76.557  1.00  0.00     0.006 C 
BRANCH  20  21
ATOM     21  C   UNL     1      48.562  20.706  77.307  1.00  0.00     0.053 C 
BRANCH  21  22
ATOM     22  C   UNL     1      49.025  20.517  78.720  1.00  0.00     0.041 C 
ATOM     23  O   UNL     1      50.249  20.355  78.969  1.00  0.00    -0.550 OA
ATOM     24  O   UNL     1      48.108  20.553  79.763  1.00  0.00    -0.550 OA
ENDBRANCH  21  22
ENDBRANCH  20  21
ENDBRANCH  19  20
ENDBRANCH  18  19
ENDBRANCH  17  18
ENDBRANCH  16  17
ENDBRANCH  15  16
ENDBRANCH  14  15
ENDBRANCH  13  14
ENDBRANCH   1  13
TORSDOF 20
ENDMDL
MODEL 5
REMARK VINA RESULT:    -3.086     14.875     17.114
REMARK INTER + INTRA:         -10.605
REMARK INTER:                  -6.420
REMARK INTRA:                  -4.186
REMARK UNBOUND:                -3.910
REMARK SMILES CCCCCCCCCCCCCCCCCCCCCC(=O)[O-]
REMARK SMILES IDX 12 1 11 2 10 3 9 4 8 5 7 6 6 7 5 8 4 9 3 10 2 11 1 12 13 13
REMARK SMILES IDX 14 14 15 15 16 16 17 17 18 18 19 19 20 20 21 21 22 22 23 23
REMARK SMILES IDX 24 24
REMARK H PARENT
REMARK Flexibility Score: inf
ROOT
ATOM      1  C   UNL     1      51.817  34.255  87.848  1.00  0.00     0.000 C 
ENDROOT
BRANCH   1   2
ATOM      2  C   UNL     1      50.997  35.382  87.193  1.00  0.00     0.000 C 
BRANCH   2   3
ATOM      3  C   UNL     1      49.492  35.272  87.517  1.00  0.00     0.000 C 
BRANCH   3   4
ATOM      4  C   UNL     1      48.587  35.394  86.279  1.00  0.00    -0.000 C 
BRANCH   4   5
ATOM      5  C   UNL     1      48.933  34.372  85.185  1.00  0.00    -0.000 C 
BRANCH   5   6
ATOM      6  C   UNL     1      48.556  34.863  83.778  1.00  0.00    -0.000 C 
BRANCH   6   7
ATOM      7  C   UNL     1      49.553  34.395  82.704  1.00  0.00    -0.000 C 
BRANCH   7   8
ATOM      8  C   UNL     1      50.758  33.642  83.298  1.00  0.00    -0.000 C 
BRANCH   8   9
ATOM      9  C   UNL     1      52.068  34.450  83.342  1.00  0.00    -0.000 C 
BRANCH   9  10
ATOM     10  C   UNL     1      53.069  33.910  84.373  1.00  0.00    -0.000 C 
BRANCH  10  11
ATOM     11  C   UNL     1      52.767  32.448  84.723  1.00  0.00    -0.003 C 
ATOM     12  C   UNL     1      53.844  31.867  85.635  1.00  0.00     0.004 C 
ENDBRANCH  10  11
ENDBRANCH   9  10
ENDBRANCH   8   9
ENDBRANCH   7   8
ENDBRANCH   6   7
ENDBRANCH   5   6
ENDBRANCH   4   5
ENDBRANCH   3   4
ENDBRANCH   2   3
ENDBRANCH   1   2
BRANCH   1  13
ATOM     13  C   UNL     1      50.933  33.196  88.523  1.00  0.00     0.000 C 
BRANCH  13  14
ATOM     14  C   UNL     1      51.625  31.829  88.633  1.00  0.00     0.000 C 
BRANCH  14  15
ATOM     15  C   UNL     1      50.858  30.762  87.839  1.00  0.00     0.000 C 
BRANCH  15  16
ATOM     16  C   UNL     1      49.858  31.360  86.832  1.00  0.00     0.000 C 
BRANCH  16  17
ATOM     17  C   UNL     1      48.602  30.507  86.574  1.00  0.00     0.000 C 
BRANCH  17  18
ATOM     18  C   UNL     1      47.272  31.160  86.997  1.00  0.00     0.000 C 
BRANCH  18  19
ATOM     19  C   UNL     1      47.430  32.251  88.078  1.00  0.00     0.000 C 
BRANCH  19  20
ATOM     20  C   UNL     1      46.893  31.801  89.450  1.00  0.00     0.006 C 
BRANCH  20  21
ATOM     21  C   UNL     1      47.978  31.144  90.311  1.00  0.00     0.053 C 
BRANCH  21  22
ATOM     22  C   UNL     1      47.778  29.663  90.425  1.00  0.00     0.041 C 
ATOM     23  O   UNL     1      48.548  28.871  89.819  1.00  0.00    -0.550 OA
ATOM     24  O   UNL     1      46.762  29.157  91.226  1.00  0.00    -0.550 OA
ENDBRANCH  21  22
ENDBRANCH  20  21
ENDBRANCH  19  20
ENDBRANCH  18  19
ENDBRANCH  17  18
ENDBRANCH  16  17
ENDBRANCH  15  16
ENDBRANCH  14  15
ENDBRANCH  13  14
ENDBRANCH   1  13
TORSDOF 20
ENDMDL
MODEL 6
REMARK VINA RESULT:    -3.068     14.867     16.625
REMARK INTER + INTRA:         -10.565
REMARK INTER:                  -7.266
REMARK INTRA:                  -3.299
REMARK UNBOUND:                -3.910
REMARK SMILES CCCCCCCCCCCCCCCCCCCCCC(=O)[O-]
REMARK SMILES IDX 12 1 11 2 10 3 9 4 8 5 7 6 6 7 5 8 4 9 3 10 2 11 1 12 13 13
REMARK SMILES IDX 14 14 15 15 16 16 17 17 18 18 19 19 20 20 21 21 22 22 23 23
REMARK SMILES IDX 24 24
REMARK H PARENT
REMARK Flexibility Score: inf
ROOT
ATOM      1  C   UNL     1      48.692  34.913  86.581  1.00  0.00     0.000 C 
ENDROOT
BRANCH   1   2
ATOM      2  C   UNL     1      48.233  33.718  87.437  1.00  0.00     0.000 C 
BRANCH   2   3
ATOM      3  C   UNL     1      48.203  32.401  86.632  1.00  0.00     0.000 C 
BRANCH   3   4
ATOM      4  C   UNL     1      49.287  31.396  87.058  1.00  0.00    -0.000 C 
BRANCH   4   5
ATOM      5  C   UNL     1      49.645  31.502  88.549  1.00  0.00    -0.000 C 
BRANCH   5   6
ATOM      6  C   UNL     1      49.649  30.136  89.253  1.00  0.00    -0.000 C 
BRANCH   6   7
ATOM      7  C   UNL     1      48.488  29.985  90.251  1.00  0.00    -0.000 C 
BRANCH   7   8
ATOM      8  C   UNL     1      47.684  31.286  90.430  1.00  0.00    -0.000 C 
BRANCH   8   9
ATOM      9  C   UNL     1      46.248  31.240  89.877  1.00  0.00    -0.000 C 
BRANCH   9  10
ATOM     10  C   UNL     1      45.197  31.687  90.903  1.00  0.00    -0.000 C 
BRANCH  10  11
ATOM     11  C   UNL     1      44.621  30.484  91.662  1.00  0.00    -0.003 C 
ATOM     12  C   UNL     1      43.740  30.938  92.823  1.00  0.00     0.004 C 
ENDBRANCH  10  11
ENDBRANCH   9  10
ENDBRANCH   8   9
ENDBRANCH   7   8
ENDBRANCH   6   7
ENDBRANCH   5   6
ENDBRANCH   4   5
ENDBRANCH   3   4
ENDBRANCH   2   3
ENDBRANCH   1   2
BRANCH   1  13
ATOM     13  C   UNL     1      49.833  35.705  87.236  1.00  0.00     0.000 C 
BRANCH  13  14
ATOM     14  C   UNL     1      50.982  34.805  87.714  1.00  0.00     0.000 C 
BRANCH  14  15
ATOM     15  C   UNL     1      52.172  34.874  86.745  1.00  0.00     0.000 C 
BRANCH  15  16
ATOM     16  C   UNL     1      52.486  33.522  86.078  1.00  0.00     0.000 C 
BRANCH  16  17
ATOM     17  C   UNL     1      51.642  33.198  84.831  1.00  0.00     0.000 C 
BRANCH  17  18
ATOM     18  C   UNL     1      51.702  34.253  83.710  1.00  0.00     0.000 C 
BRANCH  18  19
ATOM     19  C   UNL     1      50.318  34.647  83.151  1.00  0.00     0.000 C 
BRANCH  19  20
ATOM     20  C   UNL     1      49.312  33.482  83.200  1.00  0.00     0.006 C 
BRANCH  20  21
ATOM     21  C   UNL     1      47.863  33.958  83.034  1.00  0.00     0.053 C 
BRANCH  21  22
ATOM     22  C   UNL     1      46.969  32.860  82.544  1.00  0.00     0.041 C 
ATOM     23  O   UNL     1      46.571  32.851  81.349  1.00  0.00    -0.550 OA
ATOM     24  O   UNL     1      46.602  31.828  83.399  1.00  0.00    -0.550 OA
ENDBRANCH  21  22
ENDBRANCH  20  21
ENDBRANCH  19  20
ENDBRANCH  18  19
ENDBRANCH  17  18
ENDBRANCH  16  17
ENDBRANCH  15  16
ENDBRANCH  14  15
ENDBRANCH  13  14
ENDBRANCH   1  13
TORSDOF 20
ENDMDL
MODEL 7
REMARK VINA RESULT:    -3.043     16.039     18.256
REMARK INTER + INTRA:         -10.511
REMARK INTER:                  -7.595
REMARK INTRA:                  -2.916
REMARK UNBOUND:                -3.910
REMARK SMILES CCCCCCCCCCCCCCCCCCCCCC(=O)[O-]
REMARK SMILES IDX 12 1 11 2 10 3 9 4 8 5 7 6 6 7 5 8 4 9 3 10 2 11 1 12 13 13
REMARK SMILES IDX 14 14 15 15 16 16 17 17 18 18 19 19 20 20 21 21 22 22 23 23
REMARK SMILES IDX 24 24
REMARK H PARENT
REMARK Flexibility Score: inf
ROOT
ATOM      1  C   UNL     1      51.936  31.664  87.769  1.00  0.00     0.000 C 
ENDROOT
BRANCH   1   2
ATOM      2  C   UNL     1      50.501  31.516  87.232  1.00  0.00     0.000 C 
BRANCH   2   3
ATOM      3  C   UNL     1      49.491  32.376  88.021  1.00  0.00     0.000 C 
BRANCH   3   4
ATOM      4  C   UNL     1      48.480  33.112  87.125  1.00  0.00    -0.000 C 
BRANCH   4   5
ATOM      5  C   UNL     1      48.459  34.629  87.372  1.00  0.00    -0.000 C 
BRANCH   5   6
ATOM      6  C   UNL     1      49.540  35.373  86.570  1.00  0.00    -0.000 C 
BRANCH   6   7
ATOM      7  C   UNL     1      50.807  35.640  87.400  1.00  0.00    -0.000 C 
BRANCH   7   8
ATOM      8  C   UNL     1      52.100  35.259  86.653  1.00  0.00    -0.000 C 
BRANCH   8   9
ATOM      9  C   UNL     1      51.882  34.530  85.314  1.00  0.00    -0.000 C 
BRANCH   9  10
ATOM     10  C   UNL     1      53.131  34.533  84.422  1.00  0.00    -0.000 C 
BRANCH  10  11
ATOM     11  C   UNL     1      52.798  34.051  83.004  1.00  0.00    -0.003 C 
ATOM     12  C   UNL     1      51.311  34.219  82.702  1.00  0.00     0.004 C 
ENDBRANCH  10  11
ENDBRANCH   9  10
ENDBRANCH   8   9
ENDBRANCH   7   8
ENDBRANCH   6   7
ENDBRANCH   5   6
ENDBRANCH   4   5
ENDBRANCH   3   4
ENDBRANCH   2   3
ENDBRANCH   1   2
BRANCH   1  13
ATOM     13  C   UNL     1      52.003  32.507  89.052  1.00  0.00     0.000 C 
BRANCH  13  14
ATOM     14  C   UNL     1      52.413  31.683  90.281  1.00  0.00     0.000 C 
BRANCH  14  15
ATOM     15  C   UNL     1      51.628  32.128  91.525  1.00  0.00     0.000 C 
BRANCH  15  16
ATOM     16  C   UNL     1      50.412  31.232  91.824  1.00  0.00     0.000 C 
BRANCH  16  17
ATOM     17  C   UNL     1      50.165  30.105  90.805  1.00  0.00     0.000 C 
BRANCH  17  18
ATOM     18  C   UNL     1      48.811  29.383  90.946  1.00  0.00     0.000 C 
BRANCH  18  19
ATOM     19  C   UNL     1      47.698  29.967  90.049  1.00  0.00     0.000 C 
BRANCH  19  20
ATOM     20  C   UNL     1      47.188  31.328  90.557  1.00  0.00     0.006 C 
BRANCH  20  21
ATOM     21  C   UNL     1      45.711  31.561  90.214  1.00  0.00     0.053 C 
BRANCH  21  22
ATOM     22  C   UNL     1      44.807  31.152  91.337  1.00  0.00     0.041 C 
ATOM     23  O   UNL     1      44.458  29.948  91.463  1.00  0.00    -0.550 OA
ATOM     24  O   UNL     1      44.377  32.094  92.262  1.00  0.00    -0.550 OA
ENDBRANCH  21  22
ENDBRANCH  20  21
ENDBRANCH  19  20
ENDBRANCH  18  19
ENDBRANCH  17  18
ENDBRANCH  16  17
ENDBRANCH  15  16
ENDBRANCH  14  15
ENDBRANCH  13  14
ENDBRANCH   1  13
TORSDOF 20
ENDMDL
MODEL 8
REMARK VINA RESULT:    -3.034      2.767      6.423
REMARK INTER + INTRA:         -10.492
REMARK INTER:                  -6.311
REMARK INTRA:                  -4.181
REMARK UNBOUND:                -3.910
REMARK SMILES CCCCCCCCCCCCCCCCCCCCCC(=O)[O-]
REMARK SMILES IDX 12 1 11 2 10 3 9 4 8 5 7 6 6 7 5 8 4 9 3 10 2 11 1 12 13 13
REMARK SMILES IDX 14 14 15 15 16 16 17 17 18 18 19 19 20 20 21 21 22 22 23 23
REMARK SMILES IDX 24 24
REMARK H PARENT
REMARK Flexibility Score: inf
ROOT
ATOM      1  C   UNL     1      43.446  23.607  78.582  1.00  0.00     0.000 C 
ENDROOT
BRANCH   1   2
ATOM      2  C   UNL     1      44.462  22.475  78.821  1.00  0.00     0.000 C 
BRANCH   2   3
ATOM      3  C   UNL     1      43.791  21.196  79.368  1.00  0.00     0.000 C 
BRANCH   3   4
ATOM      4  C   UNL     1      43.967  19.972  78.453  1.00  0.00    -0.000 C 
BRANCH   4   5
ATOM      5  C   UNL     1      45.199  20.081  77.540  1.00  0.00    -0.000 C 
BRANCH   5   6
ATOM      6  C   UNL     1      46.424  19.351  78.113  1.00  0.00    -0.000 C 
BRANCH   6   7
ATOM      7  C   UNL     1      47.733  20.126  77.882  1.00  0.00    -0.000 C 
BRANCH   7   8
ATOM      8  C   UNL     1      47.514  21.455  77.133  1.00  0.00    -0.000 C 
BRANCH   8   9
ATOM      9  C   UNL     1      48.348  21.617  75.849  1.00  0.00    -0.000 C 
BRANCH   9  10
ATOM     10  C   UNL     1      47.497  21.556  74.572  1.00  0.00    -0.000 C 
BRANCH  10  11
ATOM     11  C   UNL     1      47.293  20.106  74.114  1.00  0.00    -0.003 C 
ATOM     12  C   UNL     1      45.814  19.803  73.895  1.00  0.00     0.004 C 
ENDBRANCH  10  11
ENDBRANCH   9  10
ENDBRANCH   8   9
ENDBRANCH   7   8
ENDBRANCH   6   7
ENDBRANCH   5   6
ENDBRANCH   4   5
ENDBRANCH   3   4
ENDBRANCH   2   3
ENDBRANCH   1   2
BRANCH   1  13
ATOM     13  C   UNL     1      43.405  24.064  77.115  1.00  0.00     0.000 C 
BRANCH  13  14
ATOM     14  C   UNL     1      44.479  23.384  76.253  1.00  0.00     0.000 C 
BRANCH  14  15
ATOM     15  C   UNL     1      43.872  22.843  74.950  1.00  0.00     0.000 C 
BRANCH  15  16
ATOM     16  C   UNL     1      42.989  21.600  75.166  1.00  0.00     0.000 C 
BRANCH  16  17
ATOM     17  C   UNL     1      41.650  21.612  74.406  1.00  0.00     0.000 C 
BRANCH  17  18
ATOM     18  C   UNL     1      40.395  21.503  75.294  1.00  0.00     0.000 C 
BRANCH  18  19
ATOM     19  C   UNL     1      40.144  22.748  76.172  1.00  0.00     0.000 C 
BRANCH  19  20
ATOM     20  C   UNL     1      40.080  22.407  77.672  1.00  0.00     0.006 C 
BRANCH  20  21
ATOM     21  C   UNL     1      40.370  20.925  77.943  1.00  0.00     0.053 C 
BRANCH  21  22
ATOM     22  C   UNL     1      39.978  20.527  79.334  1.00  0.00     0.041 C 
ATOM     23  O   UNL     1      40.119  21.336  80.289  1.00  0.00    -0.550 OA
ATOM     24  O   UNL     1      39.426  19.274  79.569  1.00  0.00    -0.550 OA
ENDBRANCH  21  22
ENDBRANCH  20  21
ENDBRANCH  19  20
ENDBRANCH  18  19
ENDBRANCH  17  18
ENDBRANCH  16  17
ENDBRANCH  15  16
ENDBRANCH  14  15
ENDBRANCH  13  14
ENDBRANCH   1  13
TORSDOF 20
ENDMDL
MODEL 9
REMARK VINA RESULT:    -3.022      2.485      6.521
REMARK INTER + INTRA:         -10.466
REMARK INTER:                  -6.841
REMARK INTRA:                  -3.625
REMARK UNBOUND:                -3.910
REMARK SMILES CCCCCCCCCCCCCCCCCCCCCC(=O)[O-]
REMARK SMILES IDX 12 1 11 2 10 3 9 4 8 5 7 6 6 7 5 8 4 9 3 10 2 11 1 12 13 13
REMARK SMILES IDX 14 14 15 15 16 16 17 17 18 18 19 19 20 20 21 21 22 22 23 23
REMARK SMILES IDX 24 24
REMARK H PARENT
REMARK Flexibility Score: inf
ROOT
ATOM      1  C   UNL     1      46.092  19.248  77.184  1.00  0.00     0.000 C 
ENDROOT
BRANCH   1   2
ATOM      2  C   UNL     1      45.644  18.520  75.903  1.00  0.00     0.000 C 
BRANCH   2   3
ATOM      3  C   UNL     1      45.854  19.380  74.639  1.00  0.00     0.000 C 
BRANCH   3   4
ATOM      4  C   UNL     1      47.220  20.087  74.598  1.00  0.00    -0.000 C 
BRANCH   4   5
ATOM      5  C   UNL     1      47.139  21.506  74.013  1.00  0.00    -0.000 C 
BRANCH   5   6
ATOM      6  C   UNL     1      47.962  22.525  74.817  1.00  0.00    -0.000 C 
BRANCH   6   7
ATOM      7  C   UNL     1      49.224  21.902  75.438  1.00  0.00    -0.000 C 
BRANCH   7   8
ATOM      8  C   UNL     1      49.411  22.286  76.918  1.00  0.00    -0.000 C 
BRANCH   8   9
ATOM      9  C   UNL     1      50.732  21.806  77.549  1.00  0.00    -0.000 C 
BRANCH   9  10
ATOM     10  C   UNL     1      50.518  20.947  78.803  1.00  0.00    -0.000 C 
BRANCH  10  11
ATOM     11  C   UNL     1      49.129  20.295  78.795  1.00  0.00    -0.003 C 
ATOM     12  C   UNL     1      48.367  20.612  80.079  1.00  0.00     0.004 C 
ENDBRANCH  10  11
ENDBRANCH   9  10
ENDBRANCH   8   9
ENDBRANCH   7   8
ENDBRANCH   6   7
ENDBRANCH   5   6
ENDBRANCH   4   5
ENDBRANCH   3   4
ENDBRANCH   2   3
ENDBRANCH   1   2
BRANCH   1  13
ATOM     13  C   UNL     1      44.919  19.570  78.122  1.00  0.00     0.000 C 
BRANCH  13  14
ATOM     14  C   UNL     1      44.985  20.998  78.683  1.00  0.00     0.000 C 
BRANCH  14  15
ATOM     15  C   UNL     1      45.737  21.930  77.721  1.00  0.00     0.000 C 
BRANCH  15  16
ATOM     16  C   UNL     1      44.813  22.939  77.013  1.00  0.00     0.000 C 
BRANCH  16  17
ATOM     17  C   UNL     1      44.096  22.400  75.762  1.00  0.00     0.000 C 
BRANCH  17  18
ATOM     18  C   UNL     1      42.680  21.845  76.010  1.00  0.00     0.000 C 
BRANCH  18  19
ATOM     19  C   UNL     1      41.940  22.528  77.181  1.00  0.00     0.000 C 
BRANCH  19  20
ATOM     20  C   UNL     1      40.490  22.030  77.330  1.00  0.00     0.006 C 
BRANCH  20  21
ATOM     21  C   UNL     1      40.410  20.682  78.057  1.00  0.00     0.053 C 
BRANCH  21  22
ATOM     22  C   UNL     1      40.823  20.797  79.493  1.00  0.00     0.041 C 
ATOM     23  O   UNL     1      41.603  19.947  79.998  1.00  0.00    -0.550 OA
ATOM     24  O   UNL     1      40.373  21.862  80.263  1.00  0.00    -0.550 OA
ENDBRANCH  21  22
ENDBRANCH  20  21
ENDBRANCH  19  20
ENDBRANCH  18  19
ENDBRANCH  17  18
ENDBRANCH  16  17
ENDBRANCH  15  16
ENDBRANCH  14  15
ENDBRANCH  13  14
ENDBRANCH   1  13
TORSDOF 20
ENDMDL
