MODEL 1
REMARK VINA RESULT:    -2.781      0.000      0.000
REMARK INTER + INTRA:          -4.458
REMARK INTER:                  -4.082
REMARK INTRA:                  -0.376
REMARK UNBOUND:                -0.376
REMARK SMILES O=C([O-])CCCCCCCC(=O)[O-]
REMARK SMILES IDX 7 1 6 2 5 3 4 4 2 5 1 6 3 7 8 8 9 9 10 10 11 11 12 12 13 13
REMARK H PARENT
REMARK Flexibility Score: inf
ROOT
ATOM      1  C   UNL     1      51.493 -33.661  23.847  1.00  0.00     0.000 C 
ENDROOT
BRANCH   1   2
ATOM      2  C   UNL     1      52.074 -34.926  23.196  1.00  0.00     0.000 C 
BRANCH   2   3
ATOM      3  C   UNL     1      53.395 -35.371  23.843  1.00  0.00     0.006 C 
BRANCH   3   4
ATOM      4  C   UNL     1      54.617 -34.674  23.231  1.00  0.00     0.053 C 
BRANCH   4   5
ATOM      5  C   UNL     1      55.350 -35.611  22.322  1.00  0.00     0.041 C 
ATOM      6  O   UNL     1      54.797 -36.046  21.280  1.00  0.00    -0.550 OA
ATOM      7  O   UNL     1      56.665 -35.964  22.603  1.00  0.00    -0.550 OA
ENDBRANCH   4   5
ENDBRANCH   3   4
ENDBRANCH   2   3
ENDBRANCH   1   2
BRANCH   1   8
ATOM      8  C   UNL     1      50.256 -33.169  23.081  1.00  0.00     0.000 C 
BRANCH   8   9
ATOM      9  C   UNL     1      50.319 -31.667  22.747  1.00  0.00     0.006 C 
BRANCH   9  10
ATOM     10  C   UNL     1      51.671 -31.004  23.058  1.00  0.00     0.053 C 
BRANCH  10  11
ATOM     11  C   UNL     1      51.509 -29.753  23.867  1.00  0.00     0.041 C 
ATOM     12  O   UNL     1      51.936 -28.654  23.426  1.00  0.00    -0.550 OA
ATOM     13  O   UNL     1      50.859 -29.797  25.093  1.00  0.00    -0.550 OA
ENDBRANCH  10  11
ENDBRANCH   9  10
ENDBRANCH   8   9
ENDBRANCH   1   8
TORSDOF 8
ENDMDL
MODEL 2
REMARK VINA RESULT:    -2.764      2.071      3.300
REMARK INTER + INTRA:          -4.433
REMARK INTER:                  -4.067
REMARK INTRA:                  -0.366
REMARK UNBOUND:                -0.376
REMARK SMILES O=C([O-])CCCCCCCC(=O)[O-]
REMARK SMILES IDX 7 1 6 2 5 3 4 4 2 5 1 6 3 7 8 8 9 9 10 10 11 11 12 12 13 13
REMARK H PARENT
REMARK Flexibility Score: inf
ROOT
ATOM      1  C   UNL     1      54.419 -34.761  23.333  1.00  0.00     0.000 C 
ENDROOT
BRANCH   1   2
ATOM      2  C   UNL     1      54.798 -35.671  22.153  1.00  0.00     0.000 C 
BRANCH   2   3
ATOM      3  C   UNL     1      56.120 -36.420  22.385  1.00  0.00     0.006 C 
BRANCH   3   4
ATOM      4  C   UNL     1      57.032 -35.710  23.394  1.00  0.00     0.053 C 
BRANCH   4   5
ATOM      5  C   UNL     1      58.458 -35.773  22.943  1.00  0.00     0.041 C 
ATOM      6  O   UNL     1      58.797 -36.560  22.022  1.00  0.00    -0.550 OA
ATOM      7  O   UNL     1      59.403 -34.925  23.508  1.00  0.00    -0.550 OA
ENDBRANCH   4   5
ENDBRANCH   3   4
ENDBRANCH   2   3
ENDBRANCH   1   2
BRANCH   1   8
ATOM      8  C   UNL     1      53.118 -35.238  23.996  1.00  0.00     0.000 C 
BRANCH   8   9
ATOM      9  C   UNL     1      51.866 -34.903  23.163  1.00  0.00     0.006 C 
BRANCH   9  10
ATOM     10  C   UNL     1      50.934 -33.866  23.810  1.00  0.00     0.053 C 
BRANCH  10  11
ATOM     11  C   UNL     1      51.069 -32.516  23.174  1.00  0.00     0.041 C 
ATOM     12  O   UNL     1      50.100 -32.010  22.549  1.00  0.00    -0.550 OA
ATOM     13  O   UNL     1      52.255 -31.805  23.299  1.00  0.00    -0.550 OA
ENDBRANCH  10  11
ENDBRANCH   9  10
ENDBRANCH   8   9
ENDBRANCH   1   8
TORSDOF 8
ENDMDL
MODEL 3
REMARK VINA RESULT:    -2.760      2.103      6.495
REMARK INTER + INTRA:          -4.427
REMARK INTER:                  -3.896
REMARK INTRA:                  -0.531
REMARK UNBOUND:                -0.376
REMARK SMILES O=C([O-])CCCCCCCC(=O)[O-]
REMARK SMILES IDX 7 1 6 2 5 3 4 4 2 5 1 6 3 7 8 8 9 9 10 10 11 11 12 12 13 13
REMARK H PARENT
REMARK Flexibility Score: inf
ROOT
ATOM      1  C   UNL     1      54.385 -35.563  23.952  1.00  0.00     0.000 C 
ENDROOT
BRANCH   1   2
ATOM      2  C   UNL     1      52.901 -35.533  24.349  1.00  0.00     0.000 C 
BRANCH   2   3
ATOM      3  C   UNL     1      52.040 -34.729  23.361  1.00  0.00     0.006 C 
BRANCH   3   4
ATOM      4  C   UNL     1      51.399 -33.493  24.007  1.00  0.00     0.053 C 
BRANCH   4   5
ATOM      5  C   UNL     1      52.238 -32.280  23.755  1.00  0.00     0.041 C 
ATOM      6  O   UNL     1      53.301 -32.098  24.404  1.00  0.00    -0.550 OA
ATOM      7  O   UNL     1      51.871 -31.374  22.767  1.00  0.00    -0.550 OA
ENDBRANCH   4   5
ENDBRANCH   3   4
ENDBRANCH   2   3
ENDBRANCH   1   2
BRANCH   1   8
ATOM      8  C   UNL     1      54.568 -35.142  22.486  1.00  0.00     0.000 C 
BRANCH   8   9
ATOM      9  C   UNL     1      55.722 -35.889  21.790  1.00  0.00     0.006 C 
BRANCH   9  10
ATOM     10  C   UNL     1      56.625 -36.688  22.743  1.00  0.00     0.053 C 
BRANCH  10  11
ATOM     11  C   UNL     1      58.046 -36.214  22.699  1.00  0.00     0.041 C 
ATOM     12  O   UNL     1      58.394 -35.194  23.349  1.00  0.00    -0.550 OA
ATOM     13  O   UNL     1      58.991 -36.918  21.964  1.00  0.00    -0.550 OA
ENDBRANCH  10  11
ENDBRANCH   9  10
ENDBRANCH   8   9
ENDBRANCH   1   8
TORSDOF 8
ENDMDL
MODEL 4
REMARK VINA RESULT:    -2.747      2.190      6.639
REMARK INTER + INTRA:          -4.409
REMARK INTER:                  -4.010
REMARK INTRA:                  -0.398
REMARK UNBOUND:                -0.376
REMARK SMILES O=C([O-])CCCCCCCC(=O)[O-]
REMARK SMILES IDX 7 1 6 2 5 3 4 4 2 5 1 6 3 7 8 8 9 9 10 10 11 11 12 12 13 13
REMARK H PARENT
REMARK Flexibility Score: inf
ROOT
ATOM      1  C   UNL     1      54.683 -34.757  23.054  1.00  0.00     0.000 C 
ENDROOT
BRANCH   1   2
ATOM      2  C   UNL     1      53.480 -35.309  23.834  1.00  0.00     0.000 C 
BRANCH   2   3
ATOM      3  C   UNL     1      52.135 -34.917  23.202  1.00  0.00     0.006 C 
BRANCH   3   4
ATOM      4  C   UNL     1      51.387 -33.854  24.018  1.00  0.00     0.053 C 
BRANCH   4   5
ATOM      5  C   UNL     1      51.701 -32.484  23.502  1.00  0.00     0.041 C 
ATOM      6  O   UNL     1      50.909 -31.908  22.711  1.00  0.00    -0.550 OA
ATOM      7  O   UNL     1      52.845 -31.824  23.934  1.00  0.00    -0.550 OA
ENDBRANCH   4   5
ENDBRANCH   3   4
ENDBRANCH   2   3
ENDBRANCH   1   2
BRANCH   1   8
ATOM      8  C   UNL     1      55.109 -35.729  21.943  1.00  0.00     0.000 C 
BRANCH   8   9
ATOM      9  C   UNL     1      56.225 -36.692  22.389  1.00  0.00     0.006 C 
BRANCH   9  10
ATOM     10  C   UNL     1      57.153 -36.127  23.477  1.00  0.00     0.053 C 
BRANCH  10  11
ATOM     11  C   UNL     1      58.545 -35.910  22.969  1.00  0.00     0.041 C 
ATOM     12  O   UNL     1      59.048 -36.708  22.136  1.00  0.00    -0.550 OA
ATOM     13  O   UNL     1      59.275 -34.807  23.393  1.00  0.00    -0.550 OA
ENDBRANCH  10  11
ENDBRANCH   9  10
ENDBRANCH   8   9
ENDBRANCH   1   8
TORSDOF 8
ENDMDL
MODEL 5
REMARK VINA RESULT:    -2.718      0.723      6.220
REMARK INTER + INTRA:          -4.365
REMARK INTER:                  -4.028
REMARK INTRA:                  -0.337
REMARK UNBOUND:                -0.376
REMARK SMILES O=C([O-])CCCCCCCC(=O)[O-]
REMARK SMILES IDX 7 1 6 2 5 3 4 4 2 5 1 6 3 7 8 8 9 9 10 10 11 11 12 12 13 13
REMARK H PARENT
REMARK Flexibility Score: inf
ROOT
ATOM      1  C   UNL     1      51.527 -33.715  23.719  1.00  0.00     0.000 C 
ENDROOT
BRANCH   1   2
ATOM      2  C   UNL     1      50.212 -33.406  22.986  1.00  0.00     0.000 C 
BRANCH   2   3
ATOM      3  C   UNL     1      50.047 -31.911  22.671  1.00  0.00     0.006 C 
BRANCH   3   4
ATOM      4  C   UNL     1      51.329 -31.108  22.929  1.00  0.00     0.053 C 
BRANCH   4   5
ATOM      5  C   UNL     1      50.995 -29.698  23.302  1.00  0.00     0.041 C 
ATOM      6  O   UNL     1      50.195 -29.028  22.598  1.00  0.00    -0.550 OA
ATOM      7  O   UNL     1      51.530 -29.139  24.457  1.00  0.00    -0.550 OA
ENDBRANCH   4   5
ENDBRANCH   3   4
ENDBRANCH   2   3
ENDBRANCH   1   2
BRANCH   1   8
ATOM      8  C   UNL     1      51.826 -35.221  23.696  1.00  0.00     0.000 C 
BRANCH   8   9
ATOM      9  C   UNL     1      53.290 -35.544  24.049  1.00  0.00     0.006 C 
BRANCH   9  10
ATOM     10  C   UNL     1      54.327 -34.733  23.255  1.00  0.00     0.053 C 
BRANCH  10  11
ATOM     11  C   UNL     1      55.212 -35.614  22.426  1.00  0.00     0.041 C 
ATOM     12  O   UNL     1      54.805 -36.062  21.322  1.00  0.00    -0.550 OA
ATOM     13  O   UNL     1      56.497 -35.913  22.858  1.00  0.00    -0.550 OA
ENDBRANCH  10  11
ENDBRANCH   9  10
ENDBRANCH   8   9
ENDBRANCH   1   8
TORSDOF 8
ENDMDL
MODEL 6
REMARK VINA RESULT:    -2.690      1.526      2.159
REMARK INTER + INTRA:          -4.324
REMARK INTER:                  -3.891
REMARK INTRA:                  -0.433
REMARK UNBOUND:                -0.376
REMARK SMILES O=C([O-])CCCCCCCC(=O)[O-]
REMARK SMILES IDX 7 1 6 2 5 3 4 4 2 5 1 6 3 7 8 8 9 9 10 10 11 11 12 12 13 13
REMARK H PARENT
REMARK Flexibility Score: inf
ROOT
ATOM      1  C   UNL     1      54.171 -32.702  23.751  1.00  0.00     0.000 C 
ENDROOT
BRANCH   1   2
ATOM      2  C   UNL     1      55.145 -33.739  23.168  1.00  0.00     0.000 C 
BRANCH   2   3
ATOM      3  C   UNL     1      54.481 -35.105  22.928  1.00  0.00     0.006 C 
BRANCH   3   4
ATOM      4  C   UNL     1      55.361 -36.051  22.101  1.00  0.00     0.053 C 
BRANCH   4   5
ATOM      5  C   UNL     1      56.668 -36.285  22.792  1.00  0.00     0.041 C 
ATOM      6  O   UNL     1      57.751 -36.032  22.204  1.00  0.00    -0.550 OA
ATOM      7  O   UNL     1      56.687 -36.737  24.106  1.00  0.00    -0.550 OA
ENDBRANCH   4   5
ENDBRANCH   3   4
ENDBRANCH   2   3
ENDBRANCH   1   2
BRANCH   1   8
ATOM      8  C   UNL     1      52.830 -33.356  24.117  1.00  0.00     0.000 C 
BRANCH   8   9
ATOM      9  C   UNL     1      51.684 -32.334  24.246  1.00  0.00     0.006 C 
BRANCH   9  10
ATOM     10  C   UNL     1      51.352 -31.588  22.944  1.00  0.00     0.053 C 
BRANCH  10  11
ATOM     11  C   UNL     1      51.317 -30.103  23.142  1.00  0.00     0.041 C 
ATOM     12  O   UNL     1      50.347 -29.428  22.710  1.00  0.00    -0.550 OA
ATOM     13  O   UNL     1      52.343 -29.470  23.833  1.00  0.00    -0.550 OA
ENDBRANCH  10  11
ENDBRANCH   9  10
ENDBRANCH   8   9
ENDBRANCH   1   8
TORSDOF 8
ENDMDL
MODEL 7
REMARK VINA RESULT:    -2.683      1.246      6.484
REMARK INTER + INTRA:          -4.314
REMARK INTER:                  -4.005
REMARK INTRA:                  -0.309
REMARK UNBOUND:                -0.376
REMARK SMILES O=C([O-])CCCCCCCC(=O)[O-]
REMARK SMILES IDX 7 1 6 2 5 3 4 4 2 5 1 6 3 7 8 8 9 9 10 10 11 11 12 12 13 13
REMARK H PARENT
REMARK Flexibility Score: inf
ROOT
ATOM      1  C   UNL     1      52.219 -34.145  23.846  1.00  0.00     0.000 C 
ENDROOT
BRANCH   1   2
ATOM      2  C   UNL     1      50.855 -34.162  23.138  1.00  0.00     0.000 C 
BRANCH   2   3
ATOM      3  C   UNL     1      50.306 -32.750  22.877  1.00  0.00     0.006 C 
BRANCH   3   4
ATOM      4  C   UNL     1      51.384 -31.665  23.000  1.00  0.00     0.053 C 
BRANCH   4   5
ATOM      5  C   UNL     1      50.757 -30.337  23.287  1.00  0.00     0.041 C 
ATOM      6  O   UNL     1      50.133 -29.722  22.383  1.00  0.00    -0.550 OA
ATOM      7  O   UNL     1      50.819 -29.801  24.568  1.00  0.00    -0.550 OA
ENDBRANCH   4   5
ENDBRANCH   3   4
ENDBRANCH   2   3
ENDBRANCH   1   2
BRANCH   1   8
ATOM      8  C   UNL     1      53.126 -35.264  23.314  1.00  0.00     0.000 C 
BRANCH   8   9
ATOM      9  C   UNL     1      54.549 -34.773  22.984  1.00  0.00     0.006 C 
BRANCH   9  10
ATOM     10  C   UNL     1      55.353 -35.722  22.081  1.00  0.00     0.053 C 
BRANCH  10  11
ATOM     11  C   UNL     1      56.608 -36.199  22.747  1.00  0.00     0.041 C 
ATOM     12  O   UNL     1      57.702 -36.181  22.124  1.00  0.00    -0.550 OA
ATOM     13  O   UNL     1      56.573 -36.635  24.065  1.00  0.00    -0.550 OA
ENDBRANCH  10  11
ENDBRANCH   9  10
ENDBRANCH   8   9
ENDBRANCH   1   8
TORSDOF 8
ENDMDL
MODEL 8
REMARK VINA RESULT:    -2.644      3.826      6.611
REMARK INTER + INTRA:          -4.256
REMARK INTER:                  -3.575
REMARK INTRA:                  -0.682
REMARK UNBOUND:                -0.376
REMARK SMILES O=C([O-])CCCCCCCC(=O)[O-]
REMARK SMILES IDX 7 1 6 2 5 3 4 4 2 5 1 6 3 7 8 8 9 9 10 10 11 11 12 12 13 13
REMARK H PARENT
REMARK Flexibility Score: inf
ROOT
ATOM      1  C   UNL     1      54.030 -35.276  23.128  1.00  0.00     0.000 C 
ENDROOT
BRANCH   1   2
ATOM      2  C   UNL     1      54.219 -34.009  23.978  1.00  0.00     0.000 C 
BRANCH   2   3
ATOM      3  C   UNL     1      55.371 -33.125  23.473  1.00  0.00     0.006 C 
BRANCH   3   4
ATOM      4  C   UNL     1      56.436 -32.873  24.549  1.00  0.00     0.053 C 
BRANCH   4   5
ATOM      5  C   UNL     1      57.381 -31.800  24.106  1.00  0.00     0.041 C 
ATOM      6  O   UNL     1      56.955 -30.808  23.459  1.00  0.00    -0.550 OA
ATOM      7  O   UNL     1      58.725 -31.871  24.452  1.00  0.00    -0.550 OA
ENDBRANCH   4   5
ENDBRANCH   3   4
ENDBRANCH   2   3
ENDBRANCH   1   2
BRANCH   1   8
ATOM      8  C   UNL     1      55.157 -35.415  22.094  1.00  0.00     0.000 C 
BRANCH   8   9
ATOM      9  C   UNL     1      56.024 -36.668  22.320  1.00  0.00     0.006 C 
BRANCH   9  10
ATOM     10  C   UNL     1      57.096 -36.509  23.410  1.00  0.00     0.053 C 
BRANCH  10  11
ATOM     11  C   UNL     1      58.423 -36.113  22.838  1.00  0.00     0.041 C 
ATOM     12  O   UNL     1      58.973 -36.827  21.959  1.00  0.00    -0.550 OA
ATOM     13  O   UNL     1      59.036 -34.938  23.252  1.00  0.00    -0.550 OA
ENDBRANCH  10  11
ENDBRANCH   9  10
ENDBRANCH   8   9
ENDBRANCH   1   8
TORSDOF 8
ENDMDL
MODEL 9
REMARK VINA RESULT:    -2.643      3.607      4.572
REMARK INTER + INTRA:          -4.256
REMARK INTER:                  -3.551
REMARK INTRA:                  -0.705
REMARK UNBOUND:                -0.376
REMARK SMILES O=C([O-])CCCCCCCC(=O)[O-]
REMARK SMILES IDX 7 1 6 2 5 3 4 4 2 5 1 6 3 7 8 8 9 9 10 10 11 11 12 12 13 13
REMARK H PARENT
REMARK Flexibility Score: inf
ROOT
ATOM      1  C   UNL     1      54.034 -34.057  23.955  1.00  0.00     0.000 C 
ENDROOT
BRANCH   1   2
ATOM      2  C   UNL     1      54.068 -35.340  23.110  1.00  0.00     0.000 C 
BRANCH   2   3
ATOM      3  C   UNL     1      55.252 -35.373  22.131  1.00  0.00     0.006 C 
BRANCH   3   4
ATOM      4  C   UNL     1      56.225 -36.524  22.419  1.00  0.00     0.053 C 
BRANCH   4   5
ATOM      5  C   UNL     1      57.453 -36.010  23.104  1.00  0.00     0.041 C 
ATOM      6  O   UNL     1      58.499 -35.780  22.443  1.00  0.00    -0.550 OA
ATOM      7  O   UNL     1      57.425 -35.737  24.467  1.00  0.00    -0.550 OA
ENDBRANCH   4   5
ENDBRANCH   3   4
ENDBRANCH   2   3
ENDBRANCH   1   2
BRANCH   1   8
ATOM      8  C   UNL     1      55.066 -33.039  23.447  1.00  0.00     0.000 C 
BRANCH   8   9
ATOM      9  C   UNL     1      55.954 -32.478  24.573  1.00  0.00     0.006 C 
BRANCH   9  10
ATOM     10  C   UNL     1      57.403 -32.183  24.151  1.00  0.00     0.053 C 
BRANCH  10  11
ATOM     11  C   UNL     1      57.568 -30.778  23.657  1.00  0.00     0.041 C 
ATOM     12  O   UNL     1      56.795 -29.870  24.059  1.00  0.00    -0.550 OA
ATOM     13  O   UNL     1      58.596 -30.468  22.776  1.00  0.00    -0.550 OA
ENDBRANCH  10  11
ENDBRANCH   9  10
ENDBRANCH   8   9
ENDBRANCH   1   8
TORSDOF 8
ENDMDL
