MODEL 1
REMARK VINA RESULT:     8.726      0.000      0.000
REMARK INTER + INTRA:          12.358
REMARK INTER:                  12.807
REMARK INTRA:                  -0.449
REMARK UNBOUND:                -0.449
REMARK SMILES C=C1C=C[C@@H](C(C)C)CCC(C)=CCC1
REMARK SMILES IDX 3 1 4 2 5 3 9 4 10 5 11 6 12 7 13 8 6 10 7 11 8 12 2 13 1 14
REMARK SMILES IDX 15 15 14 16
REMARK H PARENT
REMARK Flexibility Score: 70.00
ROOT
ATOM      1  C   UNL     1     135.176 138.068 164.603  1.00  0.00    -0.001 C 
ATOM      2  C   UNL     1     135.204 137.617 163.334  1.00  0.00    -0.023 C 
ENDROOT
BRANCH   2   3
ATOM      3  C   UNL     1     136.423 137.599 162.430  1.00  0.00     0.014 C 
BRANCH   3   4
ATOM      4  C   UNL     1     136.434 138.826 161.472  1.00  0.00     0.012 C 
BRANCH   4   5
ATOM      5  C   UNL     1     135.397 139.925 161.797  1.00  0.00     0.031 C 
BRANCH   5   6
ATOM      6  C   UNL     1     135.966 141.281 162.201  1.00  0.00    -0.077 C 
ATOM      7  C   UNL     1     136.572 142.158 161.134  1.00  0.00     0.039 C 
ATOM      8  C   UNL     1     135.959 141.755 163.471  1.00  0.00    -0.028 CG0
ATOM      9  G   UNL     1     135.490 141.002 164.690  1.00  0.00     0.000 G0
ENDBRANCH   5   6
ENDBRANCH   4   5
ENDBRANCH   3   4
BRANCH   3  10
ATOM     10  C   UNL     1     136.613 136.249 161.665  1.00  0.00    -0.010 C 
ATOM     11  C   UNL     1     137.761 135.424 162.268  1.00  0.00     0.008 C 
ATOM     12  C   UNL     1     135.341 135.384 161.560  1.00  0.00     0.008 C 
ENDBRANCH   3  10
ENDBRANCH   2   3
BRANCH   1  13
ATOM     13  C   UNL     1     136.306 138.674 165.359  1.00  0.00    -0.055 C 
ATOM     14  C   UNL     1     137.126 137.858 166.028  1.00  0.00     0.012 C 
BRANCH  13  15
ATOM     15  C   UNL     1     136.653 140.145 165.266  1.00  0.00     0.039 C 
BRANCH  15  16
ATOM     16  C   UNL     1     135.503 141.004 164.680  1.00  0.00     0.032 CG0
ATOM     17  G   UNL     1     135.951 141.775 163.464  1.00  0.00     0.000 G0
ENDBRANCH  15  16
ENDBRANCH  13  15
ENDBRANCH   1  13
TORSDOF 1
ENDMDL
