MODEL 1
REMARK VINA RESULT:    -7.904      0.000      0.000
REMARK INTER + INTRA:          -9.516
REMARK INTER:                  -9.522
REMARK INTRA:                   0.005
REMARK UNBOUND:                 0.005
REMARK SMILES O=c1c(O)c(-c2ccc(O)c(O)c2)oc2cc(O)cc(O)c12
REMARK SMILES IDX 5 1 3 2 2 3 1 4 22 5 20 6 19 7 17 8 16 9 15 10 14 11 6 12
REMARK SMILES IDX 7 13 8 14 9 15 13 16 11 17 10 18 12 20 4 22 21 24 18 26
REMARK H PARENT 10 19 12 21 4 23 21 25 18 27
REMARK Flexibility Score: inf
ROOT
ATOM      1  C   UNL     1     104.395  91.983 104.868  1.00  0.00     0.180 A 
ATOM      2  C   UNL     1     103.221  91.348 104.428  1.00  0.00     0.208 A 
ATOM      3  C   UNL     1     102.035  91.529 105.155  1.00  0.00     0.238 A 
ATOM      4  O   UNL     1     100.972  91.019 104.714  1.00  0.00    -0.285 OA
ATOM      5  C   UNL     1     102.048  92.295 106.346  1.00  0.00     0.111 A 
ATOM      6  C   UNL     1     100.915  92.508 107.189  1.00  0.00     0.134 A 
ATOM      7  C   UNL     1     101.021  93.373 108.285  1.00  0.00     0.093 A 
ATOM      8  C   UNL     1     102.237  93.982 108.606  1.00  0.00     0.123 A 
ATOM      9  C   UNL     1     103.362  93.738 107.824  1.00  0.00     0.094 A 
ATOM     10  C   UNL     1     103.277  92.911 106.701  1.00  0.00     0.146 A 
ATOM     11  O   UNL     1     104.370  92.722 105.971  1.00  0.00    -0.452 OA
ENDROOT
BRANCH   1  12
ATOM     12  C   UNL     1     105.681  91.851 104.146  1.00  0.00     0.025 A 
ATOM     13  C   UNL     1     105.762  92.035 102.754  1.00  0.00     0.016 A 
ATOM     14  C   UNL     1     106.991  91.930 102.099  1.00  0.00     0.051 A 
ATOM     15  C   UNL     1     108.158  91.655 102.823  1.00  0.00     0.157 A 
ATOM     16  C   UNL     1     106.857  91.597 104.870  1.00  0.00     0.062 A 
ATOM     17  C   UNL     1     108.090  91.490 104.216  1.00  0.00     0.158 A 
BRANCH  15  18
ATOM     18  O   UNL     1     109.383  91.549 102.165  1.00  0.00    -0.504 OA
ATOM     19  H   UNL     1     109.825  90.650 102.009  1.00  0.00     0.293 HD
ENDBRANCH  15  18
BRANCH  17  20
ATOM     20  O   UNL     1     109.234  91.222 104.967  1.00  0.00    -0.504 OA
ATOM     21  H   UNL     1     110.086  90.874 104.544  1.00  0.00     0.293 HD
ENDBRANCH  17  20
ENDBRANCH   1  12
BRANCH   2  22
ATOM     22  O   UNL     1     103.246  90.533 103.292  1.00  0.00    -0.502 OA
ATOM     23  H   UNL     1     103.312  89.524 103.348  1.00  0.00     0.293 HD
ENDBRANCH   2  22
BRANCH   6  24
ATOM     24  O   UNL     1      99.678  91.881 107.010  1.00  0.00    -0.507 OA
ATOM     25  H   UNL     1      99.494  90.904 107.183  1.00  0.00     0.293 HD
ENDBRANCH   6  24
BRANCH   8  26
ATOM     26  O   UNL     1     102.338  94.827 109.710  1.00  0.00    -0.508 OA
ATOM     27  H   UNL     1     103.192  95.332 109.914  1.00  0.00     0.293 HD
ENDBRANCH   8  26
TORSDOF 6
ENDMDL
MODEL 2
REMARK VINA RESULT:    -7.587      3.171      7.305
REMARK INTER + INTRA:          -9.134
REMARK INTER:                  -8.893
REMARK INTRA:                  -0.240
REMARK UNBOUND:                 0.005
REMARK SMILES O=c1c(O)c(-c2ccc(O)c(O)c2)oc2cc(O)cc(O)c12
REMARK SMILES IDX 5 1 3 2 2 3 1 4 22 5 20 6 19 7 17 8 16 9 15 10 14 11 6 12
REMARK SMILES IDX 7 13 8 14 9 15 13 16 11 17 10 18 12 20 4 22 21 24 18 26
REMARK H PARENT 10 19 12 21 4 23 21 25 18 27
REMARK Flexibility Score: inf
ROOT
ATOM      1  C   UNL     1     102.545  92.965 103.879  1.00  0.00     0.180 A 
ATOM      2  C   UNL     1     103.913  92.744 103.645  1.00  0.00     0.208 A 
ATOM      3  C   UNL     1     104.381  92.711 102.323  1.00  0.00     0.238 A 
ATOM      4  O   UNL     1     105.618  92.587 102.122  1.00  0.00    -0.285 OA
ATOM      5  C   UNL     1     103.468  92.842 101.248  1.00  0.00     0.111 A 
ATOM      6  C   UNL     1     103.824  92.779  99.866  1.00  0.00     0.134 A 
ATOM      7  C   UNL     1     102.851  93.030  98.891  1.00  0.00     0.093 A 
ATOM      8  C   UNL     1     101.523  93.277  99.244  1.00  0.00     0.123 A 
ATOM      9  C   UNL     1     101.154  93.287 100.587  1.00  0.00     0.094 A 
ATOM     10  C   UNL     1     102.109  93.079 101.584  1.00  0.00     0.146 A 
ATOM     11  O   UNL     1     101.718  93.117 102.853  1.00  0.00    -0.452 OA
ENDROOT
BRANCH   1  12
ATOM     12  C   UNL     1     101.979  93.028 105.246  1.00  0.00     0.025 A 
ATOM     13  C   UNL     1     102.245  94.113 106.101  1.00  0.00     0.016 A 
ATOM     14  C   UNL     1     101.679  94.161 107.377  1.00  0.00     0.051 A 
ATOM     15  C   UNL     1     100.831  93.136 107.815  1.00  0.00     0.157 A 
ATOM     16  C   UNL     1     101.110  92.014 105.681  1.00  0.00     0.062 A 
ATOM     17  C   UNL     1     100.543  92.059 106.960  1.00  0.00     0.158 A 
BRANCH  15  18
ATOM     18  O   UNL     1     100.269  93.187 109.090  1.00  0.00    -0.504 OA
ATOM     19  H   UNL     1     100.286  94.036 109.643  1.00  0.00     0.293 HD
ENDBRANCH  15  18
BRANCH  17  20
ATOM     20  O   UNL     1      99.696  91.027 107.362  1.00  0.00    -0.504 OA
ATOM     21  H   UNL     1      99.794  90.082 107.011  1.00  0.00     0.293 HD
ENDBRANCH  17  20
ENDBRANCH   1  12
BRANCH   2  22
ATOM     22  O   UNL     1     104.786  92.540 104.718  1.00  0.00    -0.502 OA
ATOM     23  H   UNL     1     105.197  91.636 104.921  1.00  0.00     0.293 HD
ENDBRANCH   2  22
BRANCH   6  24
ATOM     24  O   UNL     1     105.101  92.452  99.401  1.00  0.00    -0.507 OA
ATOM     25  H   UNL     1     105.352  92.340  98.431  1.00  0.00     0.293 HD
ENDBRANCH   6  24
BRANCH   8  26
ATOM     26  O   UNL     1     100.558  93.508  98.265  1.00  0.00    -0.508 OA
ATOM     27  H   UNL     1      99.584  93.273  98.415  1.00  0.00     0.293 HD
ENDBRANCH   8  26
TORSDOF 6
ENDMDL
MODEL 3
REMARK VINA RESULT:    -7.414      3.599      6.607
REMARK INTER + INTRA:          -8.926
REMARK INTER:                  -8.752
REMARK INTRA:                  -0.174
REMARK UNBOUND:                 0.005
REMARK SMILES O=c1c(O)c(-c2ccc(O)c(O)c2)oc2cc(O)cc(O)c12
REMARK SMILES IDX 5 1 3 2 2 3 1 4 22 5 20 6 19 7 17 8 16 9 15 10 14 11 6 12
REMARK SMILES IDX 7 13 8 14 9 15 13 16 11 17 10 18 12 20 4 22 21 24 18 26
REMARK H PARENT 10 19 12 21 4 23 21 25 18 27
REMARK Flexibility Score: inf
ROOT
ATOM      1  C   UNL     1     102.081  92.914 103.356  1.00  0.00     0.180 A 
ATOM      2  C   UNL     1     101.257  91.821 103.037  1.00  0.00     0.208 A 
ATOM      3  C   UNL     1     101.020  91.518 101.687  1.00  0.00     0.238 A 
ATOM      4  O   UNL     1     100.342  90.495 101.407  1.00  0.00    -0.285 OA
ATOM      5  C   UNL     1     101.563  92.345 100.673  1.00  0.00     0.111 A 
ATOM      6  C   UNL     1     101.351  92.160  99.272  1.00  0.00     0.134 A 
ATOM      7  C   UNL     1     102.027  92.977  98.358  1.00  0.00     0.093 A 
ATOM      8  C   UNL     1     102.856  94.013  98.793  1.00  0.00     0.123 A 
ATOM      9  C   UNL     1     103.026  94.238 100.157  1.00  0.00     0.094 A 
ATOM     10  C   UNL     1     102.397  93.414 101.093  1.00  0.00     0.146 A 
ATOM     11  O   UNL     1     102.603  93.651 102.383  1.00  0.00    -0.452 OA
ENDROOT
BRANCH   1  12
ATOM     12  C   UNL     1     102.390  93.286 104.755  1.00  0.00     0.025 A 
ATOM     13  C   UNL     1     101.386  93.739 105.631  1.00  0.00     0.016 A 
ATOM     14  C   UNL     1     101.697  94.062 106.954  1.00  0.00     0.051 A 
ATOM     15  C   UNL     1     103.008  93.924 107.427  1.00  0.00     0.157 A 
ATOM     16  C   UNL     1     103.698  93.129 105.240  1.00  0.00     0.062 A 
ATOM     17  C   UNL     1     104.012  93.451 106.565  1.00  0.00     0.158 A 
BRANCH  15  18
ATOM     18  O   UNL     1     103.316  94.248 108.748  1.00  0.00    -0.504 OA
ATOM     19  H   UNL     1     104.108  93.834 109.224  1.00  0.00     0.293 HD
ENDBRANCH  15  18
BRANCH  17  20
ATOM     20  O   UNL     1     105.326  93.296 107.007  1.00  0.00    -0.504 OA
ATOM     21  H   UNL     1     105.843  92.437 106.866  1.00  0.00     0.293 HD
ENDBRANCH  17  20
ENDBRANCH   1  12
BRANCH   2  22
ATOM     22  O   UNL     1     100.668  91.063 104.053  1.00  0.00    -0.502 OA
ATOM     23  H   UNL     1     100.652  91.368 105.019  1.00  0.00     0.293 HD
ENDBRANCH   2  22
BRANCH   6  24
ATOM     24  O   UNL     1     100.475  91.213  98.732  1.00  0.00    -0.507 OA
ATOM     25  H   UNL     1     100.596  90.213  98.792  1.00  0.00     0.293 HD
ENDBRANCH   6  24
BRANCH   8  26
ATOM     26  O   UNL     1     103.510  94.833  97.875  1.00  0.00    -0.508 OA
ATOM     27  H   UNL     1     103.756  94.501  96.950  1.00  0.00     0.293 HD
ENDBRANCH   8  26
TORSDOF 6
ENDMDL
MODEL 4
REMARK VINA RESULT:    -7.327      1.392      6.732
REMARK INTER + INTRA:          -8.821
REMARK INTER:                  -8.742
REMARK INTRA:                  -0.078
REMARK UNBOUND:                 0.005
REMARK SMILES O=c1c(O)c(-c2ccc(O)c(O)c2)oc2cc(O)cc(O)c12
REMARK SMILES IDX 5 1 3 2 2 3 1 4 22 5 20 6 19 7 17 8 16 9 15 10 14 11 6 12
REMARK SMILES IDX 7 13 8 14 9 15 13 16 11 17 10 18 12 20 4 22 21 24 18 26
REMARK H PARENT 10 19 12 21 4 23 21 25 18 27
REMARK Flexibility Score: inf
ROOT
ATOM      1  C   UNL     1     104.047  92.589 105.369  1.00  0.00     0.180 A 
ATOM      2  C   UNL     1     103.909  92.834 103.992  1.00  0.00     0.208 A 
ATOM      3  C   UNL     1     104.985  92.547 103.138  1.00  0.00     0.238 A 
ATOM      4  O   UNL     1     104.828  92.699 101.898  1.00  0.00    -0.285 OA
ATOM      5  C   UNL     1     106.206  92.072 103.676  1.00  0.00     0.111 A 
ATOM      6  C   UNL     1     107.378  91.791 102.910  1.00  0.00     0.134 A 
ATOM      7  C   UNL     1     108.493  91.224 103.538  1.00  0.00     0.093 A 
ATOM      8  C   UNL     1     108.503  90.988 104.914  1.00  0.00     0.123 A 
ATOM      9  C   UNL     1     107.386  91.309 105.680  1.00  0.00     0.094 A 
ATOM     10  C   UNL     1     106.243  91.840 105.076  1.00  0.00     0.146 A 
ATOM     11  O   UNL     1     105.192  92.112 105.841  1.00  0.00    -0.452 OA
ENDROOT
BRANCH   1  12
ATOM     12  C   UNL     1     102.952  92.852 106.331  1.00  0.00     0.025 A 
ATOM     13  C   UNL     1     101.678  92.282 106.164  1.00  0.00     0.016 A 
ATOM     14  C   UNL     1     100.668  92.526 107.098  1.00  0.00     0.051 A 
ATOM     15  C   UNL     1     100.918  93.329 108.218  1.00  0.00     0.157 A 
ATOM     16  C   UNL     1     103.205  93.639 107.466  1.00  0.00     0.062 A 
ATOM     17  C   UNL     1     102.195  93.885 108.403  1.00  0.00     0.158 A 
BRANCH  15  18
ATOM     18  O   UNL     1      99.908  93.571 109.147  1.00  0.00    -0.504 OA
ATOM     19  H   UNL     1      99.715  94.506 109.489  1.00  0.00     0.293 HD
ENDBRANCH  15  18
BRANCH  17  20
ATOM     20  O   UNL     1     102.478  94.683 109.511  1.00  0.00    -0.504 OA
ATOM     21  H   UNL     1     103.399  95.071 109.674  1.00  0.00     0.293 HD
ENDBRANCH  17  20
ENDBRANCH   1  12
BRANCH   2  22
ATOM     22  O   UNL     1     102.722  93.375 103.490  1.00  0.00    -0.502 OA
ATOM     23  H   UNL     1     102.411  93.215 102.539  1.00  0.00     0.293 HD
ENDBRANCH   2  22
BRANCH   6  24
ATOM     24  O   UNL     1     107.506  92.071 101.546  1.00  0.00    -0.507 OA
ATOM     25  H   UNL     1     108.105  91.570 100.907  1.00  0.00     0.293 HD
ENDBRANCH   6  24
BRANCH   8  26
ATOM     26  O   UNL     1     109.625  90.439 105.533  1.00  0.00    -0.508 OA
ATOM     27  H   UNL     1     110.251  91.005 106.093  1.00  0.00     0.293 HD
ENDBRANCH   8  26
TORSDOF 6
ENDMDL
MODEL 5
REMARK VINA RESULT:    -7.144      2.499      7.093
REMARK INTER + INTRA:          -8.600
REMARK INTER:                  -8.337
REMARK INTRA:                  -0.263
REMARK UNBOUND:                 0.005
REMARK SMILES O=c1c(O)c(-c2ccc(O)c(O)c2)oc2cc(O)cc(O)c12
REMARK SMILES IDX 5 1 3 2 2 3 1 4 22 5 20 6 19 7 17 8 16 9 15 10 14 11 6 12
REMARK SMILES IDX 7 13 8 14 9 15 13 16 11 17 10 18 12 20 4 22 21 24 18 26
REMARK H PARENT 10 19 12 21 4 23 21 25 18 27
REMARK Flexibility Score: inf
ROOT
ATOM      1  C   UNL     1     102.373  92.937 103.821  1.00  0.00     0.180 A 
ATOM      2  C   UNL     1     101.567  93.205 102.701  1.00  0.00     0.208 A 
ATOM      3  C   UNL     1     102.130  93.110 101.419  1.00  0.00     0.238 A 
ATOM      4  O   UNL     1     101.385  93.279 100.418  1.00  0.00    -0.285 OA
ATOM      5  C   UNL     1     103.505  92.805 101.273  1.00  0.00     0.111 A 
ATOM      6  C   UNL     1     104.193  92.727 100.024  1.00  0.00     0.134 A 
ATOM      7  C   UNL     1     105.530  92.311  99.996  1.00  0.00     0.093 A 
ATOM      8  C   UNL     1     106.223  92.033 101.177  1.00  0.00     0.123 A 
ATOM      9  C   UNL     1     105.577  92.159 102.404  1.00  0.00     0.094 A 
ATOM     10  C   UNL     1     104.233  92.534 102.462  1.00  0.00     0.146 A 
ATOM     11  O   UNL     1     103.651  92.621 103.652  1.00  0.00    -0.452 OA
ENDROOT
BRANCH   1  12
ATOM     12  C   UNL     1     101.848  93.002 105.204  1.00  0.00     0.025 A 
ATOM     13  C   UNL     1     102.118  94.101 106.039  1.00  0.00     0.016 A 
ATOM     14  C   UNL     1     101.591  94.151 107.332  1.00  0.00     0.051 A 
ATOM     15  C   UNL     1     100.776  93.114 107.805  1.00  0.00     0.157 A 
ATOM     16  C   UNL     1     101.013  91.976 105.675  1.00  0.00     0.062 A 
ATOM     17  C   UNL     1     100.484  92.023 106.970  1.00  0.00     0.158 A 
BRANCH  15  18
ATOM     18  O   UNL     1     100.253  93.166 109.096  1.00  0.00    -0.504 OA
ATOM     19  H   UNL     1      99.608  92.462 109.436  1.00  0.00     0.293 HD
ENDBRANCH  15  18
BRANCH  17  20
ATOM     20  O   UNL     1      99.670  90.978 107.408  1.00  0.00    -0.504 OA
ATOM     21  H   UNL     1      99.423  90.201 106.808  1.00  0.00     0.293 HD
ENDBRANCH  17  20
ENDBRANCH   1  12
BRANCH   2  22
ATOM     22  O   UNL     1     100.231  93.580 102.869  1.00  0.00    -0.502 OA
ATOM     23  H   UNL     1      99.460  92.976 102.608  1.00  0.00     0.293 HD
ENDBRANCH   2  22
BRANCH   6  24
ATOM     24  O   UNL     1     103.622  93.068  98.794  1.00  0.00    -0.507 OA
ATOM     25  H   UNL     1     102.756  92.696  98.436  1.00  0.00     0.293 HD
ENDBRANCH   6  24
BRANCH   8  26
ATOM     26  O   UNL     1     107.559  91.637 101.141  1.00  0.00    -0.508 OA
ATOM     27  H   UNL     1     108.105  91.694 100.290  1.00  0.00     0.293 HD
ENDBRANCH   8  26
TORSDOF 6
ENDMDL
MODEL 6
REMARK VINA RESULT:    -7.108      2.782      7.041
REMARK INTER + INTRA:          -8.557
REMARK INTER:                  -8.379
REMARK INTRA:                  -0.178
REMARK UNBOUND:                 0.005
REMARK SMILES O=c1c(O)c(-c2ccc(O)c(O)c2)oc2cc(O)cc(O)c12
REMARK SMILES IDX 5 1 3 2 2 3 1 4 22 5 20 6 19 7 17 8 16 9 15 10 14 11 6 12
REMARK SMILES IDX 7 13 8 14 9 15 13 16 11 17 10 18 12 20 4 22 21 24 18 26
REMARK H PARENT 10 19 12 21 4 23 21 25 18 27
REMARK Flexibility Score: inf
ROOT
ATOM      1  C   UNL     1     102.990  92.908 104.253  1.00  0.00     0.180 A 
ATOM      2  C   UNL     1     104.267  92.327 104.163  1.00  0.00     0.208 A 
ATOM      3  C   UNL     1     104.905  92.277 102.914  1.00  0.00     0.238 A 
ATOM      4  O   UNL     1     106.077  91.823 102.853  1.00  0.00    -0.285 OA
ATOM      5  C   UNL     1     104.236  92.754 101.760  1.00  0.00     0.111 A 
ATOM      6  C   UNL     1     104.768  92.710 100.435  1.00  0.00     0.134 A 
ATOM      7  C   UNL     1     104.059  93.310  99.387  1.00  0.00     0.093 A 
ATOM      8  C   UNL     1     102.809  93.894  99.603  1.00  0.00     0.123 A 
ATOM      9  C   UNL     1     102.256  93.893 100.881  1.00  0.00     0.094 A 
ATOM     10  C   UNL     1     102.956  93.337 101.954  1.00  0.00     0.146 A 
ATOM     11  O   UNL     1     102.401  93.377 103.160  1.00  0.00    -0.452 OA
ENDROOT
BRANCH   1  12
ATOM     12  C   UNL     1     102.260  93.011 105.537  1.00  0.00     0.025 A 
ATOM     13  C   UNL     1     101.099  92.257 105.783  1.00  0.00     0.016 A 
ATOM     14  C   UNL     1     100.441  92.353 107.012  1.00  0.00     0.051 A 
ATOM     15  C   UNL     1     100.939  93.192 108.017  1.00  0.00     0.157 A 
ATOM     16  C   UNL     1     102.767  93.834 106.556  1.00  0.00     0.062 A 
ATOM     17  C   UNL     1     102.111  93.933 107.788  1.00  0.00     0.158 A 
BRANCH  15  18
ATOM     18  O   UNL     1     100.280  93.287 109.242  1.00  0.00    -0.504 OA
ATOM     19  H   UNL     1      99.309  93.016 109.344  1.00  0.00     0.293 HD
ENDBRANCH  15  18
BRANCH  17  20
ATOM     20  O   UNL     1     102.636  94.772 108.771  1.00  0.00    -0.504 OA
ATOM     21  H   UNL     1     103.198  94.419 109.535  1.00  0.00     0.293 HD
ENDBRANCH  17  20
ENDBRANCH   1  12
BRANCH   2  22
ATOM     22  O   UNL     1     104.878  91.793 105.301  1.00  0.00    -0.502 OA
ATOM     23  H   UNL     1     105.670  91.163 105.247  1.00  0.00     0.293 HD
ENDBRANCH   2  22
BRANCH   6  24
ATOM     24  O   UNL     1     105.965  92.075 100.094  1.00  0.00    -0.507 OA
ATOM     25  H   UNL     1     106.886  92.403 100.343  1.00  0.00     0.293 HD
ENDBRANCH   6  24
BRANCH   8  26
ATOM     26  O   UNL     1     102.103  94.472  98.550  1.00  0.00    -0.508 OA
ATOM     27  H   UNL     1     101.180  94.866  98.684  1.00  0.00     0.293 HD
ENDBRANCH   8  26
TORSDOF 6
ENDMDL
MODEL 7
REMARK VINA RESULT:    -6.853      2.302      7.236
REMARK INTER + INTRA:          -8.250
REMARK INTER:                  -7.935
REMARK INTRA:                  -0.315
REMARK UNBOUND:                 0.005
REMARK SMILES O=c1c(O)c(-c2ccc(O)c(O)c2)oc2cc(O)cc(O)c12
REMARK SMILES IDX 5 1 3 2 2 3 1 4 22 5 20 6 19 7 17 8 16 9 15 10 14 11 6 12
REMARK SMILES IDX 7 13 8 14 9 15 13 16 11 17 10 18 12 20 4 22 21 24 18 26
REMARK H PARENT 10 19 12 21 4 23 21 25 18 27
REMARK Flexibility Score: inf
ROOT
ATOM      1  C   UNL     1     103.787  92.493 102.817  1.00  0.00     0.180 A 
ATOM      2  C   UNL     1     103.311  92.453 101.495  1.00  0.00     0.208 A 
ATOM      3  C   UNL     1     104.218  92.212 100.451  1.00  0.00     0.238 A 
ATOM      4  O   UNL     1     103.773  92.104  99.278  1.00  0.00    -0.285 OA
ATOM      5  C   UNL     1     105.598  92.069 100.735  1.00  0.00     0.111 A 
ATOM      6  C   UNL     1     106.614  91.867  99.751  1.00  0.00     0.134 A 
ATOM      7  C   UNL     1     107.932  91.633 100.159  1.00  0.00     0.093 A 
ATOM      8  C   UNL     1     108.284  91.658 101.510  1.00  0.00     0.123 A 
ATOM      9  C   UNL     1     107.312  91.909 102.475  1.00  0.00     0.094 A 
ATOM     10  C   UNL     1     105.981  92.107 102.102  1.00  0.00     0.146 A 
ATOM     11  O   UNL     1     105.082  92.323 103.055  1.00  0.00    -0.452 OA
ENDROOT
BRANCH   1  12
ATOM     12  C   UNL     1     102.891  92.728 103.971  1.00  0.00     0.025 A 
ATOM     13  C   UNL     1     102.680  94.020 104.484  1.00  0.00     0.016 A 
ATOM     14  C   UNL     1     101.810  94.220 105.559  1.00  0.00     0.051 A 
ATOM     15  C   UNL     1     101.128  93.137 106.128  1.00  0.00     0.157 A 
ATOM     16  C   UNL     1     102.188  91.649 104.531  1.00  0.00     0.062 A 
ATOM     17  C   UNL     1     101.316  91.845 105.608  1.00  0.00     0.158 A 
BRANCH  15  18
ATOM     18  O   UNL     1     100.262  93.339 107.201  1.00  0.00    -0.504 OA
ATOM     19  H   UNL     1     100.597  93.675 108.097  1.00  0.00     0.293 HD
ENDBRANCH  15  18
BRANCH  17  20
ATOM     20  O   UNL     1     100.647  90.747 106.148  1.00  0.00    -0.504 OA
ATOM     21  H   UNL     1     100.236  90.769 107.073  1.00  0.00     0.293 HD
ENDBRANCH  17  20
ENDBRANCH   1  12
BRANCH   2  22
ATOM     22  O   UNL     1     101.956  92.672 101.229  1.00  0.00    -0.502 OA
ATOM     23  H   UNL     1     101.406  92.044 100.654  1.00  0.00     0.293 HD
ENDBRANCH   2  22
BRANCH   6  24
ATOM     24  O   UNL     1     106.387  91.910  98.372  1.00  0.00    -0.507 OA
ATOM     25  H   UNL     1     105.882  91.213  97.847  1.00  0.00     0.293 HD
ENDBRANCH   6  24
BRANCH   8  26
ATOM     26  O   UNL     1     109.603  91.441 101.905  1.00  0.00    -0.508 OA
ATOM     27  H   UNL     1     109.832  91.135 102.843  1.00  0.00     0.293 HD
ENDBRANCH   8  26
TORSDOF 6
ENDMDL
MODEL 8
REMARK VINA RESULT:    -6.840      2.835      4.882
REMARK INTER + INTRA:          -8.234
REMARK INTER:                  -8.404
REMARK INTRA:                   0.170
REMARK UNBOUND:                 0.005
REMARK SMILES O=c1c(O)c(-c2ccc(O)c(O)c2)oc2cc(O)cc(O)c12
REMARK SMILES IDX 5 1 3 2 2 3 1 4 22 5 20 6 19 7 17 8 16 9 15 10 14 11 6 12
REMARK SMILES IDX 7 13 8 14 9 15 13 16 11 17 10 18 12 20 4 22 21 24 18 26
REMARK H PARENT 10 19 12 21 4 23 21 25 18 27
REMARK Flexibility Score: inf
ROOT
ATOM      1  C   UNL     1     104.752  92.110 103.408  1.00  0.00     0.180 A 
ATOM      2  C   UNL     1     103.530  91.750 104.002  1.00  0.00     0.208 A 
ATOM      3  C   UNL     1     102.335  92.017 103.316  1.00  0.00     0.238 A 
ATOM      4  O   UNL     1     101.249  91.626 103.819  1.00  0.00    -0.285 OA
ATOM      5  C   UNL     1     102.372  92.693 102.072  1.00  0.00     0.111 A 
ATOM      6  C   UNL     1     101.220  93.057 101.309  1.00  0.00     0.134 A 
ATOM      7  C   UNL     1     101.384  93.627 100.042  1.00  0.00     0.093 A 
ATOM      8  C   UNL     1     102.655  93.907  99.535  1.00  0.00     0.123 A 
ATOM      9  C   UNL     1     103.784  93.607 100.294  1.00  0.00     0.094 A 
ATOM     10  C   UNL     1     103.654  93.001 101.545  1.00  0.00     0.146 A 
ATOM     11  O   UNL     1     104.757  92.713 102.226  1.00  0.00    -0.452 OA
ENDROOT
BRANCH   1  12
ATOM     12  C   UNL     1     106.054  91.847 104.063  1.00  0.00     0.025 A 
ATOM     13  C   UNL     1     106.215  91.981 105.454  1.00  0.00     0.016 A 
ATOM     14  C   UNL     1     107.447  91.705 106.052  1.00  0.00     0.051 A 
ATOM     15  C   UNL     1     108.531  91.277 105.274  1.00  0.00     0.157 A 
ATOM     16  C   UNL     1     107.137  91.398 103.291  1.00  0.00     0.062 A 
ATOM     17  C   UNL     1     108.373  91.120 103.887  1.00  0.00     0.158 A 
BRANCH  15  18
ATOM     18  O   UNL     1     109.759  91.003 105.874  1.00  0.00    -0.504 OA
ATOM     19  H   UNL     1     110.148  91.609 106.587  1.00  0.00     0.293 HD
ENDBRANCH  15  18
BRANCH  17  20
ATOM     20  O   UNL     1     109.430  90.689 103.086  1.00  0.00    -0.504 OA
ATOM     21  H   UNL     1     109.471  89.751 102.707  1.00  0.00     0.293 HD
ENDBRANCH  17  20
ENDBRANCH   1  12
BRANCH   2  22
ATOM     22  O   UNL     1     103.511  91.153 105.266  1.00  0.00    -0.502 OA
ATOM     23  H   UNL     1     103.347  91.681 106.115  1.00  0.00     0.293 HD
ENDBRANCH   2  22
BRANCH   6  24
ATOM     24  O   UNL     1      99.905  92.904 101.758  1.00  0.00    -0.507 OA
ATOM     25  H   UNL     1      99.363  92.056 101.682  1.00  0.00     0.293 HD
ENDBRANCH   6  24
BRANCH   8  26
ATOM     26  O   UNL     1     102.807  94.491  98.279  1.00  0.00    -0.508 OA
ATOM     27  H   UNL     1     103.696  94.479  97.793  1.00  0.00     0.293 HD
ENDBRANCH   8  26
TORSDOF 6
ENDMDL
MODEL 9
REMARK VINA RESULT:    -6.740      3.241      5.065
REMARK INTER + INTRA:          -8.113
REMARK INTER:                  -7.812
REMARK INTRA:                  -0.301
REMARK UNBOUND:                 0.005
REMARK SMILES O=c1c(O)c(-c2ccc(O)c(O)c2)oc2cc(O)cc(O)c12
REMARK SMILES IDX 5 1 3 2 2 3 1 4 22 5 20 6 19 7 17 8 16 9 15 10 14 11 6 12
REMARK SMILES IDX 7 13 8 14 9 15 13 16 11 17 10 18 12 20 4 22 21 24 18 26
REMARK H PARENT 10 19 12 21 4 23 21 25 18 27
REMARK Flexibility Score: inf
ROOT
ATOM      1  C   UNL     1     102.448  93.090 103.334  1.00  0.00     0.180 A 
ATOM      2  C   UNL     1     103.795  92.940 103.710  1.00  0.00     0.208 A 
ATOM      3  C   UNL     1     104.127  92.958 105.074  1.00  0.00     0.238 A 
ATOM      4  O   UNL     1     105.323  92.749 105.406  1.00  0.00    -0.285 OA
ATOM      5  C   UNL     1     103.119  93.183 106.042  1.00  0.00     0.111 A 
ATOM      6  C   UNL     1     103.347  93.266 107.450  1.00  0.00     0.134 A 
ATOM      7  C   UNL     1     102.258  93.385 108.320  1.00  0.00     0.093 A 
ATOM      8  C   UNL     1     100.953  93.488 107.832  1.00  0.00     0.123 A 
ATOM      9  C   UNL     1     100.723  93.463 106.459  1.00  0.00     0.094 A 
ATOM     10  C   UNL     1     101.787  93.306 105.567  1.00  0.00     0.146 A 
ATOM     11  O   UNL     1     101.521  93.267 104.267  1.00  0.00    -0.452 OA
ENDROOT
BRANCH   1  12
ATOM     12  C   UNL     1     102.018  93.067 101.918  1.00  0.00     0.025 A 
ATOM     13  C   UNL     1     102.149  94.200 101.094  1.00  0.00     0.016 A 
ATOM     14  C   UNL     1     101.759  94.146  99.754  1.00  0.00     0.051 A 
ATOM     15  C   UNL     1     101.246  92.961  99.212  1.00  0.00     0.157 A 
ATOM     16  C   UNL     1     101.524  91.875 101.365  1.00  0.00     0.062 A 
ATOM     17  C   UNL     1     101.131  91.819 100.023  1.00  0.00     0.158 A 
BRANCH  15  18
ATOM     18  O   UNL     1     100.855  92.911  97.875  1.00  0.00    -0.504 OA
ATOM     19  H   UNL     1     101.511  93.095  97.124  1.00  0.00     0.293 HD
ENDBRANCH  15  18
BRANCH  17  20
ATOM     20  O   UNL     1     100.631  90.621  99.513  1.00  0.00    -0.504 OA
ATOM     21  H   UNL     1     100.249  89.899 100.111  1.00  0.00     0.293 HD
ENDBRANCH  17  20
ENDBRANCH   1  12
BRANCH   2  22
ATOM     22  O   UNL     1     104.785  92.796 102.734  1.00  0.00    -0.502 OA
ATOM     23  H   UNL     1     105.020  91.898 102.327  1.00  0.00     0.293 HD
ENDBRANCH   2  22
BRANCH   6  24
ATOM     24  O   UNL     1     104.616  93.263 108.038  1.00  0.00    -0.507 OA
ATOM     25  H   UNL     1     105.474  93.499 107.563  1.00  0.00     0.293 HD
ENDBRANCH   6  24
BRANCH   8  26
ATOM     26  O   UNL     1      99.876  93.624 108.706  1.00  0.00    -0.508 OA
ATOM     27  H   UNL     1      99.441  92.818 109.140  1.00  0.00     0.293 HD
ENDBRANCH   8  26
TORSDOF 6
ENDMDL
