MODEL 1
REMARK VINA RESULT:    -5.315      0.000      0.000
REMARK INTER + INTRA:          -6.423
REMARK INTER:                  -6.247
REMARK INTRA:                  -0.176
REMARK UNBOUND:                -0.176
REMARK SMILES C=C[C@]1(C)CC[C@@H](C(=C)C)C[C@@H]1C(=C)C
REMARK SMILES IDX 7 1 6 2 5 3 3 4 12 5 11 6 4 7 8 8 10 9 9 10 13 11 14 12
REMARK SMILES IDX 15 13 2 14 1 15
REMARK H PARENT
REMARK Flexibility Score: inf
ROOT
ATOM      1  C   UNL     1      30.455  26.723  12.184  1.00  0.00     0.015 C 
ATOM      2  C   UNL     1      31.920  26.256  12.208  1.00  0.00     0.009 C 
ATOM      3  C   UNL     1      32.032  24.726  12.304  1.00  0.00     0.012 C 
ATOM      4  C   UNL     1      31.243  23.979  11.185  1.00  0.00    -0.008 C 
ATOM      5  C   UNL     1      29.752  24.490  11.116  1.00  0.00     0.024 C 
ATOM      6  C   UNL     1      29.660  26.035  11.058  1.00  0.00     0.017 C 
ATOM      7  C   UNL     1      31.937  24.221   9.816  1.00  0.00     0.016 C 
ENDROOT
BRANCH   1   8
ATOM      8  C   UNL     1      30.362  28.241  12.076  1.00  0.00    -0.077 C 
ATOM      9  C   UNL     1      31.353  29.002  11.231  1.00  0.00     0.039 C 
ATOM     10  C   UNL     1      29.409  28.932  12.725  1.00  0.00     0.008 C 
ENDBRANCH   1   8
BRANCH   5  11
ATOM     11  C   UNL     1      28.763  23.936  12.163  1.00  0.00    -0.077 C 
ATOM     12  C   UNL     1      27.446  24.001  11.892  1.00  0.00     0.008 C 
ATOM     13  C   UNL     1      29.187  23.405  13.518  1.00  0.00     0.039 C 
ENDBRANCH   5  11
BRANCH   4  14
ATOM     14  C   UNL     1      31.270  22.468  11.417  1.00  0.00    -0.028 C 
ATOM     15  C   UNL     1      32.075  21.629  10.749  1.00  0.00     0.004 C 
ENDBRANCH   4  14
TORSDOF 3
ENDMDL
MODEL 2
REMARK VINA RESULT:    -5.209      0.896      1.023
REMARK INTER + INTRA:          -6.299
REMARK INTER:                  -5.963
REMARK INTRA:                  -0.336
REMARK UNBOUND:                -0.176
REMARK SMILES C=C[C@]1(C)CC[C@@H](C(=C)C)C[C@@H]1C(=C)C
REMARK SMILES IDX 7 1 6 2 5 3 3 4 12 5 11 6 4 7 8 8 10 9 9 10 13 11 14 12
REMARK SMILES IDX 15 13 2 14 1 15
REMARK H PARENT
REMARK Flexibility Score: inf
ROOT
ATOM      1  C   UNL     1      30.098  26.561  12.226  1.00  0.00     0.015 C 
ATOM      2  C   UNL     1      31.484  26.039  12.640  1.00  0.00     0.009 C 
ATOM      3  C   UNL     1      31.446  24.549  13.016  1.00  0.00     0.012 C 
ATOM      4  C   UNL     1      30.839  23.646  11.899  1.00  0.00    -0.008 C 
ATOM      5  C   UNL     1      29.439  24.205  11.429  1.00  0.00     0.024 C 
ATOM      6  C   UNL     1      29.491  25.716  11.090  1.00  0.00     0.017 C 
ATOM      7  C   UNL     1      31.811  23.601  10.688  1.00  0.00     0.016 C 
ENDROOT
BRANCH   1   8
ATOM      8  C   UNL     1      30.156  28.037  11.845  1.00  0.00    -0.077 C 
ATOM      9  C   UNL     1      30.935  28.474  10.630  1.00  0.00     0.039 C 
ATOM     10  C   UNL     1      29.524  28.973  12.573  1.00  0.00     0.008 C 
ENDBRANCH   1   8
BRANCH   5  11
ATOM     11  C   UNL     1      28.218  23.900  12.319  1.00  0.00    -0.077 C 
ATOM     12  C   UNL     1      27.007  23.820  11.735  1.00  0.00     0.008 C 
ATOM     13  C   UNL     1      28.290  23.772  13.828  1.00  0.00     0.039 C 
ENDBRANCH   5  11
BRANCH   4  14
ATOM     14  C   UNL     1      30.691  22.204  12.385  1.00  0.00    -0.028 C 
ATOM     15  C   UNL     1      31.325  21.718  13.462  1.00  0.00     0.004 C 
ENDBRANCH   4  14
TORSDOF 3
ENDMDL
MODEL 3
REMARK VINA RESULT:    -4.647      1.492      3.164
REMARK INTER + INTRA:          -5.638
REMARK INTER:                  -5.913
REMARK INTRA:                   0.275
REMARK UNBOUND:                -0.176
REMARK SMILES C=C[C@]1(C)CC[C@@H](C(=C)C)C[C@@H]1C(=C)C
REMARK SMILES IDX 7 1 6 2 5 3 3 4 12 5 11 6 4 7 8 8 10 9 9 10 13 11 14 12
REMARK SMILES IDX 15 13 2 14 1 15
REMARK H PARENT
REMARK Flexibility Score: inf
ROOT
ATOM      1  C   UNL     1      29.626  25.424  11.413  1.00  0.00     0.015 C 
ATOM      2  C   UNL     1      28.730  24.723  12.448  1.00  0.00     0.009 C 
ATOM      3  C   UNL     1      29.168  23.272  12.699  1.00  0.00     0.012 C 
ATOM      4  C   UNL     1      30.668  23.143  13.106  1.00  0.00    -0.008 C 
ATOM      5  C   UNL     1      31.593  23.905  12.079  1.00  0.00     0.024 C 
ATOM      6  C   UNL     1      31.112  25.353  11.813  1.00  0.00     0.017 C 
ATOM      7  C   UNL     1      30.869  23.741  14.526  1.00  0.00     0.016 C 
ENDROOT
BRANCH   1   8
ATOM      8  C   UNL     1      29.184  26.865  11.186  1.00  0.00    -0.077 C 
ATOM      9  C   UNL     1      30.039  27.799  10.365  1.00  0.00     0.039 C 
ATOM     10  C   UNL     1      28.038  27.336  11.706  1.00  0.00     0.008 C 
ENDBRANCH   1   8
BRANCH   5  11
ATOM     11  C   UNL     1      31.910  23.194  10.747  1.00  0.00    -0.077 C 
ATOM     12  C   UNL     1      31.951  23.935   9.624  1.00  0.00     0.008 C 
ATOM     13  C   UNL     1      32.089  21.695  10.619  1.00  0.00     0.039 C 
ENDBRANCH   5  11
BRANCH   4  14
ATOM     14  C   UNL     1      31.083  21.674  13.197  1.00  0.00    -0.028 C 
ATOM     15  C   UNL     1      30.349  20.735  13.810  1.00  0.00     0.004 C 
ENDBRANCH   4  14
TORSDOF 3
ENDMDL
MODEL 4
REMARK VINA RESULT:    -4.639      1.723      5.049
REMARK INTER + INTRA:          -5.628
REMARK INTER:                  -5.323
REMARK INTRA:                  -0.305
REMARK UNBOUND:                -0.176
REMARK SMILES C=C[C@]1(C)CC[C@@H](C(=C)C)C[C@@H]1C(=C)C
REMARK SMILES IDX 7 1 6 2 5 3 3 4 12 5 11 6 4 7 8 8 10 9 9 10 13 11 14 12
REMARK SMILES IDX 15 13 2 14 1 15
REMARK H PARENT
REMARK Flexibility Score: inf
ROOT
ATOM      1  C   UNL     1      30.746  21.738  12.733  1.00  0.00     0.015 C 
ATOM      2  C   UNL     1      32.020  22.341  12.117  1.00  0.00     0.009 C 
ATOM      3  C   UNL     1      31.755  23.717  11.484  1.00  0.00     0.012 C 
ATOM      4  C   UNL     1      31.097  24.732  12.469  1.00  0.00    -0.008 C 
ATOM      5  C   UNL     1      29.819  24.102  13.148  1.00  0.00     0.024 C 
ATOM      6  C   UNL     1      30.098  22.700  13.746  1.00  0.00     0.017 C 
ATOM      7  C   UNL     1      32.125  25.125  13.566  1.00  0.00     0.016 C 
ENDROOT
BRANCH   1   8
ATOM      8  C   UNL     1      31.030  20.380  13.366  1.00  0.00    -0.077 C 
ATOM      9  C   UNL     1      31.959  19.406  12.685  1.00  0.00     0.039 C 
ATOM     10  C   UNL     1      30.466  20.020  14.531  1.00  0.00     0.008 C 
ENDBRANCH   1   8
BRANCH   5  11
ATOM     11  C   UNL     1      28.516  24.080  12.323  1.00  0.00    -0.077 C 
ATOM     12  C   UNL     1      27.343  24.125  12.982  1.00  0.00     0.008 C 
ATOM     13  C   UNL     1      28.480  23.920  10.816  1.00  0.00     0.039 C 
ENDBRANCH   5  11
BRANCH   4  14
ATOM     14  C   UNL     1      30.724  26.026  11.746  1.00  0.00    -0.028 C 
ATOM     15  C   UNL     1      30.882  27.245  12.281  1.00  0.00     0.004 C 
ENDBRANCH   4  14
TORSDOF 3
ENDMDL
MODEL 5
REMARK VINA RESULT:    -4.557      1.620      5.314
REMARK INTER + INTRA:          -5.533
REMARK INTER:                  -5.187
REMARK INTRA:                  -0.346
REMARK UNBOUND:                -0.176
REMARK SMILES C=C[C@]1(C)CC[C@@H](C(=C)C)C[C@@H]1C(=C)C
REMARK SMILES IDX 7 1 6 2 5 3 3 4 12 5 11 6 4 7 8 8 10 9 9 10 13 11 14 12
REMARK SMILES IDX 15 13 2 14 1 15
REMARK H PARENT
REMARK Flexibility Score: inf
ROOT
ATOM      1  C   UNL     1      30.741  22.450  12.981  1.00  0.00     0.015 C 
ATOM      2  C   UNL     1      29.344  22.623  13.600  1.00  0.00     0.009 C 
ATOM      3  C   UNL     1      28.890  24.091  13.590  1.00  0.00     0.012 C 
ATOM      4  C   UNL     1      28.938  24.741  12.172  1.00  0.00    -0.008 C 
ATOM      5  C   UNL     1      30.352  24.522  11.506  1.00  0.00     0.024 C 
ATOM      6  C   UNL     1      30.807  23.042  11.560  1.00  0.00     0.017 C 
ATOM      7  C   UNL     1      27.839  24.105  11.277  1.00  0.00     0.016 C 
ENDROOT
BRANCH   1   8
ATOM      8  C   UNL     1      31.171  20.987  12.988  1.00  0.00    -0.077 C 
ATOM      9  C   UNL     1      30.625  20.043  14.031  1.00  0.00     0.039 C 
ATOM     10  C   UNL     1      32.036  20.507  12.079  1.00  0.00     0.008 C 
ENDBRANCH   1   8
BRANCH   5  11
ATOM     11  C   UNL     1      31.499  25.450  11.955  1.00  0.00    -0.077 C 
ATOM     12  C   UNL     1      32.123  26.190  11.019  1.00  0.00     0.008 C 
ATOM     13  C   UNL     1      32.023  25.509  13.376  1.00  0.00     0.039 C 
ENDBRANCH   5  11
BRANCH   4  14
ATOM     14  C   UNL     1      28.619  26.234  12.249  1.00  0.00    -0.028 C 
ATOM     15  C   UNL     1      28.634  27.050  11.185  1.00  0.00     0.004 C 
ENDBRANCH   4  14
TORSDOF 3
ENDMDL
MODEL 6
REMARK VINA RESULT:    -3.515      1.434      2.061
REMARK INTER + INTRA:          -4.307
REMARK INTER:                  -3.832
REMARK INTRA:                  -0.476
REMARK UNBOUND:                -0.176
REMARK SMILES C=C[C@]1(C)CC[C@@H](C(=C)C)C[C@@H]1C(=C)C
REMARK SMILES IDX 7 1 6 2 5 3 3 4 12 5 11 6 4 7 8 8 10 9 9 10 13 11 14 12
REMARK SMILES IDX 15 13 2 14 1 15
REMARK H PARENT
REMARK Flexibility Score: inf
ROOT
ATOM      1  C   UNL     1      30.220  27.005  11.700  1.00  0.00     0.015 C 
ATOM      2  C   UNL     1      30.946  26.776  10.363  1.00  0.00     0.009 C 
ATOM      3  C   UNL     1      31.856  25.539  10.409  1.00  0.00     0.012 C 
ATOM      4  C   UNL     1      31.111  24.241  10.850  1.00  0.00    -0.008 C 
ATOM      5  C   UNL     1      30.319  24.482  12.194  1.00  0.00     0.024 C 
ATOM      6  C   UNL     1      29.436  25.754  12.139  1.00  0.00     0.017 C 
ATOM      7  C   UNL     1      30.119  23.813   9.734  1.00  0.00     0.016 C 
ENDROOT
BRANCH   1   8
ATOM      8  C   UNL     1      29.313  28.229  11.632  1.00  0.00    -0.077 C 
ATOM      9  C   UNL     1      29.903  29.598  11.403  1.00  0.00     0.039 C 
ATOM     10  C   UNL     1      27.981  28.121  11.774  1.00  0.00     0.008 C 
ENDBRANCH   1   8
BRANCH   5  11
ATOM     11  C   UNL     1      31.125  24.448  13.509  1.00  0.00    -0.077 C 
ATOM     12  C   UNL     1      30.869  23.461  14.388  1.00  0.00     0.008 C 
ATOM     13  C   UNL     1      32.125  25.515  13.907  1.00  0.00     0.039 C 
ENDBRANCH   5  11
BRANCH   4  14
ATOM     14  C   UNL     1      32.093  23.082  11.020  1.00  0.00    -0.028 C 
ATOM     15  C   UNL     1      31.721  21.794  11.044  1.00  0.00     0.004 C 
ENDBRANCH   4  14
TORSDOF 3
ENDMDL
MODEL 7
REMARK VINA RESULT:    -3.405      1.646      4.507
REMARK INTER + INTRA:          -4.179
REMARK INTER:                  -4.129
REMARK INTRA:                  -0.050
REMARK UNBOUND:                -0.176
REMARK SMILES C=C[C@]1(C)CC[C@@H](C(=C)C)C[C@@H]1C(=C)C
REMARK SMILES IDX 7 1 6 2 5 3 3 4 12 5 11 6 4 7 8 8 10 9 9 10 13 11 14 12
REMARK SMILES IDX 15 13 2 14 1 15
REMARK H PARENT
REMARK Flexibility Score: inf
ROOT
ATOM      1  C   UNL     1      28.443  25.069  11.718  1.00  0.00     0.015 C 
ATOM      2  C   UNL     1      29.547  24.380  10.898  1.00  0.00     0.009 C 
ATOM      3  C   UNL     1      30.566  25.389  10.346  1.00  0.00     0.012 C 
ATOM      4  C   UNL     1      31.196  26.295  11.449  1.00  0.00    -0.008 C 
ATOM      5  C   UNL     1      30.071  26.964  12.331  1.00  0.00     0.024 C 
ATOM      6  C   UNL     1      29.034  25.936  12.846  1.00  0.00     0.017 C 
ATOM      7  C   UNL     1      32.121  25.435  12.354  1.00  0.00     0.016 C 
ENDROOT
BRANCH   1   8
ATOM      8  C   UNL     1      27.448  24.052  12.267  1.00  0.00    -0.077 C 
ATOM      9  C   UNL     1      27.527  23.619  13.710  1.00  0.00     0.039 C 
ATOM     10  C   UNL     1      26.489  23.521  11.490  1.00  0.00     0.008 C 
ENDBRANCH   1   8
BRANCH   5  11
ATOM     11  C   UNL     1      29.353  28.199  11.748  1.00  0.00    -0.077 C 
ATOM     12  C   UNL     1      28.177  28.015  11.120  1.00  0.00     0.008 C 
ATOM     13  C   UNL     1      29.942  29.596  11.763  1.00  0.00     0.039 C 
ENDBRANCH   5  11
BRANCH   4  14
ATOM     14  C   UNL     1      32.085  27.371  10.826  1.00  0.00    -0.028 C 
ATOM     15  C   UNL     1      32.125  27.629   9.511  1.00  0.00     0.004 C 
ENDBRANCH   4  14
TORSDOF 3
ENDMDL
MODEL 8
REMARK VINA RESULT:    -3.266      1.202      3.158
REMARK INTER + INTRA:          -4.015
REMARK INTER:                  -3.891
REMARK INTRA:                  -0.124
REMARK UNBOUND:                -0.176
REMARK SMILES C=C[C@]1(C)CC[C@@H](C(=C)C)C[C@@H]1C(=C)C
REMARK SMILES IDX 7 1 6 2 5 3 3 4 12 5 11 6 4 7 8 8 10 9 9 10 13 11 14 12
REMARK SMILES IDX 15 13 2 14 1 15
REMARK H PARENT
REMARK Flexibility Score: inf
ROOT
ATOM      1  C   UNL     1      30.755  26.201  11.471  1.00  0.00     0.015 C 
ATOM      2  C   UNL     1      29.375  26.066  12.137  1.00  0.00     0.009 C 
ATOM      3  C   UNL     1      28.944  24.598  12.271  1.00  0.00     0.012 C 
ATOM      4  C   UNL     1      29.992  23.712  13.013  1.00  0.00    -0.008 C 
ATOM      5  C   UNL     1      31.423  23.885  12.371  1.00  0.00     0.024 C 
ATOM      6  C   UNL     1      31.823  25.373  12.211  1.00  0.00     0.017 C 
ATOM      7  C   UNL     1      30.043  24.122  14.511  1.00  0.00     0.016 C 
ENDROOT
BRANCH   1   8
ATOM      8  C   UNL     1      31.173  27.663  11.358  1.00  0.00    -0.077 C 
ATOM      9  C   UNL     1      30.534  28.555  10.323  1.00  0.00     0.039 C 
ATOM     10  C   UNL     1      32.109  28.188  12.166  1.00  0.00     0.008 C 
ENDBRANCH   1   8
BRANCH   5  11
ATOM     11  C   UNL     1      31.714  23.111  11.068  1.00  0.00    -0.077 C 
ATOM     12  C   UNL     1      32.125  21.833  11.164  1.00  0.00     0.008 C 
ATOM     13  C   UNL     1      31.651  23.737   9.689  1.00  0.00     0.039 C 
ENDBRANCH   5  11
BRANCH   4  14
ATOM     14  C   UNL     1      29.577  22.241  12.985  1.00  0.00    -0.028 C 
ATOM     15  C   UNL     1      29.830  21.381  13.982  1.00  0.00     0.004 C 
ENDBRANCH   4  14
TORSDOF 3
ENDMDL
MODEL 9
REMARK VINA RESULT:    -3.036      2.350      5.678
REMARK INTER + INTRA:          -3.745
REMARK INTER:                  -4.207
REMARK INTRA:                   0.462
REMARK UNBOUND:                -0.176
REMARK SMILES C=C[C@]1(C)CC[C@@H](C(=C)C)C[C@@H]1C(=C)C
REMARK SMILES IDX 7 1 6 2 5 3 3 4 12 5 11 6 4 7 8 8 10 9 9 10 13 11 14 12
REMARK SMILES IDX 15 13 2 14 1 15
REMARK H PARENT
REMARK Flexibility Score: inf
ROOT
ATOM      1  C   UNL     1      31.437  21.492  13.758  1.00  0.00     0.015 C 
ATOM      2  C   UNL     1      31.156  22.619  14.766  1.00  0.00     0.009 C 
ATOM      3  C   UNL     1      30.967  23.976  14.070  1.00  0.00     0.012 C 
ATOM      4  C   UNL     1      29.868  23.953  12.963  1.00  0.00    -0.008 C 
ATOM      5  C   UNL     1      30.116  22.765  11.954  1.00  0.00     0.024 C 
ATOM      6  C   UNL     1      30.342  21.414  12.677  1.00  0.00     0.017 C 
ATOM      7  C   UNL     1      28.473  23.786  13.627  1.00  0.00     0.016 C 
ENDROOT
BRANCH   1   8
ATOM      8  C   UNL     1      31.610  20.151  14.465  1.00  0.00    -0.077 C 
ATOM      9  C   UNL     1      31.762  20.100  15.964  1.00  0.00     0.039 C 
ATOM     10  C   UNL     1      31.632  18.996  13.778  1.00  0.00     0.008 C 
ENDBRANCH   1   8
BRANCH   5  11
ATOM     11  C   UNL     1      31.189  22.973  10.864  1.00  0.00    -0.077 C 
ATOM     12  C   UNL     1      31.254  24.171  10.255  1.00  0.00     0.008 C 
ATOM     13  C   UNL     1      32.113  21.874  10.378  1.00  0.00     0.039 C 
ENDBRANCH   5  11
BRANCH   4  14
ATOM     14  C   UNL     1      29.828  25.283  12.209  1.00  0.00    -0.028 C 
ATOM     15  C   UNL     1      28.693  25.921  11.893  1.00  0.00     0.004 C 
ENDBRANCH   4  14
TORSDOF 3
ENDMDL
