MODEL 1
REMARK VINA RESULT:    -2.527      0.000      0.000
REMARK INTER + INTRA:          -2.527
REMARK INTER:                  -2.527
REMARK INTRA:                   0.000
REMARK UNBOUND:                 0.000
REMARK SMILES CC(=O)[O-]
REMARK SMILES IDX 1 1 2 2 3 3 4 4
REMARK H PARENT
REMARK Flexibility Score: inf
ROOT
ATOM      1  C   UNL     1      13.824  35.347  13.026  1.00  0.00     0.063 C 
ATOM      2  C   UNL     1      13.862  33.927  13.478  1.00  0.00     0.038 C 
ATOM      3  O   UNL     1      14.479  33.616  14.531  1.00  0.00    -0.550 OA
ATOM      4  O   UNL     1      13.263  32.936  12.712  1.00  0.00    -0.550 OA
ENDROOT
TORSDOF 0
ENDMDL
MODEL 2
REMARK VINA RESULT:    -2.500      1.761      2.084
REMARK INTER + INTRA:          -2.500
REMARK INTER:                  -2.500
REMARK INTRA:                   0.000
REMARK UNBOUND:                 0.000
REMARK SMILES CC(=O)[O-]
REMARK SMILES IDX 1 1 2 2 3 3 4 4
REMARK H PARENT
REMARK Flexibility Score: inf
ROOT
ATOM      1  C   UNL     1      13.425  33.884  13.844  1.00  0.00     0.063 C 
ATOM      2  C   UNL     1      13.199  32.530  13.262  1.00  0.00     0.038 C 
ATOM      3  O   UNL     1      13.752  32.208  12.177  1.00  0.00    -0.550 OA
ATOM      4  O   UNL     1      12.336  31.639  13.886  1.00  0.00    -0.550 OA
ENDROOT
TORSDOF 0
ENDMDL
MODEL 3
REMARK VINA RESULT:    -2.489     11.478     11.892
REMARK INTER + INTRA:          -2.489
REMARK INTER:                  -2.489
REMARK INTRA:                   0.000
REMARK UNBOUND:                 0.000
REMARK SMILES CC(=O)[O-]
REMARK SMILES IDX 1 1 2 2 3 3 4 4
REMARK H PARENT
REMARK Flexibility Score: inf
ROOT
ATOM      1  C   UNL     1       4.706  39.424  13.240  1.00  0.00     0.063 C 
ATOM      2  C   UNL     1       3.317  39.157  12.769  1.00  0.00     0.038 C 
ATOM      3  O   UNL     1       3.001  38.012  12.351  1.00  0.00    -0.550 OA
ATOM      4  O   UNL     1       2.383  40.184  12.739  1.00  0.00    -0.550 OA
ENDROOT
TORSDOF 0
ENDMDL
MODEL 4
REMARK VINA RESULT:    -2.488      2.178      2.391
REMARK INTER + INTRA:          -2.488
REMARK INTER:                  -2.488
REMARK INTRA:                   0.000
REMARK UNBOUND:                 0.000
REMARK SMILES CC(=O)[O-]
REMARK SMILES IDX 1 1 2 2 3 3 4 4
REMARK H PARENT
REMARK Flexibility Score: inf
ROOT
ATOM      1  C   UNL     1      14.536  34.101  13.450  1.00  0.00     0.063 C 
ATOM      2  C   UNL     1      13.781  35.346  13.136  1.00  0.00     0.038 C 
ATOM      3  O   UNL     1      12.847  35.726  13.890  1.00  0.00    -0.550 OA
ATOM      4  O   UNL     1      14.068  36.062  11.981  1.00  0.00    -0.550 OA
ENDROOT
TORSDOF 0
ENDMDL
MODEL 5
REMARK VINA RESULT:    -2.420      1.472      1.789
REMARK INTER + INTRA:          -2.420
REMARK INTER:                  -2.420
REMARK INTRA:                   0.000
REMARK UNBOUND:                 0.000
REMARK SMILES CC(=O)[O-]
REMARK SMILES IDX 1 1 2 2 3 3 4 4
REMARK H PARENT
REMARK Flexibility Score: inf
ROOT
ATOM      1  C   UNL     1      13.304  32.735  12.792  1.00  0.00     0.063 C 
ATOM      2  C   UNL     1      13.713  33.784  13.769  1.00  0.00     0.038 C 
ATOM      3  O   UNL     1      14.623  33.547  14.607  1.00  0.00    -0.550 OA
ATOM      4  O   UNL     1      13.055  35.007  13.794  1.00  0.00    -0.550 OA
ENDROOT
TORSDOF 0
ENDMDL
MODEL 6
REMARK VINA RESULT:    -2.409     11.369     11.751
REMARK INTER + INTRA:          -2.409
REMARK INTER:                  -2.409
REMARK INTRA:                   0.000
REMARK UNBOUND:                 0.000
REMARK SMILES CC(=O)[O-]
REMARK SMILES IDX 1 1 2 2 3 3 4 4
REMARK H PARENT
REMARK Flexibility Score: inf
ROOT
ATOM      1  C   UNL     1       2.892  38.224  12.494  1.00  0.00     0.063 C 
ATOM      2  C   UNL     1       3.692  39.449  12.777  1.00  0.00     0.038 C 
ATOM      3  O   UNL     1       3.324  40.564  12.320  1.00  0.00    -0.550 OA
ATOM      4  O   UNL     1       4.873  39.358  13.501  1.00  0.00    -0.550 OA
ENDROOT
TORSDOF 0
ENDMDL
MODEL 7
REMARK VINA RESULT:    -2.396     11.263     11.585
REMARK INTER + INTRA:          -2.396
REMARK INTER:                  -2.396
REMARK INTRA:                   0.000
REMARK UNBOUND:                 0.000
REMARK SMILES CC(=O)[O-]
REMARK SMILES IDX 1 1 2 2 3 3 4 4
REMARK H PARENT
REMARK Flexibility Score: inf
ROOT
ATOM      1  C   UNL     1       2.988  40.486  12.361  1.00  0.00     0.063 C 
ATOM      2  C   UNL     1       3.599  39.184  12.752  1.00  0.00     0.038 C 
ATOM      3  O   UNL     1       4.702  39.161  13.360  1.00  0.00    -0.550 OA
ATOM      4  O   UNL     1       2.982  37.991  12.400  1.00  0.00    -0.550 OA
ENDROOT
TORSDOF 0
ENDMDL
MODEL 8
REMARK VINA RESULT:    -2.278     15.964     16.367
REMARK INTER + INTRA:          -2.278
REMARK INTER:                  -2.278
REMARK INTRA:                   0.000
REMARK UNBOUND:                 0.000
REMARK SMILES CC(=O)[O-]
REMARK SMILES IDX 1 1 2 2 3 3 4 4
REMARK H PARENT
REMARK Flexibility Score: inf
ROOT
ATOM      1  C   UNL     1       5.422  46.990   9.356  1.00  0.00     0.063 C 
ATOM      2  C   UNL     1       6.618  47.861   9.176  1.00  0.00     0.038 C 
ATOM      3  O   UNL     1       7.747  47.474   9.575  1.00  0.00    -0.550 OA
ATOM      4  O   UNL     1       6.481  49.124   8.615  1.00  0.00    -0.550 OA
ENDROOT
TORSDOF 0
ENDMDL
MODEL 9
REMARK VINA RESULT:    -2.157     15.954     16.413
REMARK INTER + INTRA:          -2.157
REMARK INTER:                  -2.157
REMARK INTRA:                   0.000
REMARK UNBOUND:                 0.000
REMARK SMILES CC(=O)[O-]
REMARK SMILES IDX 1 1 2 2 3 3 4 4
REMARK H PARENT
REMARK Flexibility Score: inf
ROOT
ATOM      1  C   UNL     1       7.096  47.746   9.374  1.00  0.00     0.063 C 
ATOM      2  C   UNL     1       5.686  47.396   9.041  1.00  0.00     0.038 C 
ATOM      3  O   UNL     1       5.210  46.286   9.397  1.00  0.00    -0.550 OA
ATOM      4  O   UNL     1       4.910  48.269   8.290  1.00  0.00    -0.550 OA
ENDROOT
TORSDOF 0
ENDMDL
