MODEL 1
REMARK VINA RESULT:    -4.785      0.000      0.000
REMARK INTER + INTRA:         -10.853
REMARK INTER:                  -8.701
REMARK INTRA:                  -2.152
REMARK UNBOUND:                -2.152
REMARK SMILES CCCCCCCCCCCCCC[C@H](C)C(=O)[O-]
REMARK SMILES IDX 9 1 10 2 11 3 12 4 13 5 14 6 15 7 16 8 17 9 18 10 19 11 8 12
REMARK SMILES IDX 7 13 6 14 5 15 4 16 3 17 2 18 1 19
REMARK H PARENT
REMARK Flexibility Score: inf
ROOT
ATOM      1  C   UNL     1      60.365  29.783  10.313  1.00  0.00     0.000 C 
ENDROOT
BRANCH   1   2
ATOM      2  C   UNL     1      60.811  30.339  11.674  1.00  0.00     0.000 C 
BRANCH   2   3
ATOM      3  C   UNL     1      61.027  29.232  12.721  1.00  0.00     0.000 C 
BRANCH   3   4
ATOM      4  C   UNL     1      62.188  29.539  13.683  1.00  0.00     0.000 C 
BRANCH   4   5
ATOM      5  C   UNL     1      61.784  30.286  14.971  1.00  0.00     0.001 C 
BRANCH   5   6
ATOM      6  C   UNL     1      62.363  31.708  15.118  1.00  0.00     0.009 C 
BRANCH   6   7
ATOM      7  C   UNL     1      61.309  32.838  15.178  1.00  0.00     0.032 C 
ATOM      8  C   UNL     1      60.865  33.295  13.783  1.00  0.00     0.014 C 
BRANCH   7   9
ATOM      9  C   UNL     1      61.873  34.007  15.938  1.00  0.00     0.044 C 
ATOM     10  O   UNL     1      61.103  34.804  16.537  1.00  0.00    -0.550 OA
ATOM     11  O   UNL     1      63.247  34.208  15.999  1.00  0.00    -0.550 OA
ENDBRANCH   7   9
ENDBRANCH   6   7
ENDBRANCH   5   6
ENDBRANCH   4   5
ENDBRANCH   3   4
ENDBRANCH   2   3
ENDBRANCH   1   2
BRANCH   1  12
ATOM     12  C   UNL     1      61.235  28.602   9.847  1.00  0.00     0.000 C 
BRANCH  12  13
ATOM     13  C   UNL     1      62.395  29.047   8.941  1.00  0.00    -0.000 C 
BRANCH  13  14
ATOM     14  C   UNL     1      63.705  29.254   9.721  1.00  0.00    -0.000 C 
BRANCH  14  15
ATOM     15  C   UNL     1      64.659  30.236   9.023  1.00  0.00    -0.000 C 
BRANCH  15  16
ATOM     16  C   UNL     1      64.855  31.539   9.818  1.00  0.00    -0.000 C 
BRANCH  16  17
ATOM     17  C   UNL     1      64.612  31.341  11.329  1.00  0.00    -0.000 C 
BRANCH  17  18
ATOM     18  C   UNL     1      64.097  32.604  12.040  1.00  0.00    -0.003 C 
ATOM     19  C   UNL     1      65.067  33.136  13.093  1.00  0.00     0.004 C 
ENDBRANCH  17  18
ENDBRANCH  16  17
ENDBRANCH  15  16
ENDBRANCH  14  15
ENDBRANCH  13  14
ENDBRANCH  12  13
ENDBRANCH   1  12
TORSDOF 14
ENDMDL
MODEL 2
REMARK VINA RESULT:    -4.771      0.868      3.428
REMARK INTER + INTRA:         -10.829
REMARK INTER:                  -8.634
REMARK INTRA:                  -2.195
REMARK UNBOUND:                -2.152
REMARK SMILES CCCCCCCCCCCCCC[C@H](C)C(=O)[O-]
REMARK SMILES IDX 9 1 10 2 11 3 12 4 13 5 14 6 15 7 16 8 17 9 18 10 19 11 8 12
REMARK SMILES IDX 7 13 6 14 5 15 4 16 3 17 2 18 1 19
REMARK H PARENT
REMARK Flexibility Score: inf
ROOT
ATOM      1  C   UNL     1      64.899  30.527   9.599  1.00  0.00     0.000 C 
ENDROOT
BRANCH   1   2
ATOM      2  C   UNL     1      64.237  31.342  10.720  1.00  0.00     0.000 C 
BRANCH   2   3
ATOM      3  C   UNL     1      65.247  32.210  11.492  1.00  0.00     0.000 C 
BRANCH   3   4
ATOM      4  C   UNL     1      64.572  33.137  12.520  1.00  0.00     0.000 C 
BRANCH   4   5
ATOM      5  C   UNL     1      63.203  32.646  13.035  1.00  0.00     0.001 C 
BRANCH   5   6
ATOM      6  C   UNL     1      63.167  32.236  14.521  1.00  0.00     0.009 C 
BRANCH   6   7
ATOM      7  C   UNL     1      61.963  32.786  15.321  1.00  0.00     0.032 C 
ATOM      8  C   UNL     1      60.878  33.372  14.410  1.00  0.00     0.014 C 
BRANCH   7   9
ATOM      9  C   UNL     1      62.441  33.839  16.282  1.00  0.00     0.044 C 
ATOM     10  O   UNL     1      61.740  34.148  17.283  1.00  0.00    -0.550 OA
ATOM     11  O   UNL     1      63.665  34.468  16.084  1.00  0.00    -0.550 OA
ENDBRANCH   7   9
ENDBRANCH   6   7
ENDBRANCH   5   6
ENDBRANCH   4   5
ENDBRANCH   3   4
ENDBRANCH   2   3
ENDBRANCH   1   2
BRANCH   1  12
ATOM     12  C   UNL     1      64.010  29.370   9.109  1.00  0.00     0.000 C 
BRANCH  12  13
ATOM     13  C   UNL     1      62.548  29.797   8.906  1.00  0.00    -0.000 C 
BRANCH  13  14
ATOM     14  C   UNL     1      61.550  28.786   9.500  1.00  0.00    -0.000 C 
BRANCH  14  15
ATOM     15  C   UNL     1      60.390  29.467  10.241  1.00  0.00    -0.000 C 
BRANCH  15  16
ATOM     16  C   UNL     1      60.858  30.265  11.471  1.00  0.00    -0.000 C 
BRANCH  16  17
ATOM     17  C   UNL     1      60.291  29.692  12.786  1.00  0.00    -0.000 C 
BRANCH  17  18
ATOM     18  C   UNL     1      61.353  29.013  13.668  1.00  0.00    -0.003 C 
ATOM     19  C   UNL     1      62.736  28.978  13.020  1.00  0.00     0.004 C 
ENDBRANCH  17  18
ENDBRANCH  16  17
ENDBRANCH  15  16
ENDBRANCH  14  15
ENDBRANCH  13  14
ENDBRANCH  12  13
ENDBRANCH   1  12
TORSDOF 14
ENDMDL
MODEL 3
REMARK VINA RESULT:    -4.754     11.868     14.067
REMARK INTER + INTRA:         -10.798
REMARK INTER:                  -8.366
REMARK INTRA:                  -2.431
REMARK UNBOUND:                -2.152
REMARK SMILES CCCCCCCCCCCCCC[C@H](C)C(=O)[O-]
REMARK SMILES IDX 9 1 10 2 11 3 12 4 13 5 14 6 15 7 16 8 17 9 18 10 19 11 8 12
REMARK SMILES IDX 7 13 6 14 5 15 4 16 3 17 2 18 1 19
REMARK H PARENT
REMARK Flexibility Score: inf
ROOT
ATOM      1  C   UNL     1      66.725  27.930  22.406  1.00  0.00     0.000 C 
ENDROOT
BRANCH   1   2
ATOM      2  C   UNL     1      66.249  26.496  22.684  1.00  0.00     0.000 C 
BRANCH   2   3
ATOM      3  C   UNL     1      64.715  26.389  22.758  1.00  0.00     0.000 C 
BRANCH   3   4
ATOM      4  C   UNL     1      64.229  25.687  24.039  1.00  0.00     0.000 C 
BRANCH   4   5
ATOM      5  C   UNL     1      64.609  26.400  25.354  1.00  0.00     0.001 C 
BRANCH   5   6
ATOM      6  C   UNL     1      63.439  27.070  26.102  1.00  0.00     0.009 C 
BRANCH   6   7
ATOM      7  C   UNL     1      62.201  27.385  25.231  1.00  0.00     0.032 C 
ATOM      8  C   UNL     1      62.209  28.827  24.707  1.00  0.00     0.014 C 
BRANCH   7   9
ATOM      9  C   UNL     1      60.951  27.144  26.031  1.00  0.00     0.044 C 
ATOM     10  O   UNL     1      60.994  27.151  27.290  1.00  0.00    -0.550 OA
ATOM     11  O   UNL     1      59.736  26.929  25.389  1.00  0.00    -0.550 OA
ENDBRANCH   7   9
ENDBRANCH   6   7
ENDBRANCH   5   6
ENDBRANCH   4   5
ENDBRANCH   3   4
ENDBRANCH   2   3
ENDBRANCH   1   2
BRANCH   1  12
ATOM     12  C   UNL     1      66.948  28.738  23.697  1.00  0.00     0.000 C 
BRANCH  12  13
ATOM     13  C   UNL     1      66.029  29.966  23.790  1.00  0.00    -0.000 C 
BRANCH  13  14
ATOM     14  C   UNL     1      65.576  30.256  25.232  1.00  0.00    -0.000 C 
BRANCH  14  15
ATOM     15  C   UNL     1      66.363  29.445  26.273  1.00  0.00    -0.000 C 
BRANCH  15  16
ATOM     16  C   UNL     1      66.667  30.253  27.547  1.00  0.00    -0.000 C 
BRANCH  16  17
ATOM     17  C   UNL     1      65.396  30.880  28.156  1.00  0.00    -0.000 C 
BRANCH  17  18
ATOM     18  C   UNL     1      64.356  29.842  28.611  1.00  0.00    -0.003 C 
ATOM     19  C   UNL     1      62.936  30.184  28.166  1.00  0.00     0.004 C 
ENDBRANCH  17  18
ENDBRANCH  16  17
ENDBRANCH  15  16
ENDBRANCH  14  15
ENDBRANCH  13  14
ENDBRANCH  12  13
ENDBRANCH   1  12
TORSDOF 14
ENDMDL
MODEL 4
REMARK VINA RESULT:    -4.725      1.521      3.801
REMARK INTER + INTRA:         -10.744
REMARK INTER:                  -8.479
REMARK INTRA:                  -2.265
REMARK UNBOUND:                -2.152
REMARK SMILES CCCCCCCCCCCCCC[C@H](C)C(=O)[O-]
REMARK SMILES IDX 9 1 10 2 11 3 12 4 13 5 14 6 15 7 16 8 17 9 18 10 19 11 8 12
REMARK SMILES IDX 7 13 6 14 5 15 4 16 3 17 2 18 1 19
REMARK H PARENT
REMARK Flexibility Score: inf
ROOT
ATOM      1  C   UNL     1      64.519  31.172  11.363  1.00  0.00     0.000 C 
ENDROOT
BRANCH   1   2
ATOM      2  C   UNL     1      64.553  32.694  11.568  1.00  0.00     0.000 C 
BRANCH   2   3
ATOM      3  C   UNL     1      65.261  33.096  12.875  1.00  0.00     0.000 C 
BRANCH   3   4
ATOM      4  C   UNL     1      64.755  32.303  14.094  1.00  0.00     0.000 C 
BRANCH   4   5
ATOM      5  C   UNL     1      64.112  33.160  15.204  1.00  0.00     0.001 C 
BRANCH   5   6
ATOM      6  C   UNL     1      62.624  33.504  14.992  1.00  0.00     0.009 C 
BRANCH   6   7
ATOM      7  C   UNL     1      61.827  32.472  14.160  1.00  0.00     0.032 C 
ATOM      8  C   UNL     1      61.156  33.107  12.935  1.00  0.00     0.014 C 
BRANCH   7   9
ATOM      9  C   UNL     1      60.785  31.825  15.029  1.00  0.00     0.044 C 
ATOM     10  O   UNL     1      59.561  32.019  14.803  1.00  0.00    -0.550 OA
ATOM     11  O   UNL     1      61.163  30.994  16.078  1.00  0.00    -0.550 OA
ENDBRANCH   7   9
ENDBRANCH   6   7
ENDBRANCH   5   6
ENDBRANCH   4   5
ENDBRANCH   3   4
ENDBRANCH   2   3
ENDBRANCH   1   2
BRANCH   1  12
ATOM     12  C   UNL     1      64.604  30.777   9.877  1.00  0.00     0.000 C 
BRANCH  12  13
ATOM     13  C   UNL     1      63.885  29.453   9.579  1.00  0.00    -0.000 C 
BRANCH  13  14
ATOM     14  C   UNL     1      62.389  29.649   9.274  1.00  0.00    -0.000 C 
BRANCH  14  15
ATOM     15  C   UNL     1      61.508  28.569   9.920  1.00  0.00    -0.000 C 
BRANCH  15  16
ATOM     16  C   UNL     1      60.219  29.143  10.533  1.00  0.00    -0.000 C 
BRANCH  16  17
ATOM     17  C   UNL     1      60.447  29.693  11.957  1.00  0.00    -0.000 C 
BRANCH  17  18
ATOM     18  C   UNL     1      60.998  28.644  12.939  1.00  0.00    -0.003 C 
ATOM     19  C   UNL     1      62.431  28.934  13.381  1.00  0.00     0.004 C 
ENDBRANCH  17  18
ENDBRANCH  16  17
ENDBRANCH  15  16
ENDBRANCH  14  15
ENDBRANCH  13  14
ENDBRANCH  12  13
ENDBRANCH   1  12
TORSDOF 14
ENDMDL
MODEL 5
REMARK VINA RESULT:    -4.712      1.079      3.171
REMARK INTER + INTRA:         -10.721
REMARK INTER:                  -8.527
REMARK INTRA:                  -2.193
REMARK UNBOUND:                -2.152
REMARK SMILES CCCCCCCCCCCCCC[C@H](C)C(=O)[O-]
REMARK SMILES IDX 9 1 10 2 11 3 12 4 13 5 14 6 15 7 16 8 17 9 18 10 19 11 8 12
REMARK SMILES IDX 7 13 6 14 5 15 4 16 3 17 2 18 1 19
REMARK H PARENT
REMARK Flexibility Score: inf
ROOT
ATOM      1  C   UNL     1      61.549  29.752  14.048  1.00  0.00     0.000 C 
ENDROOT
BRANCH   1   2
ATOM      2  C   UNL     1      62.851  29.250  13.406  1.00  0.00     0.000 C 
BRANCH   2   3
ATOM      3  C   UNL     1      64.032  30.209  13.644  1.00  0.00     0.000 C 
BRANCH   3   4
ATOM      4  C   UNL     1      64.027  31.410  12.681  1.00  0.00     0.000 C 
BRANCH   4   5
ATOM      5  C   UNL     1      63.583  32.746  13.312  1.00  0.00     0.001 C 
BRANCH   5   6
ATOM      6  C   UNL     1      63.673  32.811  14.850  1.00  0.00     0.009 C 
BRANCH   6   7
ATOM      7  C   UNL     1      62.331  33.076  15.571  1.00  0.00     0.032 C 
ATOM      8  C   UNL     1      61.217  33.484  14.598  1.00  0.00     0.014 C 
BRANCH   7   9
ATOM      9  C   UNL     1      62.521  34.153  16.602  1.00  0.00     0.044 C 
ATOM     10  O   UNL     1      63.671  34.617  16.830  1.00  0.00    -0.550 OA
ATOM     11  O   UNL     1      61.430  34.659  17.300  1.00  0.00    -0.550 OA
ENDBRANCH   7   9
ENDBRANCH   6   7
ENDBRANCH   5   6
ENDBRANCH   4   5
ENDBRANCH   3   4
ENDBRANCH   2   3
ENDBRANCH   1   2
BRANCH   1  12
ATOM     12  C   UNL     1      60.438  29.996  13.011  1.00  0.00     0.000 C 
BRANCH  12  13
ATOM     13  C   UNL     1      60.017  28.709  12.285  1.00  0.00    -0.000 C 
BRANCH  13  14
ATOM     14  C   UNL     1      60.051  28.857  10.754  1.00  0.00    -0.000 C 
BRANCH  14  15
ATOM     15  C   UNL     1      61.009  29.965  10.289  1.00  0.00    -0.000 C 
BRANCH  15  16
ATOM     16  C   UNL     1      62.017  29.473   9.236  1.00  0.00    -0.000 C 
BRANCH  16  17
ATOM     17  C   UNL     1      63.424  29.258   9.833  1.00  0.00    -0.000 C 
BRANCH  17  18
ATOM     18  C   UNL     1      64.564  29.646   8.875  1.00  0.00    -0.003 C 
ATOM     19  C   UNL     1      65.137  31.032   9.159  1.00  0.00     0.004 C 
ENDBRANCH  17  18
ENDBRANCH  16  17
ENDBRANCH  15  16
ENDBRANCH  14  15
ENDBRANCH  13  14
ENDBRANCH  12  13
ENDBRANCH   1  12
TORSDOF 14
ENDMDL
MODEL 6
REMARK VINA RESULT:    -4.707      1.219      2.411
REMARK INTER + INTRA:         -10.712
REMARK INTER:                  -8.701
REMARK INTRA:                  -2.011
REMARK UNBOUND:                -2.152
REMARK SMILES CCCCCCCCCCCCCC[C@H](C)C(=O)[O-]
REMARK SMILES IDX 9 1 10 2 11 3 12 4 13 5 14 6 15 7 16 8 17 9 18 10 19 11 8 12
REMARK SMILES IDX 7 13 6 14 5 15 4 16 3 17 2 18 1 19
REMARK H PARENT
REMARK Flexibility Score: inf
ROOT
ATOM      1  C   UNL     1      61.288  28.861  12.616  1.00  0.00     0.000 C 
ENDROOT
BRANCH   1   2
ATOM      2  C   UNL     1      61.548  30.013  13.599  1.00  0.00     0.000 C 
BRANCH   2   3
ATOM      3  C   UNL     1      61.153  31.382  13.019  1.00  0.00     0.000 C 
BRANCH   3   4
ATOM      4  C   UNL     1      60.272  32.203  13.979  1.00  0.00     0.000 C 
BRANCH   4   5
ATOM      5  C   UNL     1      60.852  33.575  14.378  1.00  0.00     0.001 C 
BRANCH   5   6
ATOM      6  C   UNL     1      61.363  33.678  15.830  1.00  0.00     0.009 C 
BRANCH   6   7
ATOM      7  C   UNL     1      62.888  33.895  15.971  1.00  0.00     0.032 C 
ATOM      8  C   UNL     1      63.691  32.642  15.596  1.00  0.00     0.014 C 
BRANCH   7   9
ATOM      9  C   UNL     1      63.207  34.297  17.384  1.00  0.00     0.044 C 
ATOM     10  O   UNL     1      62.407  35.022  18.033  1.00  0.00    -0.550 OA
ATOM     11  O   UNL     1      64.379  33.859  17.991  1.00  0.00    -0.550 OA
ENDBRANCH   7   9
ENDBRANCH   6   7
ENDBRANCH   5   6
ENDBRANCH   4   5
ENDBRANCH   3   4
ENDBRANCH   2   3
ENDBRANCH   1   2
BRANCH   1  12
ATOM     12  C   UNL     1      60.004  29.070  11.792  1.00  0.00     0.000 C 
BRANCH  12  13
ATOM     13  C   UNL     1      60.290  29.249  10.293  1.00  0.00    -0.000 C 
BRANCH  13  14
ATOM     14  C   UNL     1      61.395  28.305   9.786  1.00  0.00    -0.000 C 
BRANCH  14  15
ATOM     15  C   UNL     1      62.483  29.043   8.990  1.00  0.00    -0.000 C 
BRANCH  15  16
ATOM     16  C   UNL     1      63.729  29.356   9.837  1.00  0.00    -0.000 C 
BRANCH  16  17
ATOM     17  C   UNL     1      63.763  30.828  10.300  1.00  0.00    -0.000 C 
BRANCH  17  18
ATOM     18  C   UNL     1      64.523  31.039  11.620  1.00  0.00    -0.003 C 
ATOM     19  C   UNL     1      64.606  32.507  12.034  1.00  0.00     0.004 C 
ENDBRANCH  17  18
ENDBRANCH  16  17
ENDBRANCH  15  16
ENDBRANCH  14  15
ENDBRANCH  13  14
ENDBRANCH  12  13
ENDBRANCH   1  12
TORSDOF 14
ENDMDL
MODEL 7
REMARK VINA RESULT:    -4.689      1.758      3.158
REMARK INTER + INTRA:         -10.680
REMARK INTER:                  -8.613
REMARK INTRA:                  -2.066
REMARK UNBOUND:                -2.152
REMARK SMILES CCCCCCCCCCCCCC[C@H](C)C(=O)[O-]
REMARK SMILES IDX 9 1 10 2 11 3 12 4 13 5 14 6 15 7 16 8 17 9 18 10 19 11 8 12
REMARK SMILES IDX 7 13 6 14 5 15 4 16 3 17 2 18 1 19
REMARK H PARENT
REMARK Flexibility Score: inf
ROOT
ATOM      1  C   UNL     1      61.704  28.869  13.315  1.00  0.00     0.000 C 
ENDROOT
BRANCH   1   2
ATOM      2  C   UNL     1      62.716  29.859  12.717  1.00  0.00     0.000 C 
BRANCH   2   3
ATOM      3  C   UNL     1      64.100  29.760  13.383  1.00  0.00     0.000 C 
BRANCH   3   4
ATOM      4  C   UNL     1      64.646  31.128  13.828  1.00  0.00     0.000 C 
BRANCH   4   5
ATOM      5  C   UNL     1      63.782  31.864  14.872  1.00  0.00     0.001 C 
BRANCH   5   6
ATOM      6  C   UNL     1      63.087  33.145  14.369  1.00  0.00     0.009 C 
BRANCH   6   7
ATOM      7  C   UNL     1      61.654  33.366  14.908  1.00  0.00     0.032 C 
ATOM      8  C   UNL     1      61.471  32.798  16.322  1.00  0.00     0.014 C 
BRANCH   7   9
ATOM      9  C   UNL     1      60.664  32.727  13.974  1.00  0.00     0.044 C 
ATOM     10  O   UNL     1      59.687  32.078  14.434  1.00  0.00    -0.550 OA
ATOM     11  O   UNL     1      60.809  32.862  12.598  1.00  0.00    -0.550 OA
ENDBRANCH   7   9
ENDBRANCH   6   7
ENDBRANCH   5   6
ENDBRANCH   4   5
ENDBRANCH   3   4
ENDBRANCH   2   3
ENDBRANCH   1   2
BRANCH   1  12
ATOM     12  C   UNL     1      60.342  28.916  12.600  1.00  0.00     0.000 C 
BRANCH  12  13
ATOM     13  C   UNL     1      60.411  29.646  11.249  1.00  0.00    -0.000 C 
BRANCH  13  14
ATOM     14  C   UNL     1      60.035  28.735  10.067  1.00  0.00    -0.000 C 
BRANCH  14  15
ATOM     15  C   UNL     1      61.254  28.320   9.229  1.00  0.00    -0.000 C 
BRANCH  15  16
ATOM     16  C   UNL     1      62.229  29.485   8.984  1.00  0.00    -0.000 C 
BRANCH  16  17
ATOM     17  C   UNL     1      63.688  29.100   9.305  1.00  0.00    -0.000 C 
BRANCH  17  18
ATOM     18  C   UNL     1      64.696  30.231   9.034  1.00  0.00    -0.003 C 
ATOM     19  C   UNL     1      64.572  31.391  10.019  1.00  0.00     0.004 C 
ENDBRANCH  17  18
ENDBRANCH  16  17
ENDBRANCH  15  16
ENDBRANCH  14  15
ENDBRANCH  13  14
ENDBRANCH  12  13
ENDBRANCH   1  12
TORSDOF 14
ENDMDL
MODEL 8
REMARK VINA RESULT:    -4.653      3.096      5.792
REMARK INTER + INTRA:         -10.613
REMARK INTER:                  -8.597
REMARK INTRA:                  -2.017
REMARK UNBOUND:                -2.152
REMARK SMILES CCCCCCCCCCCCCC[C@H](C)C(=O)[O-]
REMARK SMILES IDX 9 1 10 2 11 3 12 4 13 5 14 6 15 7 16 8 17 9 18 10 19 11 8 12
REMARK SMILES IDX 7 13 6 14 5 15 4 16 3 17 2 18 1 19
REMARK H PARENT
REMARK Flexibility Score: inf
ROOT
ATOM      1  C   UNL     1      60.751  33.422  14.106  1.00  0.00     0.000 C 
ENDROOT
BRANCH   1   2
ATOM      2  C   UNL     1      60.136  32.015  14.056  1.00  0.00     0.000 C 
BRANCH   2   3
ATOM      3  C   UNL     1      60.729  31.154  12.927  1.00  0.00     0.000 C 
BRANCH   3   4
ATOM      4  C   UNL     1      61.503  29.932  13.454  1.00  0.00     0.000 C 
BRANCH   4   5
ATOM      5  C   UNL     1      62.049  28.989  12.361  1.00  0.00     0.001 C 
BRANCH   5   6
ATOM      6  C   UNL     1      63.154  29.587  11.467  1.00  0.00     0.009 C 
BRANCH   6   7
ATOM      7  C   UNL     1      63.079  29.179   9.977  1.00  0.00     0.032 C 
ATOM      8  C   UNL     1      63.796  30.181   9.062  1.00  0.00     0.014 C 
BRANCH   7   9
ATOM      9  C   UNL     1      61.639  29.057   9.563  1.00  0.00     0.044 C 
ATOM     10  O   UNL     1      61.157  27.931   9.268  1.00  0.00    -0.550 OA
ATOM     11  O   UNL     1      60.822  30.182   9.520  1.00  0.00    -0.550 OA
ENDBRANCH   7   9
ENDBRANCH   6   7
ENDBRANCH   5   6
ENDBRANCH   4   5
ENDBRANCH   3   4
ENDBRANCH   2   3
ENDBRANCH   1   2
BRANCH   1  12
ATOM     12  C   UNL     1      61.306  33.773  15.498  1.00  0.00     0.000 C 
BRANCH  12  13
ATOM     13  C   UNL     1      62.444  32.836  15.931  1.00  0.00    -0.000 C 
BRANCH  13  14
ATOM     14  C   UNL     1      63.772  33.584  16.151  1.00  0.00    -0.000 C 
BRANCH  14  15
ATOM     15  C   UNL     1      64.621  33.666  14.873  1.00  0.00    -0.000 C 
BRANCH  15  16
ATOM     16  C   UNL     1      64.434  32.444  13.957  1.00  0.00    -0.000 C 
BRANCH  16  17
ATOM     17  C   UNL     1      64.016  32.848  12.527  1.00  0.00    -0.000 C 
BRANCH  17  18
ATOM     18  C   UNL     1      65.163  32.764  11.505  1.00  0.00    -0.003 C 
ATOM     19  C   UNL     1      66.091  33.976  11.546  1.00  0.00     0.004 C 
ENDBRANCH  17  18
ENDBRANCH  16  17
ENDBRANCH  15  16
ENDBRANCH  14  15
ENDBRANCH  13  14
ENDBRANCH  12  13
ENDBRANCH   1  12
TORSDOF 14
ENDMDL
MODEL 9
REMARK VINA RESULT:    -4.644      1.381      2.538
REMARK INTER + INTRA:         -10.598
REMARK INTER:                  -8.411
REMARK INTRA:                  -2.187
REMARK UNBOUND:                -2.152
REMARK SMILES CCCCCCCCCCCCCC[C@H](C)C(=O)[O-]
REMARK SMILES IDX 9 1 10 2 11 3 12 4 13 5 14 6 15 7 16 8 17 9 18 10 19 11 8 12
REMARK SMILES IDX 7 13 6 14 5 15 4 16 3 17 2 18 1 19
REMARK H PARENT
REMARK Flexibility Score: inf
ROOT
ATOM      1  C   UNL     1      62.230  29.577   9.481  1.00  0.00     0.000 C 
ENDROOT
BRANCH   1   2
ATOM      2  C   UNL     1      61.373  28.525  10.201  1.00  0.00     0.000 C 
BRANCH   2   3
ATOM      3  C   UNL     1      60.170  29.147  10.933  1.00  0.00     0.000 C 
BRANCH   3   4
ATOM      4  C   UNL     1      60.221  28.927  12.456  1.00  0.00     0.000 C 
BRANCH   4   5
ATOM      5  C   UNL     1      61.633  28.984  13.073  1.00  0.00     0.001 C 
BRANCH   5   6
ATOM      6  C   UNL     1      61.922  30.224  13.943  1.00  0.00     0.009 C 
BRANCH   6   7
ATOM      7  C   UNL     1      60.872  31.355  13.838  1.00  0.00     0.032 C 
ATOM      8  C   UNL     1      61.165  32.316  12.679  1.00  0.00     0.014 C 
BRANCH   7   9
ATOM      9  C   UNL     1      60.829  32.120  15.132  1.00  0.00     0.044 C 
ATOM     10  O   UNL     1      60.671  33.369  15.124  1.00  0.00    -0.550 OA
ATOM     11  O   UNL     1      60.947  31.453  16.347  1.00  0.00    -0.550 OA
ENDBRANCH   7   9
ENDBRANCH   6   7
ENDBRANCH   5   6
ENDBRANCH   4   5
ENDBRANCH   3   4
ENDBRANCH   2   3
ENDBRANCH   1   2
BRANCH   1  12
ATOM     12  C   UNL     1      63.705  29.535   9.920  1.00  0.00     0.000 C 
BRANCH  12  13
ATOM     13  C   UNL     1      64.575  30.546   9.158  1.00  0.00    -0.000 C 
BRANCH  13  14
ATOM     14  C   UNL     1      64.944  31.771  10.014  1.00  0.00    -0.000 C 
BRANCH  14  15
ATOM     15  C   UNL     1      64.598  31.579  11.499  1.00  0.00    -0.000 C 
BRANCH  15  16
ATOM     16  C   UNL     1      64.782  32.866  12.322  1.00  0.00    -0.000 C 
BRANCH  16  17
ATOM     17  C   UNL     1      64.764  32.594  13.840  1.00  0.00    -0.000 C 
BRANCH  17  18
ATOM     18  C   UNL     1      64.301  33.800  14.676  1.00  0.00    -0.003 C 
ATOM     19  C   UNL     1      64.117  33.468  16.155  1.00  0.00     0.004 C 
ENDBRANCH  17  18
ENDBRANCH  16  17
ENDBRANCH  15  16
ENDBRANCH  14  15
ENDBRANCH  13  14
ENDBRANCH  12  13
ENDBRANCH   1  12
TORSDOF 14
ENDMDL
