MODEL 1
REMARK VINA RESULT:    -5.242      0.000      0.000
REMARK INTER + INTRA:          -7.380
REMARK INTER:                  -7.387
REMARK INTRA:                   0.007
REMARK UNBOUND:                 0.007
REMARK SMILES CC1=CCC(=C(C)C)CCC(C)=CCC1
REMARK SMILES IDX 5 1 6 2 7 3 8 4 9 5 10 6 11 7 12 8 13 9 4 11 3 12 2 13 1 14
REMARK SMILES IDX 15 15 14 16
REMARK H PARENT
REMARK Flexibility Score: 60.00
ROOT
ATOM      1  C   UNL     1      -2.149 -14.588   8.525  1.00  0.00    -0.067 C 
ATOM      2  C   UNL     1      -1.247 -14.022   9.388  1.00  0.00    -0.077 C 
ATOM      3  C   UNL     1       0.136 -14.607   9.587  1.00  0.00     0.039 C 
ATOM      4  C   UNL     1      -1.588 -12.775  10.178  1.00  0.00     0.039 C 
ENDROOT
BRANCH   1   5
ATOM      5  C   UNL     1      -1.860 -15.941   7.864  1.00  0.00     0.035 C 
BRANCH   5   6
ATOM      6  C   UNL     1      -1.965 -17.147   8.824  1.00  0.00     0.035 C 
BRANCH   6   7
ATOM      7  C   UNL     1      -3.066 -17.026   9.865  1.00  0.00    -0.077 C 
ATOM      8  C   UNL     1      -2.680 -16.833  11.311  1.00  0.00     0.039 C 
ATOM      9  C   UNL     1      -4.383 -17.084   9.566  1.00  0.00    -0.028 CG0
ATOM     10  G   UNL     1      -4.971 -17.240   8.186  1.00  0.00     0.000 G0
ENDBRANCH   6   7
ENDBRANCH   5   6
ENDBRANCH   1   5
BRANCH   1  11
ATOM     11  C   UNL     1      -3.528 -13.954   8.315  1.00  0.00     0.058 C 
BRANCH  11  12
ATOM     12  C   UNL     1      -4.119 -14.260   6.959  1.00  0.00    -0.024 C 
ATOM     13  C   UNL     1      -5.080 -15.177   6.703  1.00  0.00    -0.077 C 
ATOM     14  C   UNL     1      -5.486 -15.386   5.265  1.00  0.00     0.039 C 
BRANCH  13  15
ATOM     15  C   UNL     1      -5.775 -15.990   7.783  1.00  0.00     0.034 C 
BRANCH  15  16
ATOM     16  C   UNL     1      -4.976 -17.243   8.192  1.00  0.00     0.032 CG0
ATOM     17  G   UNL     1      -4.376 -17.088   9.568  1.00  0.00     0.000 G0
ENDBRANCH  15  16
ENDBRANCH  13  15
ENDBRANCH  11  12
ENDBRANCH   1  11
TORSDOF 0
ENDMDL
MODEL 2
REMARK VINA RESULT:    -5.055      1.351      2.027
REMARK INTER + INTRA:          -7.117
REMARK INTER:                  -7.919
REMARK INTRA:                   0.803
REMARK UNBOUND:                 0.007
REMARK SMILES CC1=CCC(=C(C)C)CCC(C)=CCC1
REMARK SMILES IDX 5 1 6 2 7 3 8 4 9 5 10 6 11 7 12 8 13 9 4 11 3 12 2 13 1 14
REMARK SMILES IDX 15 15 14 16
REMARK H PARENT
REMARK Flexibility Score: 60.00
ROOT
ATOM      1  C   UNL     1      -1.901 -15.321  10.287  1.00  0.00    -0.067 C 
ATOM      2  C   UNL     1      -2.023 -14.148  10.987  1.00  0.00    -0.077 C 
ATOM      3  C   UNL     1      -2.340 -14.138  12.468  1.00  0.00     0.039 C 
ATOM      4  C   UNL     1      -1.835 -12.805  10.313  1.00  0.00     0.039 C 
ENDROOT
BRANCH   1   5
ATOM      5  C   UNL     1      -2.263 -16.663  10.935  1.00  0.00     0.035 C 
BRANCH   5   6
ATOM      6  C   UNL     1      -3.429 -17.403  10.244  1.00  0.00     0.035 C 
BRANCH   6   7
ATOM      7  C   UNL     1      -4.786 -16.742  10.425  1.00  0.00    -0.077 C 
ATOM      8  C   UNL     1      -5.185 -16.268  11.800  1.00  0.00     0.039 C 
ATOM      9  C   UNL     1      -5.664 -16.554   9.414  1.00  0.00    -0.028 CG0
ATOM     10  G   UNL     1      -5.442 -16.926   7.969  1.00  0.00     0.000 G0
ENDBRANCH   6   7
ENDBRANCH   5   6
ENDBRANCH   1   5
BRANCH   1  11
ATOM     11  C   UNL     1      -1.544 -15.303   8.797  1.00  0.00     0.058 C 
BRANCH  11  12
ATOM     12  C   UNL     1      -2.591 -14.623   7.947  1.00  0.00    -0.024 C 
ATOM     13  C   UNL     1      -3.647 -15.228   7.357  1.00  0.00    -0.077 C 
ATOM     14  C   UNL     1      -4.542 -14.385   6.482  1.00  0.00     0.039 C 
BRANCH  13  15
ATOM     15  C   UNL     1      -3.983 -16.699   7.540  1.00  0.00     0.034 C 
BRANCH  15  16
ATOM     16  C   UNL     1      -5.446 -16.927   7.970  1.00  0.00     0.032 CG0
ATOM     17  G   UNL     1      -5.659 -16.554   9.417  1.00  0.00     0.000 G0
ENDBRANCH  15  16
ENDBRANCH  13  15
ENDBRANCH  11  12
ENDBRANCH   1  11
TORSDOF 0
ENDMDL
MODEL 3
REMARK VINA RESULT:    -4.833      1.385      4.026
REMARK INTER + INTRA:          -6.803
REMARK INTER:                  -6.758
REMARK INTRA:                  -0.046
REMARK UNBOUND:                 0.007
REMARK SMILES CC1=CCC(=C(C)C)CCC(C)=CCC1
REMARK SMILES IDX 5 1 6 2 7 3 8 4 9 5 10 6 11 7 12 8 13 9 4 11 3 12 2 13 1 14
REMARK SMILES IDX 15 15 14 16
REMARK H PARENT
REMARK Flexibility Score: 60.00
ROOT
ATOM      1  C   UNL     1      -3.911 -15.056   7.520  1.00  0.00    -0.067 C 
ATOM      2  C   UNL     1      -4.947 -14.702   6.696  1.00  0.00    -0.077 C 
ATOM      3  C   UNL     1      -5.712 -15.735   5.894  1.00  0.00     0.039 C 
ATOM      4  C   UNL     1      -5.386 -13.258   6.556  1.00  0.00     0.039 C 
ENDROOT
BRANCH   1   5
ATOM      5  C   UNL     1      -3.364 -16.488   7.523  1.00  0.00     0.035 C 
BRANCH   5   6
ATOM      6  C   UNL     1      -4.037 -17.419   8.555  1.00  0.00     0.035 C 
BRANCH   6   7
ATOM      7  C   UNL     1      -4.618 -16.700   9.762  1.00  0.00    -0.077 C 
ATOM      8  C   UNL     1      -6.112 -16.502   9.839  1.00  0.00     0.039 C 
ATOM      9  C   UNL     1      -3.866 -16.223  10.778  1.00  0.00    -0.028 CG0
ATOM     10  G   UNL     1      -2.367 -16.347  10.904  1.00  0.00     0.000 G0
ENDBRANCH   6   7
ENDBRANCH   5   6
ENDBRANCH   1   5
BRANCH   1  11
ATOM     11  C   UNL     1      -3.178 -13.995   8.348  1.00  0.00     0.058 C 
BRANCH  11  12
ATOM     12  C   UNL     1      -1.691 -14.242   8.442  1.00  0.00    -0.024 C 
ATOM     13  C   UNL     1      -1.020 -14.614   9.557  1.00  0.00    -0.077 C 
ATOM     14  C   UNL     1       0.480 -14.739   9.465  1.00  0.00     0.039 C 
BRANCH  13  15
ATOM     15  C   UNL     1      -1.697 -14.922  10.882  1.00  0.00     0.034 C 
BRANCH  15  16
ATOM     16  C   UNL     1      -2.348 -16.319  10.908  1.00  0.00     0.032 CG0
ATOM     17  G   UNL     1      -3.849 -16.230  10.784  1.00  0.00     0.000 G0
ENDBRANCH  15  16
ENDBRANCH  13  15
ENDBRANCH  11  12
ENDBRANCH   1  11
TORSDOF 0
ENDMDL
MODEL 4
REMARK VINA RESULT:    -4.757      1.456      3.613
REMARK INTER + INTRA:          -6.697
REMARK INTER:                  -7.685
REMARK INTRA:                   0.988
REMARK UNBOUND:                 0.007
REMARK SMILES CC1=CCC(=C(C)C)CCC(C)=CCC1
REMARK SMILES IDX 5 1 6 2 7 3 8 4 9 5 10 6 11 7 12 8 13 9 4 11 3 12 2 13 1 14
REMARK SMILES IDX 15 15 14 16
REMARK H PARENT
REMARK Flexibility Score: 60.00
ROOT
ATOM      1  C   UNL     1      -2.967 -14.703   8.065  1.00  0.00    -0.067 C 
ATOM      2  C   UNL     1      -4.033 -14.639   7.207  1.00  0.00    -0.077 C 
ATOM      3  C   UNL     1      -4.290 -15.721   6.177  1.00  0.00     0.039 C 
ATOM      4  C   UNL     1      -5.014 -13.485   7.253  1.00  0.00     0.039 C 
ENDROOT
BRANCH   1   5
ATOM      5  C   UNL     1      -1.887 -15.779   7.896  1.00  0.00     0.035 C 
BRANCH   5   6
ATOM      6  C   UNL     1      -1.924 -16.885   8.973  1.00  0.00     0.035 C 
BRANCH   6   7
ATOM      7  C   UNL     1      -3.063 -17.878   8.813  1.00  0.00    -0.077 C 
ATOM      8  C   UNL     1      -3.093 -18.757   7.587  1.00  0.00     0.039 C 
ATOM      9  C   UNL     1      -4.062 -18.019   9.713  1.00  0.00    -0.028 CG0
ATOM     10  G   UNL     1      -4.195 -17.261  11.011  1.00  0.00     0.000 G0
ENDBRANCH   6   7
ENDBRANCH   5   6
ENDBRANCH   1   5
BRANCH   1  11
ATOM     11  C   UNL     1      -2.751 -13.614   9.120  1.00  0.00     0.058 C 
BRANCH  11  12
ATOM     12  C   UNL     1      -2.282 -14.161  10.448  1.00  0.00    -0.024 C 
ATOM     13  C   UNL     1      -2.939 -15.069  11.206  1.00  0.00    -0.077 C 
ATOM     14  C   UNL     1      -2.339 -15.435  12.541  1.00  0.00     0.039 C 
BRANCH  13  15
ATOM     15  C   UNL     1      -4.233 -15.742  10.779  1.00  0.00     0.034 C 
BRANCH  15  16
ATOM     16  C   UNL     1      -4.216 -17.266  11.010  1.00  0.00     0.032 CG0
ATOM     17  G   UNL     1      -4.067 -18.018   9.710  1.00  0.00     0.000 G0
ENDBRANCH  15  16
ENDBRANCH  13  15
ENDBRANCH  11  12
ENDBRANCH   1  11
TORSDOF 0
ENDMDL
MODEL 5
REMARK VINA RESULT:    -4.632      1.833      4.218
REMARK INTER + INTRA:          -6.520
REMARK INTER:                  -6.263
REMARK INTRA:                  -0.258
REMARK UNBOUND:                 0.007
REMARK SMILES CC1=CCC(=C(C)C)CCC(C)=CCC1
REMARK SMILES IDX 5 1 6 2 7 3 8 4 9 5 10 6 11 7 12 8 13 9 4 11 3 12 2 13 1 14
REMARK SMILES IDX 15 15 14 16
REMARK H PARENT
REMARK Flexibility Score: 60.00
ROOT
ATOM      1  C   UNL     1      -2.500 -16.564  11.810  1.00  0.00    -0.067 C 
ATOM      2  C   UNL     1      -1.974 -16.910  13.027  1.00  0.00    -0.077 C 
ATOM      3  C   UNL     1      -1.348 -18.270  13.263  1.00  0.00     0.039 C 
ATOM      4  C   UNL     1      -1.984 -15.945  14.194  1.00  0.00     0.039 C 
ENDROOT
BRANCH   1   5
ATOM      5  C   UNL     1      -2.641 -17.603  10.691  1.00  0.00     0.035 C 
BRANCH   5   6
ATOM      6  C   UNL     1      -2.117 -17.127   9.318  1.00  0.00     0.035 C 
BRANCH   6   7
ATOM      7  C   UNL     1      -3.205 -16.715   8.339  1.00  0.00    -0.077 C 
ATOM      8  C   UNL     1      -4.290 -17.708   8.000  1.00  0.00     0.039 C 
ATOM      9  C   UNL     1      -3.256 -15.500   7.750  1.00  0.00    -0.028 CG0
ATOM     10  G   UNL     1      -2.290 -14.364   7.980  1.00  0.00     0.000 G0
ENDBRANCH   6   7
ENDBRANCH   5   6
ENDBRANCH   1   5
BRANCH   1  11
ATOM     11  C   UNL     1      -3.095 -15.169  11.588  1.00  0.00     0.058 C 
BRANCH  11  12
ATOM     12  C   UNL     1      -2.043 -14.103  11.393  1.00  0.00    -0.024 C 
ATOM     13  C   UNL     1      -1.880 -13.346  10.282  1.00  0.00    -0.077 C 
ATOM     14  C   UNL     1      -0.721 -12.382  10.254  1.00  0.00     0.039 C 
BRANCH  13  15
ATOM     15  C   UNL     1      -2.806 -13.409   9.079  1.00  0.00     0.034 C 
BRANCH  15  16
ATOM     16  C   UNL     1      -2.294 -14.364   7.982  1.00  0.00     0.032 CG0
ATOM     17  G   UNL     1      -3.254 -15.506   7.754  1.00  0.00     0.000 G0
ENDBRANCH  15  16
ENDBRANCH  13  15
ENDBRANCH  11  12
ENDBRANCH   1  11
TORSDOF 0
ENDMDL
MODEL 6
REMARK VINA RESULT:    -4.418      1.927      3.696
REMARK INTER + INTRA:          -6.218
REMARK INTER:                  -6.814
REMARK INTRA:                   0.596
REMARK UNBOUND:                 0.007
REMARK SMILES CC1=CCC(=C(C)C)CCC(C)=CCC1
REMARK SMILES IDX 5 1 6 2 7 3 8 4 9 5 10 6 11 7 12 8 13 9 4 11 3 12 2 13 1 14
REMARK SMILES IDX 15 15 14 16
REMARK H PARENT
REMARK Flexibility Score: 60.00
ROOT
ATOM      1  C   UNL     1      -3.276 -15.788  11.666  1.00  0.00    -0.067 C 
ATOM      2  C   UNL     1      -3.510 -15.297  12.924  1.00  0.00    -0.077 C 
ATOM      3  C   UNL     1      -2.515 -14.390  13.619  1.00  0.00     0.039 C 
ATOM      4  C   UNL     1      -4.781 -15.630  13.677  1.00  0.00     0.039 C 
ENDROOT
BRANCH   1   5
ATOM      5  C   UNL     1      -1.917 -15.589  10.985  1.00  0.00     0.035 C 
BRANCH   5   6
ATOM      6  C   UNL     1      -1.933 -14.560   9.832  1.00  0.00     0.035 C 
BRANCH   6   7
ATOM      7  C   UNL     1      -1.654 -15.152   8.460  1.00  0.00    -0.077 C 
ATOM      8  C   UNL     1      -0.221 -15.364   8.039  1.00  0.00     0.039 C 
ATOM      9  C   UNL     1      -2.626 -15.500   7.587  1.00  0.00    -0.028 CG0
ATOM     10  G   UNL     1      -4.112 -15.395   7.830  1.00  0.00     0.000 G0
ENDBRANCH   6   7
ENDBRANCH   5   6
ENDBRANCH   1   5
BRANCH   1  11
ATOM     11  C   UNL     1      -4.316 -16.674  10.971  1.00  0.00     0.058 C 
BRANCH  11  12
ATOM     12  C   UNL     1      -3.698 -17.691  10.041  1.00  0.00    -0.024 C 
ATOM     13  C   UNL     1      -3.918 -17.780   8.708  1.00  0.00    -0.077 C 
ATOM     14  C   UNL     1      -3.262 -18.917   7.964  1.00  0.00     0.039 C 
BRANCH  13  15
ATOM     15  C   UNL     1      -4.772 -16.795   7.929  1.00  0.00     0.034 C 
BRANCH  15  16
ATOM     16  C   UNL     1      -4.126 -15.399   7.823  1.00  0.00     0.032 CG0
ATOM     17  G   UNL     1      -2.639 -15.497   7.589  1.00  0.00     0.000 G0
ENDBRANCH  15  16
ENDBRANCH  13  15
ENDBRANCH  11  12
ENDBRANCH   1  11
TORSDOF 0
ENDMDL
MODEL 7
REMARK VINA RESULT:    -4.391      1.845      4.858
REMARK INTER + INTRA:          -6.181
REMARK INTER:                  -7.905
REMARK INTRA:                   1.724
REMARK UNBOUND:                 0.007
REMARK SMILES CC1=CCC(=C(C)C)CCC(C)=CCC1
REMARK SMILES IDX 5 1 6 2 7 3 8 4 9 5 10 6 11 7 12 8 13 9 4 11 3 12 2 13 1 14
REMARK SMILES IDX 15 15 14 16
REMARK H PARENT
REMARK Flexibility Score: 60.00
ROOT
ATOM      1  C   UNL     1      -3.586 -17.296   9.897  1.00  0.00    -0.067 C 
ATOM      2  C   UNL     1      -4.898 -16.898   9.898  1.00  0.00    -0.077 C 
ATOM      3  C   UNL     1      -5.678 -16.731   8.610  1.00  0.00     0.039 C 
ATOM      4  C   UNL     1      -5.635 -16.617  11.191  1.00  0.00     0.039 C 
ENDROOT
BRANCH   1   5
ATOM      5  C   UNL     1      -2.802 -17.410   8.584  1.00  0.00     0.035 C 
BRANCH   5   6
ATOM      6  C   UNL     1      -2.021 -16.133   8.203  1.00  0.00     0.035 C 
BRANCH   6   7
ATOM      7  C   UNL     1      -2.896 -14.968   7.770  1.00  0.00    -0.077 C 
ATOM      8  C   UNL     1      -3.705 -15.100   6.503  1.00  0.00     0.039 C 
ATOM      9  C   UNL     1      -2.991 -13.810   8.460  1.00  0.00    -0.028 CG0
ATOM     10  G   UNL     1      -2.291 -13.495   9.759  1.00  0.00     0.000 G0
ENDBRANCH   6   7
ENDBRANCH   5   6
ENDBRANCH   1   5
BRANCH   1  11
ATOM     11  C   UNL     1      -2.832 -17.492  11.215  1.00  0.00     0.058 C 
BRANCH  11  12
ATOM     12  C   UNL     1      -2.848 -16.264  12.094  1.00  0.00    -0.024 C 
ATOM     13  C   UNL     1      -2.324 -15.057  11.776  1.00  0.00    -0.077 C 
ATOM     14  C   UNL     1      -2.375 -13.972  12.823  1.00  0.00     0.039 C 
BRANCH  13  15
ATOM     15  C   UNL     1      -1.704 -14.739  10.425  1.00  0.00     0.034 C 
BRANCH  15  16
ATOM     16  C   UNL     1      -2.311 -13.481   9.773  1.00  0.00     0.032 CG0
ATOM     17  G   UNL     1      -3.001 -13.813   8.473  1.00  0.00     0.000 G0
ENDBRANCH  15  16
ENDBRANCH  13  15
ENDBRANCH  11  12
ENDBRANCH   1  11
TORSDOF 0
ENDMDL
MODEL 8
REMARK VINA RESULT:    -4.327      1.591      4.476
REMARK INTER + INTRA:          -6.091
REMARK INTER:                  -6.933
REMARK INTRA:                   0.842
REMARK UNBOUND:                 0.007
REMARK SMILES CC1=CCC(=C(C)C)CCC(C)=CCC1
REMARK SMILES IDX 5 1 6 2 7 3 8 4 9 5 10 6 11 7 12 8 13 9 4 11 3 12 2 13 1 14
REMARK SMILES IDX 15 15 14 16
REMARK H PARENT
REMARK Flexibility Score: 60.00
ROOT
ATOM      1  C   UNL     1      -3.890 -16.887   9.675  1.00  0.00    -0.067 C 
ATOM      2  C   UNL     1      -4.588 -16.522  10.797  1.00  0.00    -0.077 C 
ATOM      3  C   UNL     1      -6.101 -16.587  10.847  1.00  0.00     0.039 C 
ATOM      4  C   UNL     1      -3.877 -16.044  12.047  1.00  0.00     0.039 C 
ENDROOT
BRANCH   1   5
ATOM      5  C   UNL     1      -4.620 -17.201   8.364  1.00  0.00     0.035 C 
BRANCH   5   6
ATOM      6  C   UNL     1      -3.966 -16.576   7.112  1.00  0.00     0.035 C 
BRANCH   6   7
ATOM      7  C   UNL     1      -4.742 -15.413   6.513  1.00  0.00    -0.077 C 
ATOM      8  C   UNL     1      -5.638 -15.673   5.327  1.00  0.00     0.039 C 
ATOM      9  C   UNL     1      -4.673 -14.149   6.987  1.00  0.00    -0.028 CG0
ATOM     10  G   UNL     1      -3.864 -13.693   8.176  1.00  0.00     0.000 G0
ENDBRANCH   6   7
ENDBRANCH   5   6
ENDBRANCH   1   5
BRANCH   1  11
ATOM     11  C   UNL     1      -2.359 -16.845   9.664  1.00  0.00     0.058 C 
BRANCH  11  12
ATOM     12  C   UNL     1      -1.800 -15.531  10.156  1.00  0.00    -0.024 C 
ATOM     13  C   UNL     1      -1.782 -14.369   9.462  1.00  0.00    -0.077 C 
ATOM     14  C   UNL     1      -1.110 -13.179  10.102  1.00  0.00     0.039 C 
BRANCH  13  15
ATOM     15  C   UNL     1      -2.412 -14.200   8.090  1.00  0.00     0.034 C 
BRANCH  15  16
ATOM     16  C   UNL     1      -3.858 -13.671   8.158  1.00  0.00     0.032 CG0
ATOM     17  G   UNL     1      -4.675 -14.149   6.983  1.00  0.00     0.000 G0
ENDBRANCH  15  16
ENDBRANCH  13  15
ENDBRANCH  11  12
ENDBRANCH   1  11
TORSDOF 0
ENDMDL
MODEL 9
REMARK VINA RESULT:    -4.195      1.305      3.121
REMARK INTER + INTRA:          -5.905
REMARK INTER:                  -6.625
REMARK INTRA:                   0.719
REMARK UNBOUND:                 0.007
REMARK SMILES CC1=CCC(=C(C)C)CCC(C)=CCC1
REMARK SMILES IDX 5 1 6 2 7 3 8 4 9 5 10 6 11 7 12 8 13 9 4 11 3 12 2 13 1 14
REMARK SMILES IDX 15 15 14 16
REMARK H PARENT
REMARK Flexibility Score: 60.00
ROOT
ATOM      1  C   UNL     1      -1.874 -15.033  10.183  1.00  0.00    -0.067 C 
ATOM      2  C   UNL     1      -1.924 -13.902  10.954  1.00  0.00    -0.077 C 
ATOM      3  C   UNL     1      -1.578 -12.539  10.389  1.00  0.00     0.039 C 
ATOM      4  C   UNL     1      -2.337 -13.958  12.411  1.00  0.00     0.039 C 
ENDROOT
BRANCH   1   5
ATOM      5  C   UNL     1      -1.290 -14.992   8.765  1.00  0.00     0.035 C 
BRANCH   5   6
ATOM      6  C   UNL     1      -2.281 -15.423   7.662  1.00  0.00     0.035 C 
BRANCH   6   7
ATOM      7  C   UNL     1      -3.635 -14.736   7.731  1.00  0.00    -0.077 C 
ATOM      8  C   UNL     1      -3.681 -13.230   7.803  1.00  0.00     0.039 C 
ATOM      9  C   UNL     1      -4.810 -15.403   7.733  1.00  0.00    -0.028 CG0
ATOM     10  G   UNL     1      -4.977 -16.900   7.637  1.00  0.00     0.000 G0
ENDBRANCH   6   7
ENDBRANCH   5   6
ENDBRANCH   1   5
BRANCH   1  11
ATOM     11  C   UNL     1      -2.263 -16.394  10.771  1.00  0.00     0.058 C 
BRANCH  11  12
ATOM     12  C   UNL     1      -3.745 -16.521  11.035  1.00  0.00    -0.024 C 
ATOM     13  C   UNL     1      -4.661 -17.024  10.176  1.00  0.00    -0.077 C 
ATOM     14  C   UNL     1      -6.109 -16.998  10.600  1.00  0.00     0.039 C 
BRANCH  13  15
ATOM     15  C   UNL     1      -4.308 -17.622   8.824  1.00  0.00     0.034 C 
BRANCH  15  16
ATOM     16  C   UNL     1      -4.996 -16.894   7.653  1.00  0.00     0.032 CG0
ATOM     17  G   UNL     1      -4.797 -15.401   7.739  1.00  0.00     0.000 G0
ENDBRANCH  15  16
ENDBRANCH  13  15
ENDBRANCH  11  12
ENDBRANCH   1  11
TORSDOF 0
ENDMDL
