MODEL 1
REMARK VINA RESULT:    -3.685      0.000      0.000
REMARK INTER + INTRA:          -4.568
REMARK INTER:                  -4.439
REMARK INTRA:                  -0.129
REMARK UNBOUND:                -0.129
REMARK SMILES CC[C@H](C)[C@H]([NH3+])C(=O)[O-]
REMARK SMILES IDX 3 1 4 2 5 3 6 4 7 8 8 9 9 10 2 11 1 12
REMARK H PARENT 6 5 6 6 6 7
REMARK Flexibility Score: inf
ROOT
ATOM      1  C   UNL     1     114.993 113.192  99.969  1.00  0.00     0.050 C 
ATOM      2  C   UNL     1     116.419 113.281  99.383  1.00  0.00     0.014 C 
ENDROOT
BRANCH   1   3
ATOM      3  C   UNL     1     114.659 111.718 100.365  1.00  0.00     0.230 C 
BRANCH   3   4
ATOM      4  N   UNL     1     113.637 111.123  99.489  1.00  0.00    -0.350 N 
ATOM      5  H   UNL     1     112.696 111.525  99.704  1.00  0.00     0.345 HD
ATOM      6  H   UNL     1     113.861 111.304  98.483  1.00  0.00     0.345 HD
ATOM      7  H   UNL     1     113.571 110.093  99.657  1.00  0.00     0.345 HD
ENDBRANCH   3   4
BRANCH   3   8
ATOM      8  C   UNL     1     114.182 111.643 101.796  1.00  0.00     0.099 C 
ATOM      9  O   UNL     1     113.165 112.290 102.161  1.00  0.00    -0.544 OA
ATOM     10  O   UNL     1     114.866 110.863 102.722  1.00  0.00    -0.544 OA
ENDBRANCH   3   8
ENDBRANCH   1   3
BRANCH   1  11
ATOM     11  C   UNL     1     113.955 113.763  98.965  1.00  0.00     0.006 C 
ATOM     12  C   UNL     1     113.245 115.023  99.467  1.00  0.00     0.004 C 
ENDBRANCH   1  11
TORSDOF 4
ENDMDL
MODEL 2
REMARK VINA RESULT:    -3.683     11.466     12.369
REMARK INTER + INTRA:          -4.566
REMARK INTER:                  -4.443
REMARK INTRA:                  -0.123
REMARK UNBOUND:                -0.129
REMARK SMILES CC[C@H](C)[C@H]([NH3+])C(=O)[O-]
REMARK SMILES IDX 3 1 4 2 5 3 6 4 7 8 8 9 9 10 2 11 1 12
REMARK H PARENT 6 5 6 6 6 7
REMARK Flexibility Score: inf
ROOT
ATOM      1  C   UNL     1     109.443 100.812 100.027  1.00  0.00     0.050 C 
ATOM      2  C   UNL     1     108.837  99.516  99.447  1.00  0.00     0.014 C 
ENDROOT
BRANCH   1   3
ATOM      3  C   UNL     1     108.310 101.815 100.417  1.00  0.00     0.230 C 
BRANCH   3   4
ATOM      4  N   UNL     1     108.330 103.030  99.587  1.00  0.00    -0.350 N 
ATOM      5  H   UNL     1     108.974 103.742 100.002  1.00  0.00     0.345 HD
ATOM      6  H   UNL     1     108.650 102.810  98.615  1.00  0.00     0.345 HD
ATOM      7  H   UNL     1     107.380 103.464  99.557  1.00  0.00     0.345 HD
ENDBRANCH   3   4
BRANCH   3   8
ATOM      8  C   UNL     1     108.423 102.211 101.870  1.00  0.00     0.099 C 
ATOM      9  O   UNL     1     109.523 102.608 102.336  1.00  0.00    -0.544 OA
ATOM     10  O   UNL     1     107.313 102.136 102.704  1.00  0.00    -0.544 OA
ENDBRANCH   3   8
ENDBRANCH   1   3
BRANCH   1  11
ATOM     11  C   UNL     1     110.443 101.444  99.021  1.00  0.00     0.006 C 
ATOM     12  C   UNL     1     111.899 101.398  99.492  1.00  0.00     0.004 C 
ENDBRANCH   1  11
TORSDOF 4
ENDMDL
MODEL 3
REMARK VINA RESULT:    -3.677     11.446     12.363
REMARK INTER + INTRA:          -4.558
REMARK INTER:                  -4.425
REMARK INTRA:                  -0.133
REMARK UNBOUND:                -0.129
REMARK SMILES CC[C@H](C)[C@H]([NH3+])C(=O)[O-]
REMARK SMILES IDX 3 1 4 2 5 3 6 4 7 8 8 9 9 10 2 11 1 12
REMARK H PARENT 6 5 6 6 6 7
REMARK Flexibility Score: inf
ROOT
ATOM      1  C   UNL     1     101.453 111.853  99.965  1.00  0.00     0.050 C 
ATOM      2  C   UNL     1     100.668 113.043  99.371  1.00  0.00     0.014 C 
ENDROOT
BRANCH   1   3
ATOM      3  C   UNL     1     102.894 112.301 100.371  1.00  0.00     0.230 C 
BRANCH   3   4
ATOM      4  N   UNL     1     103.926 111.713  99.502  1.00  0.00    -0.350 N 
ATOM      5  H   UNL     1     104.808 111.554 100.043  1.00  0.00     0.345 HD
ATOM      6  H   UNL     1     103.603 110.799  99.108  1.00  0.00     0.345 HD
ATOM      7  H   UNL     1     104.164 112.371  98.726  1.00  0.00     0.345 HD
ENDBRANCH   3   4
BRANCH   3   8
ATOM      8  C   UNL     1     103.187 111.928 101.804  1.00  0.00     0.099 C 
ATOM      9  O   UNL     1     103.056 110.736 102.189  1.00  0.00    -0.544 OA
ATOM     10  O   UNL     1     103.598 112.898 102.711  1.00  0.00    -0.544 OA
ENDBRANCH   3   8
ENDBRANCH   1   3
BRANCH   1  11
ATOM     11  C   UNL     1     101.485 110.667  98.964  1.00  0.00     0.006 C 
ATOM     12  C   UNL     1     100.765 109.415  99.473  1.00  0.00     0.004 C 
ENDBRANCH   1  11
TORSDOF 4
ENDMDL
MODEL 4
REMARK VINA RESULT:    -3.551      4.014      5.261
REMARK INTER + INTRA:          -4.407
REMARK INTER:                  -4.317
REMARK INTRA:                  -0.090
REMARK UNBOUND:                -0.129
REMARK SMILES CC[C@H](C)[C@H]([NH3+])C(=O)[O-]
REMARK SMILES IDX 3 1 4 2 5 3 6 4 7 8 8 9 9 10 2 11 1 12
REMARK H PARENT 6 5 6 6 6 7
REMARK Flexibility Score: inf
ROOT
ATOM      1  C   UNL     1     112.347 115.560 102.577  1.00  0.00     0.050 C 
ATOM      2  C   UNL     1     111.948 116.821 103.372  1.00  0.00     0.014 C 
ENDROOT
BRANCH   1   3
ATOM      3  C   UNL     1     111.642 115.550 101.182  1.00  0.00     0.230 C 
BRANCH   3   4
ATOM      4  N   UNL     1     111.030 114.247 100.876  1.00  0.00    -0.350 N 
ATOM      5  H   UNL     1     111.655 113.692 100.246  1.00  0.00     0.345 HD
ATOM      6  H   UNL     1     110.862 113.701 101.752  1.00  0.00     0.345 HD
ATOM      7  H   UNL     1     110.129 114.382 100.363  1.00  0.00     0.345 HD
ENDBRANCH   3   4
BRANCH   3   8
ATOM      8  C   UNL     1     112.617 115.905 100.086  1.00  0.00     0.099 C 
ATOM      9  O   UNL     1     112.960 117.103  99.905  1.00  0.00    -0.544 OA
ATOM     10  O   UNL     1     113.140 114.912  99.265  1.00  0.00    -0.544 OA
ENDBRANCH   3   8
ENDBRANCH   1   3
BRANCH   1  11
ATOM     11  C   UNL     1     112.022 114.277 103.389  1.00  0.00     0.006 C 
ATOM     12  C   UNL     1     111.336 114.557 104.729  1.00  0.00     0.004 C 
ENDBRANCH   1  11
TORSDOF 4
ENDMDL
MODEL 5
REMARK VINA RESULT:    -3.539     10.507     11.112
REMARK INTER + INTRA:          -4.392
REMARK INTER:                  -4.300
REMARK INTRA:                  -0.092
REMARK UNBOUND:                -0.129
REMARK SMILES CC[C@H](C)[C@H]([NH3+])C(=O)[O-]
REMARK SMILES IDX 3 1 4 2 5 3 6 4 7 8 8 9 9 10 2 11 1 12
REMARK H PARENT 6 5 6 6 6 7
REMARK Flexibility Score: inf
ROOT
ATOM      1  C   UNL     1     112.705 101.883 102.705  1.00  0.00     0.050 C 
ATOM      2  C   UNL     1     113.985 101.560 103.504  1.00  0.00     0.014 C 
ENDROOT
BRANCH   1   3
ATOM      3  C   UNL     1     113.070 102.556 101.342  1.00  0.00     0.230 C 
BRANCH   3   4
ATOM      4  N   UNL     1     112.270 103.764 101.085  1.00  0.00    -0.350 N 
ATOM      5  H   UNL     1     111.594 103.925 101.868  1.00  0.00     0.345 HD
ATOM      6  H   UNL     1     112.886 104.605 100.993  1.00  0.00     0.345 HD
ATOM      7  H   UNL     1     111.701 103.644 100.216  1.00  0.00     0.345 HD
ENDBRANCH   3   4
BRANCH   3   8
ATOM      8  C   UNL     1     112.879 101.589 100.199  1.00  0.00     0.099 C 
ATOM      9  O   UNL     1     113.689 100.639 100.030  1.00  0.00    -0.544 OA
ATOM     10  O   UNL     1     111.812 101.743  99.322  1.00  0.00    -0.544 OA
ENDBRANCH   3   8
ENDBRANCH   1   3
BRANCH   1  11
ATOM     11  C   UNL     1     111.749 102.774 103.543  1.00  0.00     0.006 C 
ATOM     12  C   UNL     1     112.365 103.273 104.852  1.00  0.00     0.004 C 
ENDBRANCH   1  11
TORSDOF 4
ENDMDL
MODEL 6
REMARK VINA RESULT:    -3.522     10.528     11.550
REMARK INTER + INTRA:          -4.372
REMARK INTER:                  -4.235
REMARK INTRA:                  -0.138
REMARK UNBOUND:                -0.129
REMARK SMILES CC[C@H](C)[C@H]([NH3+])C(=O)[O-]
REMARK SMILES IDX 3 1 4 2 5 3 6 4 7 8 8 9 9 10 2 11 1 12
REMARK H PARENT 6 5 6 6 6 7
REMARK Flexibility Score: inf
ROOT
ATOM      1  C   UNL     1     110.881 101.783  99.099  1.00  0.00     0.050 C 
ATOM      2  C   UNL     1     112.381 101.536  99.364  1.00  0.00     0.014 C 
ENDROOT
BRANCH   1   3
ATOM      3  C   UNL     1     110.558 103.311  99.180  1.00  0.00     0.230 C 
BRANCH   3   4
ATOM      4  N   UNL     1     110.375 103.769 100.566  1.00  0.00    -0.350 N 
ATOM      5  H   UNL     1     109.984 104.740 100.578  1.00  0.00     0.345 HD
ATOM      6  H   UNL     1     109.723 103.135 101.083  1.00  0.00     0.345 HD
ATOM      7  H   UNL     1     111.296 103.810 101.058  1.00  0.00     0.345 HD
ENDBRANCH   3   4
BRANCH   3   8
ATOM      8  C   UNL     1     109.317 103.638  98.386  1.00  0.00     0.099 C 
ATOM      9  O   UNL     1     109.385 103.803  97.139  1.00  0.00    -0.544 OA
ATOM     10  O   UNL     1     108.089 103.766  99.026  1.00  0.00    -0.544 OA
ENDBRANCH   3   8
ENDBRANCH   1   3
BRANCH   1  11
ATOM     11  C   UNL     1     110.010 100.963 100.090  1.00  0.00     0.006 C 
ATOM     12  C   UNL     1     108.991 100.052  99.401  1.00  0.00     0.004 C 
ENDBRANCH   1  11
TORSDOF 4
ENDMDL
MODEL 7
REMARK VINA RESULT:    -3.512     12.558     13.128
REMARK INTER + INTRA:          -4.360
REMARK INTER:                  -4.287
REMARK INTRA:                  -0.073
REMARK UNBOUND:                -0.129
REMARK SMILES CC[C@H](C)[C@H]([NH3+])C(=O)[O-]
REMARK SMILES IDX 3 1 4 2 5 3 6 4 7 8 8 9 9 10 2 11 1 12
REMARK H PARENT 6 5 6 6 6 7
REMARK Flexibility Score: inf
ROOT
ATOM      1  C   UNL     1     101.923 110.037  99.284  1.00  0.00     0.050 C 
ATOM      2  C   UNL     1     102.628 110.221  97.923  1.00  0.00     0.014 C 
ENDROOT
BRANCH   1   3
ATOM      3  C   UNL     1     101.437 108.561  99.451  1.00  0.00     0.230 C 
BRANCH   3   4
ATOM      4  N   UNL     1     100.017 108.480  99.826  1.00  0.00    -0.350 N 
ATOM      5  H   UNL     1      99.834 109.055 100.680  1.00  0.00     0.345 HD
ATOM      6  H   UNL     1      99.408 108.827  99.048  1.00  0.00     0.345 HD
ATOM      7  H   UNL     1      99.761 107.495 100.065  1.00  0.00     0.345 HD
ENDBRANCH   3   4
BRANCH   3   8
ATOM      8  C   UNL     1     102.261 107.840 100.490  1.00  0.00     0.099 C 
ATOM      9  O   UNL     1     101.890 107.821 101.693  1.00  0.00    -0.544 OA
ATOM     10  O   UNL     1     103.439 107.197 100.127  1.00  0.00    -0.544 OA
ENDBRANCH   3   8
ENDBRANCH   1   3
BRANCH   1  11
ATOM     11  C   UNL     1     100.750 111.044  99.431  1.00  0.00     0.006 C 
ATOM     12  C   UNL     1     101.195 112.508  99.437  1.00  0.00     0.004 C 
ENDBRANCH   1  11
TORSDOF 4
ENDMDL
MODEL 8
REMARK VINA RESULT:    -3.492     10.440     11.241
REMARK INTER + INTRA:          -4.335
REMARK INTER:                  -4.283
REMARK INTRA:                  -0.052
REMARK UNBOUND:                -0.129
REMARK SMILES CC[C@H](C)[C@H]([NH3+])C(=O)[O-]
REMARK SMILES IDX 3 1 4 2 5 3 6 4 7 8 8 9 9 10 2 11 1 12
REMARK H PARENT 6 5 6 6 6 7
REMARK Flexibility Score: inf
ROOT
ATOM      1  C   UNL     1     111.440 102.051  99.885  1.00  0.00     0.050 C 
ATOM      2  C   UNL     1     112.694 101.172  99.695  1.00  0.00     0.014 C 
ENDROOT
BRANCH   1   3
ATOM      3  C   UNL     1     111.015 102.075 101.389  1.00  0.00     0.230 C 
BRANCH   3   4
ATOM      4  N   UNL     1     109.891 102.993 101.637  1.00  0.00    -0.350 N 
ATOM      5  H   UNL     1     110.156 103.970 101.374  1.00  0.00     0.345 HD
ATOM      6  H   UNL     1     109.051 102.709 101.081  1.00  0.00     0.345 HD
ATOM      7  H   UNL     1     109.654 103.009 102.655  1.00  0.00     0.345 HD
ENDBRANCH   3   4
BRANCH   3   8
ATOM      8  C   UNL     1     112.177 102.474 102.267  1.00  0.00     0.099 C 
ATOM      9  O   UNL     1     112.723 103.599 102.125  1.00  0.00    -0.544 OA
ATOM     10  O   UNL     1     112.655 101.598 103.236  1.00  0.00    -0.544 OA
ENDBRANCH   3   8
ENDBRANCH   1   3
BRANCH   1  11
ATOM     11  C   UNL     1     110.284 101.557  98.974  1.00  0.00     0.006 C 
ATOM     12  C   UNL     1     109.600 100.286  99.485  1.00  0.00     0.004 C 
ENDBRANCH   1  11
TORSDOF 4
ENDMDL
MODEL 9
REMARK VINA RESULT:    -3.490     12.642     13.192
REMARK INTER + INTRA:          -4.334
REMARK INTER:                  -4.271
REMARK INTRA:                  -0.063
REMARK UNBOUND:                -0.129
REMARK SMILES CC[C@H](C)[C@H]([NH3+])C(=O)[O-]
REMARK SMILES IDX 3 1 4 2 5 3 6 4 7 8 8 9 9 10 2 11 1 12
REMARK H PARENT 6 5 6 6 6 7
REMARK Flexibility Score: inf
ROOT
ATOM      1  C   UNL     1     101.724 109.643  99.835  1.00  0.00     0.050 C 
ATOM      2  C   UNL     1     100.377 108.959  99.520  1.00  0.00     0.014 C 
ENDROOT
BRANCH   1   3
ATOM      3  C   UNL     1     101.830 109.959 101.362  1.00  0.00     0.230 C 
BRANCH   3   4
ATOM      4  N   UNL     1     103.145 110.510 101.727  1.00  0.00    -0.350 N 
ATOM      5  H   UNL     1     103.046 111.198 102.509  1.00  0.00     0.345 HD
ATOM      6  H   UNL     1     103.796 109.748 102.028  1.00  0.00     0.345 HD
ATOM      7  H   UNL     1     103.557 111.030 100.919  1.00  0.00     0.345 HD
ENDBRANCH   3   4
BRANCH   3   8
ATOM      8  C   UNL     1     101.571 108.720 102.184  1.00  0.00     0.099 C 
ATOM      9  O   UNL     1     100.679 108.722 103.072  1.00  0.00    -0.544 OA
ATOM     10  O   UNL     1     102.321 107.568 101.970  1.00  0.00    -0.544 OA
ENDBRANCH   3   8
ENDBRANCH   1   3
BRANCH   1  11
ATOM     11  C   UNL     1     101.899 110.924  98.974  1.00  0.00     0.006 C 
ATOM     12  C   UNL     1     101.017 112.091  99.423  1.00  0.00     0.004 C 
ENDBRANCH   1  11
TORSDOF 4
ENDMDL
