MODEL 1
REMARK VINA RESULT:     5.161      0.000      0.000
REMARK INTER + INTRA:          15.878
REMARK INTER:                  13.609
REMARK INTRA:                   2.269
REMARK UNBOUND:                 2.269
REMARK SMILES CCCCCCCCCCCCCCCCCCCCCCCCCCCCCC(=O)[O-]
REMARK SMILES IDX 16 1 17 2 18 3 19 4 20 5 21 6 22 7 23 8 24 9 25 10 26 11
REMARK SMILES IDX 27 12 28 13 29 14 30 15 31 16 32 17 15 18 14 19 13 20 12 21
REMARK SMILES IDX 11 22 10 23 9 24 8 25 7 26 6 27 5 28 4 29 3 30 2 31 1 32
REMARK H PARENT
REMARK Flexibility Score: inf
ROOT
ATOM      1  C   UNL     1      26.619  20.413  25.751  1.00  0.00     0.000 C 
ENDROOT
BRANCH   1   2
ATOM      2  C   UNL     1      27.432  21.192  24.701  1.00  0.00     0.000 C 
BRANCH   2   3
ATOM      3  C   UNL     1      28.936  20.888  24.756  1.00  0.00     0.000 C 
BRANCH   3   4
ATOM      4  C   UNL     1      29.201  19.400  24.485  1.00  0.00     0.000 C 
BRANCH   4   5
ATOM      5  C   UNL     1      28.560  18.912  23.176  1.00  0.00     0.000 C 
BRANCH   5   6
ATOM      6  C   UNL     1      28.470  20.017  22.113  1.00  0.00     0.000 C 
BRANCH   6   7
ATOM      7  C   UNL     1      27.061  20.083  21.508  1.00  0.00     0.000 C 
BRANCH   7   8
ATOM      8  C   UNL     1      26.735  18.876  20.608  1.00  0.00     0.000 C 
BRANCH   8   9
ATOM      9  C   UNL     1      26.539  19.210  19.117  1.00  0.00     0.000 C 
BRANCH   9  10
ATOM     10  C   UNL     1      27.823  19.176  18.265  1.00  0.00     0.000 C 
BRANCH  10  11
ATOM     11  C   UNL     1      27.660  19.807  16.865  1.00  0.00     0.000 C 
BRANCH  11  12
ATOM     12  C   UNL     1      28.135  18.875  15.736  1.00  0.00     0.000 C 
BRANCH  12  13
ATOM     13  C   UNL     1      29.361  19.420  14.980  1.00  0.00     0.006 C 
BRANCH  13  14
ATOM     14  C   UNL     1      29.006  20.262  13.741  1.00  0.00     0.053 C 
BRANCH  14  15
ATOM     15  C   UNL     1      29.005  19.456  12.477  1.00  0.00     0.041 C 
ATOM     16  O   UNL     1      27.941  19.316  11.818  1.00  0.00    -0.550 OA
ATOM     17  O   UNL     1      30.181  18.883  12.010  1.00  0.00    -0.550 OA
ENDBRANCH  14  15
ENDBRANCH  13  14
ENDBRANCH  12  13
ENDBRANCH  11  12
ENDBRANCH  10  11
ENDBRANCH   9  10
ENDBRANCH   8   9
ENDBRANCH   7   8
ENDBRANCH   6   7
ENDBRANCH   5   6
ENDBRANCH   4   5
ENDBRANCH   3   4
ENDBRANCH   2   3
ENDBRANCH   1   2
BRANCH   1  18
ATOM     18  C   UNL     1      25.144  20.170  25.382  1.00  0.00     0.000 C 
BRANCH  18  19
ATOM     19  C   UNL     1      24.572  18.891  26.009  1.00  0.00     0.000 C 
BRANCH  19  20
ATOM     20  C   UNL     1      23.246  19.170  26.734  1.00  0.00     0.000 C 
BRANCH  20  21
ATOM     21  C   UNL     1      23.324  18.903  28.252  1.00  0.00     0.000 C 
BRANCH  21  22
ATOM     22  C   UNL     1      22.642  19.980  29.119  1.00  0.00     0.000 C 
BRANCH  22  23
ATOM     23  C   UNL     1      21.195  20.328  28.725  1.00  0.00     0.000 C 
BRANCH  23  24
ATOM     24  C   UNL     1      21.051  21.339  27.568  1.00  0.00    -0.000 C 
BRANCH  24  25
ATOM     25  C   UNL     1      22.176  22.384  27.473  1.00  0.00    -0.000 C 
BRANCH  25  26
ATOM     26  C   UNL     1      23.140  22.119  26.308  1.00  0.00    -0.000 C 
BRANCH  26  27
ATOM     27  C   UNL     1      24.130  23.279  26.143  1.00  0.00    -0.000 C 
BRANCH  27  28
ATOM     28  C   UNL     1      23.545  24.586  26.696  1.00  0.00    -0.000 C 
BRANCH  28  29
ATOM     29  C   UNL     1      24.433  25.221  27.779  1.00  0.00    -0.000 C 
BRANCH  29  30
ATOM     30  C   UNL     1      25.497  26.163  27.194  1.00  0.00    -0.000 C 
BRANCH  30  31
ATOM     31  C   UNL     1      25.874  25.742  25.768  1.00  0.00    -0.003 C 
ATOM     32  C   UNL     1      24.663  25.791  24.840  1.00  0.00     0.004 C 
ENDBRANCH  30  31
ENDBRANCH  29  30
ENDBRANCH  28  29
ENDBRANCH  27  28
ENDBRANCH  26  27
ENDBRANCH  25  26
ENDBRANCH  24  25
ENDBRANCH  23  24
ENDBRANCH  22  23
ENDBRANCH  21  22
ENDBRANCH  20  21
ENDBRANCH  19  20
ENDBRANCH  18  19
ENDBRANCH   1  18
TORSDOF 28
ENDMDL
MODEL 2
REMARK VINA RESULT:     5.424      2.195      5.065
REMARK INTER + INTRA:          16.573
REMARK INTER:                  15.234
REMARK INTRA:                   1.339
REMARK UNBOUND:                 2.269
REMARK SMILES CCCCCCCCCCCCCCCCCCCCCCCCCCCCCC(=O)[O-]
REMARK SMILES IDX 16 1 17 2 18 3 19 4 20 5 21 6 22 7 23 8 24 9 25 10 26 11
REMARK SMILES IDX 27 12 28 13 29 14 30 15 31 16 32 17 15 18 14 19 13 20 12 21
REMARK SMILES IDX 11 22 10 23 9 24 8 25 7 26 6 27 5 28 4 29 3 30 2 31 1 32
REMARK H PARENT
REMARK Flexibility Score: inf
ROOT
ATOM      1  C   UNL     1      24.406  20.133  23.375  1.00  0.00     0.000 C 
ENDROOT
BRANCH   1   2
ATOM      2  C   UNL     1      25.822  19.671  23.765  1.00  0.00     0.000 C 
BRANCH   2   3
ATOM      3  C   UNL     1      26.533  18.896  22.646  1.00  0.00     0.000 C 
BRANCH   3   4
ATOM      4  C   UNL     1      25.681  18.879  21.369  1.00  0.00     0.000 C 
BRANCH   4   5
ATOM      5  C   UNL     1      26.499  19.190  20.106  1.00  0.00     0.000 C 
BRANCH   5   6
ATOM      6  C   UNL     1      25.613  19.481  18.885  1.00  0.00     0.000 C 
BRANCH   6   7
ATOM      7  C   UNL     1      26.444  20.065  17.732  1.00  0.00     0.000 C 
BRANCH   7   8
ATOM      8  C   UNL     1      27.579  19.130  17.274  1.00  0.00     0.000 C 
BRANCH   8   9
ATOM      9  C   UNL     1      28.590  19.762  16.300  1.00  0.00     0.000 C 
BRANCH   9  10
ATOM     10  C   UNL     1      28.907  18.921  15.049  1.00  0.00     0.000 C 
BRANCH  10  11
ATOM     11  C   UNL     1      28.928  19.735  13.737  1.00  0.00     0.000 C 
BRANCH  11  12
ATOM     12  C   UNL     1      29.283  18.876  12.510  1.00  0.00     0.000 C 
BRANCH  12  13
ATOM     13  C   UNL     1      29.525  19.709  11.239  1.00  0.00     0.006 C 
BRANCH  13  14
ATOM     14  C   UNL     1      30.578  19.109  10.290  1.00  0.00     0.053 C 
BRANCH  14  15
ATOM     15  C   UNL     1      31.968  19.195  10.842  1.00  0.00     0.041 C 
ATOM     16  O   UNL     1      32.957  18.928  10.110  1.00  0.00    -0.550 OA
ATOM     17  O   UNL     1      32.177  19.599  12.155  1.00  0.00    -0.550 OA
ENDBRANCH  14  15
ENDBRANCH  13  14
ENDBRANCH  12  13
ENDBRANCH  11  12
ENDBRANCH  10  11
ENDBRANCH   9  10
ENDBRANCH   8   9
ENDBRANCH   7   8
ENDBRANCH   6   7
ENDBRANCH   5   6
ENDBRANCH   4   5
ENDBRANCH   3   4
ENDBRANCH   2   3
ENDBRANCH   1   2
BRANCH   1  18
ATOM     18  C   UNL     1      23.335  19.026  23.385  1.00  0.00     0.000 C 
BRANCH  18  19
ATOM     19  C   UNL     1      22.395  19.113  24.596  1.00  0.00     0.000 C 
BRANCH  19  20
ATOM     20  C   UNL     1      22.543  20.459  25.323  1.00  0.00     0.000 C 
BRANCH  20  21
ATOM     21  C   UNL     1      23.921  20.628  25.997  1.00  0.00     0.000 C 
BRANCH  21  22
ATOM     22  C   UNL     1      24.198  22.052  26.521  1.00  0.00     0.000 C 
BRANCH  22  23
ATOM     23  C   UNL     1      25.633  22.566  26.309  1.00  0.00     0.000 C 
BRANCH  23  24
ATOM     24  C   UNL     1      26.728  21.814  27.095  1.00  0.00    -0.000 C 
BRANCH  24  25
ATOM     25  C   UNL     1      26.727  20.286  26.911  1.00  0.00    -0.000 C 
BRANCH  25  26
ATOM     26  C   UNL     1      27.979  19.772  26.185  1.00  0.00    -0.000 C 
BRANCH  26  27
ATOM     27  C   UNL     1      28.230  20.569  24.899  1.00  0.00    -0.000 C 
BRANCH  27  28
ATOM     28  C   UNL     1      29.718  20.554  24.522  1.00  0.00    -0.000 C 
BRANCH  28  29
ATOM     29  C   UNL     1      30.169  19.202  23.945  1.00  0.00    -0.000 C 
BRANCH  29  30
ATOM     30  C   UNL     1      29.916  19.089  22.434  1.00  0.00    -0.000 C 
BRANCH  30  31
ATOM     31  C   UNL     1      30.769  20.103  21.661  1.00  0.00    -0.003 C 
ATOM     32  C   UNL     1      32.186  20.173  22.224  1.00  0.00     0.004 C 
ENDBRANCH  30  31
ENDBRANCH  29  30
ENDBRANCH  28  29
ENDBRANCH  27  28
ENDBRANCH  26  27
ENDBRANCH  25  26
ENDBRANCH  24  25
ENDBRANCH  23  24
ENDBRANCH  22  23
ENDBRANCH  21  22
ENDBRANCH  20  21
ENDBRANCH  19  20
ENDBRANCH  18  19
ENDBRANCH   1  18
TORSDOF 28
ENDMDL
MODEL 3
REMARK VINA RESULT:     6.938      4.635      5.439
REMARK INTER + INTRA:          20.564
REMARK INTER:                  21.803
REMARK INTRA:                  -1.239
REMARK UNBOUND:                 2.269
REMARK SMILES CCCCCCCCCCCCCCCCCCCCCCCCCCCCCC(=O)[O-]
REMARK SMILES IDX 16 1 17 2 18 3 19 4 20 5 21 6 22 7 23 8 24 9 25 10 26 11
REMARK SMILES IDX 27 12 28 13 29 14 30 15 31 16 32 17 15 18 14 19 13 20 12 21
REMARK SMILES IDX 11 22 10 23 9 24 8 25 7 26 6 27 5 28 4 29 3 30 2 31 1 32
REMARK H PARENT
REMARK Flexibility Score: inf
ROOT
ATOM      1  C   UNL     1      26.674  21.478  24.696  1.00  0.00     0.000 C 
ENDROOT
BRANCH   1   2
ATOM      2  C   UNL     1      27.388  20.826  23.498  1.00  0.00     0.000 C 
BRANCH   2   3
ATOM      3  C   UNL     1      27.472  19.297  23.606  1.00  0.00     0.000 C 
BRANCH   3   4
ATOM      4  C   UNL     1      28.673  18.877  24.467  1.00  0.00     0.000 C 
BRANCH   4   5
ATOM      5  C   UNL     1      29.854  19.855  24.355  1.00  0.00     0.000 C 
BRANCH   5   6
ATOM      6  C   UNL     1      31.205  19.186  24.650  1.00  0.00     0.000 C 
BRANCH   6   7
ATOM      7  C   UNL     1      31.961  18.880  23.349  1.00  0.00     0.000 C 
BRANCH   7   8
ATOM      8  C   UNL     1      31.170  19.269  22.086  1.00  0.00     0.000 C 
BRANCH   8   9
ATOM      9  C   UNL     1      31.545  20.632  21.477  1.00  0.00     0.000 C 
BRANCH   9  10
ATOM     10  C   UNL     1      30.641  21.807  21.894  1.00  0.00     0.000 C 
BRANCH  10  11
ATOM     11  C   UNL     1      31.341  23.182  21.845  1.00  0.00     0.000 C 
BRANCH  11  12
ATOM     12  C   UNL     1      30.781  24.094  20.738  1.00  0.00     0.000 C 
BRANCH  12  13
ATOM     13  C   UNL     1      31.789  25.156  20.263  1.00  0.00     0.006 C 
BRANCH  13  14
ATOM     14  C   UNL     1      31.967  26.331  21.242  1.00  0.00     0.053 C 
BRANCH  14  15
ATOM     15  C   UNL     1      30.676  27.028  21.546  1.00  0.00     0.041 C 
ATOM     16  O   UNL     1      30.546  28.255  21.298  1.00  0.00    -0.550 OA
ATOM     17  O   UNL     1      29.605  26.319  22.078  1.00  0.00    -0.550 OA
ENDBRANCH  14  15
ENDBRANCH  13  14
ENDBRANCH  12  13
ENDBRANCH  11  12
ENDBRANCH  10  11
ENDBRANCH   9  10
ENDBRANCH   8   9
ENDBRANCH   7   8
ENDBRANCH   6   7
ENDBRANCH   5   6
ENDBRANCH   4   5
ENDBRANCH   3   4
ENDBRANCH   2   3
ENDBRANCH   1   2
BRANCH   1  18
ATOM     18  C   UNL     1      26.891  20.771  26.046  1.00  0.00     0.000 C 
BRANCH  18  19
ATOM     19  C   UNL     1      25.648  20.013  26.534  1.00  0.00     0.000 C 
BRANCH  19  20
ATOM     20  C   UNL     1      24.836  19.456  25.355  1.00  0.00     0.000 C 
BRANCH  20  21
ATOM     21  C   UNL     1      23.473  18.876  25.786  1.00  0.00     0.000 C 
BRANCH  21  22
ATOM     22  C   UNL     1      23.216  18.927  27.306  1.00  0.00     0.000 C 
BRANCH  22  23
ATOM     23  C   UNL     1      22.257  20.035  27.778  1.00  0.00     0.000 C 
BRANCH  23  24
ATOM     24  C   UNL     1      21.955  21.135  26.738  1.00  0.00    -0.000 C 
BRANCH  24  25
ATOM     25  C   UNL     1      22.514  22.527  27.081  1.00  0.00    -0.000 C 
BRANCH  25  26
ATOM     26  C   UNL     1      23.951  22.732  26.581  1.00  0.00    -0.000 C 
BRANCH  26  27
ATOM     27  C   UNL     1      24.758  23.579  27.573  1.00  0.00    -0.000 C 
BRANCH  27  28
ATOM     28  C   UNL     1      24.556  25.078  27.310  1.00  0.00    -0.000 C 
BRANCH  28  29
ATOM     29  C   UNL     1      25.169  25.534  25.976  1.00  0.00    -0.000 C 
BRANCH  29  30
ATOM     30  C   UNL     1      24.123  26.111  25.011  1.00  0.00    -0.000 C 
BRANCH  30  31
ATOM     31  C   UNL     1      24.739  27.202  24.127  1.00  0.00    -0.003 C 
ATOM     32  C   UNL     1      25.678  26.601  23.084  1.00  0.00     0.004 C 
ENDBRANCH  30  31
ENDBRANCH  29  30
ENDBRANCH  28  29
ENDBRANCH  27  28
ENDBRANCH  26  27
ENDBRANCH  25  26
ENDBRANCH  24  25
ENDBRANCH  23  24
ENDBRANCH  22  23
ENDBRANCH  21  22
ENDBRANCH  20  21
ENDBRANCH  19  20
ENDBRANCH  18  19
ENDBRANCH   1  18
TORSDOF 28
ENDMDL
MODEL 4
REMARK VINA RESULT:     7.079      4.147      4.794
REMARK INTER + INTRA:          20.936
REMARK INTER:                  20.401
REMARK INTRA:                   0.534
REMARK UNBOUND:                 2.269
REMARK SMILES CCCCCCCCCCCCCCCCCCCCCCCCCCCCCC(=O)[O-]
REMARK SMILES IDX 16 1 17 2 18 3 19 4 20 5 21 6 22 7 23 8 24 9 25 10 26 11
REMARK SMILES IDX 27 12 28 13 29 14 30 15 31 16 32 17 15 18 14 19 13 20 12 21
REMARK SMILES IDX 11 22 10 23 9 24 8 25 7 26 6 27 5 28 4 29 3 30 2 31 1 32
REMARK H PARENT
REMARK Flexibility Score: inf
ROOT
ATOM      1  C   UNL     1      26.897  21.973  25.485  1.00  0.00     0.000 C 
ENDROOT
BRANCH   1   2
ATOM      2  C   UNL     1      27.927  20.987  26.065  1.00  0.00     0.000 C 
BRANCH   2   3
ATOM      3  C   UNL     1      29.048  20.634  25.077  1.00  0.00     0.000 C 
BRANCH   3   4
ATOM      4  C   UNL     1      28.896  19.191  24.574  1.00  0.00     0.000 C 
BRANCH   4   5
ATOM      5  C   UNL     1      27.472  18.877  24.089  1.00  0.00     0.000 C 
BRANCH   5   6
ATOM      6  C   UNL     1      27.140  19.559  22.753  1.00  0.00     0.000 C 
BRANCH   6   7
ATOM      7  C   UNL     1      28.410  20.111  22.089  1.00  0.00     0.000 C 
BRANCH   7   8
ATOM      8  C   UNL     1      29.110  19.082  21.181  1.00  0.00     0.000 C 
BRANCH   8   9
ATOM      9  C   UNL     1      30.610  18.880  21.462  1.00  0.00     0.000 C 
BRANCH   9  10
ATOM     10  C   UNL     1      31.111  19.469  22.795  1.00  0.00     0.000 C 
BRANCH  10  11
ATOM     11  C   UNL     1      30.960  21.002  22.897  1.00  0.00     0.000 C 
BRANCH  11  12
ATOM     12  C   UNL     1      31.640  21.744  21.733  1.00  0.00     0.000 C 
BRANCH  12  13
ATOM     13  C   UNL     1      30.842  22.968  21.248  1.00  0.00     0.006 C 
BRANCH  13  14
ATOM     14  C   UNL     1      31.689  24.006  20.491  1.00  0.00     0.053 C 
BRANCH  14  15
ATOM     15  C   UNL     1      31.607  25.372  21.100  1.00  0.00     0.041 C 
ATOM     16  O   UNL     1      30.491  25.848  21.437  1.00  0.00    -0.550 OA
ATOM     17  O   UNL     1      32.763  26.111  21.323  1.00  0.00    -0.550 OA
ENDBRANCH  14  15
ENDBRANCH  13  14
ENDBRANCH  12  13
ENDBRANCH  11  12
ENDBRANCH  10  11
ENDBRANCH   9  10
ENDBRANCH   8   9
ENDBRANCH   7   8
ENDBRANCH   6   7
ENDBRANCH   5   6
ENDBRANCH   4   5
ENDBRANCH   3   4
ENDBRANCH   2   3
ENDBRANCH   1   2
BRANCH   1  18
ATOM     18  C   UNL     1      25.495  21.384  25.245  1.00  0.00     0.000 C 
BRANCH  18  19
ATOM     19  C   UNL     1      25.346  19.953  25.782  1.00  0.00     0.000 C 
BRANCH  19  20
ATOM     20  C   UNL     1      24.178  19.221  25.102  1.00  0.00     0.000 C 
BRANCH  20  21
ATOM     21  C   UNL     1      22.839  19.408  25.845  1.00  0.00     0.000 C 
BRANCH  21  22
ATOM     22  C   UNL     1      22.957  19.371  27.382  1.00  0.00     0.000 C 
BRANCH  22  23
ATOM     23  C   UNL     1      21.852  20.120  28.148  1.00  0.00     0.000 C 
BRANCH  23  24
ATOM     24  C   UNL     1      21.364  21.429  27.492  1.00  0.00    -0.000 C 
BRANCH  24  25
ATOM     25  C   UNL     1      22.472  22.301  26.876  1.00  0.00    -0.000 C 
BRANCH  25  26
ATOM     26  C   UNL     1      23.509  22.766  27.909  1.00  0.00    -0.000 C 
BRANCH  26  27
ATOM     27  C   UNL     1      23.745  24.277  27.804  1.00  0.00    -0.000 C 
BRANCH  27  28
ATOM     28  C   UNL     1      25.018  24.582  27.002  1.00  0.00    -0.000 C 
BRANCH  28  29
ATOM     29  C   UNL     1      25.481  26.040  27.159  1.00  0.00    -0.000 C 
BRANCH  29  30
ATOM     30  C   UNL     1      25.802  26.707  25.812  1.00  0.00    -0.000 C 
BRANCH  30  31
ATOM     31  C   UNL     1      25.267  25.866  24.646  1.00  0.00    -0.003 C 
ATOM     32  C   UNL     1      23.878  26.336  24.220  1.00  0.00     0.004 C 
ENDBRANCH  30  31
ENDBRANCH  29  30
ENDBRANCH  28  29
ENDBRANCH  27  28
ENDBRANCH  26  27
ENDBRANCH  25  26
ENDBRANCH  24  25
ENDBRANCH  23  24
ENDBRANCH  22  23
ENDBRANCH  21  22
ENDBRANCH  20  21
ENDBRANCH  19  20
ENDBRANCH  18  19
ENDBRANCH   1  18
TORSDOF 28
ENDMDL
MODEL 5
REMARK VINA RESULT:     7.145      4.641      9.427
REMARK INTER + INTRA:          21.110
REMARK INTER:                  22.485
REMARK INTRA:                  -1.375
REMARK UNBOUND:                 2.269
REMARK SMILES CCCCCCCCCCCCCCCCCCCCCCCCCCCCCC(=O)[O-]
REMARK SMILES IDX 16 1 17 2 18 3 19 4 20 5 21 6 22 7 23 8 24 9 25 10 26 11
REMARK SMILES IDX 27 12 28 13 29 14 30 15 31 16 32 17 15 18 14 19 13 20 12 21
REMARK SMILES IDX 11 22 10 23 9 24 8 25 7 26 6 27 5 28 4 29 3 30 2 31 1 32
REMARK H PARENT
REMARK Flexibility Score: inf
ROOT
ATOM      1  C   UNL     1      26.944  21.003  25.973  1.00  0.00     0.000 C 
ENDROOT
BRANCH   1   2
ATOM      2  C   UNL     1      25.692  20.639  25.154  1.00  0.00     0.000 C 
BRANCH   2   3
ATOM      3  C   UNL     1      25.129  19.252  25.499  1.00  0.00     0.000 C 
BRANCH   3   4
ATOM      4  C   UNL     1      23.960  18.893  24.570  1.00  0.00     0.000 C 
BRANCH   4   5
ATOM      5  C   UNL     1      22.589  19.125  25.225  1.00  0.00     0.000 C 
BRANCH   5   6
ATOM      6  C   UNL     1      22.695  19.429  26.727  1.00  0.00     0.000 C 
BRANCH   6   7
ATOM      7  C   UNL     1      22.103  20.809  27.050  1.00  0.00     0.000 C 
BRANCH   7   8
ATOM      8  C   UNL     1      23.096  21.961  26.812  1.00  0.00     0.000 C 
BRANCH   8   9
ATOM      9  C   UNL     1      22.654  23.328  27.368  1.00  0.00     0.000 C 
BRANCH   9  10
ATOM     10  C   UNL     1      23.759  24.400  27.426  1.00  0.00     0.000 C 
BRANCH  10  11
ATOM     11  C   UNL     1      25.063  23.993  26.706  1.00  0.00     0.000 C 
BRANCH  11  12
ATOM     12  C   UNL     1      25.774  25.188  26.047  1.00  0.00     0.000 C 
BRANCH  12  13
ATOM     13  C   UNL     1      24.883  26.440  25.943  1.00  0.00     0.006 C 
BRANCH  13  14
ATOM     14  C   UNL     1      25.009  27.186  24.602  1.00  0.00     0.053 C 
BRANCH  14  15
ATOM     15  C   UNL     1      25.101  26.255  23.431  1.00  0.00     0.041 C 
ATOM     16  O   UNL     1      24.342  25.253  23.359  1.00  0.00    -0.550 OA
ATOM     17  O   UNL     1      26.003  26.508  22.405  1.00  0.00    -0.550 OA
ENDBRANCH  14  15
ENDBRANCH  13  14
ENDBRANCH  12  13
ENDBRANCH  11  12
ENDBRANCH  10  11
ENDBRANCH   9  10
ENDBRANCH   8   9
ENDBRANCH   7   8
ENDBRANCH   6   7
ENDBRANCH   5   6
ENDBRANCH   4   5
ENDBRANCH   3   4
ENDBRANCH   2   3
ENDBRANCH   1   2
BRANCH   1  18
ATOM     18  C   UNL     1      28.208  20.197  25.623  1.00  0.00     0.000 C 
BRANCH  18  19
ATOM     19  C   UNL     1      27.958  19.126  24.551  1.00  0.00     0.000 C 
BRANCH  19  20
ATOM     20  C   UNL     1      27.849  19.752  23.152  1.00  0.00     0.000 C 
BRANCH  20  21
ATOM     21  C   UNL     1      28.674  18.996  22.090  1.00  0.00     0.000 C 
BRANCH  21  22
ATOM     22  C   UNL     1      30.175  18.876  22.422  1.00  0.00     0.000 C 
BRANCH  22  23
ATOM     23  C   UNL     1      31.119  19.691  21.519  1.00  0.00     0.000 C 
BRANCH  23  24
ATOM     24  C   UNL     1      31.648  21.005  22.132  1.00  0.00    -0.000 C 
BRANCH  24  25
ATOM     25  C   UNL     1      30.883  22.272  21.713  1.00  0.00    -0.000 C 
BRANCH  25  26
ATOM     26  C   UNL     1      31.769  23.288  20.977  1.00  0.00    -0.000 C 
BRANCH  26  27
ATOM     27  C   UNL     1      30.926  24.434  20.405  1.00  0.00    -0.000 C 
BRANCH  27  28
ATOM     28  C   UNL     1      31.731  25.741  20.359  1.00  0.00    -0.000 C 
BRANCH  28  29
ATOM     29  C   UNL     1      32.182  26.207  21.753  1.00  0.00    -0.000 C 
BRANCH  29  30
ATOM     30  C   UNL     1      31.071  26.941  22.520  1.00  0.00    -0.000 C 
BRANCH  30  31
ATOM     31  C   UNL     1      30.005  27.477  21.557  1.00  0.00    -0.003 C 
ATOM     32  C   UNL     1      30.199  28.969  21.294  1.00  0.00     0.004 C 
ENDBRANCH  30  31
ENDBRANCH  29  30
ENDBRANCH  28  29
ENDBRANCH  27  28
ENDBRANCH  26  27
ENDBRANCH  25  26
ENDBRANCH  24  25
ENDBRANCH  23  24
ENDBRANCH  22  23
ENDBRANCH  21  22
ENDBRANCH  20  21
ENDBRANCH  19  20
ENDBRANCH  18  19
ENDBRANCH   1  18
TORSDOF 28
ENDMDL
MODEL 6
REMARK VINA RESULT:     7.331      4.483      6.396
REMARK INTER + INTRA:          21.600
REMARK INTER:                  18.804
REMARK INTRA:                   2.795
REMARK UNBOUND:                 2.269
REMARK SMILES CCCCCCCCCCCCCCCCCCCCCCCCCCCCCC(=O)[O-]
REMARK SMILES IDX 16 1 17 2 18 3 19 4 20 5 21 6 22 7 23 8 24 9 25 10 26 11
REMARK SMILES IDX 27 12 28 13 29 14 30 15 31 16 32 17 15 18 14 19 13 20 12 21
REMARK SMILES IDX 11 22 10 23 9 24 8 25 7 26 6 27 5 28 4 29 3 30 2 31 1 32
REMARK H PARENT
REMARK Flexibility Score: inf
ROOT
ATOM      1  C   UNL     1      25.090  19.379  23.610  1.00  0.00     0.000 C 
ENDROOT
BRANCH   1   2
ATOM      2  C   UNL     1      25.724  20.013  22.359  1.00  0.00     0.000 C 
BRANCH   2   3
ATOM      3  C   UNL     1      26.684  19.066  21.624  1.00  0.00     0.000 C 
BRANCH   3   4
ATOM      4  C   UNL     1      27.991  18.896  22.413  1.00  0.00     0.000 C 
BRANCH   4   5
ATOM      5  C   UNL     1      29.237  18.947  21.515  1.00  0.00     0.000 C 
BRANCH   5   6
ATOM      6  C   UNL     1      29.649  20.383  21.157  1.00  0.00     0.000 C 
BRANCH   6   7
ATOM      7  C   UNL     1      30.841  20.841  22.010  1.00  0.00     0.000 C 
BRANCH   7   8
ATOM      8  C   UNL     1      32.042  19.880  21.931  1.00  0.00     0.000 C 
BRANCH   8   9
ATOM      9  C   UNL     1      32.866  19.760  23.227  1.00  0.00     0.000 C 
BRANCH   9  10
ATOM     10  C   UNL     1      32.236  18.879  24.323  1.00  0.00     0.000 C 
BRANCH  10  11
ATOM     11  C   UNL     1      30.826  19.334  24.757  1.00  0.00     0.000 C 
BRANCH  11  12
ATOM     12  C   UNL     1      30.754  20.842  25.055  1.00  0.00     0.000 C 
BRANCH  12  13
ATOM     13  C   UNL     1      29.314  21.355  25.235  1.00  0.00     0.006 C 
BRANCH  13  14
ATOM     14  C   UNL     1      28.276  20.237  25.444  1.00  0.00     0.053 C 
BRANCH  14  15
ATOM     15  C   UNL     1      26.900  20.770  25.705  1.00  0.00     0.041 C 
ATOM     16  O   UNL     1      26.304  20.482  26.776  1.00  0.00    -0.550 OA
ATOM     17  O   UNL     1      26.286  21.606  24.782  1.00  0.00    -0.550 OA
ENDBRANCH  14  15
ENDBRANCH  13  14
ENDBRANCH  12  13
ENDBRANCH  11  12
ENDBRANCH  10  11
ENDBRANCH   9  10
ENDBRANCH   8   9
ENDBRANCH   7   8
ENDBRANCH   6   7
ENDBRANCH   5   6
ENDBRANCH   4   5
ENDBRANCH   3   4
ENDBRANCH   2   3
ENDBRANCH   1   2
BRANCH   1  18
ATOM     18  C   UNL     1      23.631  18.919  23.439  1.00  0.00     0.000 C 
BRANCH  18  19
ATOM     19  C   UNL     1      22.812  19.027  24.733  1.00  0.00     0.000 C 
BRANCH  19  20
ATOM     20  C   UNL     1      22.976  20.409  25.384  1.00  0.00     0.000 C 
BRANCH  20  21
ATOM     21  C   UNL     1      22.782  20.378  26.915  1.00  0.00     0.000 C 
BRANCH  21  22
ATOM     22  C   UNL     1      22.876  18.969  27.536  1.00  0.00     0.000 C 
BRANCH  22  23
ATOM     23  C   UNL     1      22.517  18.880  29.030  1.00  0.00     0.000 C 
BRANCH  23  24
ATOM     24  C   UNL     1      21.015  19.020  29.358  1.00  0.00    -0.000 C 
BRANCH  24  25
ATOM     25  C   UNL     1      20.316  20.226  28.706  1.00  0.00    -0.000 C 
BRANCH  25  26
ATOM     26  C   UNL     1      21.050  21.550  28.960  1.00  0.00    -0.000 C 
BRANCH  26  27
ATOM     27  C   UNL     1      21.679  22.083  27.667  1.00  0.00    -0.000 C 
BRANCH  27  28
ATOM     28  C   UNL     1      22.231  23.502  27.867  1.00  0.00    -0.000 C 
BRANCH  28  29
ATOM     29  C   UNL     1      23.112  23.964  26.695  1.00  0.00    -0.000 C 
BRANCH  29  30
ATOM     30  C   UNL     1      24.511  23.330  26.720  1.00  0.00    -0.000 C 
BRANCH  30  31
ATOM     31  C   UNL     1      25.588  24.369  26.382  1.00  0.00    -0.003 C 
ATOM     32  C   UNL     1      25.071  25.789  26.599  1.00  0.00     0.004 C 
ENDBRANCH  30  31
ENDBRANCH  29  30
ENDBRANCH  28  29
ENDBRANCH  27  28
ENDBRANCH  26  27
ENDBRANCH  25  26
ENDBRANCH  24  25
ENDBRANCH  23  24
ENDBRANCH  22  23
ENDBRANCH  21  22
ENDBRANCH  20  21
ENDBRANCH  19  20
ENDBRANCH  18  19
ENDBRANCH   1  18
TORSDOF 28
ENDMDL
MODEL 7
REMARK VINA RESULT:     7.378      2.437      5.355
REMARK INTER + INTRA:          21.724
REMARK INTER:                  19.820
REMARK INTRA:                   1.903
REMARK UNBOUND:                 2.269
REMARK SMILES CCCCCCCCCCCCCCCCCCCCCCCCCCCCCC(=O)[O-]
REMARK SMILES IDX 16 1 17 2 18 3 19 4 20 5 21 6 22 7 23 8 24 9 25 10 26 11
REMARK SMILES IDX 27 12 28 13 29 14 30 15 31 16 32 17 15 18 14 19 13 20 12 21
REMARK SMILES IDX 11 22 10 23 9 24 8 25 7 26 6 27 5 28 4 29 3 30 2 31 1 32
REMARK H PARENT
REMARK Flexibility Score: inf
ROOT
ATOM      1  C   UNL     1      24.490  19.944  23.226  1.00  0.00     0.000 C 
ENDROOT
BRANCH   1   2
ATOM      2  C   UNL     1      25.919  19.472  23.551  1.00  0.00     0.000 C 
BRANCH   2   3
ATOM      3  C   UNL     1      26.647  18.875  22.338  1.00  0.00     0.000 C 
BRANCH   3   4
ATOM      4  C   UNL     1      25.821  19.069  21.058  1.00  0.00     0.000 C 
BRANCH   4   5
ATOM      5  C   UNL     1      26.698  19.263  19.810  1.00  0.00     0.000 C 
BRANCH   5   6
ATOM      6  C   UNL     1      25.872  19.387  18.521  1.00  0.00     0.000 C 
BRANCH   6   7
ATOM      7  C   UNL     1      26.683  20.078  17.415  1.00  0.00     0.000 C 
BRANCH   7   8
ATOM      8  C   UNL     1      27.431  19.084  16.507  1.00  0.00     0.000 C 
BRANCH   8   9
ATOM      9  C   UNL     1      28.695  19.645  15.829  1.00  0.00     0.000 C 
BRANCH   9  10
ATOM     10  C   UNL     1      29.149  18.891  14.564  1.00  0.00     0.000 C 
BRANCH  10  11
ATOM     11  C   UNL     1      29.078  19.737  13.274  1.00  0.00     0.000 C 
BRANCH  11  12
ATOM     12  C   UNL     1      27.664  19.773  12.665  1.00  0.00     0.000 C 
BRANCH  12  13
ATOM     13  C   UNL     1      27.480  20.901  11.634  1.00  0.00     0.006 C 
BRANCH  13  14
ATOM     14  C   UNL     1      26.417  21.941  12.030  1.00  0.00     0.053 C 
BRANCH  14  15
ATOM     15  C   UNL     1      26.869  22.831  13.147  1.00  0.00     0.041 C 
ATOM     16  O   UNL     1      27.147  22.341  14.273  1.00  0.00    -0.550 OA
ATOM     17  O   UNL     1      27.013  24.198  12.940  1.00  0.00    -0.550 OA
ENDBRANCH  14  15
ENDBRANCH  13  14
ENDBRANCH  12  13
ENDBRANCH  11  12
ENDBRANCH  10  11
ENDBRANCH   9  10
ENDBRANCH   8   9
ENDBRANCH   7   8
ENDBRANCH   6   7
ENDBRANCH   5   6
ENDBRANCH   4   5
ENDBRANCH   3   4
ENDBRANCH   2   3
ENDBRANCH   1   2
BRANCH   1  18
ATOM     18  C   UNL     1      23.392  18.884  23.431  1.00  0.00     0.000 C 
BRANCH  18  19
ATOM     19  C   UNL     1      22.594  19.090  24.726  1.00  0.00     0.000 C 
BRANCH  19  20
ATOM     20  C   UNL     1      22.882  20.466  25.347  1.00  0.00     0.000 C 
BRANCH  20  21
ATOM     21  C   UNL     1      24.318  20.587  25.898  1.00  0.00     0.000 C 
BRANCH  21  22
ATOM     22  C   UNL     1      24.590  21.892  26.673  1.00  0.00     0.000 C 
BRANCH  22  23
ATOM     23  C   UNL     1      25.941  22.568  26.376  1.00  0.00     0.000 C 
BRANCH  23  24
ATOM     24  C   UNL     1      27.190  21.728  26.720  1.00  0.00    -0.000 C 
BRANCH  24  25
ATOM     25  C   UNL     1      27.033  20.212  26.507  1.00  0.00    -0.000 C 
BRANCH  25  26
ATOM     26  C   UNL     1      27.981  19.660  25.433  1.00  0.00    -0.000 C 
BRANCH  26  27
ATOM     27  C   UNL     1      29.114  20.651  25.142  1.00  0.00    -0.000 C 
BRANCH  27  28
ATOM     28  C   UNL     1      29.836  20.296  23.834  1.00  0.00    -0.000 C 
BRANCH  28  29
ATOM     29  C   UNL     1      30.658  19.002  23.944  1.00  0.00    -0.000 C 
BRANCH  29  30
ATOM     30  C   UNL     1      31.812  18.946  22.931  1.00  0.00    -0.000 C 
BRANCH  30  31
ATOM     31  C   UNL     1      31.354  19.446  21.555  1.00  0.00    -0.003 C 
ATOM     32  C   UNL     1      31.036  20.939  21.590  1.00  0.00     0.004 C 
ENDBRANCH  30  31
ENDBRANCH  29  30
ENDBRANCH  28  29
ENDBRANCH  27  28
ENDBRANCH  26  27
ENDBRANCH  25  26
ENDBRANCH  24  25
ENDBRANCH  23  24
ENDBRANCH  22  23
ENDBRANCH  21  22
ENDBRANCH  20  21
ENDBRANCH  19  20
ENDBRANCH  18  19
ENDBRANCH   1  18
TORSDOF 28
ENDMDL
