MODEL 1
REMARK VINA RESULT:    -4.317      0.000      0.000
REMARK INTER + INTRA:          -8.354
REMARK INTER:                  -6.840
REMARK INTRA:                  -1.514
REMARK UNBOUND:                -1.514
REMARK SMILES CCCCCCCCCCCC(=O)[O-]
REMARK SMILES IDX 7 1 8 2 9 3 10 4 11 5 12 6 13 7 14 8 6 9 5 10 4 11 3 12 2 13
REMARK SMILES IDX 1 14
REMARK H PARENT
REMARK Flexibility Score: inf
ROOT
ATOM      1  C   UNL     1      61.716  28.339  24.138  1.00  0.00     0.000 C 
ENDROOT
BRANCH   1   2
ATOM      2  C   UNL     1      62.754  29.377  24.592  1.00  0.00     0.000 C 
BRANCH   2   3
ATOM      3  C   UNL     1      64.140  28.738  24.737  1.00  0.00     0.000 C 
BRANCH   3   4
ATOM      4  C   UNL     1      64.040  27.342  25.363  1.00  0.00     0.006 C 
BRANCH   4   5
ATOM      5  C   UNL     1      65.021  26.371  24.699  1.00  0.00     0.053 C 
BRANCH   5   6
ATOM      6  C   UNL     1      64.455  25.853  23.414  1.00  0.00     0.041 C 
ATOM      7  O   UNL     1      65.067  26.043  22.331  1.00  0.00    -0.550 OA
ATOM      8  O   UNL     1      63.228  25.202  23.407  1.00  0.00    -0.550 OA
ENDBRANCH   5   6
ENDBRANCH   4   5
ENDBRANCH   3   4
ENDBRANCH   2   3
ENDBRANCH   1   2
BRANCH   1   9
ATOM      9  C   UNL     1      60.521  28.232  25.100  1.00  0.00     0.000 C 
BRANCH   9  10
ATOM     10  C   UNL     1      60.501  26.900  25.870  1.00  0.00    -0.000 C 
BRANCH  10  11
ATOM     11  C   UNL     1      60.947  27.056  27.332  1.00  0.00    -0.000 C 
BRANCH  11  12
ATOM     12  C   UNL     1      61.052  28.525  27.768  1.00  0.00    -0.000 C 
BRANCH  12  13
ATOM     13  C   UNL     1      62.449  28.835  28.319  1.00  0.00    -0.003 C 
ATOM     14  C   UNL     1      62.795  30.312  28.148  1.00  0.00     0.004 C 
ENDBRANCH  12  13
ENDBRANCH  11  12
ENDBRANCH  10  11
ENDBRANCH   9  10
ENDBRANCH   1   9
TORSDOF 10
ENDMDL
MODEL 2
REMARK VINA RESULT:    -4.309      0.910      2.606
REMARK INTER + INTRA:          -8.343
REMARK INTER:                  -6.859
REMARK INTRA:                  -1.484
REMARK UNBOUND:                -1.514
REMARK SMILES CCCCCCCCCCCC(=O)[O-]
REMARK SMILES IDX 7 1 8 2 9 3 10 4 11 5 12 6 13 7 14 8 6 9 5 10 4 11 3 12 2 13
REMARK SMILES IDX 1 14
REMARK H PARENT
REMARK Flexibility Score: inf
ROOT
ATOM      1  C   UNL     1      63.363  30.473  27.610  1.00  0.00     0.000 C 
ENDROOT
BRANCH   1   2
ATOM      2  C   UNL     1      63.700  30.076  26.164  1.00  0.00     0.000 C 
BRANCH   2   3
ATOM      3  C   UNL     1      64.746  28.956  26.134  1.00  0.00     0.000 C 
BRANCH   3   4
ATOM      4  C   UNL     1      64.665  28.163  24.823  1.00  0.00     0.006 C 
BRANCH   4   5
ATOM      5  C   UNL     1      64.758  26.657  25.086  1.00  0.00     0.053 C 
BRANCH   5   6
ATOM      6  C   UNL     1      64.380  25.887  23.860  1.00  0.00     0.041 C 
ATOM      7  O   UNL     1      65.211  25.730  22.929  1.00  0.00    -0.550 OA
ATOM      8  O   UNL     1      63.091  25.383  23.726  1.00  0.00    -0.550 OA
ENDBRANCH   5   6
ENDBRANCH   4   5
ENDBRANCH   3   4
ENDBRANCH   2   3
ENDBRANCH   1   2
BRANCH   1   9
ATOM      9  C   UNL     1      62.870  29.285  28.453  1.00  0.00     0.000 C 
BRANCH   9  10
ATOM     10  C   UNL     1      61.369  29.008  28.261  1.00  0.00    -0.000 C 
BRANCH  10  11
ATOM     11  C   UNL     1      61.059  27.510  28.114  1.00  0.00    -0.000 C 
BRANCH  11  12
ATOM     12  C   UNL     1      61.567  26.926  26.787  1.00  0.00    -0.000 C 
BRANCH  12  13
ATOM     13  C   UNL     1      60.530  27.114  25.673  1.00  0.00    -0.003 C 
ATOM     14  C   UNL     1      60.985  28.170  24.668  1.00  0.00     0.004 C 
ENDBRANCH  12  13
ENDBRANCH  11  12
ENDBRANCH  10  11
ENDBRANCH   9  10
ENDBRANCH   1   9
TORSDOF 10
ENDMDL
MODEL 3
REMARK VINA RESULT:    -4.273     12.205     14.181
REMARK INTER + INTRA:          -8.285
REMARK INTER:                  -6.746
REMARK INTRA:                  -1.539
REMARK UNBOUND:                -1.514
REMARK SMILES CCCCCCCCCCCC(=O)[O-]
REMARK SMILES IDX 7 1 8 2 9 3 10 4 11 5 12 6 13 7 14 8 6 9 5 10 4 11 3 12 2 13
REMARK SMILES IDX 1 14
REMARK H PARENT
REMARK Flexibility Score: inf
ROOT
ATOM      1  C   UNL     1      62.789  28.955  13.203  1.00  0.00     0.000 C 
ENDROOT
BRANCH   1   2
ATOM      2  C   UNL     1      63.445  30.313  13.497  1.00  0.00     0.000 C 
BRANCH   2   3
ATOM      3  C   UNL     1      63.119  31.328  12.395  1.00  0.00     0.000 C 
BRANCH   3   4
ATOM      4  C   UNL     1      62.739  32.688  12.994  1.00  0.00     0.006 C 
BRANCH   4   5
ATOM      5  C   UNL     1      61.221  32.809  13.159  1.00  0.00     0.053 C 
BRANCH   5   6
ATOM      6  C   UNL     1      60.860  32.935  14.606  1.00  0.00     0.041 C 
ATOM      7  O   UNL     1      60.609  31.908  15.288  1.00  0.00    -0.550 OA
ATOM      8  O   UNL     1      60.754  34.192  15.190  1.00  0.00    -0.550 OA
ENDBRANCH   5   6
ENDBRANCH   4   5
ENDBRANCH   3   4
ENDBRANCH   2   3
ENDBRANCH   1   2
BRANCH   1   9
ATOM      9  C   UNL     1      61.252  29.018  13.231  1.00  0.00     0.000 C 
BRANCH   9  10
ATOM     10  C   UNL     1      60.615  28.453  11.950  1.00  0.00    -0.000 C 
BRANCH  10  11
ATOM     11  C   UNL     1      60.137  29.556  10.992  1.00  0.00    -0.000 C 
BRANCH  11  12
ATOM     12  C   UNL     1      61.047  29.712   9.764  1.00  0.00    -0.000 C 
BRANCH  12  13
ATOM     13  C   UNL     1      61.978  28.503   9.615  1.00  0.00    -0.003 C 
ATOM     14  C   UNL     1      63.435  28.940   9.486  1.00  0.00     0.004 C 
ENDBRANCH  12  13
ENDBRANCH  11  12
ENDBRANCH  10  11
ENDBRANCH   9  10
ENDBRANCH   1   9
TORSDOF 10
ENDMDL
MODEL 4
REMARK VINA RESULT:    -4.245      2.839      5.300
REMARK INTER + INTRA:          -8.240
REMARK INTER:                  -6.890
REMARK INTRA:                  -1.351
REMARK UNBOUND:                -1.514
REMARK SMILES CCCCCCCCCCCC(=O)[O-]
REMARK SMILES IDX 7 1 8 2 9 3 10 4 11 5 12 6 13 7 14 8 6 9 5 10 4 11 3 12 2 13
REMARK SMILES IDX 1 14
REMARK H PARENT
REMARK Flexibility Score: inf
ROOT
ATOM      1  C   UNL     1      62.071  29.498  24.742  1.00  0.00     0.000 C 
ENDROOT
BRANCH   1   2
ATOM      2  C   UNL     1      61.235  28.233  24.493  1.00  0.00     0.000 C 
BRANCH   2   3
ATOM      3  C   UNL     1      60.735  27.638  25.814  1.00  0.00     0.000 C 
BRANCH   3   4
ATOM      4  C   UNL     1      61.902  27.108  26.656  1.00  0.00     0.006 C 
BRANCH   4   5
ATOM      5  C   UNL     1      61.591  27.212  28.152  1.00  0.00     0.053 C 
BRANCH   5   6
ATOM      6  C   UNL     1      61.424  28.644  28.553  1.00  0.00     0.041 C 
ATOM      7  O   UNL     1      60.369  29.023  29.125  1.00  0.00    -0.550 OA
ATOM      8  O   UNL     1      62.415  29.571  28.252  1.00  0.00    -0.550 OA
ENDBRANCH   5   6
ENDBRANCH   4   5
ENDBRANCH   3   4
ENDBRANCH   2   3
ENDBRANCH   1   2
BRANCH   1   9
ATOM      9  C   UNL     1      63.497  29.391  24.176  1.00  0.00     0.000 C 
BRANCH   9  10
ATOM     10  C   UNL     1      64.539  29.064  25.259  1.00  0.00    -0.000 C 
BRANCH  10  11
ATOM     11  C   UNL     1      65.258  27.730  25.003  1.00  0.00    -0.000 C 
BRANCH  11  12
ATOM     12  C   UNL     1      65.552  27.490  23.514  1.00  0.00    -0.000 C 
BRANCH  12  13
ATOM     13  C   UNL     1      65.089  26.094  23.082  1.00  0.00    -0.003 C 
ATOM     14  C   UNL     1      63.838  25.666  23.845  1.00  0.00     0.004 C 
ENDBRANCH  12  13
ENDBRANCH  11  12
ENDBRANCH  10  11
ENDBRANCH   9  10
ENDBRANCH   1   9
TORSDOF 10
ENDMDL
MODEL 5
REMARK VINA RESULT:    -4.216     12.077     13.687
REMARK INTER + INTRA:          -8.195
REMARK INTER:                  -6.613
REMARK INTRA:                  -1.581
REMARK UNBOUND:                -1.514
REMARK SMILES CCCCCCCCCCCC(=O)[O-]
REMARK SMILES IDX 7 1 8 2 9 3 10 4 11 5 12 6 13 7 14 8 6 9 5 10 4 11 3 12 2 13
REMARK SMILES IDX 1 14
REMARK H PARENT
REMARK Flexibility Score: inf
ROOT
ATOM      1  C   UNL     1      61.736  30.144  15.040  1.00  0.00     0.000 C 
ENDROOT
BRANCH   1   2
ATOM      2  C   UNL     1      61.385  29.471  13.704  1.00  0.00     0.000 C 
BRANCH   2   3
ATOM      3  C   UNL     1      62.638  28.896  13.034  1.00  0.00     0.000 C 
BRANCH   3   4
ATOM      4  C   UNL     1      62.599  29.111  11.516  1.00  0.00     0.006 C 
BRANCH   4   5
ATOM      5  C   UNL     1      61.276  29.751  11.086  1.00  0.00     0.053 C 
BRANCH   5   6
ATOM      6  C   UNL     1      60.915  29.324   9.698  1.00  0.00     0.041 C 
ATOM      7  O   UNL     1      60.293  30.108   8.935  1.00  0.00    -0.550 OA
ATOM      8  O   UNL     1      61.222  28.040   9.263  1.00  0.00    -0.550 OA
ENDBRANCH   5   6
ENDBRANCH   4   5
ENDBRANCH   3   4
ENDBRANCH   2   3
ENDBRANCH   1   2
BRANCH   1   9
ATOM      9  C   UNL     1      61.104  31.538  15.188  1.00  0.00     0.000 C 
BRANCH   9  10
ATOM     10  C   UNL     1      60.353  31.983  13.922  1.00  0.00    -0.000 C 
BRANCH  10  11
ATOM     11  C   UNL     1      61.130  33.033  13.113  1.00  0.00    -0.000 C 
BRANCH  11  12
ATOM     12  C   UNL     1      62.566  33.233  13.623  1.00  0.00    -0.000 C 
BRANCH  12  13
ATOM     13  C   UNL     1      63.582  32.623  12.651  1.00  0.00    -0.003 C 
ATOM     14  C   UNL     1      64.726  31.946  13.401  1.00  0.00     0.004 C 
ENDBRANCH  12  13
ENDBRANCH  11  12
ENDBRANCH  10  11
ENDBRANCH   9  10
ENDBRANCH   1   9
TORSDOF 10
ENDMDL
MODEL 6
REMARK VINA RESULT:    -4.127     12.105     13.749
REMARK INTER + INTRA:          -8.053
REMARK INTER:                  -6.494
REMARK INTRA:                  -1.559
REMARK UNBOUND:                -1.514
REMARK SMILES CCCCCCCCCCCC(=O)[O-]
REMARK SMILES IDX 7 1 8 2 9 3 10 4 11 5 12 6 13 7 14 8 6 9 5 10 4 11 3 12 2 13
REMARK SMILES IDX 1 14
REMARK H PARENT
REMARK Flexibility Score: inf
ROOT
ATOM      1  C   UNL     1      64.063  30.268  13.545  1.00  0.00     0.000 C 
ENDROOT
BRANCH   1   2
ATOM      2  C   UNL     1      63.140  29.710  12.451  1.00  0.00     0.000 C 
BRANCH   2   3
ATOM      3  C   UNL     1      62.207  28.633  13.017  1.00  0.00     0.000 C 
BRANCH   3   4
ATOM      4  C   UNL     1      60.822  28.704  12.362  1.00  0.00     0.006 C 
BRANCH   4   5
ATOM      5  C   UNL     1      60.850  29.589  11.112  1.00  0.00     0.053 C 
BRANCH   5   6
ATOM      6  C   UNL     1      60.824  28.747   9.875  1.00  0.00     0.041 C 
ATOM      7  O   UNL     1      61.873  28.184   9.469  1.00  0.00    -0.550 OA
ATOM      8  O   UNL     1      59.648  28.624   9.143  1.00  0.00    -0.550 OA
ENDBRANCH   5   6
ENDBRANCH   4   5
ENDBRANCH   3   4
ENDBRANCH   2   3
ENDBRANCH   1   2
BRANCH   1   9
ATOM      9  C   UNL     1      64.619  31.660  13.202  1.00  0.00     0.000 C 
BRANCH   9  10
ATOM     10  C   UNL     1      63.545  32.599  12.627  1.00  0.00    -0.000 C 
BRANCH  10  11
ATOM     11  C   UNL     1      62.569  33.108  13.700  1.00  0.00    -0.000 C 
BRANCH  11  12
ATOM     12  C   UNL     1      61.101  33.032  13.253  1.00  0.00    -0.000 C 
BRANCH  12  13
ATOM     13  C   UNL     1      60.342  31.964  14.049  1.00  0.00    -0.003 C 
ATOM     14  C   UNL     1      61.071  31.619  15.345  1.00  0.00     0.004 C 
ENDBRANCH  12  13
ENDBRANCH  11  12
ENDBRANCH  10  11
ENDBRANCH   9  10
ENDBRANCH   1   9
TORSDOF 10
ENDMDL
MODEL 7
REMARK VINA RESULT:    -4.123      1.230      2.050
REMARK INTER + INTRA:          -8.048
REMARK INTER:                  -6.832
REMARK INTRA:                  -1.216
REMARK UNBOUND:                -1.514
REMARK SMILES CCCCCCCCCCCC(=O)[O-]
REMARK SMILES IDX 7 1 8 2 9 3 10 4 11 5 12 6 13 7 14 8 6 9 5 10 4 11 3 12 2 13
REMARK SMILES IDX 1 14
REMARK H PARENT
REMARK Flexibility Score: inf
ROOT
ATOM      1  C   UNL     1      60.644  27.189  25.843  1.00  0.00     0.000 C 
ENDROOT
BRANCH   1   2
ATOM      2  C   UNL     1      60.854  28.054  24.591  1.00  0.00     0.000 C 
BRANCH   2   3
ATOM      3  C   UNL     1      61.939  29.110  24.831  1.00  0.00     0.000 C 
BRANCH   3   4
ATOM      4  C   UNL     1      63.104  28.936  23.848  1.00  0.00     0.006 C 
BRANCH   4   5
ATOM      5  C   UNL     1      62.794  27.847  22.817  1.00  0.00     0.053 C 
BRANCH   5   6
ATOM      6  C   UNL     1      63.743  26.699  22.968  1.00  0.00     0.041 C 
ATOM      7  O   UNL     1      64.921  26.791  22.535  1.00  0.00    -0.550 OA
ATOM      8  O   UNL     1      63.311  25.510  23.543  1.00  0.00    -0.550 OA
ENDBRANCH   5   6
ENDBRANCH   4   5
ENDBRANCH   3   4
ENDBRANCH   2   3
ENDBRANCH   1   2
BRANCH   1   9
ATOM      9  C   UNL     1      61.944  26.954  26.629  1.00  0.00     0.000 C 
BRANCH   9  10
ATOM     10  C   UNL     1      61.712  26.891  28.149  1.00  0.00    -0.000 C 
BRANCH  10  11
ATOM     11  C   UNL     1      62.362  28.066  28.895  1.00  0.00    -0.000 C 
BRANCH  11  12
ATOM     12  C   UNL     1      61.708  29.416  28.562  1.00  0.00    -0.000 C 
BRANCH  12  13
ATOM     13  C   UNL     1      62.741  30.548  28.598  1.00  0.00    -0.003 C 
ATOM     14  C   UNL     1      63.936  30.236  27.701  1.00  0.00     0.004 C 
ENDBRANCH  12  13
ENDBRANCH  11  12
ENDBRANCH  10  11
ENDBRANCH   9  10
ENDBRANCH   1   9
TORSDOF 10
ENDMDL
MODEL 8
REMARK VINA RESULT:    -4.103      2.361      4.673
REMARK INTER + INTRA:          -8.016
REMARK INTER:                  -6.734
REMARK INTRA:                  -1.282
REMARK UNBOUND:                -1.514
REMARK SMILES CCCCCCCCCCCC(=O)[O-]
REMARK SMILES IDX 7 1 8 2 9 3 10 4 11 5 12 6 13 7 14 8 6 9 5 10 4 11 3 12 2 13
REMARK SMILES IDX 1 14
REMARK H PARENT
REMARK Flexibility Score: inf
ROOT
ATOM      1  C   UNL     1      64.192  29.686  25.795  1.00  0.00     0.000 C 
ENDROOT
BRANCH   1   2
ATOM      2  C   UNL     1      64.197  29.676  27.332  1.00  0.00     0.000 C 
BRANCH   2   3
ATOM      3  C   UNL     1      62.908  30.291  27.887  1.00  0.00     0.000 C 
BRANCH   3   4
ATOM      4  C   UNL     1      62.217  29.332  28.865  1.00  0.00     0.006 C 
BRANCH   4   5
ATOM      5  C   UNL     1      60.939  28.752  28.254  1.00  0.00     0.053 C 
BRANCH   5   6
ATOM      6  C   UNL     1      61.205  27.401  27.667  1.00  0.00     0.041 C 
ATOM      7  O   UNL     1      62.243  26.765  27.987  1.00  0.00    -0.550 OA
ATOM      8  O   UNL     1      60.331  26.866  26.728  1.00  0.00    -0.550 OA
ENDBRANCH   5   6
ENDBRANCH   4   5
ENDBRANCH   3   4
ENDBRANCH   2   3
ENDBRANCH   1   2
BRANCH   1   9
ATOM      9  C   UNL     1      62.847  30.143  25.207  1.00  0.00     0.000 C 
BRANCH   9  10
ATOM     10  C   UNL     1      62.112  29.012  24.467  1.00  0.00    -0.000 C 
BRANCH  10  11
ATOM     11  C   UNL     1      63.076  28.008  23.816  1.00  0.00    -0.000 C 
BRANCH  11  12
ATOM     12  C   UNL     1      62.982  26.605  24.437  1.00  0.00    -0.000 C 
BRANCH  12  13
ATOM     13  C   UNL     1      64.370  26.085  24.827  1.00  0.00    -0.003 C 
ATOM     14  C   UNL     1      65.289  25.996  23.612  1.00  0.00     0.004 C 
ENDBRANCH  12  13
ENDBRANCH  11  12
ENDBRANCH  10  11
ENDBRANCH   9  10
ENDBRANCH   1   9
TORSDOF 10
ENDMDL
MODEL 9
REMARK VINA RESULT:    -4.092     11.991     14.149
REMARK INTER + INTRA:          -7.998
REMARK INTER:                  -6.613
REMARK INTRA:                  -1.385
REMARK UNBOUND:                -1.514
REMARK SMILES CCCCCCCCCCCC(=O)[O-]
REMARK SMILES IDX 7 1 8 2 9 3 10 4 11 5 12 6 13 7 14 8 6 9 5 10 4 11 3 12 2 13
REMARK SMILES IDX 1 14
REMARK H PARENT
REMARK Flexibility Score: inf
ROOT
ATOM      1  C   UNL     1      61.632  29.843  13.745  1.00  0.00     0.000 C 
ENDROOT
BRANCH   1   2
ATOM      2  C   UNL     1      60.395  30.307  12.961  1.00  0.00     0.000 C 
BRANCH   2   3
ATOM      3  C   UNL     1      60.574  31.744  12.458  1.00  0.00     0.000 C 
BRANCH   3   4
ATOM      4  C   UNL     1      61.546  32.525  13.353  1.00  0.00     0.006 C 
BRANCH   4   5
ATOM      5  C   UNL     1      60.793  33.501  14.261  1.00  0.00     0.053 C 
BRANCH   5   6
ATOM      6  C   UNL     1      61.321  33.428  15.659  1.00  0.00     0.041 C 
ATOM      7  O   UNL     1      61.603  32.315  16.173  1.00  0.00    -0.550 OA
ATOM      8  O   UNL     1      61.457  34.589  16.412  1.00  0.00    -0.550 OA
ENDBRANCH   5   6
ENDBRANCH   4   5
ENDBRANCH   3   4
ENDBRANCH   2   3
ENDBRANCH   1   2
BRANCH   1   9
ATOM      9  C   UNL     1      62.450  28.780  12.991  1.00  0.00     0.000 C 
BRANCH   9  10
ATOM     10  C   UNL     1      63.740  29.354  12.379  1.00  0.00    -0.000 C 
BRANCH  10  11
ATOM     11  C   UNL     1      63.516  29.944  10.977  1.00  0.00    -0.000 C 
BRANCH  11  12
ATOM     12  C   UNL     1      62.843  28.953  10.016  1.00  0.00    -0.000 C 
BRANCH  12  13
ATOM     13  C   UNL     1      61.680  29.617   9.270  1.00  0.00    -0.003 C 
ATOM     14  C   UNL     1      60.355  28.930   9.589  1.00  0.00     0.004 C 
ENDBRANCH  12  13
ENDBRANCH  11  12
ENDBRANCH  10  11
ENDBRANCH   9  10
ENDBRANCH   1   9
TORSDOF 10
ENDMDL
