MODEL 1
REMARK VINA RESULT:    -3.390      0.000      0.000
REMARK INTER + INTRA:          -3.588
REMARK INTER:                  -3.588
REMARK INTRA:                   0.000
REMARK UNBOUND:                 0.000
REMARK SMILES Cc1cc(O)c(C)c(C)c1O
REMARK SMILES IDX 1 1 2 2 3 3 4 4 6 5 8 6 10 7 9 8 7 9 11 10 5 12
REMARK H PARENT 11 11 5 13
REMARK Flexibility Score: inf
ROOT
ATOM      1  C   UNL     1     -26.519  51.974  43.102  1.00  0.00     0.048 C 
ATOM      2  C   UNL     1     -26.182  53.313  43.697  1.00  0.00    -0.005 A 
ATOM      3  C   UNL     1     -26.838  53.750  44.851  1.00  0.00     0.053 A 
ATOM      4  C   UNL     1     -26.518  54.972  45.440  1.00  0.00     0.119 A 
ATOM      5  C   UNL     1     -25.504  55.786  44.880  1.00  0.00    -0.003 A 
ATOM      6  C   UNL     1     -24.921  55.408  43.637  1.00  0.00    -0.002 A 
ATOM      7  C   UNL     1     -25.215  54.133  43.091  1.00  0.00     0.121 A 
ATOM      8  C   UNL     1     -23.982  56.339  42.901  1.00  0.00     0.049 C 
ATOM      9  C   UNL     1     -25.071  57.044  45.598  1.00  0.00     0.049 C 
ENDROOT
BRANCH   7  10
ATOM     10  O   UNL     1     -24.556  53.648  41.955  1.00  0.00    -0.507 OA
ATOM     11  H   UNL     1     -24.818  53.888  41.008  1.00  0.00     0.293 HD
ENDBRANCH   7  10
BRANCH   4  12
ATOM     12  O   UNL     1     -27.240  55.350  46.575  1.00  0.00    -0.508 OA
ATOM     13  H   UNL     1     -28.015  56.000  46.556  1.00  0.00     0.293 HD
ENDBRANCH   4  12
TORSDOF 2
ENDMDL
MODEL 2
REMARK VINA RESULT:    -3.338     10.527     11.793
REMARK INTER + INTRA:          -3.533
REMARK INTER:                  -3.533
REMARK INTRA:                   0.000
REMARK UNBOUND:                 0.000
REMARK SMILES Cc1cc(O)c(C)c(C)c1O
REMARK SMILES IDX 1 1 2 2 3 3 4 4 6 5 8 6 10 7 9 8 7 9 11 10 5 12
REMARK H PARENT 11 11 5 13
REMARK Flexibility Score: inf
ROOT
ATOM      1  C   UNL     1     -27.987  54.132  32.738  1.00  0.00     0.048 C 
ATOM      2  C   UNL     1     -27.897  52.731  33.277  1.00  0.00    -0.005 A 
ATOM      3  C   UNL     1     -26.741  52.310  33.940  1.00  0.00     0.053 A 
ATOM      4  C   UNL     1     -26.649  51.028  34.479  1.00  0.00     0.119 A 
ATOM      5  C   UNL     1     -27.741  50.134  34.373  1.00  0.00    -0.003 A 
ATOM      6  C   UNL     1     -28.871  50.510  33.592  1.00  0.00    -0.002 A 
ATOM      7  C   UNL     1     -28.969  51.839  33.109  1.00  0.00     0.121 A 
ATOM      8  C   UNL     1     -29.971  49.518  33.285  1.00  0.00     0.049 C 
ATOM      9  C   UNL     1     -27.684  48.795  35.074  1.00  0.00     0.049 C 
ENDROOT
BRANCH   7  10
ATOM     10  O   UNL     1     -30.123  52.306  32.468  1.00  0.00    -0.507 OA
ATOM     11  H   UNL     1     -30.201  53.222  32.047  1.00  0.00     0.293 HD
ENDBRANCH   7  10
BRANCH   4  12
ATOM     12  O   UNL     1     -25.449  50.674  35.101  1.00  0.00    -0.508 OA
ATOM     13  H   UNL     1     -25.399  50.153  35.967  1.00  0.00     0.293 HD
ENDBRANCH   4  12
TORSDOF 2
ENDMDL
MODEL 3
REMARK VINA RESULT:    -3.329      1.582      4.101
REMARK INTER + INTRA:          -3.523
REMARK INTER:                  -3.523
REMARK INTRA:                   0.000
REMARK UNBOUND:                 0.000
REMARK SMILES Cc1cc(O)c(C)c(C)c1O
REMARK SMILES IDX 1 1 2 2 3 3 4 4 6 5 8 6 10 7 9 8 7 9 11 10 5 12
REMARK H PARENT 11 11 5 13
REMARK Flexibility Score: inf
ROOT
ATOM      1  C   UNL     1     -23.614  56.758  42.090  1.00  0.00     0.048 C 
ATOM      2  C   UNL     1     -24.517  55.643  42.541  1.00  0.00    -0.005 A 
ATOM      3  C   UNL     1     -24.894  54.642  41.643  1.00  0.00     0.053 A 
ATOM      4  C   UNL     1     -25.701  53.580  42.047  1.00  0.00     0.119 A 
ATOM      5  C   UNL     1     -26.141  53.495  43.391  1.00  0.00    -0.003 A 
ATOM      6  C   UNL     1     -25.866  54.574  44.278  1.00  0.00    -0.002 A 
ATOM      7  C   UNL     1     -24.991  55.610  43.863  1.00  0.00     0.121 A 
ATOM      8  C   UNL     1     -26.482  54.623  45.660  1.00  0.00     0.049 C 
ATOM      9  C   UNL     1     -26.904  52.275  43.854  1.00  0.00     0.049 C 
ENDROOT
BRANCH   7  10
ATOM     10  O   UNL     1     -24.567  56.613  44.743  1.00  0.00    -0.507 OA
ATOM     11  H   UNL     1     -24.696  56.573  45.745  1.00  0.00     0.293 HD
ENDBRANCH   7  10
BRANCH   4  12
ATOM     12  O   UNL     1     -26.057  52.635  41.082  1.00  0.00    -0.508 OA
ATOM     13  H   UNL     1     -26.593  52.856  40.252  1.00  0.00     0.293 HD
ENDBRANCH   4  12
TORSDOF 2
ENDMDL
MODEL 4
REMARK VINA RESULT:    -3.248      1.629      3.066
REMARK INTER + INTRA:          -3.438
REMARK INTER:                  -3.438
REMARK INTRA:                   0.000
REMARK UNBOUND:                 0.000
REMARK SMILES Cc1cc(O)c(C)c(C)c1O
REMARK SMILES IDX 1 1 2 2 3 3 4 4 6 5 8 6 10 7 9 8 7 9 11 10 5 12
REMARK H PARENT 11 11 5 13
REMARK Flexibility Score: inf
ROOT
ATOM      1  C   UNL     1     -24.286  55.109  40.453  1.00  0.00     0.048 C 
ATOM      2  C   UNL     1     -24.809  54.913  41.850  1.00  0.00    -0.005 A 
ATOM      3  C   UNL     1     -24.446  55.804  42.863  1.00  0.00     0.053 A 
ATOM      4  C   UNL     1     -24.945  55.662  44.157  1.00  0.00     0.119 A 
ATOM      5  C   UNL     1     -25.847  54.613  44.458  1.00  0.00    -0.003 A 
ATOM      6  C   UNL     1     -26.122  53.630  43.465  1.00  0.00    -0.002 A 
ATOM      7  C   UNL     1     -25.654  53.830  42.141  1.00  0.00     0.121 A 
ATOM      8  C   UNL     1     -26.916  52.386  43.799  1.00  0.00     0.049 C 
ATOM      9  C   UNL     1     -26.486  54.544  45.827  1.00  0.00     0.049 C 
ENDROOT
BRANCH   7  10
ATOM     10  O   UNL     1     -26.021  52.977  41.094  1.00  0.00    -0.507 OA
ATOM     11  H   UNL     1     -26.731  52.262  41.174  1.00  0.00     0.293 HD
ENDBRANCH   7  10
BRANCH   4  12
ATOM     12  O   UNL     1     -24.512  56.577  45.120  1.00  0.00    -0.508 OA
ATOM     13  H   UNL     1     -25.139  57.107  45.711  1.00  0.00     0.293 HD
ENDBRANCH   4  12
TORSDOF 2
ENDMDL
MODEL 5
REMARK VINA RESULT:    -3.217     10.328     11.713
REMARK INTER + INTRA:          -3.406
REMARK INTER:                  -3.406
REMARK INTRA:                   0.000
REMARK UNBOUND:                 0.000
REMARK SMILES Cc1cc(O)c(C)c(C)c1O
REMARK SMILES IDX 1 1 2 2 3 3 4 4 6 5 8 6 10 7 9 8 7 9 11 10 5 12
REMARK H PARENT 11 11 5 13
REMARK Flexibility Score: inf
ROOT
ATOM      1  C   UNL     1     -25.580  53.131  34.118  1.00  0.00     0.048 C 
ATOM      2  C   UNL     1     -26.744  52.194  33.952  1.00  0.00    -0.005 A 
ATOM      3  C   UNL     1     -27.908  52.632  33.315  1.00  0.00     0.053 A 
ATOM      4  C   UNL     1     -28.987  51.771  33.119  1.00  0.00     0.119 A 
ATOM      5  C   UNL     1     -28.909  50.426  33.554  1.00  0.00    -0.003 A 
ATOM      6  C   UNL     1     -27.779  50.008  34.314  1.00  0.00    -0.002 A 
ATOM      7  C   UNL     1     -26.669  50.881  34.445  1.00  0.00     0.121 A 
ATOM      8  C   UNL     1     -27.741  48.645  34.969  1.00  0.00     0.049 C 
ATOM      9  C   UNL     1     -30.027  49.464  33.221  1.00  0.00     0.049 C 
ENDROOT
BRANCH   7  10
ATOM     10  O   UNL     1     -25.475  50.469  35.049  1.00  0.00    -0.507 OA
ATOM     11  H   UNL     1     -24.584  50.919  34.897  1.00  0.00     0.293 HD
ENDBRANCH   7  10
BRANCH   4  12
ATOM     12  O   UNL     1     -30.125  52.293  32.500  1.00  0.00    -0.508 OA
ATOM     13  H   UNL     1     -30.781  52.910  32.961  1.00  0.00     0.293 HD
ENDBRANCH   4  12
TORSDOF 2
ENDMDL
MODEL 6
REMARK VINA RESULT:    -3.200      6.351      8.377
REMARK INTER + INTRA:          -3.387
REMARK INTER:                  -3.387
REMARK INTRA:                   0.000
REMARK UNBOUND:                 0.000
REMARK SMILES Cc1cc(O)c(C)c(C)c1O
REMARK SMILES IDX 1 1 2 2 3 3 4 4 6 5 8 6 10 7 9 8 7 9 11 10 5 12
REMARK H PARENT 11 11 5 13
REMARK Flexibility Score: inf
ROOT
ATOM      1  C   UNL     1     -26.083  50.395  40.587  1.00  0.00     0.048 C 
ATOM      2  C   UNL     1     -26.895  49.185  40.953  1.00  0.00    -0.005 A 
ATOM      3  C   UNL     1     -26.636  48.503  42.146  1.00  0.00     0.053 A 
ATOM      4  C   UNL     1     -27.399  47.400  42.523  1.00  0.00     0.119 A 
ATOM      5  C   UNL     1     -28.466  46.961  41.703  1.00  0.00    -0.003 A 
ATOM      6  C   UNL     1     -28.656  47.570  40.430  1.00  0.00    -0.002 A 
ATOM      7  C   UNL     1     -27.910  48.729  40.096  1.00  0.00     0.121 A 
ATOM      8  C   UNL     1     -29.650  47.007  39.437  1.00  0.00     0.049 C 
ATOM      9  C   UNL     1     -29.371  45.848  42.181  1.00  0.00     0.049 C 
ENDROOT
BRANCH   7  10
ATOM     10  O   UNL     1     -28.163  49.456  38.926  1.00  0.00    -0.507 OA
ATOM     11  H   UNL     1     -29.085  49.588  38.535  1.00  0.00     0.293 HD
ENDBRANCH   7  10
BRANCH   4  12
ATOM     12  O   UNL     1     -27.058  46.756  43.715  1.00  0.00    -0.508 OA
ATOM     13  H   UNL     1     -26.106  46.536  43.981  1.00  0.00     0.293 HD
ENDBRANCH   4  12
TORSDOF 2
ENDMDL
MODEL 7
REMARK VINA RESULT:    -3.186      2.457      4.736
REMARK INTER + INTRA:          -3.372
REMARK INTER:                  -3.372
REMARK INTRA:                   0.000
REMARK UNBOUND:                 0.000
REMARK SMILES Cc1cc(O)c(C)c(C)c1O
REMARK SMILES IDX 1 1 2 2 3 3 4 4 6 5 8 6 10 7 9 8 7 9 11 10 5 12
REMARK H PARENT 11 11 5 13
REMARK Flexibility Score: inf
ROOT
ATOM      1  C   UNL     1     -25.959  54.449  43.966  1.00  0.00     0.048 C 
ATOM      2  C   UNL     1     -25.978  52.972  43.686  1.00  0.00    -0.005 A 
ATOM      3  C   UNL     1     -25.913  52.059  44.742  1.00  0.00     0.053 A 
ATOM      4  C   UNL     1     -25.964  50.686  44.509  1.00  0.00     0.119 A 
ATOM      5  C   UNL     1     -26.101  50.196  43.188  1.00  0.00    -0.003 A 
ATOM      6  C   UNL     1     -26.042  51.112  42.100  1.00  0.00    -0.002 A 
ATOM      7  C   UNL     1     -26.053  52.505  42.363  1.00  0.00     0.121 A 
ATOM      8  C   UNL     1     -25.982  50.621  40.670  1.00  0.00     0.049 C 
ATOM      9  C   UNL     1     -26.289  48.714  42.954  1.00  0.00     0.049 C 
ENDROOT
BRANCH   7  10
ATOM     10  O   UNL     1     -26.149  53.449  41.334  1.00  0.00    -0.507 OA
ATOM     11  H   UNL     1     -26.896  54.126  41.260  1.00  0.00     0.293 HD
ENDBRANCH   7  10
BRANCH   4  12
ATOM     12  O   UNL     1     -25.864  49.839  45.616  1.00  0.00    -0.508 OA
ATOM     13  H   UNL     1     -25.756  48.835  45.545  1.00  0.00     0.293 HD
ENDBRANCH   4  12
TORSDOF 2
ENDMDL
MODEL 8
REMARK VINA RESULT:    -3.144      5.546      7.773
REMARK INTER + INTRA:          -3.328
REMARK INTER:                  -3.328
REMARK INTRA:                   0.000
REMARK UNBOUND:                 0.000
REMARK SMILES Cc1cc(O)c(C)c(C)c1O
REMARK SMILES IDX 1 1 2 2 3 3 4 4 6 5 8 6 10 7 9 8 7 9 11 10 5 12
REMARK H PARENT 11 11 5 13
REMARK Flexibility Score: inf
ROOT
ATOM      1  C   UNL     1     -29.401  47.068  39.320  1.00  0.00     0.048 C 
ATOM      2  C   UNL     1     -28.446  47.737  40.269  1.00  0.00    -0.005 A 
ATOM      3  C   UNL     1     -27.863  48.960  39.928  1.00  0.00     0.053 A 
ATOM      4  C   UNL     1     -27.002  49.615  40.806  1.00  0.00     0.119 A 
ATOM      5  C   UNL     1     -26.719  49.052  42.074  1.00  0.00    -0.003 A 
ATOM      6  C   UNL     1     -27.208  47.750  42.378  1.00  0.00    -0.002 A 
ATOM      7  C   UNL     1     -28.131  47.132  41.497  1.00  0.00     0.121 A 
ATOM      8  C   UNL     1     -26.769  47.026  43.632  1.00  0.00     0.049 C 
ATOM      9  C   UNL     1     -25.892  49.831  43.072  1.00  0.00     0.049 C 
ENDROOT
BRANCH   7  10
ATOM     10  O   UNL     1     -28.760  45.923  41.819  1.00  0.00    -0.507 OA
ATOM     11  H   UNL     1     -29.600  45.857  42.376  1.00  0.00     0.293 HD
ENDBRANCH   7  10
BRANCH   4  12
ATOM     12  O   UNL     1     -26.437  50.820  40.379  1.00  0.00    -0.508 OA
ATOM     13  H   UNL     1     -26.270  51.609  40.990  1.00  0.00     0.293 HD
ENDBRANCH   4  12
TORSDOF 2
ENDMDL
MODEL 9
REMARK VINA RESULT:    -3.140      1.503      2.093
REMARK INTER + INTRA:          -3.324
REMARK INTER:                  -3.324
REMARK INTRA:                   0.000
REMARK UNBOUND:                 0.000
REMARK SMILES Cc1cc(O)c(C)c(C)c1O
REMARK SMILES IDX 1 1 2 2 3 3 4 4 6 5 8 6 10 7 9 8 7 9 11 10 5 12
REMARK H PARENT 11 11 5 13
REMARK Flexibility Score: inf
ROOT
ATOM      1  C   UNL     1     -26.370  50.416  41.693  1.00  0.00     0.048 C 
ATOM      2  C   UNL     1     -26.113  51.778  42.274  1.00  0.00    -0.005 A 
ATOM      3  C   UNL     1     -26.690  52.138  43.495  1.00  0.00     0.053 A 
ATOM      4  C   UNL     1     -26.438  53.382  44.071  1.00  0.00     0.119 A 
ATOM      5  C   UNL     1     -25.574  54.299  43.426  1.00  0.00    -0.003 A 
ATOM      6  C   UNL     1     -25.083  53.991  42.125  1.00  0.00    -0.002 A 
ATOM      7  C   UNL     1     -25.300  52.697  41.589  1.00  0.00     0.121 A 
ATOM      8  C   UNL     1     -24.323  55.019  41.315  1.00  0.00     0.049 C 
ATOM      9  C   UNL     1     -25.201  55.591  44.118  1.00  0.00     0.049 C 
ENDROOT
BRANCH   7  10
ATOM     10  O   UNL     1     -24.714  52.290  40.385  1.00  0.00    -0.507 OA
ATOM     11  H   UNL     1     -24.156  51.453  40.286  1.00  0.00     0.293 HD
ENDBRANCH   7  10
BRANCH   4  12
ATOM     12  O   UNL     1     -27.076  53.676  45.278  1.00  0.00    -0.508 OA
ATOM     13  H   UNL     1     -27.916  54.237  45.347  1.00  0.00     0.293 HD
ENDBRANCH   4  12
TORSDOF 2
ENDMDL
