MODEL 1
REMARK VINA RESULT:    -4.815      0.000      0.000
REMARK INTER + INTRA:         -10.320
REMARK INTER:                  -8.757
REMARK INTRA:                  -1.563
REMARK UNBOUND:                -1.563
REMARK SMILES CCCCCCCCCCCCCCCC(=O)[O-]
REMARK SMILES IDX 9 1 10 2 11 3 12 4 13 5 14 6 15 7 16 8 17 9 18 10 8 11 7 12
REMARK SMILES IDX 6 13 5 14 4 15 3 16 2 17 1 18
REMARK H PARENT
REMARK Flexibility Score: inf
ROOT
ATOM      1  C   UNL     1       0.669 -36.268  20.293  1.00  0.00     0.000 C 
ENDROOT
BRANCH   1   2
ATOM      2  C   UNL     1       0.058 -37.628  20.675  1.00  0.00     0.000 C 
BRANCH   2   3
ATOM      3  C   UNL     1      -1.348 -37.494  21.281  1.00  0.00     0.000 C 
BRANCH   3   4
ATOM      4  C   UNL     1      -2.052 -36.193  20.865  1.00  0.00     0.000 C 
BRANCH   4   5
ATOM      5  C   UNL     1      -2.624 -35.464  22.089  1.00  0.00     0.000 C 
BRANCH   5   6
ATOM      6  C   UNL     1      -1.705 -34.337  22.598  1.00  0.00     0.006 C 
BRANCH   6   7
ATOM      7  C   UNL     1      -2.451 -33.127  23.186  1.00  0.00     0.053 C 
BRANCH   7   8
ATOM      8  C   UNL     1      -1.707 -32.509  24.328  1.00  0.00     0.041 C 
ATOM      9  O   UNL     1      -1.303 -31.319  24.252  1.00  0.00    -0.550 OA
ATOM     10  O   UNL     1      -1.491 -33.235  25.493  1.00  0.00    -0.550 OA
ENDBRANCH   7   8
ENDBRANCH   6   7
ENDBRANCH   5   6
ENDBRANCH   4   5
ENDBRANCH   3   4
ENDBRANCH   2   3
ENDBRANCH   1   2
BRANCH   1  11
ATOM     11  C   UNL     1       1.833 -35.865  21.214  1.00  0.00     0.000 C 
BRANCH  11  12
ATOM     12  C   UNL     1       2.843 -37.007  21.428  1.00  0.00    -0.000 C 
BRANCH  12  13
ATOM     13  C   UNL     1       4.248 -36.493  21.780  1.00  0.00    -0.000 C 
BRANCH  13  14
ATOM     14  C   UNL     1       5.359 -37.264  21.053  1.00  0.00    -0.000 C 
BRANCH  14  15
ATOM     15  C   UNL     1       4.848 -37.843  19.728  1.00  0.00    -0.000 C 
BRANCH  15  16
ATOM     16  C   UNL     1       5.213 -36.930  18.551  1.00  0.00    -0.000 C 
BRANCH  16  17
ATOM     17  C   UNL     1       3.985 -36.164  18.046  1.00  0.00    -0.003 C 
ATOM     18  C   UNL     1       2.928 -37.118  17.497  1.00  0.00     0.004 C 
ENDBRANCH  16  17
ENDBRANCH  15  16
ENDBRANCH  14  15
ENDBRANCH  13  14
ENDBRANCH  12  13
ENDBRANCH  11  12
ENDBRANCH   1  11
TORSDOF 14
ENDMDL
MODEL 2
REMARK VINA RESULT:    -4.775      1.018      2.265
REMARK INTER + INTRA:         -10.247
REMARK INTER:                  -8.588
REMARK INTRA:                  -1.659
REMARK UNBOUND:                -1.563
REMARK SMILES CCCCCCCCCCCCCCCC(=O)[O-]
REMARK SMILES IDX 9 1 10 2 11 3 12 4 13 5 14 6 15 7 16 8 17 9 18 10 8 11 7 12
REMARK SMILES IDX 6 13 5 14 4 15 3 16 2 17 1 18
REMARK H PARENT
REMARK Flexibility Score: inf
ROOT
ATOM      1  C   UNL     1       0.951 -35.887  20.701  1.00  0.00     0.000 C 
ENDROOT
BRANCH   1   2
ATOM      2  C   UNL     1       0.398 -37.290  21.006  1.00  0.00     0.000 C 
BRANCH   2   3
ATOM      3  C   UNL     1      -1.105 -37.409  20.706  1.00  0.00     0.000 C 
BRANCH   3   4
ATOM      4  C   UNL     1      -1.836 -36.061  20.790  1.00  0.00     0.000 C 
BRANCH   4   5
ATOM      5  C   UNL     1      -2.958 -36.109  21.838  1.00  0.00     0.000 C 
BRANCH   5   6
ATOM      6  C   UNL     1      -2.970 -34.874  22.758  1.00  0.00     0.006 C 
BRANCH   6   7
ATOM      7  C   UNL     1      -1.643 -34.099  22.797  1.00  0.00     0.053 C 
BRANCH   7   8
ATOM      8  C   UNL     1      -1.739 -32.860  23.632  1.00  0.00     0.041 C 
ATOM      9  O   UNL     1      -0.762 -32.490  24.334  1.00  0.00    -0.550 OA
ATOM     10  O   UNL     1      -2.897 -32.092  23.607  1.00  0.00    -0.550 OA
ENDBRANCH   7   8
ENDBRANCH   6   7
ENDBRANCH   5   6
ENDBRANCH   4   5
ENDBRANCH   3   4
ENDBRANCH   2   3
ENDBRANCH   1   2
BRANCH   1  11
ATOM     11  C   UNL     1       1.887 -35.874  19.481  1.00  0.00     0.000 C 
BRANCH  11  12
ATOM     12  C   UNL     1       2.112 -37.279  18.891  1.00  0.00    -0.000 C 
BRANCH  12  13
ATOM     13  C   UNL     1       3.101 -37.272  17.714  1.00  0.00    -0.000 C 
BRANCH  13  14
ATOM     14  C   UNL     1       4.425 -37.973  18.052  1.00  0.00    -0.000 C 
BRANCH  14  15
ATOM     15  C   UNL     1       5.382 -37.019  18.777  1.00  0.00    -0.000 C 
BRANCH  15  16
ATOM     16  C   UNL     1       5.730 -37.544  20.175  1.00  0.00    -0.000 C 
BRANCH  16  17
ATOM     17  C   UNL     1       4.972 -36.768  21.258  1.00  0.00    -0.003 C 
ATOM     18  C   UNL     1       4.028 -37.683  22.033  1.00  0.00     0.004 C 
ENDBRANCH  16  17
ENDBRANCH  15  16
ENDBRANCH  14  15
ENDBRANCH  13  14
ENDBRANCH  12  13
ENDBRANCH  11  12
ENDBRANCH   1  11
TORSDOF 14
ENDMDL
MODEL 3
REMARK VINA RESULT:    -4.699      1.026      2.409
REMARK INTER + INTRA:         -10.108
REMARK INTER:                  -8.636
REMARK INTRA:                  -1.472
REMARK UNBOUND:                -1.563
REMARK SMILES CCCCCCCCCCCCCCCC(=O)[O-]
REMARK SMILES IDX 9 1 10 2 11 3 12 4 13 5 14 6 15 7 16 8 17 9 18 10 8 11 7 12
REMARK SMILES IDX 6 13 5 14 4 15 3 16 2 17 1 18
REMARK H PARENT
REMARK Flexibility Score: inf
ROOT
ATOM      1  C   UNL     1       0.798 -36.933  20.642  1.00  0.00     0.000 C 
ENDROOT
BRANCH   1   2
ATOM      2  C   UNL     1      -0.275 -37.965  21.034  1.00  0.00     0.000 C 
BRANCH   2   3
ATOM      3  C   UNL     1      -1.700 -37.482  20.717  1.00  0.00     0.000 C 
BRANCH   3   4
ATOM      4  C   UNL     1      -1.822 -35.951  20.718  1.00  0.00     0.000 C 
BRANCH   4   5
ATOM      5  C   UNL     1      -2.351 -35.444  22.068  1.00  0.00     0.000 C 
BRANCH   5   6
ATOM      6  C   UNL     1      -1.497 -34.305  22.656  1.00  0.00     0.006 C 
BRANCH   6   7
ATOM      7  C   UNL     1      -2.300 -33.239  23.418  1.00  0.00     0.053 C 
BRANCH   7   8
ATOM      8  C   UNL     1      -1.414 -32.200  24.033  1.00  0.00     0.041 C 
ATOM      9  O   UNL     1      -0.208 -32.461  24.280  1.00  0.00    -0.550 OA
ATOM     10  O   UNL     1      -1.912 -30.931  24.300  1.00  0.00    -0.550 OA
ENDBRANCH   7   8
ENDBRANCH   6   7
ENDBRANCH   5   6
ENDBRANCH   4   5
ENDBRANCH   3   4
ENDBRANCH   2   3
ENDBRANCH   1   2
BRANCH   1  11
ATOM     11  C   UNL     1       1.752 -37.457  19.556  1.00  0.00     0.000 C 
BRANCH  11  12
ATOM     12  C   UNL     1       2.399 -36.325  18.737  1.00  0.00    -0.000 C 
BRANCH  12  13
ATOM     13  C   UNL     1       3.856 -36.058  19.148  1.00  0.00    -0.000 C 
BRANCH  13  14
ATOM     14  C   UNL     1       4.594 -37.336  19.569  1.00  0.00    -0.000 C 
BRANCH  14  15
ATOM     15  C   UNL     1       5.323 -37.135  20.903  1.00  0.00    -0.000 C 
BRANCH  15  16
ATOM     16  C   UNL     1       4.327 -37.010  22.062  1.00  0.00    -0.000 C 
BRANCH  16  17
ATOM     17  C   UNL     1       4.419 -35.628  22.721  1.00  0.00    -0.003 C 
ATOM     18  C   UNL     1       3.060 -34.935  22.740  1.00  0.00     0.004 C 
ENDBRANCH  16  17
ENDBRANCH  15  16
ENDBRANCH  14  15
ENDBRANCH  13  14
ENDBRANCH  12  13
ENDBRANCH  11  12
ENDBRANCH   1  11
TORSDOF 14
ENDMDL
MODEL 4
REMARK VINA RESULT:    -4.583      3.025      6.924
REMARK INTER + INTRA:          -9.897
REMARK INTER:                  -8.401
REMARK INTRA:                  -1.496
REMARK UNBOUND:                -1.563
REMARK SMILES CCCCCCCCCCCCCCCC(=O)[O-]
REMARK SMILES IDX 9 1 10 2 11 3 12 4 13 5 14 6 15 7 16 8 17 9 18 10 8 11 7 12
REMARK SMILES IDX 6 13 5 14 4 15 3 16 2 17 1 18
REMARK H PARENT
REMARK Flexibility Score: inf
ROOT
ATOM      1  C   UNL     1       1.229 -38.117  20.065  1.00  0.00     0.000 C 
ENDROOT
BRANCH   1   2
ATOM      2  C   UNL     1       1.507 -36.876  19.197  1.00  0.00     0.000 C 
BRANCH   2   3
ATOM      3  C   UNL     1       2.371 -37.199  17.967  1.00  0.00     0.000 C 
BRANCH   3   4
ATOM      4  C   UNL     1       3.793 -36.630  18.075  1.00  0.00     0.000 C 
BRANCH   4   5
ATOM      5  C   UNL     1       4.792 -37.725  18.482  1.00  0.00     0.000 C 
BRANCH   5   6
ATOM      6  C   UNL     1       5.515 -37.413  19.806  1.00  0.00     0.006 C 
BRANCH   6   7
ATOM      7  C   UNL     1       4.671 -37.673  21.065  1.00  0.00     0.053 C 
BRANCH   7   8
ATOM      8  C   UNL     1       4.430 -36.420  21.849  1.00  0.00     0.041 C 
ATOM      9  O   UNL     1       3.256 -36.062  22.127  1.00  0.00    -0.550 OA
ATOM     10  O   UNL     1       5.505 -35.666  22.304  1.00  0.00    -0.550 OA
ENDBRANCH   7   8
ENDBRANCH   6   7
ENDBRANCH   5   6
ENDBRANCH   4   5
ENDBRANCH   3   4
ENDBRANCH   2   3
ENDBRANCH   1   2
BRANCH   1  11
ATOM     11  C   UNL     1       0.008 -37.934  20.982  1.00  0.00     0.000 C 
BRANCH  11  12
ATOM     12  C   UNL     1      -0.477 -36.474  21.040  1.00  0.00    -0.000 C 
BRANCH  12  13
ATOM     13  C   UNL     1      -1.924 -36.313  20.548  1.00  0.00    -0.000 C 
BRANCH  13  14
ATOM     14  C   UNL     1      -2.896 -37.272  21.250  1.00  0.00    -0.000 C 
BRANCH  14  15
ATOM     15  C   UNL     1      -3.676 -38.109  20.229  1.00  0.00    -0.000 C 
BRANCH  15  16
ATOM     16  C   UNL     1      -3.178 -37.843  18.803  1.00  0.00    -0.000 C 
BRANCH  16  17
ATOM     17  C   UNL     1      -4.339 -37.459  17.877  1.00  0.00    -0.003 C 
ATOM     18  C   UNL     1      -4.385 -35.951  17.648  1.00  0.00     0.004 C 
ENDBRANCH  16  17
ENDBRANCH  15  16
ENDBRANCH  14  15
ENDBRANCH  13  14
ENDBRANCH  12  13
ENDBRANCH  11  12
ENDBRANCH   1  11
TORSDOF 14
ENDMDL
MODEL 5
REMARK VINA RESULT:    -4.507      3.572      7.243
REMARK INTER + INTRA:          -9.759
REMARK INTER:                  -8.589
REMARK INTRA:                  -1.170
REMARK UNBOUND:                -1.563
REMARK SMILES CCCCCCCCCCCCCCCC(=O)[O-]
REMARK SMILES IDX 9 1 10 2 11 3 12 4 13 5 14 6 15 7 16 8 17 9 18 10 8 11 7 12
REMARK SMILES IDX 6 13 5 14 4 15 3 16 2 17 1 18
REMARK H PARENT
REMARK Flexibility Score: inf
ROOT
ATOM      1  C   UNL     1       0.040 -35.399  21.421  1.00  0.00     0.000 C 
ENDROOT
BRANCH   1   2
ATOM      2  C   UNL     1       0.753 -36.641  20.856  1.00  0.00     0.000 C 
BRANCH   2   3
ATOM      3  C   UNL     1       1.774 -36.288  19.762  1.00  0.00     0.000 C 
BRANCH   3   4
ATOM      4  C   UNL     1       2.054 -37.462  18.811  1.00  0.00     0.000 C 
BRANCH   4   5
ATOM      5  C   UNL     1       3.229 -37.140  17.876  1.00  0.00     0.000 C 
BRANCH   5   6
ATOM      6  C   UNL     1       4.367 -36.381  18.583  1.00  0.00     0.006 C 
BRANCH   6   7
ATOM      7  C   UNL     1       5.420 -37.287  19.242  1.00  0.00     0.053 C 
BRANCH   7   8
ATOM      8  C   UNL     1       5.467 -37.105  20.728  1.00  0.00     0.041 C 
ATOM      9  O   UNL     1       6.124 -37.906  21.444  1.00  0.00    -0.550 OA
ATOM     10  O   UNL     1       4.814 -36.031  21.319  1.00  0.00    -0.550 OA
ENDBRANCH   7   8
ENDBRANCH   6   7
ENDBRANCH   5   6
ENDBRANCH   4   5
ENDBRANCH   3   4
ENDBRANCH   2   3
ENDBRANCH   1   2
BRANCH   1  11
ATOM     11  C   UNL     1      -1.430 -35.311  20.979  1.00  0.00     0.000 C 
BRANCH  11  12
ATOM     12  C   UNL     1      -2.399 -35.897  22.023  1.00  0.00    -0.000 C 
BRANCH  12  13
ATOM     13  C   UNL     1      -3.364 -36.929  21.417  1.00  0.00    -0.000 C 
BRANCH  13  14
ATOM     14  C   UNL     1      -2.633 -38.122  20.787  1.00  0.00    -0.000 C 
BRANCH  14  15
ATOM     15  C   UNL     1      -2.793 -38.121  19.262  1.00  0.00    -0.000 C 
BRANCH  15  16
ATOM     16  C   UNL     1      -4.241 -37.816  18.859  1.00  0.00    -0.000 C 
BRANCH  16  17
ATOM     17  C   UNL     1      -4.306 -37.216  17.450  1.00  0.00    -0.003 C 
ATOM     18  C   UNL     1      -4.579 -35.716  17.502  1.00  0.00     0.004 C 
ENDBRANCH  16  17
ENDBRANCH  15  16
ENDBRANCH  14  15
ENDBRANCH  13  14
ENDBRANCH  12  13
ENDBRANCH  11  12
ENDBRANCH   1  11
TORSDOF 14
ENDMDL
MODEL 6
REMARK VINA RESULT:    -4.444      0.953      1.647
REMARK INTER + INTRA:          -9.645
REMARK INTER:                  -8.289
REMARK INTRA:                  -1.356
REMARK UNBOUND:                -1.563
REMARK SMILES CCCCCCCCCCCCCCCC(=O)[O-]
REMARK SMILES IDX 9 1 10 2 11 3 12 4 13 5 14 6 15 7 16 8 17 9 18 10 8 11 7 12
REMARK SMILES IDX 6 13 5 14 4 15 3 16 2 17 1 18
REMARK H PARENT
REMARK Flexibility Score: inf
ROOT
ATOM      1  C   UNL     1       2.448 -35.210  22.266  1.00  0.00     0.000 C 
ENDROOT
BRANCH   1   2
ATOM      2  C   UNL     1       1.966 -36.364  21.370  1.00  0.00     0.000 C 
BRANCH   2   3
ATOM      3  C   UNL     1       0.716 -35.996  20.555  1.00  0.00     0.000 C 
BRANCH   3   4
ATOM      4  C   UNL     1      -0.551 -36.701  21.061  1.00  0.00     0.000 C 
BRANCH   4   5
ATOM      5  C   UNL     1      -1.700 -35.698  21.249  1.00  0.00     0.000 C 
BRANCH   5   6
ATOM      6  C   UNL     1      -1.268 -34.430  22.009  1.00  0.00     0.006 C 
BRANCH   6   7
ATOM      7  C   UNL     1      -2.171 -34.066  23.199  1.00  0.00     0.053 C 
BRANCH   7   8
ATOM      8  C   UNL     1      -1.873 -32.699  23.734  1.00  0.00     0.041 C 
ATOM      9  O   UNL     1      -2.772 -31.819  23.763  1.00  0.00    -0.550 OA
ATOM     10  O   UNL     1      -0.609 -32.408  24.234  1.00  0.00    -0.550 OA
ENDBRANCH   7   8
ENDBRANCH   6   7
ENDBRANCH   5   6
ENDBRANCH   4   5
ENDBRANCH   3   4
ENDBRANCH   2   3
ENDBRANCH   1   2
BRANCH   1  11
ATOM     11  C   UNL     1       3.976 -35.192  22.434  1.00  0.00     0.000 C 
BRANCH  11  12
ATOM     12  C   UNL     1       4.586 -36.605  22.469  1.00  0.00    -0.000 C 
BRANCH  12  13
ATOM     13  C   UNL     1       5.682 -36.801  21.408  1.00  0.00    -0.000 C 
BRANCH  13  14
ATOM     14  C   UNL     1       5.503 -38.097  20.606  1.00  0.00    -0.000 C 
BRANCH  14  15
ATOM     15  C   UNL     1       5.270 -37.795  19.120  1.00  0.00    -0.000 C 
BRANCH  15  16
ATOM     16  C   UNL     1       4.436 -36.521  18.940  1.00  0.00    -0.000 C 
BRANCH  16  17
ATOM     17  C   UNL     1       3.831 -36.453  17.533  1.00  0.00    -0.003 C 
ATOM     18  C   UNL     1       2.450 -37.101  17.495  1.00  0.00     0.004 C 
ENDBRANCH  16  17
ENDBRANCH  15  16
ENDBRANCH  14  15
ENDBRANCH  13  14
ENDBRANCH  12  13
ENDBRANCH  11  12
ENDBRANCH   1  11
TORSDOF 14
ENDMDL
MODEL 7
REMARK VINA RESULT:    -4.405      2.545      6.927
REMARK INTER + INTRA:          -9.573
REMARK INTER:                  -8.123
REMARK INTRA:                  -1.450
REMARK UNBOUND:                -1.563
REMARK SMILES CCCCCCCCCCCCCCCC(=O)[O-]
REMARK SMILES IDX 9 1 10 2 11 3 12 4 13 5 14 6 15 7 16 8 17 9 18 10 8 11 7 12
REMARK SMILES IDX 6 13 5 14 4 15 3 16 2 17 1 18
REMARK H PARENT
REMARK Flexibility Score: inf
ROOT
ATOM      1  C   UNL     1       1.720 -36.419  19.447  1.00  0.00     0.000 C 
ENDROOT
BRANCH   1   2
ATOM      2  C   UNL     1       2.074 -37.496  18.406  1.00  0.00     0.000 C 
BRANCH   2   3
ATOM      3  C   UNL     1       3.321 -37.133  17.583  1.00  0.00     0.000 C 
BRANCH   3   4
ATOM      4  C   UNL     1       4.328 -36.286  18.373  1.00  0.00     0.000 C 
BRANCH   4   5
ATOM      5  C   UNL     1       5.599 -37.092  18.683  1.00  0.00     0.000 C 
BRANCH   5   6
ATOM      6  C   UNL     1       5.955 -37.094  20.181  1.00  0.00     0.006 C 
BRANCH   6   7
ATOM      7  C   UNL     1       4.752 -37.286  21.119  1.00  0.00     0.053 C 
BRANCH   7   8
ATOM      8  C   UNL     1       4.694 -36.234  22.183  1.00  0.00     0.041 C 
ATOM      9  O   UNL     1       5.531 -36.235  23.123  1.00  0.00    -0.550 OA
ATOM     10  O   UNL     1       3.736 -35.230  22.116  1.00  0.00    -0.550 OA
ENDBRANCH   7   8
ENDBRANCH   6   7
ENDBRANCH   5   6
ENDBRANCH   4   5
ENDBRANCH   3   4
ENDBRANCH   2   3
ENDBRANCH   1   2
BRANCH   1  11
ATOM     11  C   UNL     1       0.987 -36.998  20.668  1.00  0.00     0.000 C 
BRANCH  11  12
ATOM     12  C   UNL     1      -0.059 -38.060  20.285  1.00  0.00    -0.000 C 
BRANCH  12  13
ATOM     13  C   UNL     1      -1.227 -38.125  21.282  1.00  0.00    -0.000 C 
BRANCH  13  14
ATOM     14  C   UNL     1      -2.529 -37.553  20.704  1.00  0.00    -0.000 C 
BRANCH  14  15
ATOM     15  C   UNL     1      -2.510 -36.020  20.719  1.00  0.00    -0.000 C 
BRANCH  15  16
ATOM     16  C   UNL     1      -2.551 -35.482  22.155  1.00  0.00    -0.000 C 
BRANCH  16  17
ATOM     17  C   UNL     1      -1.549 -34.337  22.342  1.00  0.00    -0.003 C 
ATOM     18  C   UNL     1      -2.030 -33.353  23.405  1.00  0.00     0.004 C 
ENDBRANCH  16  17
ENDBRANCH  15  16
ENDBRANCH  14  15
ENDBRANCH  13  14
ENDBRANCH  12  13
ENDBRANCH  11  12
ENDBRANCH   1  11
TORSDOF 14
ENDMDL
MODEL 8
REMARK VINA RESULT:    -4.310      3.518      4.712
REMARK INTER + INTRA:          -9.400
REMARK INTER:                  -7.765
REMARK INTRA:                  -1.635
REMARK UNBOUND:                -1.563
REMARK SMILES CCCCCCCCCCCCCCCC(=O)[O-]
REMARK SMILES IDX 9 1 10 2 11 3 12 4 13 5 14 6 15 7 16 8 17 9 18 10 8 11 7 12
REMARK SMILES IDX 6 13 5 14 4 15 3 16 2 17 1 18
REMARK H PARENT
REMARK Flexibility Score: inf
ROOT
ATOM      1  C   UNL     1       0.974 -35.817  20.938  1.00  0.00     0.000 C 
ENDROOT
BRANCH   1   2
ATOM      2  C   UNL     1      -0.206 -35.349  21.808  1.00  0.00     0.000 C 
BRANCH   2   3
ATOM      3  C   UNL     1      -1.526 -35.280  21.024  1.00  0.00     0.000 C 
BRANCH   3   4
ATOM      4  C   UNL     1      -2.560 -36.306  21.512  1.00  0.00     0.000 C 
BRANCH   4   5
ATOM      5  C   UNL     1      -2.172 -37.726  21.072  1.00  0.00     0.000 C 
BRANCH   5   6
ATOM      6  C   UNL     1      -2.796 -38.125  19.721  1.00  0.00     0.006 C 
BRANCH   6   7
ATOM      7  C   UNL     1      -4.118 -37.409  19.397  1.00  0.00     0.053 C 
BRANCH   7   8
ATOM      8  C   UNL     1      -4.267 -37.139  17.932  1.00  0.00     0.041 C 
ATOM      9  O   UNL     1      -3.888 -37.993  17.088  1.00  0.00    -0.550 OA
ATOM     10  O   UNL     1      -4.858 -35.959  17.498  1.00  0.00    -0.550 OA
ENDBRANCH   7   8
ENDBRANCH   6   7
ENDBRANCH   5   6
ENDBRANCH   4   5
ENDBRANCH   3   4
ENDBRANCH   2   3
ENDBRANCH   1   2
BRANCH   1  11
ATOM     11  C   UNL     1       1.406 -37.258  21.257  1.00  0.00     0.000 C 
BRANCH  11  12
ATOM     12  C   UNL     1       1.589 -38.117  19.993  1.00  0.00    -0.000 C 
BRANCH  12  13
ATOM     13  C   UNL     1       1.822 -37.269  18.732  1.00  0.00    -0.000 C 
BRANCH  13  14
ATOM     14  C   UNL     1       3.094 -37.674  17.975  1.00  0.00    -0.000 C 
BRANCH  14  15
ATOM     15  C   UNL     1       4.118 -36.533  17.970  1.00  0.00    -0.000 C 
BRANCH  15  16
ATOM     16  C   UNL     1       5.495 -37.026  18.432  1.00  0.00    -0.000 C 
BRANCH  16  17
ATOM     17  C   UNL     1       5.404 -37.711  19.800  1.00  0.00    -0.003 C 
ATOM     18  C   UNL     1       5.082 -36.703  20.901  1.00  0.00     0.004 C 
ENDBRANCH  16  17
ENDBRANCH  15  16
ENDBRANCH  14  15
ENDBRANCH  13  14
ENDBRANCH  12  13
ENDBRANCH  11  12
ENDBRANCH   1  11
TORSDOF 14
ENDMDL
