MODEL 1
REMARK VINA RESULT:     2.904      0.000      0.000
REMARK INTER + INTRA:           7.834
REMARK INTER:                   4.262
REMARK INTRA:                   3.572
REMARK UNBOUND:                 3.572
REMARK SMILES O=c1c(O[C@H]2O[C@H](CO)[C@H](O)[C@@H](O)[C@@H]2O)c(-c2ccc(O)c(O)c2)oc2cc(O)cc(O)c12
REMARK SMILES IDX 4 1 3 2 16 3 25 4 2 5 26 6 1 7 33 8 27 9 31 10 28 11 30 12
REMARK SMILES IDX 17 13 18 14 19 15 20 16 24 17 22 18 21 19 23 21 32 23 29 25
REMARK SMILES IDX 5 27 14 28 6 29 12 30 7 31 10 32 15 33 13 35 8 37 9 38 11 40
REMARK H PARENT 21 20 23 22 32 24 29 26 15 34 13 36 9 39 11 41
REMARK Flexibility Score: inf
ROOT
ATOM      1  O   UNL     1      -3.247 -14.667  10.914  1.00  0.00    -0.454 OA
ENDROOT
BRANCH   1   2
ATOM      2  C   UNL     1      -2.622 -15.473  11.886  1.00  0.00     0.214 A 
ATOM      3  C   UNL     1      -2.394 -16.828  11.575  1.00  0.00     0.180 A 
ATOM      4  O   UNL     1      -1.865 -17.642  12.481  1.00  0.00    -0.452 OA
ATOM      5  C   UNL     1      -2.221 -15.000  13.156  1.00  0.00     0.239 A 
ATOM      6  C   UNL     1      -1.500 -17.246  13.692  1.00  0.00     0.146 A 
ATOM      7  O   UNL     1      -2.355 -13.785  13.453  1.00  0.00    -0.285 OA
ATOM      8  C   UNL     1      -1.657 -15.898  14.087  1.00  0.00     0.111 A 
ATOM      9  C   UNL     1      -0.957 -18.182  14.577  1.00  0.00     0.094 A 
ATOM     10  C   UNL     1      -1.250 -15.510  15.388  1.00  0.00     0.134 A 
ATOM     11  C   UNL     1      -0.561 -17.795  15.862  1.00  0.00     0.123 A 
ATOM     12  C   UNL     1      -0.707 -16.464  16.260  1.00  0.00     0.093 A 
BRANCH   3  13
ATOM     13  C   UNL     1      -2.771 -17.398  10.261  1.00  0.00     0.025 A 
ATOM     14  C   UNL     1      -1.815 -18.095   9.511  1.00  0.00     0.016 A 
ATOM     15  C   UNL     1      -2.156 -18.656   8.280  1.00  0.00     0.051 A 
ATOM     16  C   UNL     1      -3.451 -18.526   7.769  1.00  0.00     0.157 A 
ATOM     17  C   UNL     1      -4.065 -17.236   9.737  1.00  0.00     0.062 A 
ATOM     18  C   UNL     1      -4.418 -17.801   8.505  1.00  0.00     0.158 A 
BRANCH  16  19
ATOM     19  O   UNL     1      -3.731 -19.123   6.539  1.00  0.00    -0.504 OA
ATOM     20  H   UNL     1      -3.082 -19.159   5.767  1.00  0.00     0.293 HD
ENDBRANCH  16  19
BRANCH  18  21
ATOM     21  O   UNL     1      -5.727 -17.619   8.057  1.00  0.00    -0.504 OA
ATOM     22  H   UNL     1      -6.137 -18.133   7.290  1.00  0.00     0.293 HD
ENDBRANCH  18  21
ENDBRANCH   3  13
BRANCH  10  23
ATOM     23  O   UNL     1      -1.384 -14.190  15.820  1.00  0.00    -0.507 OA
ATOM     24  H   UNL     1      -1.884 -13.955  16.669  1.00  0.00     0.293 HD
ENDBRANCH  10  23
BRANCH  11  25
ATOM     25  O   UNL     1      -0.027 -18.724  16.751  1.00  0.00    -0.508 OA
ATOM     26  H   UNL     1       0.963 -18.739  16.971  1.00  0.00     0.293 HD
ENDBRANCH  11  25
ENDBRANCH   1   2
BRANCH   1  27
ATOM     27  C   UNL     1      -2.659 -13.646  10.097  1.00  0.00     0.339 C 
ATOM     28  C   UNL     1      -3.595 -13.235   8.927  1.00  0.00     0.214 C 
ATOM     29  O   UNL     1      -1.397 -14.082   9.616  1.00  0.00    -0.332 OA
ATOM     30  C   UNL     1      -3.689 -14.341   7.853  1.00  0.00     0.180 C 
ATOM     31  C   UNL     1      -1.522 -15.231   8.790  1.00  0.00     0.179 C 
ATOM     32  C   UNL     1      -2.297 -14.898   7.494  1.00  0.00     0.177 C 
BRANCH  28  33
ATOM     33  O   UNL     1      -3.194 -12.015   8.354  1.00  0.00    -0.384 OA
ATOM     34  H   UNL     1      -3.263 -12.091   7.367  1.00  0.00     0.211 HD
ENDBRANCH  28  33
BRANCH  30  35
ATOM     35  O   UNL     1      -4.511 -15.376   8.333  1.00  0.00    -0.387 OA
ATOM     36  H   UNL     1      -4.086 -16.233   8.065  1.00  0.00     0.211 HD
ENDBRANCH  30  35
BRANCH  31  37
ATOM     37  C   UNL     1      -0.127 -15.802   8.503  1.00  0.00     0.191 C 
BRANCH  37  38
ATOM     38  O   UNL     1       0.862 -15.036   9.136  1.00  0.00    -0.394 OA
ATOM     39  H   UNL     1       1.458 -14.706   8.415  1.00  0.00     0.210 HD
ENDBRANCH  37  38
ENDBRANCH  31  37
BRANCH  32  40
ATOM     40  O   UNL     1      -1.601 -13.951   6.722  1.00  0.00    -0.387 OA
ATOM     41  H   UNL     1      -1.943 -13.053   6.974  1.00  0.00     0.211 HD
ENDBRANCH  32  40
ENDBRANCH   1  27
TORSDOF 12
ENDMDL
MODEL 2
REMARK VINA RESULT:     3.129      2.165      7.290
REMARK INTER + INTRA:           8.165
REMARK INTER:                   9.043
REMARK INTRA:                  -0.878
REMARK UNBOUND:                 3.572
REMARK SMILES O=c1c(O[C@H]2O[C@H](CO)[C@H](O)[C@@H](O)[C@@H]2O)c(-c2ccc(O)c(O)c2)oc2cc(O)cc(O)c12
REMARK SMILES IDX 4 1 3 2 16 3 25 4 2 5 26 6 1 7 33 8 27 9 31 10 28 11 30 12
REMARK SMILES IDX 17 13 18 14 19 15 20 16 24 17 22 18 21 19 23 21 32 23 29 25
REMARK SMILES IDX 5 27 14 28 6 29 12 30 7 31 10 32 15 33 13 35 8 37 9 38 11 40
REMARK H PARENT 21 20 23 22 32 24 29 26 15 34 13 36 9 39 11 41
REMARK Flexibility Score: inf
ROOT
ATOM      1  O   UNL     1      -2.598 -16.010  10.880  1.00  0.00    -0.454 OA
ENDROOT
BRANCH   1   2
ATOM      2  C   UNL     1      -3.062 -15.868   9.557  1.00  0.00     0.214 A 
ATOM      3  C   UNL     1      -2.268 -15.134   8.653  1.00  0.00     0.180 A 
ATOM      4  O   UNL     1      -2.692 -14.919   7.413  1.00  0.00    -0.452 OA
ATOM      5  C   UNL     1      -4.280 -16.410   9.092  1.00  0.00     0.239 A 
ATOM      6  C   UNL     1      -3.841 -15.387   6.944  1.00  0.00     0.146 A 
ATOM      7  O   UNL     1      -4.992 -17.118   9.851  1.00  0.00    -0.285 OA
ATOM      8  C   UNL     1      -4.691 -16.163   7.765  1.00  0.00     0.111 A 
ATOM      9  C   UNL     1      -4.202 -15.102   5.624  1.00  0.00     0.094 A 
ATOM     10  C   UNL     1      -5.908 -16.651   7.227  1.00  0.00     0.134 A 
ATOM     11  C   UNL     1      -5.407 -15.581   5.100  1.00  0.00     0.123 A 
ATOM     12  C   UNL     1      -6.252 -16.354   5.900  1.00  0.00     0.093 A 
BRANCH   3  13
ATOM     13  C   UNL     1      -0.971 -14.545   9.057  1.00  0.00     0.025 A 
ATOM     14  C   UNL     1       0.217 -15.228   8.767  1.00  0.00     0.016 A 
ATOM     15  C   UNL     1       1.450 -14.680   9.123  1.00  0.00     0.051 A 
ATOM     16  C   UNL     1       1.523 -13.449   9.782  1.00  0.00     0.157 A 
ATOM     17  C   UNL     1      -0.906 -13.323   9.750  1.00  0.00     0.062 A 
ATOM     18  C   UNL     1       0.327 -12.763  10.105  1.00  0.00     0.158 A 
BRANCH  16  19
ATOM     19  O   UNL     1       2.787 -12.949  10.096  1.00  0.00    -0.504 OA
ATOM     20  H   UNL     1       3.645 -13.470   9.984  1.00  0.00     0.293 HD
ENDBRANCH  16  19
BRANCH  18  21
ATOM     21  O   UNL     1       0.318 -11.536  10.770  1.00  0.00    -0.504 OA
ATOM     22  H   UNL     1       1.109 -10.911  10.810  1.00  0.00     0.293 HD
ENDBRANCH  18  21
ENDBRANCH   3  13
BRANCH  10  23
ATOM     23  O   UNL     1      -6.778 -17.422   7.999  1.00  0.00    -0.507 OA
ATOM     24  H   UNL     1      -7.018 -17.165   8.949  1.00  0.00     0.293 HD
ENDBRANCH  10  23
BRANCH  11  25
ATOM     25  O   UNL     1      -5.775 -15.294   3.788  1.00  0.00    -0.508 OA
ATOM     26  H   UNL     1      -6.741 -15.115   3.536  1.00  0.00     0.293 HD
ENDBRANCH  11  25
ENDBRANCH   1   2
BRANCH   1  27
ATOM     27  C   UNL     1      -3.298 -16.538  12.013  1.00  0.00     0.339 C 
ATOM     28  C   UNL     1      -3.621 -15.433  13.057  1.00  0.00     0.214 C 
ATOM     29  O   UNL     1      -2.547 -17.591  12.596  1.00  0.00    -0.332 OA
ATOM     30  C   UNL     1      -2.351 -14.954  13.795  1.00  0.00     0.180 C 
ATOM     31  C   UNL     1      -1.293 -17.131  13.081  1.00  0.00     0.179 C 
ATOM     32  C   UNL     1      -1.485 -16.143  14.255  1.00  0.00     0.177 C 
BRANCH  28  33
ATOM     33  O   UNL     1      -4.599 -15.863  13.973  1.00  0.00    -0.384 OA
ATOM     34  H   UNL     1      -4.951 -16.740  13.669  1.00  0.00     0.211 HD
ENDBRANCH  28  33
BRANCH  30  35
ATOM     35  O   UNL     1      -1.609 -14.124  12.936  1.00  0.00    -0.387 OA
ATOM     36  H   UNL     1      -1.844 -14.384  12.006  1.00  0.00     0.211 HD
ENDBRANCH  30  35
BRANCH  31  37
ATOM     37  C   UNL     1      -0.427 -18.336  13.470  1.00  0.00     0.191 C 
BRANCH  37  38
ATOM     38  O   UNL     1       0.280 -18.077  14.653  1.00  0.00    -0.394 OA
ATOM     39  H   UNL     1       0.316 -17.089  14.742  1.00  0.00     0.210 HD
ENDBRANCH  37  38
ENDBRANCH  31  37
BRANCH  32  40
ATOM     40  O   UNL     1      -2.103 -16.775  15.347  1.00  0.00    -0.387 OA
ATOM     41  H   UNL     1      -3.048 -16.470  15.371  1.00  0.00     0.211 HD
ENDBRANCH  32  40
ENDBRANCH   1  27
TORSDOF 12
ENDMDL
MODEL 3
REMARK VINA RESULT:     3.804      2.153      7.455
REMARK INTER + INTRA:           9.155
REMARK INTER:                   9.689
REMARK INTRA:                  -0.534
REMARK UNBOUND:                 3.572
REMARK SMILES O=c1c(O[C@H]2O[C@H](CO)[C@H](O)[C@@H](O)[C@@H]2O)c(-c2ccc(O)c(O)c2)oc2cc(O)cc(O)c12
REMARK SMILES IDX 4 1 3 2 16 3 25 4 2 5 26 6 1 7 33 8 27 9 31 10 28 11 30 12
REMARK SMILES IDX 17 13 18 14 19 15 20 16 24 17 22 18 21 19 23 21 32 23 29 25
REMARK SMILES IDX 5 27 14 28 6 29 12 30 7 31 10 32 15 33 13 35 8 37 9 38 11 40
REMARK H PARENT 21 20 23 22 32 24 29 26 15 34 13 36 9 39 11 41
REMARK Flexibility Score: inf
ROOT
ATOM      1  O   UNL     1      -1.605 -17.066  12.382  1.00  0.00    -0.454 OA
ENDROOT
BRANCH   1   2
ATOM      2  C   UNL     1      -2.408 -16.801  11.255  1.00  0.00     0.214 A 
ATOM      3  C   UNL     1      -3.283 -15.698  11.310  1.00  0.00     0.180 A 
ATOM      4  O   UNL     1      -4.104 -15.444  10.298  1.00  0.00    -0.452 OA
ATOM      5  C   UNL     1      -2.391 -17.585  10.080  1.00  0.00     0.239 A 
ATOM      6  C   UNL     1      -4.140 -16.170   9.189  1.00  0.00     0.146 A 
ATOM      7  O   UNL     1      -1.585 -18.545   9.967  1.00  0.00    -0.285 OA
ATOM      8  C   UNL     1      -3.276 -17.277   9.025  1.00  0.00     0.111 A 
ATOM      9  C   UNL     1      -5.044 -15.825   8.181  1.00  0.00     0.094 A 
ATOM     10  C   UNL     1      -3.338 -18.026   7.822  1.00  0.00     0.134 A 
ATOM     11  C   UNL     1      -5.106 -16.571   6.999  1.00  0.00     0.123 A 
ATOM     12  C   UNL     1      -4.253 -17.663   6.824  1.00  0.00     0.093 A 
BRANCH   3  13
ATOM     13  C   UNL     1      -3.351 -14.818  12.499  1.00  0.00     0.025 A 
ATOM     14  C   UNL     1      -2.302 -13.925  12.759  1.00  0.00     0.016 A 
ATOM     15  C   UNL     1      -2.357 -13.074  13.863  1.00  0.00     0.051 A 
ATOM     16  C   UNL     1      -3.450 -13.103  14.734  1.00  0.00     0.157 A 
ATOM     17  C   UNL     1      -4.436 -14.875  13.391  1.00  0.00     0.062 A 
ATOM     18  C   UNL     1      -4.503 -14.020  14.498  1.00  0.00     0.158 A 
BRANCH  16  19
ATOM     19  O   UNL     1      -3.451 -12.216  15.812  1.00  0.00    -0.504 OA
ATOM     20  H   UNL     1      -2.637 -11.710  16.128  1.00  0.00     0.293 HD
ENDBRANCH  16  19
BRANCH  18  21
ATOM     21  O   UNL     1      -5.621 -14.116  15.328  1.00  0.00    -0.504 OA
ATOM     22  H   UNL     1      -5.758 -14.851  16.006  1.00  0.00     0.293 HD
ENDBRANCH  18  21
ENDBRANCH   3  13
BRANCH  10  23
ATOM     23  O   UNL     1      -2.505 -19.125   7.616  1.00  0.00    -0.507 OA
ATOM     24  H   UNL     1      -1.529 -19.113   7.887  1.00  0.00     0.293 HD
ENDBRANCH  10  23
BRANCH  11  25
ATOM     25  O   UNL     1      -6.011 -16.237   5.994  1.00  0.00    -0.508 OA
ATOM     26  H   UNL     1      -6.989 -16.066   6.198  1.00  0.00     0.293 HD
ENDBRANCH  11  25
ENDBRANCH   1   2
BRANCH   1  27
ATOM     27  C   UNL     1      -1.830 -18.022  13.426  1.00  0.00     0.339 C 
ATOM     28  C   UNL     1      -2.257 -17.337  14.753  1.00  0.00     0.214 C 
ATOM     29  O   UNL     1      -0.668 -18.816  13.609  1.00  0.00    -0.332 OA
ATOM     30  C   UNL     1      -1.083 -16.577  15.409  1.00  0.00     0.180 C 
ATOM     31  C   UNL     1       0.442 -18.030  14.020  1.00  0.00     0.179 C 
ATOM     32  C   UNL     1       0.201 -17.429  15.425  1.00  0.00     0.177 C 
BRANCH  28  33
ATOM     33  O   UNL     1      -2.816 -18.264  15.651  1.00  0.00    -0.384 OA
ATOM     34  H   UNL     1      -3.804 -18.237  15.557  1.00  0.00     0.211 HD
ENDBRANCH  28  33
BRANCH  30  35
ATOM     35  O   UNL     1      -0.859 -15.383  14.700  1.00  0.00    -0.387 OA
ATOM     36  H   UNL     1      -0.439 -15.633  13.835  1.00  0.00     0.211 HD
ENDBRANCH  30  35
BRANCH  31  37
ATOM     37  C   UNL     1       1.715 -18.884  13.964  1.00  0.00     0.191 C 
BRANCH  37  38
ATOM     38  O   UNL     1       2.619 -18.492  14.962  1.00  0.00    -0.394 OA
ATOM     39  H   UNL     1       2.541 -17.505  15.032  1.00  0.00     0.210 HD
ENDBRANCH  37  38
ENDBRANCH  31  37
BRANCH  32  40
ATOM     40  O   UNL     1       0.077 -18.442  16.390  1.00  0.00    -0.387 OA
ATOM     41  H   UNL     1      -0.394 -19.204  15.962  1.00  0.00     0.211 HD
ENDBRANCH  32  40
ENDBRANCH   1  27
TORSDOF 12
ENDMDL
MODEL 4
REMARK VINA RESULT:     3.906      1.779      3.772
REMARK INTER + INTRA:           9.306
REMARK INTER:                   5.812
REMARK INTRA:                   3.494
REMARK UNBOUND:                 3.572
REMARK SMILES O=c1c(O[C@H]2O[C@H](CO)[C@H](O)[C@@H](O)[C@@H]2O)c(-c2ccc(O)c(O)c2)oc2cc(O)cc(O)c12
REMARK SMILES IDX 4 1 3 2 16 3 25 4 2 5 26 6 1 7 33 8 27 9 31 10 28 11 30 12
REMARK SMILES IDX 17 13 18 14 19 15 20 16 24 17 22 18 21 19 23 21 32 23 29 25
REMARK SMILES IDX 5 27 14 28 6 29 12 30 7 31 10 32 15 33 13 35 8 37 9 38 11 40
REMARK H PARENT 21 20 23 22 32 24 29 26 15 34 13 36 9 39 11 41
REMARK Flexibility Score: inf
ROOT
ATOM      1  O   UNL     1      -4.165 -15.419  11.963  1.00  0.00    -0.454 OA
ENDROOT
BRANCH   1   2
ATOM      2  C   UNL     1      -3.020 -15.947  12.591  1.00  0.00     0.214 A 
ATOM      3  C   UNL     1      -1.830 -16.025  11.841  1.00  0.00     0.180 A 
ATOM      4  O   UNL     1      -0.742 -16.573  12.368  1.00  0.00    -0.452 OA
ATOM      5  C   UNL     1      -3.002 -16.413  13.925  1.00  0.00     0.239 A 
ATOM      6  C   UNL     1      -0.690 -17.046  13.606  1.00  0.00     0.146 A 
ATOM      7  O   UNL     1      -4.028 -16.310  14.647  1.00  0.00    -0.285 OA
ATOM      8  C   UNL     1      -1.823 -16.983  14.448  1.00  0.00     0.111 A 
ATOM      9  C   UNL     1       0.503 -17.609  14.068  1.00  0.00     0.094 A 
ATOM     10  C   UNL     1      -1.728 -17.492  15.768  1.00  0.00     0.134 A 
ATOM     11  C   UNL     1       0.589 -18.116  15.369  1.00  0.00     0.123 A 
ATOM     12  C   UNL     1      -0.522 -18.054  16.212  1.00  0.00     0.093 A 
BRANCH   3  13
ATOM     13  C   UNL     1      -1.760 -15.546  10.441  1.00  0.00     0.025 A 
ATOM     14  C   UNL     1      -1.233 -16.384   9.450  1.00  0.00     0.016 A 
ATOM     15  C   UNL     1      -1.176 -15.958   8.123  1.00  0.00     0.051 A 
ATOM     16  C   UNL     1      -1.634 -14.688   7.759  1.00  0.00     0.157 A 
ATOM     17  C   UNL     1      -2.191 -14.256  10.087  1.00  0.00     0.062 A 
ATOM     18  C   UNL     1      -2.144 -13.822   8.756  1.00  0.00     0.158 A 
BRANCH  16  19
ATOM     19  O   UNL     1      -1.564 -14.328   6.412  1.00  0.00    -0.504 OA
ATOM     20  H   UNL     1      -0.764 -14.502   5.822  1.00  0.00     0.293 HD
ENDBRANCH  16  19
BRANCH  18  21
ATOM     21  O   UNL     1      -2.610 -12.537   8.474  1.00  0.00    -0.504 OA
ATOM     22  H   UNL     1      -3.515 -12.191   8.756  1.00  0.00     0.293 HD
ENDBRANCH  18  21
ENDBRANCH   3  13
BRANCH  10  23
ATOM     23  O   UNL     1      -2.820 -17.450  16.635  1.00  0.00    -0.507 OA
ATOM     24  H   UNL     1      -2.820 -16.867  17.464  1.00  0.00     0.293 HD
ENDBRANCH  10  23
BRANCH  11  25
ATOM     25  O   UNL     1       1.773 -18.686  15.832  1.00  0.00    -0.508 OA
ATOM     26  H   UNL     1       1.767 -19.454  16.495  1.00  0.00     0.293 HD
ENDBRANCH  11  25
ENDBRANCH   1   2
BRANCH   1  27
ATOM     27  C   UNL     1      -5.350 -16.111  11.552  1.00  0.00     0.339 C 
ATOM     28  C   UNL     1      -5.127 -17.647  11.485  1.00  0.00     0.214 C 
ATOM     29  O   UNL     1      -5.796 -15.603  10.304  1.00  0.00    -0.332 OA
ATOM     30  C   UNL     1      -4.225 -18.043  10.296  1.00  0.00     0.180 C 
ATOM     31  C   UNL     1      -4.835 -15.816   9.280  1.00  0.00     0.179 C 
ATOM     32  C   UNL     1      -4.652 -17.326   9.000  1.00  0.00     0.177 C 
BRANCH  28  33
ATOM     33  O   UNL     1      -6.349 -18.342  11.438  1.00  0.00    -0.384 OA
ATOM     34  H   UNL     1      -7.046 -17.782  11.869  1.00  0.00     0.211 HD
ENDBRANCH  28  33
BRANCH  30  35
ATOM     35  O   UNL     1      -2.891 -17.721  10.606  1.00  0.00    -0.387 OA
ATOM     36  H   UNL     1      -2.837 -17.630  11.594  1.00  0.00     0.211 HD
ENDBRANCH  30  35
BRANCH  31  37
ATOM     37  C   UNL     1      -5.251 -15.038   8.025  1.00  0.00     0.191 C 
BRANCH  37  38
ATOM     38  O   UNL     1      -4.929 -15.759   6.866  1.00  0.00    -0.394 OA
ATOM     39  H   UNL     1      -5.483 -15.374   6.139  1.00  0.00     0.210 HD
ENDBRANCH  37  38
ENDBRANCH  31  37
BRANCH  32  40
ATOM     40  O   UNL     1      -5.845 -17.896   8.523  1.00  0.00    -0.387 OA
ATOM     41  H   UNL     1      -5.890 -18.825   8.871  1.00  0.00     0.211 HD
ENDBRANCH  32  40
ENDBRANCH   1  27
TORSDOF 12
ENDMDL
