MODEL 1
REMARK VINA RESULT:    -5.346      0.000      0.000
REMARK INTER + INTRA:          -9.244
REMARK INTER:                  -7.846
REMARK INTRA:                  -1.398
REMARK UNBOUND:                -1.398
REMARK SMILES CC(C)COC(=O)c1ccccc1C(=O)OCC(C)C
REMARK SMILES IDX 8 1 9 2 10 3 11 4 12 5 13 6 6 7 7 8 5 9 4 10 2 11 1 12 3 13
REMARK SMILES IDX 14 14 15 15 16 16 17 17 18 18 19 19 20 20
REMARK H PARENT
REMARK Flexibility Score: inf
ROOT
ATOM      1  C   UNL     1      31.315  27.087  -4.943  1.00  0.00     0.074 A 
ATOM      2  C   UNL     1      32.655  27.510  -4.891  1.00  0.00     0.016 A 
ATOM      3  C   UNL     1      33.373  27.463  -3.696  1.00  0.00     0.001 A 
ATOM      4  C   UNL     1      32.764  26.992  -2.534  1.00  0.00     0.001 A 
ATOM      5  C   UNL     1      31.442  26.545  -2.568  1.00  0.00     0.016 A 
ATOM      6  C   UNL     1      30.707  26.562  -3.768  1.00  0.00     0.074 A 
ENDROOT
BRANCH   1   7
ATOM      7  C   UNL     1      30.581  27.266  -6.214  1.00  0.00     0.339 C 
ATOM      8  O   UNL     1      30.441  26.296  -7.010  1.00  0.00    -0.246 OA
BRANCH   7   9
ATOM      9  O   UNL     1      29.993  28.504  -6.500  1.00  0.00    -0.462 OA
BRANCH   9  10
ATOM     10  C   UNL     1      28.634  28.818  -6.197  1.00  0.00     0.236 C 
BRANCH  10  11
ATOM     11  C   UNL     1      28.533  30.107  -5.361  1.00  0.00     0.021 C 
ATOM     12  C   UNL     1      29.337  29.964  -4.063  1.00  0.00     0.011 C 
ATOM     13  C   UNL     1      29.020  31.322  -6.158  1.00  0.00     0.011 C 
ENDBRANCH  10  11
ENDBRANCH   9  10
ENDBRANCH   7   9
ENDBRANCH   1   7
BRANCH   6  14
ATOM     14  C   UNL     1      29.352  25.966  -3.759  1.00  0.00     0.339 C 
ATOM     15  O   UNL     1      28.379  26.599  -3.263  1.00  0.00    -0.246 OA
BRANCH  14  16
ATOM     16  O   UNL     1      29.145  24.717  -4.354  1.00  0.00    -0.462 OA
BRANCH  16  17
ATOM     17  C   UNL     1      29.986  23.595  -4.102  1.00  0.00     0.236 C 
BRANCH  17  18
ATOM     18  C   UNL     1      29.386  22.729  -2.985  1.00  0.00     0.021 C 
ATOM     19  C   UNL     1      29.948  23.131  -1.615  1.00  0.00     0.011 C 
ATOM     20  C   UNL     1      27.856  22.838  -2.986  1.00  0.00     0.011 C 
ENDBRANCH  17  18
ENDBRANCH  16  17
ENDBRANCH  14  16
ENDBRANCH   6  14
TORSDOF 8
ENDMDL
MODEL 2
REMARK VINA RESULT:    -5.309      1.641      4.357
REMARK INTER + INTRA:          -9.190
REMARK INTER:                  -8.227
REMARK INTRA:                  -0.964
REMARK UNBOUND:                -1.398
REMARK SMILES CC(C)COC(=O)c1ccccc1C(=O)OCC(C)C
REMARK SMILES IDX 8 1 9 2 10 3 11 4 12 5 13 6 6 7 7 8 5 9 4 10 2 11 1 12 3 13
REMARK SMILES IDX 14 14 15 15 16 16 17 17 18 18 19 19 20 20
REMARK H PARENT
REMARK Flexibility Score: inf
ROOT
ATOM      1  C   UNL     1      30.175  28.683  -4.435  1.00  0.00     0.074 A 
ATOM      2  C   UNL     1      29.708  29.944  -4.024  1.00  0.00     0.016 A 
ATOM      3  C   UNL     1      28.746  30.626  -4.769  1.00  0.00     0.001 A 
ATOM      4  C   UNL     1      28.236  30.060  -5.936  1.00  0.00     0.001 A 
ATOM      5  C   UNL     1      28.668  28.799  -6.349  1.00  0.00     0.016 A 
ATOM      6  C   UNL     1      29.620  28.083  -5.600  1.00  0.00     0.074 A 
ENDROOT
BRANCH   1   7
ATOM      7  C   UNL     1      31.273  28.065  -3.660  1.00  0.00     0.339 C 
ATOM      8  O   UNL     1      31.017  27.226  -2.752  1.00  0.00    -0.246 OA
BRANCH   7   9
ATOM      9  O   UNL     1      32.600  28.374  -3.981  1.00  0.00    -0.462 OA
BRANCH   9  10
ATOM     10  C   UNL     1      33.719  27.624  -3.508  1.00  0.00     0.236 C 
BRANCH  10  11
ATOM     11  C   UNL     1      34.444  28.363  -2.369  1.00  0.00     0.021 C 
ATOM     12  C   UNL     1      34.092  29.856  -2.393  1.00  0.00     0.011 C 
ATOM     13  C   UNL     1      34.095  27.755  -1.005  1.00  0.00     0.011 C 
ENDBRANCH  10  11
ENDBRANCH   9  10
ENDBRANCH   7   9
ENDBRANCH   1   7
BRANCH   6  14
ATOM     14  C   UNL     1      29.948  26.705  -6.032  1.00  0.00     0.339 C 
ATOM     15  O   UNL     1      30.653  26.508  -7.060  1.00  0.00    -0.246 OA
BRANCH  14  16
ATOM     16  O   UNL     1      29.516  25.622  -5.260  1.00  0.00    -0.462 OA
BRANCH  16  17
ATOM     17  C   UNL     1      30.391  24.582  -4.834  1.00  0.00     0.236 C 
BRANCH  17  18
ATOM     18  C   UNL     1      29.810  23.880  -3.598  1.00  0.00     0.021 C 
ATOM     19  C   UNL     1      28.666  24.698  -2.986  1.00  0.00     0.011 C 
ATOM     20  C   UNL     1      29.322  22.472  -3.962  1.00  0.00     0.011 C 
ENDBRANCH  17  18
ENDBRANCH  16  17
ENDBRANCH  14  16
ENDBRANCH   6  14
TORSDOF 8
ENDMDL
MODEL 3
REMARK VINA RESULT:    -5.299      1.633      5.337
REMARK INTER + INTRA:          -9.175
REMARK INTER:                  -8.174
REMARK INTRA:                  -1.002
REMARK UNBOUND:                -1.398
REMARK SMILES CC(C)COC(=O)c1ccccc1C(=O)OCC(C)C
REMARK SMILES IDX 8 1 9 2 10 3 11 4 12 5 13 6 6 7 7 8 5 9 4 10 2 11 1 12 3 13
REMARK SMILES IDX 14 14 15 15 16 16 17 17 18 18 19 19 20 20
REMARK H PARENT
REMARK Flexibility Score: inf
ROOT
ATOM      1  C   UNL     1      29.592  28.090  -5.599  1.00  0.00     0.074 A 
ATOM      2  C   UNL     1      28.643  28.800  -6.356  1.00  0.00     0.016 A 
ATOM      3  C   UNL     1      28.200  30.058  -5.947  1.00  0.00     0.001 A 
ATOM      4  C   UNL     1      28.696  30.627  -4.775  1.00  0.00     0.001 A 
ATOM      5  C   UNL     1      29.655  29.950  -4.021  1.00  0.00     0.016 A 
ATOM      6  C   UNL     1      30.134  28.690  -4.428  1.00  0.00     0.074 A 
ENDROOT
BRANCH   1   7
ATOM      7  C   UNL     1      29.935  26.718  -6.030  1.00  0.00     0.339 C 
ATOM      8  O   UNL     1      30.681  26.535  -7.032  1.00  0.00    -0.246 OA
BRANCH   7   9
ATOM      9  O   UNL     1      29.475  25.627  -5.284  1.00  0.00    -0.462 OA
BRANCH   9  10
ATOM     10  C   UNL     1      30.314  24.549  -4.869  1.00  0.00     0.236 C 
BRANCH  10  11
ATOM     11  C   UNL     1      29.748  23.854  -3.616  1.00  0.00     0.021 C 
ATOM     12  C   UNL     1      28.577  24.660  -3.043  1.00  0.00     0.011 C 
ATOM     13  C   UNL     1      29.305  22.420  -3.932  1.00  0.00     0.011 C 
ENDBRANCH  10  11
ENDBRANCH   9  10
ENDBRANCH   7   9
ENDBRANCH   1   7
BRANCH   6  14
ATOM     14  C   UNL     1      31.233  28.081  -3.645  1.00  0.00     0.339 C 
ATOM     15  O   UNL     1      30.983  27.233  -2.744  1.00  0.00    -0.246 OA
BRANCH  14  16
ATOM     16  O   UNL     1      32.559  28.411  -3.948  1.00  0.00    -0.462 OA
BRANCH  16  17
ATOM     17  C   UNL     1      33.667  27.632  -3.508  1.00  0.00     0.236 C 
BRANCH  17  18
ATOM     18  C   UNL     1      34.412  28.368  -2.385  1.00  0.00     0.021 C 
ATOM     19  C   UNL     1      34.097  29.869  -2.406  1.00  0.00     0.011 C 
ATOM     20  C   UNL     1      34.054  27.768  -1.021  1.00  0.00     0.011 C 
ENDBRANCH  17  18
ENDBRANCH  16  17
ENDBRANCH  14  16
ENDBRANCH   6  14
TORSDOF 8
ENDMDL
MODEL 4
REMARK VINA RESULT:    -5.204      1.624      4.696
REMARK INTER + INTRA:          -9.036
REMARK INTER:                  -7.786
REMARK INTRA:                  -1.250
REMARK UNBOUND:                -1.398
REMARK SMILES CC(C)COC(=O)c1ccccc1C(=O)OCC(C)C
REMARK SMILES IDX 8 1 9 2 10 3 11 4 12 5 13 6 6 7 7 8 5 9 4 10 2 11 1 12 3 13
REMARK SMILES IDX 14 14 15 15 16 16 17 17 18 18 19 19 20 20
REMARK H PARENT
REMARK Flexibility Score: inf
ROOT
ATOM      1  C   UNL     1      29.604  28.041  -5.596  1.00  0.00     0.074 A 
ATOM      2  C   UNL     1      28.611  28.749  -6.296  1.00  0.00     0.016 A 
ATOM      3  C   UNL     1      28.181  30.000  -5.853  1.00  0.00     0.001 A 
ATOM      4  C   UNL     1      28.736  30.564  -4.706  1.00  0.00     0.001 A 
ATOM      5  C   UNL     1      29.740  29.889  -4.010  1.00  0.00     0.016 A 
ATOM      6  C   UNL     1      30.205  28.637  -4.452  1.00  0.00     0.074 A 
ENDROOT
BRANCH   1   7
ATOM      7  C   UNL     1      29.934  26.674  -6.056  1.00  0.00     0.339 C 
ATOM      8  O   UNL     1      30.684  26.505  -7.058  1.00  0.00    -0.246 OA
BRANCH   7   9
ATOM      9  O   UNL     1      29.457  25.572  -5.337  1.00  0.00    -0.462 OA
BRANCH   9  10
ATOM     10  C   UNL     1      30.292  24.506  -4.887  1.00  0.00     0.236 C 
BRANCH  10  11
ATOM     11  C   UNL     1      29.725  23.855  -3.612  1.00  0.00     0.021 C 
ATOM     12  C   UNL     1      28.575  24.698  -3.049  1.00  0.00     0.011 C 
ATOM     13  C   UNL     1      29.251  22.422  -3.887  1.00  0.00     0.011 C 
ENDBRANCH  10  11
ENDBRANCH   9  10
ENDBRANCH   7   9
ENDBRANCH   1   7
BRANCH   6  14
ATOM     14  C   UNL     1      31.350  28.031  -3.735  1.00  0.00     0.339 C 
ATOM     15  O   UNL     1      32.534  28.346  -4.040  1.00  0.00    -0.246 OA
BRANCH  14  16
ATOM     16  O   UNL     1      31.110  27.147  -2.678  1.00  0.00    -0.462 OA
BRANCH  16  17
ATOM     17  C   UNL     1      32.136  26.705  -1.794  1.00  0.00     0.236 C 
BRANCH  17  18
ATOM     18  C   UNL     1      32.762  25.407  -2.324  1.00  0.00     0.021 C 
ATOM     19  C   UNL     1      34.266  25.582  -2.572  1.00  0.00     0.011 C 
ATOM     20  C   UNL     1      32.515  24.254  -1.344  1.00  0.00     0.011 C 
ENDBRANCH  17  18
ENDBRANCH  16  17
ENDBRANCH  14  16
ENDBRANCH   6  14
TORSDOF 8
ENDMDL
MODEL 5
REMARK VINA RESULT:    -5.204      1.612      4.603
REMARK INTER + INTRA:          -9.036
REMARK INTER:                  -7.822
REMARK INTRA:                  -1.214
REMARK UNBOUND:                -1.398
REMARK SMILES CC(C)COC(=O)c1ccccc1C(=O)OCC(C)C
REMARK SMILES IDX 8 1 9 2 10 3 11 4 12 5 13 6 6 7 7 8 5 9 4 10 2 11 1 12 3 13
REMARK SMILES IDX 14 14 15 15 16 16 17 17 18 18 19 19 20 20
REMARK H PARENT
REMARK Flexibility Score: inf
ROOT
ATOM      1  C   UNL     1      30.215  28.621  -4.492  1.00  0.00     0.074 A 
ATOM      2  C   UNL     1      29.786  29.881  -4.039  1.00  0.00     0.016 A 
ATOM      3  C   UNL     1      28.769  30.569  -4.702  1.00  0.00     0.001 A 
ATOM      4  C   UNL     1      28.166  30.010  -5.827  1.00  0.00     0.001 A 
ATOM      5  C   UNL     1      28.560  28.750  -6.279  1.00  0.00     0.016 A 
ATOM      6  C   UNL     1      29.568  28.028  -5.612  1.00  0.00     0.074 A 
ENDROOT
BRANCH   1   7
ATOM      7  C   UNL     1      31.370  27.996  -3.811  1.00  0.00     0.339 C 
ATOM      8  O   UNL     1      32.546  28.232  -4.207  1.00  0.00    -0.246 OA
BRANCH   7   9
ATOM      9  O   UNL     1      31.153  27.190  -2.688  1.00  0.00    -0.462 OA
BRANCH   9  10
ATOM     10  C   UNL     1      32.182  26.832  -1.765  1.00  0.00     0.236 C 
BRANCH  10  11
ATOM     11  C   UNL     1      32.817  25.479  -2.137  1.00  0.00     0.021 C 
ATOM     12  C   UNL     1      34.346  25.575  -2.077  1.00  0.00     0.011 C 
ATOM     13  C   UNL     1      32.317  24.362  -1.214  1.00  0.00     0.011 C 
ENDBRANCH  10  11
ENDBRANCH   9  10
ENDBRANCH   7   9
ENDBRANCH   1   7
BRANCH   6  14
ATOM     14  C   UNL     1      29.856  26.652  -6.076  1.00  0.00     0.339 C 
ATOM     15  O   UNL     1      30.502  26.459  -7.142  1.00  0.00    -0.246 OA
BRANCH  14  16
ATOM     16  O   UNL     1      29.453  25.564  -5.293  1.00  0.00    -0.462 OA
BRANCH  16  17
ATOM     17  C   UNL     1      30.358  24.558  -4.849  1.00  0.00     0.236 C 
BRANCH  17  18
ATOM     18  C   UNL     1      29.799  23.863  -3.599  1.00  0.00     0.021 C 
ATOM     19  C   UNL     1      28.691  24.703  -2.951  1.00  0.00     0.011 C 
ATOM     20  C   UNL     1      29.270  22.468  -3.953  1.00  0.00     0.011 C 
ENDBRANCH  17  18
ENDBRANCH  16  17
ENDBRANCH  14  16
ENDBRANCH   6  14
TORSDOF 8
ENDMDL
MODEL 6
REMARK VINA RESULT:    -5.123      1.761      4.267
REMARK INTER + INTRA:          -8.918
REMARK INTER:                  -7.722
REMARK INTRA:                  -1.196
REMARK UNBOUND:                -1.398
REMARK SMILES CC(C)COC(=O)c1ccccc1C(=O)OCC(C)C
REMARK SMILES IDX 8 1 9 2 10 3 11 4 12 5 13 6 6 7 7 8 5 9 4 10 2 11 1 12 3 13
REMARK SMILES IDX 14 14 15 15 16 16 17 17 18 18 19 19 20 20
REMARK H PARENT
REMARK Flexibility Score: inf
ROOT
ATOM      1  C   UNL     1      30.091  26.186  -4.510  1.00  0.00     0.074 A 
ATOM      2  C   UNL     1      28.821  25.847  -4.009  1.00  0.00     0.016 A 
ATOM      3  C   UNL     1      28.686  25.248  -2.756  1.00  0.00     0.001 A 
ATOM      4  C   UNL     1      29.815  24.979  -1.985  1.00  0.00     0.001 A 
ATOM      5  C   UNL     1      31.082  25.330  -2.453  1.00  0.00     0.016 A 
ATOM      6  C   UNL     1      31.240  25.956  -3.703  1.00  0.00     0.074 A 
ENDROOT
BRANCH   1   7
ATOM      7  C   UNL     1      30.171  26.717  -5.889  1.00  0.00     0.339 C 
ATOM      8  O   UNL     1      30.317  25.929  -6.865  1.00  0.00    -0.246 OA
BRANCH   7   9
ATOM      9  O   UNL     1      30.025  28.091  -6.107  1.00  0.00    -0.462 OA
BRANCH   9  10
ATOM     10  C   UNL     1      28.780  28.708  -6.431  1.00  0.00     0.236 C 
BRANCH  10  11
ATOM     11  C   UNL     1      28.497  29.910  -5.509  1.00  0.00     0.021 C 
ATOM     12  C   UNL     1      29.208  29.728  -4.163  1.00  0.00     0.011 C 
ATOM     13  C   UNL     1      28.932  31.225  -6.168  1.00  0.00     0.011 C 
ENDBRANCH  10  11
ENDBRANCH   9  10
ENDBRANCH   7   9
ENDBRANCH   1   7
BRANCH   6  14
ATOM     14  C   UNL     1      32.598  26.405  -4.087  1.00  0.00     0.339 C 
ATOM     15  O   UNL     1      33.502  25.561  -4.340  1.00  0.00    -0.246 OA
BRANCH  14  16
ATOM     16  O   UNL     1      32.858  27.773  -4.220  1.00  0.00    -0.462 OA
BRANCH  16  17
ATOM     17  C   UNL     1      32.607  28.710  -3.178  1.00  0.00     0.236 C 
BRANCH  17  18
ATOM     18  C   UNL     1      33.935  29.206  -2.587  1.00  0.00     0.021 C 
ATOM     19  C   UNL     1      34.410  28.290  -1.453  1.00  0.00     0.011 C 
ATOM     20  C   UNL     1      35.006  29.299  -3.681  1.00  0.00     0.011 C 
ENDBRANCH  17  18
ENDBRANCH  16  17
ENDBRANCH  14  16
ENDBRANCH   6  14
TORSDOF 8
ENDMDL
MODEL 7
REMARK VINA RESULT:    -4.963      1.873      5.294
REMARK INTER + INTRA:          -8.682
REMARK INTER:                  -7.627
REMARK INTRA:                  -1.055
REMARK UNBOUND:                -1.398
REMARK SMILES CC(C)COC(=O)c1ccccc1C(=O)OCC(C)C
REMARK SMILES IDX 8 1 9 2 10 3 11 4 12 5 13 6 6 7 7 8 5 9 4 10 2 11 1 12 3 13
REMARK SMILES IDX 14 14 15 15 16 16 17 17 18 18 19 19 20 20
REMARK H PARENT
REMARK Flexibility Score: inf
ROOT
ATOM      1  C   UNL     1      31.106  25.831  -3.405  1.00  0.00     0.074 A 
ATOM      2  C   UNL     1      30.893  25.205  -2.164  1.00  0.00     0.016 A 
ATOM      3  C   UNL     1      29.601  24.926  -1.719  1.00  0.00     0.001 A 
ATOM      4  C   UNL     1      28.502  25.267  -2.505  1.00  0.00     0.001 A 
ATOM      5  C   UNL     1      28.692  25.868  -3.750  1.00  0.00     0.016 A 
ATOM      6  C   UNL     1      29.988  26.137  -4.230  1.00  0.00     0.074 A 
ENDROOT
BRANCH   1   7
ATOM      7  C   UNL     1      32.493  26.197  -3.766  1.00  0.00     0.339 C 
ATOM      8  O   UNL     1      33.241  25.361  -4.345  1.00  0.00    -0.246 OA
BRANCH   7   9
ATOM      9  O   UNL     1      32.950  27.496  -3.514  1.00  0.00    -0.462 OA
BRANCH   9  10
ATOM     10  C   UNL     1      34.331  27.858  -3.513  1.00  0.00     0.236 C 
BRANCH  10  11
ATOM     11  C   UNL     1      34.702  28.633  -2.235  1.00  0.00     0.021 C 
ATOM     12  C   UNL     1      34.123  30.052  -2.285  1.00  0.00     0.011 C 
ATOM     13  C   UNL     1      34.210  27.900  -0.981  1.00  0.00     0.011 C 
ENDBRANCH  10  11
ENDBRANCH   9  10
ENDBRANCH   7   9
ENDBRANCH   1   7
BRANCH   6  14
ATOM     14  C   UNL     1      30.121  26.668  -5.605  1.00  0.00     0.339 C 
ATOM     15  O   UNL     1      30.242  25.881  -6.585  1.00  0.00    -0.246 OA
BRANCH  14  16
ATOM     16  O   UNL     1      30.056  28.049  -5.819  1.00  0.00    -0.462 OA
BRANCH  16  17
ATOM     17  C   UNL     1      28.868  28.708  -6.247  1.00  0.00     0.236 C 
BRANCH  17  18
ATOM     18  C   UNL     1      28.614  29.948  -5.378  1.00  0.00     0.021 C 
ATOM     19  C   UNL     1      29.390  29.865  -4.058  1.00  0.00     0.011 C 
ATOM     20  C   UNL     1      28.995  31.223  -6.140  1.00  0.00     0.011 C 
ENDBRANCH  17  18
ENDBRANCH  16  17
ENDBRANCH  14  16
ENDBRANCH   6  14
TORSDOF 8
ENDMDL
MODEL 8
REMARK VINA RESULT:    -4.863      2.222      3.149
REMARK INTER + INTRA:          -8.535
REMARK INTER:                  -7.301
REMARK INTRA:                  -1.234
REMARK UNBOUND:                -1.398
REMARK SMILES CC(C)COC(=O)c1ccccc1C(=O)OCC(C)C
REMARK SMILES IDX 8 1 9 2 10 3 11 4 12 5 13 6 6 7 7 8 5 9 4 10 2 11 1 12 3 13
REMARK SMILES IDX 14 14 15 15 16 16 17 17 18 18 19 19 20 20
REMARK H PARENT
REMARK Flexibility Score: inf
ROOT
ATOM      1  C   UNL     1      33.220  28.319  -3.056  1.00  0.00     0.074 A 
ATOM      2  C   UNL     1      33.836  29.545  -2.746  1.00  0.00     0.016 A 
ATOM      3  C   UNL     1      34.582  29.693  -1.576  1.00  0.00     0.001 A 
ATOM      4  C   UNL     1      34.725  28.619  -0.699  1.00  0.00     0.001 A 
ATOM      5  C   UNL     1      34.143  27.388  -0.999  1.00  0.00     0.016 A 
ATOM      6  C   UNL     1      33.405  27.209  -2.185  1.00  0.00     0.074 A 
ENDROOT
BRANCH   1   7
ATOM      7  C   UNL     1      32.354  28.263  -4.254  1.00  0.00     0.339 C 
ATOM      8  O   UNL     1      32.763  27.701  -5.308  1.00  0.00    -0.246 OA
BRANCH   7   9
ATOM      9  O   UNL     1      31.057  28.785  -4.190  1.00  0.00    -0.462 OA
BRANCH   9  10
ATOM     10  C   UNL     1      29.885  27.973  -4.123  1.00  0.00     0.236 C 
BRANCH  10  11
ATOM     11  C   UNL     1      29.052  28.089  -5.413  1.00  0.00     0.021 C 
ATOM     12  C   UNL     1      29.191  29.494  -6.012  1.00  0.00     0.011 C 
ATOM     13  C   UNL     1      29.473  27.029  -6.438  1.00  0.00     0.011 C 
ENDBRANCH  10  11
ENDBRANCH   9  10
ENDBRANCH   7   9
ENDBRANCH   1   7
BRANCH   6  14
ATOM     14  C   UNL     1      32.913  25.848  -2.496  1.00  0.00     0.339 C 
ATOM     15  O   UNL     1      33.679  24.998  -3.029  1.00  0.00    -0.246 OA
BRANCH  14  16
ATOM     16  O   UNL     1      31.606  25.492  -2.147  1.00  0.00    -0.462 OA
BRANCH  16  17
ATOM     17  C   UNL     1      31.019  24.251  -2.523  1.00  0.00     0.236 C 
BRANCH  17  18
ATOM     18  C   UNL     1      30.266  24.408  -3.853  1.00  0.00     0.021 C 
ATOM     19  C   UNL     1      30.703  23.340  -4.863  1.00  0.00     0.011 C 
ATOM     20  C   UNL     1      28.752  24.337  -3.623  1.00  0.00     0.011 C 
ENDBRANCH  17  18
ENDBRANCH  16  17
ENDBRANCH  14  16
ENDBRANCH   6  14
TORSDOF 8
ENDMDL
MODEL 9
REMARK VINA RESULT:    -4.799      1.169      5.274
REMARK INTER + INTRA:          -8.442
REMARK INTER:                  -7.415
REMARK INTRA:                  -1.027
REMARK UNBOUND:                -1.398
REMARK SMILES CC(C)COC(=O)c1ccccc1C(=O)OCC(C)C
REMARK SMILES IDX 8 1 9 2 10 3 11 4 12 5 13 6 6 7 7 8 5 9 4 10 2 11 1 12 3 13
REMARK SMILES IDX 14 14 15 15 16 16 17 17 18 18 19 19 20 20
REMARK H PARENT
REMARK Flexibility Score: inf
ROOT
ATOM      1  C   UNL     1      31.757  26.184  -3.898  1.00  0.00     0.074 A 
ATOM      2  C   UNL     1      32.861  26.440  -3.064  1.00  0.00     0.016 A 
ATOM      3  C   UNL     1      33.748  27.477  -3.353  1.00  0.00     0.001 A 
ATOM      4  C   UNL     1      33.547  28.276  -4.477  1.00  0.00     0.001 A 
ATOM      5  C   UNL     1      32.445  28.055  -5.304  1.00  0.00     0.016 A 
ATOM      6  C   UNL     1      31.525  27.029  -5.019  1.00  0.00     0.074 A 
ENDROOT
BRANCH   1   7
ATOM      7  C   UNL     1      30.921  25.002  -3.596  1.00  0.00     0.339 C 
ATOM      8  O   UNL     1      31.013  23.961  -4.304  1.00  0.00    -0.246 OA
BRANCH   7   9
ATOM      9  O   UNL     1      30.070  25.027  -2.485  1.00  0.00    -0.462 OA
BRANCH   9  10
ATOM     10  C   UNL     1      29.662  23.855  -1.780  1.00  0.00     0.236 C 
BRANCH  10  11
ATOM     11  C   UNL     1      28.137  23.660  -1.858  1.00  0.00     0.021 C 
ATOM     12  C   UNL     1      27.437  25.010  -2.060  1.00  0.00     0.011 C 
ATOM     13  C   UNL     1      27.760  22.691  -2.986  1.00  0.00     0.011 C 
ENDBRANCH  10  11
ENDBRANCH   9  10
ENDBRANCH   7   9
ENDBRANCH   1   7
BRANCH   6  14
ATOM     14  C   UNL     1      30.318  26.924  -5.871  1.00  0.00     0.339 C 
ATOM     15  O   UNL     1      30.308  26.156  -6.873  1.00  0.00    -0.246 OA
BRANCH  14  16
ATOM     16  O   UNL     1      29.168  27.641  -5.526  1.00  0.00    -0.462 OA
BRANCH  16  17
ATOM     17  C   UNL     1      28.663  28.714  -6.315  1.00  0.00     0.236 C 
BRANCH  17  18
ATOM     18  C   UNL     1      28.540  29.983  -5.458  1.00  0.00     0.021 C 
ATOM     19  C   UNL     1      29.316  29.838  -4.143  1.00  0.00     0.011 C 
ATOM     20  C   UNL     1      29.038  31.206  -6.238  1.00  0.00     0.011 C 
ENDBRANCH  17  18
ENDBRANCH  16  17
ENDBRANCH  14  16
ENDBRANCH   6  14
TORSDOF 8
ENDMDL
