MODEL 1
REMARK VINA RESULT:    -5.555      0.000      0.000
REMARK INTER + INTRA:          -5.530
REMARK INTER:                  -5.880
REMARK INTRA:                   0.350
REMARK UNBOUND:                 0.350
REMARK SMILES OC[C@@H]1O[C@@H](O[C@H]2[C@H](O)[C@@H](O)[C@@H](O[C@@H]3[C@@H](O)[C@H](O)[C@H](O)O[C@@H]3CO)O[C@H]2CO)[C@H](O)[C@@H](O)[C@H]1O
REMARK SMILES IDX 7 1 26 2 25 3 12 4 10 5 8 6 6 7 5 8 3 9 33 10 4 11 31 12
REMARK SMILES IDX 29 13 2 14 1 15 34 17 32 19 30 21 27 23 28 24 9 26 11 28
REMARK SMILES IDX 13 30 14 31 22 32 15 33 21 34 17 35 19 36 23 37 24 38 16 40
REMARK SMILES IDX 18 42 20 44
REMARK H PARENT 1 16 34 18 32 20 30 22 28 25 9 27 11 29 24 39 16 41 18 43
REMARK H PARENT 20 45
REMARK Flexibility Score: inf
ROOT
ATOM      1  C   UNL     1      39.369  -1.812  45.696  1.00  0.00     0.184 C 
ATOM      2  C   UNL     1      37.869  -2.005  44.644  1.00  0.00     0.178 C 
ATOM      3  O   UNL     1      37.860   0.256  43.781  1.00  0.00    -0.341 OA
ATOM      4  C   UNL     1      38.360   2.698  43.605  1.00  0.00     0.282 C 
ATOM      5  C   UNL     1      39.077   2.035  45.409  1.00  0.00     0.202 C 
ATOM      6  C   UNL     1      39.029   0.263  46.556  1.00  0.00     0.180 C 
ENDROOT
BRANCH   1   7
ATOM      7  O   UNL     1      39.228  -1.420  43.678  1.00  0.00    -0.341 OA
BRANCH   7   8
ATOM      8  C   UNL     1      39.848  -0.599  41.718  1.00  0.00     0.282 C 
ATOM      9  C   UNL     1      39.442   0.190  38.552  1.00  0.00     0.178 C 
ATOM     10  C   UNL     1      40.072  -1.507  37.182  1.00  0.00     0.177 C 
ATOM     11  O   UNL     1      40.096   0.247  40.246  1.00  0.00    -0.341 OA
ATOM     12  C   UNL     1      40.125  -2.762  38.310  1.00  0.00     0.179 C 
ATOM     13  C   UNL     1      39.085  -2.476  40.295  1.00  0.00     0.202 C 
BRANCH   9  14
ATOM     14  C   UNL     1      39.019   0.835  36.427  1.00  0.00     0.191 C 
BRANCH  14  15
ATOM     15  O   UNL     1      37.396   0.611  35.684  1.00  0.00    -0.394 OA
ATOM     16  H   UNL     1      37.857  -0.525  35.420  1.00  0.00     0.210 HD
ENDBRANCH  14  15
ENDBRANCH   9  14
BRANCH  10  17
ATOM     17  O   UNL     1      39.510  -2.613  36.026  1.00  0.00    -0.387 OA
ATOM     18  H   UNL     1      38.204  -3.312  35.984  1.00  0.00     0.211 HD
ENDBRANCH  10  17
BRANCH  12  19
ATOM     19  O   UNL     1      39.386  -4.125  37.986  1.00  0.00    -0.387 OA
ATOM     20  H   UNL     1      39.845  -5.048  38.419  1.00  0.00     0.211 HD
ENDBRANCH  12  19
BRANCH  13  21
ATOM     21  O   UNL     1      38.813  -3.933  40.818  1.00  0.00    -0.385 OA
ATOM     22  H   UNL     1      38.280  -4.330  40.075  1.00  0.00     0.211 HD
ENDBRANCH  13  21
ENDBRANCH   7   8
ENDBRANCH   1   7
BRANCH   2  23
ATOM     23  C   UNL     1      37.647  -3.980  43.225  1.00  0.00     0.191 C 
BRANCH  23  24
ATOM     24  O   UNL     1      39.039  -4.040  43.869  1.00  0.00    -0.394 OA
ATOM     25  H   UNL     1      38.954  -4.289  42.691  1.00  0.00     0.210 HD
ENDBRANCH  23  24
ENDBRANCH   2  23
BRANCH   6  26
ATOM     26  O   UNL     1      38.446  -0.167  47.983  1.00  0.00    -0.387 OA
ATOM     27  H   UNL     1      39.266  -0.603  48.528  1.00  0.00     0.211 HD
ENDBRANCH   6  26
BRANCH   5  28
ATOM     28  O   UNL     1      40.114   3.018  45.767  1.00  0.00    -0.385 OA
ATOM     29  H   UNL     1      40.960   2.445  45.766  1.00  0.00     0.211 HD
ENDBRANCH   5  28
BRANCH   4  30
ATOM     30  O   UNL     1      39.082   5.138  42.518  1.00  0.00    -0.341 OA
BRANCH  30  31
ATOM     31  C   UNL     1      39.884   7.647  42.434  1.00  0.00     0.184 C 
ATOM     32  C   UNL     1      37.985   8.980  43.545  1.00  0.00     0.178 C 
ATOM     33  C   UNL     1      39.140   5.918  43.921  1.00  0.00     0.180 C 
ATOM     34  O   UNL     1      36.326   8.338  43.534  1.00  0.00    -0.342 OA
ATOM     35  C   UNL     1      36.369   5.910  44.365  1.00  0.00     0.201 C 
ATOM     36  C   UNL     1      36.862   7.699  45.239  1.00  0.00     0.279 C 
BRANCH  32  37
ATOM     37  C   UNL     1      37.171  10.980  42.617  1.00  0.00     0.191 C 
BRANCH  37  38
ATOM     38  O   UNL     1      38.580  12.196  43.662  1.00  0.00    -0.394 OA
ATOM     39  H   UNL     1      38.979  12.797  42.953  1.00  0.00     0.210 HD
ENDBRANCH  37  38
ENDBRANCH  32  37
BRANCH  33  40
ATOM     40  O   UNL     1      40.011   6.827  44.932  1.00  0.00    -0.387 OA
ATOM     41  H   UNL     1      40.962   6.895  44.526  1.00  0.00     0.211 HD
ENDBRANCH  33  40
BRANCH  35  42
ATOM     42  O   UNL     1      34.243   5.939  43.811  1.00  0.00    -0.385 OA
ATOM     43  H   UNL     1      32.699   5.997  43.145  1.00  0.00     0.211 HD
ENDBRANCH  35  42
BRANCH  36  44
ATOM     44  O   UNL     1      36.775   8.934  46.360  1.00  0.00    -0.366 OA
ATOM     45  H   UNL     1      35.958   9.530  45.850  1.00  0.00     0.213 HD
ENDBRANCH  36  44
ENDBRANCH  30  31
ENDBRANCH   4  30
TORSDOF 18
ENDMDL
MODEL 2
REMARK VINA RESULT:    -5.350      1.669      2.728
REMARK INTER + INTRA:          -5.312
REMARK INTER:                  -4.405
REMARK INTRA:                  -0.907
REMARK UNBOUND:                 0.350
REMARK SMILES OC[C@@H]1O[C@@H](O[C@H]2[C@H](O)[C@@H](O)[C@@H](O[C@@H]3[C@@H](O)[C@H](O)[C@H](O)O[C@@H]3CO)O[C@H]2CO)[C@H](O)[C@@H](O)[C@H]1O
REMARK SMILES IDX 7 1 26 2 25 3 12 4 10 5 8 6 6 7 5 8 3 9 33 10 4 11 31 12
REMARK SMILES IDX 29 13 2 14 1 15 34 17 32 19 30 21 27 23 28 24 9 26 11 28
REMARK SMILES IDX 13 30 14 31 22 32 15 33 21 34 17 35 19 36 23 37 24 38 16 40
REMARK SMILES IDX 18 42 20 44
REMARK H PARENT 1 16 34 18 32 20 30 22 28 25 9 27 11 29 24 39 16 41 18 43
REMARK H PARENT 20 45
REMARK Flexibility Score: inf
ROOT
ATOM      1  C   UNL     1      39.033  -1.715  47.055  1.00  0.00     0.184 C 
ATOM      2  C   UNL     1      37.251  -1.954  46.652  1.00  0.00     0.178 C 
ATOM      3  O   UNL     1      36.949   0.168  45.528  1.00  0.00    -0.341 OA
ATOM      4  C   UNL     1      37.372   2.529  44.828  1.00  0.00     0.282 C 
ATOM      5  C   UNL     1      38.690   2.070  46.331  1.00  0.00     0.202 C 
ATOM      6  C   UNL     1      39.047   0.474  47.665  1.00  0.00     0.180 C 
ENDROOT
BRANCH   1   7
ATOM      7  O   UNL     1      38.170  -1.587  45.187  1.00  0.00    -0.341 OA
BRANCH   7   8
ATOM      8  C   UNL     1      37.961  -1.957  43.015  1.00  0.00     0.282 C 
ATOM      9  C   UNL     1      39.049  -2.335  39.936  1.00  0.00     0.178 C 
ATOM     10  C   UNL     1      39.099  -0.359  38.820  1.00  0.00     0.177 C 
ATOM     11  O   UNL     1      37.970  -2.502  41.389  1.00  0.00    -0.341 OA
ATOM     12  C   UNL     1      38.963   0.697  40.130  1.00  0.00     0.179 C 
ATOM     13  C   UNL     1      39.378  -0.096  42.205  1.00  0.00     0.202 C 
BRANCH   9  14
ATOM     14  C   UNL     1      39.902  -2.733  37.881  1.00  0.00     0.191 C 
BRANCH  14  15
ATOM     15  O   UNL     1      38.877  -2.635  36.405  1.00  0.00    -0.394 OA
ATOM     16  H   UNL     1      38.023  -2.227  37.227  1.00  0.00     0.210 HD
ENDBRANCH  14  15
ENDBRANCH   9  14
BRANCH  10  17
ATOM     17  O   UNL     1      40.125   0.761  38.065  1.00  0.00    -0.387 OA
ATOM     18  H   UNL     1      41.519   1.116  38.424  1.00  0.00     0.211 HD
ENDBRANCH  10  17
BRANCH  12  19
ATOM     19  O   UNL     1      39.980   1.904  40.260  1.00  0.00    -0.387 OA
ATOM     20  H   UNL     1      40.607   2.117  39.359  1.00  0.00     0.211 HD
ENDBRANCH  12  19
BRANCH  13  21
ATOM     21  O   UNL     1      39.744   1.176  43.054  1.00  0.00    -0.385 OA
ATOM     22  H   UNL     1      40.090   0.776  43.899  1.00  0.00     0.211 HD
ENDBRANCH  13  21
ENDBRANCH   7   8
ENDBRANCH   1   7
BRANCH   2  23
ATOM     23  C   UNL     1      36.511  -4.083  45.713  1.00  0.00     0.191 C 
BRANCH  23  24
ATOM     24  O   UNL     1      35.448  -3.643  46.729  1.00  0.00    -0.394 OA
ATOM     25  H   UNL     1      36.361  -2.885  46.508  1.00  0.00     0.210 HD
ENDBRANCH  23  24
ENDBRANCH   2  23
BRANCH   6  26
ATOM     26  O   UNL     1      39.020   0.275  49.253  1.00  0.00    -0.387 OA
ATOM     27  H   UNL     1      38.458   1.101  49.654  1.00  0.00     0.211 HD
ENDBRANCH   6  26
BRANCH   5  28
ATOM     28  O   UNL     1      39.795   3.027  46.145  1.00  0.00    -0.385 OA
ATOM     29  H   UNL     1      39.924   3.007  45.132  1.00  0.00     0.211 HD
ENDBRANCH   5  28
BRANCH   4  30
ATOM     30  O   UNL     1      37.670   4.754  43.209  1.00  0.00    -0.341 OA
BRANCH  30  31
ATOM     31  C   UNL     1      38.887   6.670  41.871  1.00  0.00     0.184 C 
ATOM     32  C   UNL     1      38.250   8.837  43.104  1.00  0.00     0.178 C 
ATOM     33  C   UNL     1      38.646   5.707  44.055  1.00  0.00     0.180 C 
ATOM     34  O   UNL     1      36.738   8.914  44.038  1.00  0.00    -0.342 OA
ATOM     35  C   UNL     1      36.622   6.884  45.604  1.00  0.00     0.201 C 
ATOM     36  C   UNL     1      37.919   8.466  45.454  1.00  0.00     0.279 C 
BRANCH  32  37
ATOM     37  C   UNL     1      37.582  10.769  41.945  1.00  0.00     0.191 C 
BRANCH  37  38
ATOM     38  O   UNL     1      38.279  12.089  43.471  1.00  0.00    -0.394 OA
ATOM     39  H   UNL     1      38.004  13.011  43.160  1.00  0.00     0.210 HD
ENDBRANCH  37  38
ENDBRANCH  32  37
BRANCH  33  40
ATOM     40  O   UNL     1      40.109   6.379  44.184  1.00  0.00    -0.387 OA
ATOM     41  H   UNL     1      39.984   7.266  44.705  1.00  0.00     0.211 HD
ENDBRANCH  33  40
BRANCH  35  42
ATOM     42  O   UNL     1      34.606   7.640  46.039  1.00  0.00    -0.385 OA
ATOM     43  H   UNL     1      32.989   7.973  46.361  1.00  0.00     0.211 HD
ENDBRANCH  35  42
BRANCH  36  44
ATOM     44  O   UNL     1      38.738   9.830  45.961  1.00  0.00    -0.366 OA
ATOM     45  H   UNL     1      38.879  10.298  44.939  1.00  0.00     0.213 HD
ENDBRANCH  36  44
ENDBRANCH  30  31
ENDBRANCH   4  30
TORSDOF 18
ENDMDL
MODEL 3
REMARK VINA RESULT:    -3.318      4.283      6.380
REMARK INTER + INTRA:          -3.162
REMARK INTER:                  -2.564
REMARK INTRA:                  -0.598
REMARK UNBOUND:                 0.350
REMARK SMILES OC[C@@H]1O[C@@H](O[C@H]2[C@H](O)[C@@H](O)[C@@H](O[C@@H]3[C@@H](O)[C@H](O)[C@H](O)O[C@@H]3CO)O[C@H]2CO)[C@H](O)[C@@H](O)[C@H]1O
REMARK SMILES IDX 7 1 26 2 25 3 12 4 10 5 8 6 6 7 5 8 3 9 33 10 4 11 31 12
REMARK SMILES IDX 29 13 2 14 1 15 34 17 32 19 30 21 27 23 28 24 9 26 11 28
REMARK SMILES IDX 13 30 14 31 22 32 15 33 21 34 17 35 19 36 23 37 24 38 16 40
REMARK SMILES IDX 18 42 20 44
REMARK H PARENT 1 16 34 18 32 20 30 22 28 25 9 27 11 29 24 39 16 41 18 43
REMARK H PARENT 20 45
REMARK Flexibility Score: inf
ROOT
ATOM      1  C   UNL     1      30.471   2.407  44.241  1.00  0.00     0.184 C 
ATOM      2  C   UNL     1      31.601   0.971  44.003  1.00  0.00     0.178 C 
ATOM      3  O   UNL     1      33.474   2.247  43.157  1.00  0.00    -0.341 OA
ATOM      4  C   UNL     1      34.752   4.140  42.144  1.00  0.00     0.282 C 
ATOM      5  C   UNL     1      32.754   4.575  41.991  1.00  0.00     0.202 C 
ATOM      6  C   UNL     1      30.911   3.616  42.368  1.00  0.00     0.180 C 
ENDROOT
BRANCH   1   7
ATOM      7  O   UNL     1      32.369   2.198  45.017  1.00  0.00    -0.341 OA
BRANCH   7   8
ATOM      8  C   UNL     1      34.477   2.747  45.411  1.00  0.00     0.282 C 
ATOM      9  C   UNL     1      37.638   3.193  44.627  1.00  0.00     0.178 C 
ATOM     10  C   UNL     1      38.860   1.314  44.986  1.00  0.00     0.177 C 
ATOM     11  O   UNL     1      36.060   3.402  45.503  1.00  0.00    -0.341 OA
ATOM     12  C   UNL     1      37.603   0.195  45.127  1.00  0.00     0.179 C 
ATOM     13  C   UNL     1      35.552   0.773  44.375  1.00  0.00     0.202 C 
BRANCH   9  14
ATOM     14  C   UNL     1      39.755   3.617  43.959  1.00  0.00     0.191 C 
BRANCH  14  15
ATOM     15  O   UNL     1      40.125   4.100  42.265  1.00  0.00    -0.394 OA
ATOM     16  H   UNL     1      39.102   4.808  42.419  1.00  0.00     0.210 HD
ENDBRANCH  14  15
ENDBRANCH   9  14
BRANCH  10  17
ATOM     17  O   UNL     1      39.793   0.121  44.223  1.00  0.00    -0.387 OA
ATOM     18  H   UNL     1      40.107  -0.014  42.780  1.00  0.00     0.211 HD
ENDBRANCH  10  17
BRANCH  12  19
ATOM     19  O   UNL     1      37.663  -1.145  44.286  1.00  0.00    -0.387 OA
ATOM     20  H   UNL     1      36.686  -1.660  44.110  1.00  0.00     0.211 HD
ENDBRANCH  12  19
BRANCH  13  21
ATOM     21  O   UNL     1      34.825  -0.595  44.104  1.00  0.00    -0.385 OA
ATOM     22  H   UNL     1      34.964  -0.719  43.125  1.00  0.00     0.211 HD
ENDBRANCH  13  21
ENDBRANCH   7   8
ENDBRANCH   1   7
BRANCH   2  23
ATOM     23  C   UNL     1      31.808  -0.695  45.776  1.00  0.00     0.191 C 
BRANCH  23  24
ATOM     24  O   UNL     1      32.270  -1.362  44.474  1.00  0.00    -0.394 OA
ATOM     25  H   UNL     1      31.390  -1.902  45.099  1.00  0.00     0.210 HD
ENDBRANCH  23  24
ENDBRANCH   2  23
BRANCH   6  26
ATOM     26  O   UNL     1      29.656   3.153  41.489  1.00  0.00    -0.387 OA
ATOM     27  H   UNL     1      28.883   3.884  41.655  1.00  0.00     0.211 HD
ENDBRANCH   6  26
BRANCH   5  28
ATOM     28  O   UNL     1      32.714   6.042  41.863  1.00  0.00    -0.385 OA
ATOM     29  H   UNL     1      33.258   6.195  41.012  1.00  0.00     0.211 HD
ENDBRANCH   5  28
BRANCH   4  30
ATOM     30  O   UNL     1      36.727   6.041  41.761  1.00  0.00    -0.341 OA
BRANCH  30  31
ATOM     31  C   UNL     1      37.821   8.342  41.089  1.00  0.00     0.184 C 
ATOM     32  C   UNL     1      37.798   9.736  43.251  1.00  0.00     0.178 C 
ATOM     33  C   UNL     1      37.998   6.508  42.624  1.00  0.00     0.180 C 
ATOM     34  O   UNL     1      36.584   9.402  44.508  1.00  0.00    -0.342 OA
ATOM     35  C   UNL     1      36.589   6.888  45.022  1.00  0.00     0.201 C 
ATOM     36  C   UNL     1      38.006   8.358  45.208  1.00  0.00     0.279 C 
BRANCH  32  37
ATOM     37  C   UNL     1      37.128  11.988  43.264  1.00  0.00     0.191 C 
BRANCH  37  38
ATOM     38  O   UNL     1      38.410  12.501  44.892  1.00  0.00    -0.394 OA
ATOM     39  H   UNL     1      39.111  11.771  44.909  1.00  0.00     0.210 HD
ENDBRANCH  37  38
ENDBRANCH  32  37
BRANCH  33  40
ATOM     40  O   UNL     1      39.523   7.037  42.615  1.00  0.00    -0.387 OA
ATOM     41  H   UNL     1      39.479   8.068  42.521  1.00  0.00     0.211 HD
ENDBRANCH  33  40
BRANCH  35  42
ATOM     42  O   UNL     1      34.859   7.389  46.279  1.00  0.00    -0.385 OA
ATOM     43  H   UNL     1      33.696   7.752  47.440  1.00  0.00     0.211 HD
ENDBRANCH  35  42
BRANCH  36  44
ATOM     44  O   UNL     1      39.098   9.344  45.998  1.00  0.00    -0.366 OA
ATOM     45  H   UNL     1      38.342   9.944  46.592  1.00  0.00     0.213 HD
ENDBRANCH  36  44
ENDBRANCH  30  31
ENDBRANCH   4  30
TORSDOF 18
ENDMDL
MODEL 4
REMARK VINA RESULT:    -2.769      4.753      7.158
REMARK INTER + INTRA:          -2.580
REMARK INTER:                  -3.445
REMARK INTRA:                   0.864
REMARK UNBOUND:                 0.350
REMARK SMILES OC[C@@H]1O[C@@H](O[C@H]2[C@H](O)[C@@H](O)[C@@H](O[C@@H]3[C@@H](O)[C@H](O)[C@H](O)O[C@@H]3CO)O[C@H]2CO)[C@H](O)[C@@H](O)[C@H]1O
REMARK SMILES IDX 7 1 26 2 25 3 12 4 10 5 8 6 6 7 5 8 3 9 33 10 4 11 31 12
REMARK SMILES IDX 29 13 2 14 1 15 34 17 32 19 30 21 27 23 28 24 9 26 11 28
REMARK SMILES IDX 13 30 14 31 22 32 15 33 21 34 17 35 19 36 23 37 24 38 16 40
REMARK SMILES IDX 18 42 20 44
REMARK H PARENT 1 16 34 18 32 20 30 22 28 25 9 27 11 29 24 39 16 41 18 43
REMARK H PARENT 20 45
REMARK Flexibility Score: inf
ROOT
ATOM      1  C   UNL     1      30.641   2.200  44.295  1.00  0.00     0.184 C 
ATOM      2  C   UNL     1      31.697   0.765  43.823  1.00  0.00     0.178 C 
ATOM      3  O   UNL     1      33.559   2.068  42.994  1.00  0.00    -0.341 OA
ATOM      4  C   UNL     1      34.840   4.023  42.109  1.00  0.00     0.282 C 
ATOM      5  C   UNL     1      32.854   4.534  42.145  1.00  0.00     0.202 C 
ATOM      6  C   UNL     1      31.005   3.597  42.540  1.00  0.00     0.180 C 
ENDROOT
BRANCH   1   7
ATOM      7  O   UNL     1      32.577   1.845  44.910  1.00  0.00    -0.341 OA
BRANCH   7   8
ATOM      8  C   UNL     1      34.633   1.035  44.788  1.00  0.00     0.282 C 
ATOM      9  C   UNL     1      37.684   0.470  45.873  1.00  0.00     0.178 C 
ATOM     10  C   UNL     1      39.114   2.115  45.238  1.00  0.00     0.177 C 
ATOM     11  O   UNL     1      36.141   0.233  44.943  1.00  0.00    -0.341 OA
ATOM     12  C   UNL     1      37.990   3.292  44.787  1.00  0.00     0.179 C 
ATOM     13  C   UNL     1      35.854   3.072  45.487  1.00  0.00     0.202 C 
BRANCH   9  14
ATOM     14  C   UNL     1      39.707  -0.002  46.764  1.00  0.00     0.191 C 
BRANCH  14  15
ATOM     15  O   UNL     1      39.929  -0.187  48.540  1.00  0.00    -0.394 OA
ATOM     16  H   UNL     1      39.077   0.732  48.576  1.00  0.00     0.210 HD
ENDBRANCH  14  15
ENDBRANCH   9  14
BRANCH  10  17
ATOM     17  O   UNL     1      40.125   3.347  45.816  1.00  0.00    -0.387 OA
ATOM     18  H   UNL     1      41.342   3.219  46.653  1.00  0.00     0.211 HD
ENDBRANCH  10  17
BRANCH  12  19
ATOM     19  O   UNL     1      38.147   4.765  45.348  1.00  0.00    -0.387 OA
ATOM     20  H   UNL     1      37.502   5.028  46.223  1.00  0.00     0.211 HD
ENDBRANCH  12  19
BRANCH  13  21
ATOM     21  O   UNL     1      35.261   4.527  45.428  1.00  0.00    -0.385 OA
ATOM     22  H   UNL     1      34.372   4.412  45.864  1.00  0.00     0.211 HD
ENDBRANCH  13  21
ENDBRANCH   7   8
ENDBRANCH   1   7
BRANCH   2  23
ATOM     23  C   UNL     1      31.955  -1.095  45.383  1.00  0.00     0.191 C 
BRANCH  23  24
ATOM     24  O   UNL     1      32.970  -1.310  44.253  1.00  0.00    -0.394 OA
ATOM     25  H   UNL     1      31.849  -1.726  44.086  1.00  0.00     0.210 HD
ENDBRANCH  23  24
ENDBRANCH   2  23
BRANCH   6  26
ATOM     26  O   UNL     1      29.677   3.276  41.706  1.00  0.00    -0.387 OA
ATOM     27  H   UNL     1      29.973   3.222  40.672  1.00  0.00     0.211 HD
ENDBRANCH   6  26
BRANCH   5  28
ATOM     28  O   UNL     1      32.863   6.007  42.182  1.00  0.00    -0.385 OA
ATOM     29  H   UNL     1      31.911   6.232  41.887  1.00  0.00     0.211 HD
ENDBRANCH   5  28
BRANCH   4  30
ATOM     30  O   UNL     1      36.858   5.892  41.802  1.00  0.00    -0.341 OA
BRANCH  30  31
ATOM     31  C   UNL     1      38.215   7.887  40.742  1.00  0.00     0.184 C 
ATOM     32  C   UNL     1      38.203   9.721  42.547  1.00  0.00     0.178 C 
ATOM     33  C   UNL     1      38.116   6.428  42.643  1.00  0.00     0.180 C 
ATOM     34  O   UNL     1      36.890   9.776  43.746  1.00  0.00    -0.342 OA
ATOM     35  C   UNL     1      36.613   7.445  44.785  1.00  0.00     0.201 C 
ATOM     36  C   UNL     1      38.157   8.795  44.764  1.00  0.00     0.279 C 
BRANCH  32  37
ATOM     37  C   UNL     1      37.762  11.968  42.024  1.00  0.00     0.191 C 
BRANCH  37  38
ATOM     38  O   UNL     1      38.226  12.657  43.991  1.00  0.00    -0.394 OA
ATOM     39  H   UNL     1      37.363  13.059  44.335  1.00  0.00     0.210 HD
ENDBRANCH  37  38
ENDBRANCH  32  37
BRANCH  33  40
ATOM     40  O   UNL     1      39.684   6.812  42.642  1.00  0.00    -0.387 OA
ATOM     41  H   UNL     1      39.738   7.845  42.695  1.00  0.00     0.211 HD
ENDBRANCH  33  40
BRANCH  35  42
ATOM     42  O   UNL     1      34.870   8.356  45.764  1.00  0.00    -0.385 OA
ATOM     43  H   UNL     1      33.505   9.184  46.295  1.00  0.00     0.211 HD
ENDBRANCH  35  42
BRANCH  36  44
ATOM     44  O   UNL     1      39.293   9.835  45.409  1.00  0.00    -0.366 OA
ATOM     45  H   UNL     1      40.175   9.480  44.793  1.00  0.00     0.213 HD
ENDBRANCH  36  44
ENDBRANCH  30  31
ENDBRANCH   4  30
TORSDOF 18
ENDMDL
MODEL 5
REMARK VINA RESULT:    -2.713      4.548     10.435
REMARK INTER + INTRA:          -2.521
REMARK INTER:                  -3.062
REMARK INTRA:                   0.541
REMARK UNBOUND:                 0.350
REMARK SMILES OC[C@@H]1O[C@@H](O[C@H]2[C@H](O)[C@@H](O)[C@@H](O[C@@H]3[C@@H](O)[C@H](O)[C@H](O)O[C@@H]3CO)O[C@H]2CO)[C@H](O)[C@@H](O)[C@H]1O
REMARK SMILES IDX 7 1 26 2 25 3 12 4 10 5 8 6 6 7 5 8 3 9 33 10 4 11 31 12
REMARK SMILES IDX 29 13 2 14 1 15 34 17 32 19 30 21 27 23 28 24 9 26 11 28
REMARK SMILES IDX 13 30 14 31 22 32 15 33 21 34 17 35 19 36 23 37 24 38 16 40
REMARK SMILES IDX 18 42 20 44
REMARK H PARENT 1 16 34 18 32 20 30 22 28 25 9 27 11 29 24 39 16 41 18 43
REMARK H PARENT 20 45
REMARK Flexibility Score: inf
ROOT
ATOM      1  C   UNL     1      32.019   3.846  41.048  1.00  0.00     0.184 C 
ATOM      2  C   UNL     1      31.850   5.232  42.250  1.00  0.00     0.178 C 
ATOM      3  O   UNL     1      33.298   4.289  43.944  1.00  0.00    -0.341 OA
ATOM      4  C   UNL     1      34.604   2.588  45.227  1.00  0.00     0.282 C 
ATOM      5  C   UNL     1      33.459   1.594  43.844  1.00  0.00     0.202 C 
ATOM      6  C   UNL     1      31.949   2.054  42.443  1.00  0.00     0.180 C 
ENDROOT
BRANCH   1   7
ATOM      7  O   UNL     1      33.554   4.931  41.892  1.00  0.00    -0.341 OA
BRANCH   7   8
ATOM      8  C   UNL     1      34.486   6.491  43.155  1.00  0.00     0.282 C 
ATOM      9  C   UNL     1      36.750   8.749  43.921  1.00  0.00     0.178 C 
ATOM     10  C   UNL     1      38.461   7.846  45.109  1.00  0.00     0.177 C 
ATOM     11  O   UNL     1      35.147   7.894  43.890  1.00  0.00    -0.341 OA
ATOM     12  C   UNL     1      38.170   6.210  44.804  1.00  0.00     0.179 C 
ATOM     13  C   UNL     1      36.815   5.656  43.083  1.00  0.00     0.202 C 
BRANCH   9  14
ATOM     14  C   UNL     1      38.265  10.385  44.290  1.00  0.00     0.191 C 
BRANCH  14  15
ATOM     15  O   UNL     1      38.232  11.923  43.355  1.00  0.00    -0.394 OA
ATOM     16  H   UNL     1      39.422  11.991  43.742  1.00  0.00     0.210 HD
ENDBRANCH  14  15
ENDBRANCH   9  14
BRANCH  10  17
ATOM     17  O   UNL     1      40.125   7.521  45.082  1.00  0.00    -0.387 OA
ATOM     18  H   UNL     1      41.249   8.486  45.143  1.00  0.00     0.211 HD
ENDBRANCH  10  17
BRANCH  12  19
ATOM     19  O   UNL     1      39.363   5.291  44.315  1.00  0.00    -0.387 OA
ATOM     20  H   UNL     1      39.245   4.194  44.498  1.00  0.00     0.211 HD
ENDBRANCH  12  19
BRANCH  13  21
ATOM     21  O   UNL     1      37.219   4.182  42.714  1.00  0.00    -0.385 OA
ATOM     22  H   UNL     1      36.678   3.646  43.358  1.00  0.00     0.211 HD
ENDBRANCH  13  21
ENDBRANCH   7   8
ENDBRANCH   1   7
BRANCH   2  23
ATOM     23  C   UNL     1      32.039   7.534  41.458  1.00  0.00     0.191 C 
BRANCH  23  24
ATOM     24  O   UNL     1      30.702   6.987  40.941  1.00  0.00    -0.394 OA
ATOM     25  H   UNL     1      31.642   6.231  40.974  1.00  0.00     0.210 HD
ENDBRANCH  23  24
ENDBRANCH   2  23
BRANCH   6  26
ATOM     26  O   UNL     1      30.413   1.654  42.235  1.00  0.00    -0.387 OA
ATOM     27  H   UNL     1      30.060   2.230  41.397  1.00  0.00     0.211 HD
ENDBRANCH   6  26
BRANCH   5  28
ATOM     28  O   UNL     1      34.155   0.309  43.659  1.00  0.00    -0.385 OA
ATOM     29  H   UNL     1      33.816   0.014  42.741  1.00  0.00     0.211 HD
ENDBRANCH   5  28
BRANCH   4  30
ATOM     30  O   UNL     1      36.703   1.383  46.569  1.00  0.00    -0.341 OA
BRANCH  30  31
ATOM     31  C   UNL     1      38.960   1.176  47.914  1.00  0.00     0.184 C 
ATOM     32  C   UNL     1      39.437  -1.351  48.008  1.00  0.00     0.178 C 
ATOM     33  C   UNL     1      37.900   0.598  45.841  1.00  0.00     0.180 C 
ATOM     34  O   UNL     1      38.094  -2.512  47.895  1.00  0.00    -0.342 OA
ATOM     35  C   UNL     1      36.646  -1.913  45.862  1.00  0.00     0.201 C 
ATOM     36  C   UNL     1      38.603  -2.493  46.067  1.00  0.00     0.279 C 
BRANCH  32  37
ATOM     37  C   UNL     1      40.125  -2.406  49.992  1.00  0.00     0.191 C 
BRANCH  37  38
ATOM     38  O   UNL     1      38.331  -1.910  51.037  1.00  0.00    -0.394 OA
ATOM     39  H   UNL     1      38.573  -1.102  51.597  1.00  0.00     0.210 HD
ENDBRANCH  37  38
ENDBRANCH  32  37
BRANCH  33  40
ATOM     40  O   UNL     1      39.451   0.604  45.392  1.00  0.00    -0.387 OA
ATOM     41  H   UNL     1      39.990   0.202  46.181  1.00  0.00     0.211 HD
ENDBRANCH  33  40
BRANCH  35  42
ATOM     42  O   UNL     1      35.338  -3.501  46.633  1.00  0.00    -0.385 OA
ATOM     43  H   UNL     1      34.170  -4.528  47.276  1.00  0.00     0.211 HD
ENDBRANCH  35  42
BRANCH  36  44
ATOM     44  O   UNL     1      39.947  -3.458  45.843  1.00  0.00    -0.366 OA
ATOM     45  H   UNL     1      39.397  -4.401  45.542  1.00  0.00     0.213 HD
ENDBRANCH  36  44
ENDBRANCH  30  31
ENDBRANCH   4  30
TORSDOF 18
ENDMDL
