MODEL 1
REMARK VINA RESULT:    -6.505      0.000      0.000
REMARK INTER + INTRA:         -11.342
REMARK INTER:                  -9.928
REMARK INTRA:                  -1.415
REMARK UNBOUND:                -1.415
REMARK SMILES OC[C@@H]1O[C@H](O[C@@]2(CO)O[C@@H](CO)[C@H](O)[C@@H]2O)[C@H](O)[C@@H](O)[C@H]1O
REMARK SMILES IDX 6 1 5 2 3 3 22 4 4 5 20 6 18 7 2 8 1 9 23 11 21 13 19 15
REMARK SMILES IDX 7 17 16 18 10 19 14 20 11 21 8 22 9 23 17 25 15 27 12 29
REMARK SMILES IDX 13 30
REMARK H PARENT 1 10 23 12 21 14 19 16 9 24 17 26 15 28 13 31
REMARK Flexibility Score: inf
ROOT
ATOM      1  O   UNL     1     159.689 154.784 231.827  1.00  0.00    -0.313 OA
ENDROOT
BRANCH   1   2
ATOM      2  C   UNL     1     159.156 153.471 231.963  1.00  0.00     0.285 C 
ATOM      3  C   UNL     1     161.033 151.990 231.622  1.00  0.00     0.178 C 
ATOM      4  C   UNL     1     160.848 151.277 232.996  1.00  0.00     0.177 C 
ATOM      5  O   UNL     1     159.851 152.581 231.095  1.00  0.00    -0.341 OA
ATOM      6  C   UNL     1     159.470 151.565 233.623  1.00  0.00     0.179 C 
ATOM      7  C   UNL     1     159.117 153.044 233.458  1.00  0.00     0.202 C 
BRANCH   3   8
ATOM      8  C   UNL     1     162.249 152.937 231.555  1.00  0.00     0.191 C 
BRANCH   8   9
ATOM      9  O   UNL     1     163.463 152.238 231.489  1.00  0.00    -0.394 OA
ATOM     10  H   UNL     1     163.510 151.809 230.596  1.00  0.00     0.210 HD
ENDBRANCH   8   9
ENDBRANCH   3   8
BRANCH   4  11
ATOM     11  O   UNL     1     161.025 149.890 232.845  1.00  0.00    -0.387 OA
ATOM     12  H   UNL     1     161.600 149.758 232.045  1.00  0.00     0.211 HD
ENDBRANCH   4  11
BRANCH   6  13
ATOM     13  O   UNL     1     158.456 150.734 233.105  1.00  0.00    -0.387 OA
ATOM     14  H   UNL     1     158.123 151.128 232.259  1.00  0.00     0.211 HD
ENDBRANCH   6  13
BRANCH   7  15
ATOM     15  O   UNL     1     160.008 153.810 234.231  1.00  0.00    -0.385 OA
ATOM     16  H   UNL     1     159.593 154.702 234.361  1.00  0.00     0.211 HD
ENDBRANCH   7  15
ENDBRANCH   1   2
BRANCH   1  17
ATOM     17  C   UNL     1     158.707 155.817 231.732  1.00  0.00     0.224 C 
ATOM     18  C   UNL     1     159.356 156.981 230.956  1.00  0.00     0.208 C 
ATOM     19  O   UNL     1     158.376 156.304 233.025  1.00  0.00    -0.337 OA
ATOM     20  C   UNL     1     160.002 157.776 232.067  1.00  0.00     0.180 C 
ATOM     21  C   UNL     1     159.046 157.532 233.229  1.00  0.00     0.179 C 
BRANCH  17  22
ATOM     22  C   UNL     1     157.430 155.289 231.029  1.00  0.00     0.225 C 
BRANCH  22  23
ATOM     23  O   UNL     1     156.293 155.991 231.460  1.00  0.00    -0.391 OA
ATOM     24  H   UNL     1     156.619 156.818 231.898  1.00  0.00     0.210 HD
ENDBRANCH  22  23
ENDBRANCH  17  22
BRANCH  18  25
ATOM     25  O   UNL     1     158.424 157.753 230.229  1.00  0.00    -0.385 OA
ATOM     26  H   UNL     1     158.024 158.425 230.840  1.00  0.00     0.211 HD
ENDBRANCH  18  25
BRANCH  20  27
ATOM     27  O   UNL     1     160.094 159.144 231.763  1.00  0.00    -0.387 OA
ATOM     28  H   UNL     1     159.731 159.251 230.845  1.00  0.00     0.211 HD
ENDBRANCH  20  27
BRANCH  21  29
ATOM     29  C   UNL     1     159.771 157.520 234.581  1.00  0.00     0.191 C 
BRANCH  29  30
ATOM     30  O   UNL     1     160.872 156.652 234.537  1.00  0.00    -0.394 OA
ATOM     31  H   UNL     1     161.666 157.186 234.801  1.00  0.00     0.210 HD
ENDBRANCH  29  30
ENDBRANCH  21  29
ENDBRANCH   1  17
TORSDOF 13
ENDMDL
MODEL 2
REMARK VINA RESULT:    -6.473      6.204     10.778
REMARK INTER + INTRA:         -11.293
REMARK INTER:                  -9.915
REMARK INTRA:                  -1.378
REMARK UNBOUND:                -1.415
REMARK SMILES OC[C@@H]1O[C@H](O[C@@]2(CO)O[C@@H](CO)[C@H](O)[C@@H]2O)[C@H](O)[C@@H](O)[C@H]1O
REMARK SMILES IDX 6 1 5 2 3 3 22 4 4 5 20 6 18 7 2 8 1 9 23 11 21 13 19 15
REMARK SMILES IDX 7 17 16 18 10 19 14 20 11 21 8 22 9 23 17 25 15 27 12 29
REMARK SMILES IDX 13 30
REMARK H PARENT 1 10 23 12 21 14 19 16 9 24 17 26 15 28 13 31
REMARK Flexibility Score: inf
ROOT
ATOM      1  O   UNL     1     158.306 163.204 231.837  1.00  0.00    -0.313 OA
ENDROOT
BRANCH   1   2
ATOM      2  C   UNL     1     158.848 164.514 231.966  1.00  0.00     0.285 C 
ATOM      3  C   UNL     1     156.981 166.006 231.620  1.00  0.00     0.178 C 
ATOM      4  C   UNL     1     157.172 166.725 232.990  1.00  0.00     0.177 C 
ATOM      5  O   UNL     1     158.159 165.405 231.095  1.00  0.00    -0.341 OA
ATOM      6  C   UNL     1     158.549 166.431 233.617  1.00  0.00     0.179 C 
ATOM      7  C   UNL     1     158.891 164.948 233.459  1.00  0.00     0.202 C 
BRANCH   3   8
ATOM      8  C   UNL     1     155.758 165.067 231.558  1.00  0.00     0.191 C 
BRANCH   8   9
ATOM      9  O   UNL     1     154.548 165.774 231.497  1.00  0.00    -0.394 OA
ATOM     10  H   UNL     1     154.268 165.962 232.429  1.00  0.00     0.210 HD
ENDBRANCH   8   9
ENDBRANCH   3   8
BRANCH   4  11
ATOM     11  O   UNL     1     157.004 168.113 232.832  1.00  0.00    -0.387 OA
ATOM     12  H   UNL     1     157.563 168.385 232.056  1.00  0.00     0.211 HD
ENDBRANCH   4  11
BRANCH   6  13
ATOM     13  O   UNL     1     159.568 167.252 233.094  1.00  0.00    -0.387 OA
ATOM     14  H   UNL     1     160.009 166.774 232.347  1.00  0.00     0.211 HD
ENDBRANCH   6  13
BRANCH   7  15
ATOM     15  O   UNL     1     157.996 164.192 234.237  1.00  0.00    -0.385 OA
ATOM     16  H   UNL     1     157.470 164.831 234.785  1.00  0.00     0.211 HD
ENDBRANCH   7  15
ENDBRANCH   1   2
BRANCH   1  17
ATOM     17  C   UNL     1     159.280 162.168 231.709  1.00  0.00     0.224 C 
ATOM     18  C   UNL     1     158.640 161.055 230.855  1.00  0.00     0.208 C 
ATOM     19  O   UNL     1     159.576 161.608 232.981  1.00  0.00    -0.337 OA
ATOM     20  C   UNL     1     157.960 160.207 231.906  1.00  0.00     0.180 C 
ATOM     21  C   UNL     1     158.891 160.377 233.102  1.00  0.00     0.179 C 
BRANCH  17  22
ATOM     22  C   UNL     1     160.579 162.720 231.067  1.00  0.00     0.225 C 
BRANCH  22  23
ATOM     23  O   UNL     1     161.696 161.972 231.469  1.00  0.00    -0.391 OA
ATOM     24  H   UNL     1     161.348 161.139 231.878  1.00  0.00     0.210 HD
ENDBRANCH  22  23
ENDBRANCH  17  22
BRANCH  18  25
ATOM     25  O   UNL     1     159.582 160.314 230.109  1.00  0.00    -0.385 OA
ATOM     26  H   UNL     1     159.187 160.099 229.225  1.00  0.00     0.211 HD
ENDBRANCH  18  25
BRANCH  20  27
ATOM     27  O   UNL     1     157.863 158.859 231.525  1.00  0.00    -0.387 OA
ATOM     28  H   UNL     1     157.963 158.839 230.538  1.00  0.00     0.211 HD
ENDBRANCH  20  27
BRANCH  21  29
ATOM     29  C   UNL     1     158.133 160.323 234.435  1.00  0.00     0.191 C 
BRANCH  29  30
ATOM     30  O   UNL     1     157.170 161.341 234.491  1.00  0.00    -0.394 OA
ATOM     31  H   UNL     1     156.561 161.115 235.242  1.00  0.00     0.210 HD
ENDBRANCH  29  30
ENDBRANCH  21  29
ENDBRANCH   1  17
TORSDOF 13
ENDMDL
MODEL 3
REMARK VINA RESULT:    -6.318      1.443      2.259
REMARK INTER + INTRA:         -11.056
REMARK INTER:                  -9.540
REMARK INTRA:                  -1.516
REMARK UNBOUND:                -1.415
REMARK SMILES OC[C@@H]1O[C@H](O[C@@]2(CO)O[C@@H](CO)[C@H](O)[C@@H]2O)[C@H](O)[C@@H](O)[C@H]1O
REMARK SMILES IDX 6 1 5 2 3 3 22 4 4 5 20 6 18 7 2 8 1 9 23 11 21 13 19 15
REMARK SMILES IDX 7 17 16 18 10 19 14 20 11 21 8 22 9 23 17 25 15 27 12 29
REMARK SMILES IDX 13 30
REMARK H PARENT 1 10 23 12 21 14 19 16 9 24 17 26 15 28 13 31
REMARK Flexibility Score: inf
ROOT
ATOM      1  O   UNL     1     159.210 154.868 232.980  1.00  0.00    -0.313 OA
ENDROOT
BRANCH   1   2
ATOM      2  C   UNL     1     158.932 153.625 232.345  1.00  0.00     0.285 C 
ATOM      3  C   UNL     1     160.865 153.171 230.972  1.00  0.00     0.178 C 
ATOM      4  C   UNL     1     161.137 151.787 231.637  1.00  0.00     0.177 C 
ATOM      5  O   UNL     1     159.515 153.610 231.046  1.00  0.00    -0.341 OA
ATOM      6  C   UNL     1     159.932 151.285 232.455  1.00  0.00     0.179 C 
ATOM      7  C   UNL     1     159.331 152.435 233.264  1.00  0.00     0.202 C 
BRANCH   3   8
ATOM      8  C   UNL     1     161.870 154.274 231.364  1.00  0.00     0.191 C 
BRANCH   8   9
ATOM      9  O   UNL     1     161.421 155.553 231.003  1.00  0.00    -0.394 OA
ATOM     10  H   UNL     1     161.657 156.169 231.744  1.00  0.00     0.210 HD
ENDBRANCH   8   9
ENDBRANCH   3   8
BRANCH   4  11
ATOM     11  O   UNL     1     161.478 150.840 230.654  1.00  0.00    -0.387 OA
ATOM     12  H   UNL     1     162.002 150.128 231.109  1.00  0.00     0.211 HD
ENDBRANCH   4  11
BRANCH   6  13
ATOM     13  O   UNL     1     158.958 150.658 231.652  1.00  0.00    -0.387 OA
ATOM     14  H   UNL     1     159.051 150.988 230.723  1.00  0.00     0.211 HD
ENDBRANCH   6  13
BRANCH   7  15
ATOM     15  O   UNL     1     160.260 152.834 234.242  1.00  0.00    -0.385 OA
ATOM     16  H   UNL     1     159.821 152.728 235.125  1.00  0.00     0.211 HD
ENDBRANCH   7  15
ENDBRANCH   1   2
BRANCH   1  17
ATOM     17  C   UNL     1     158.085 155.738 233.102  1.00  0.00     0.224 C 
ATOM     18  C   UNL     1     157.430 155.821 231.708  1.00  0.00     0.208 C 
ATOM     19  O   UNL     1     158.509 157.050 233.448  1.00  0.00    -0.337 OA
ATOM     20  C   UNL     1     158.180 156.973 231.078  1.00  0.00     0.180 C 
ATOM     21  C   UNL     1     158.480 157.855 232.286  1.00  0.00     0.179 C 
BRANCH  17  22
ATOM     22  C   UNL     1     157.101 155.207 234.176  1.00  0.00     0.225 C 
BRANCH  22  23
ATOM     23  O   UNL     1     156.258 156.231 234.635  1.00  0.00    -0.391 OA
ATOM     24  H   UNL     1     155.556 156.352 233.946  1.00  0.00     0.210 HD
ENDBRANCH  22  23
ENDBRANCH  17  22
BRANCH  18  25
ATOM     25  O   UNL     1     156.040 156.063 231.759  1.00  0.00    -0.385 OA
ATOM     26  H   UNL     1     155.887 157.043 231.712  1.00  0.00     0.211 HD
ENDBRANCH  18  25
BRANCH  20  27
ATOM     27  O   UNL     1     157.407 157.659 230.128  1.00  0.00    -0.387 OA
ATOM     28  H   UNL     1     157.386 158.608 230.417  1.00  0.00     0.211 HD
ENDBRANCH  20  27
BRANCH  21  29
ATOM     29  C   UNL     1     159.806 158.611 232.134  1.00  0.00     0.191 C 
BRANCH  29  30
ATOM     30  O   UNL     1     160.387 158.333 230.887  1.00  0.00    -0.394 OA
ATOM     31  H   UNL     1     160.880 157.478 230.989  1.00  0.00     0.210 HD
ENDBRANCH  29  30
ENDBRANCH  21  29
ENDBRANCH   1  17
TORSDOF 13
ENDMDL
MODEL 4
REMARK VINA RESULT:    -6.303      6.154     10.481
REMARK INTER + INTRA:         -11.034
REMARK INTER:                  -9.518
REMARK INTRA:                  -1.515
REMARK UNBOUND:                -1.415
REMARK SMILES OC[C@@H]1O[C@H](O[C@@]2(CO)O[C@@H](CO)[C@H](O)[C@@H]2O)[C@H](O)[C@@H](O)[C@H]1O
REMARK SMILES IDX 6 1 5 2 3 3 22 4 4 5 20 6 18 7 2 8 1 9 23 11 21 13 19 15
REMARK SMILES IDX 7 17 16 18 10 19 14 20 11 21 8 22 9 23 17 25 15 27 12 29
REMARK SMILES IDX 13 30
REMARK H PARENT 1 10 23 12 21 14 19 16 9 24 17 26 15 28 13 31
REMARK Flexibility Score: inf
ROOT
ATOM      1  O   UNL     1     158.798 163.098 232.972  1.00  0.00    -0.313 OA
ENDROOT
BRANCH   1   2
ATOM      2  C   UNL     1     159.077 164.350 232.354  1.00  0.00     0.285 C 
ATOM      3  C   UNL     1     157.152 164.818 230.974  1.00  0.00     0.178 C 
ATOM      4  C   UNL     1     156.873 166.192 231.656  1.00  0.00     0.177 C 
ATOM      5  O   UNL     1     158.503 164.380 231.052  1.00  0.00    -0.341 OA
ATOM      6  C   UNL     1     158.072 166.686 232.488  1.00  0.00     0.179 C 
ATOM      7  C   UNL     1     158.670 165.527 233.286  1.00  0.00     0.202 C 
BRANCH   3   8
ATOM      8  C   UNL     1     156.147 163.707 231.345  1.00  0.00     0.191 C 
BRANCH   8   9
ATOM      9  O   UNL     1     156.594 162.435 230.957  1.00  0.00    -0.394 OA
ATOM     10  H   UNL     1     156.403 161.813 231.705  1.00  0.00     0.210 HD
ENDBRANCH   8   9
ENDBRANCH   3   8
BRANCH   4  11
ATOM     11  O   UNL     1     156.536 167.151 230.683  1.00  0.00    -0.387 OA
ATOM     12  H   UNL     1     155.647 166.895 230.321  1.00  0.00     0.211 HD
ENDBRANCH   4  11
BRANCH   6  13
ATOM     13  O   UNL     1     159.050 167.326 231.700  1.00  0.00    -0.387 OA
ATOM     14  H   UNL     1     159.789 167.623 232.289  1.00  0.00     0.211 HD
ENDBRANCH   6  13
BRANCH   7  15
ATOM     15  O   UNL     1     157.735 165.114 234.252  1.00  0.00    -0.385 OA
ATOM     16  H   UNL     1     156.891 165.605 234.074  1.00  0.00     0.211 HD
ENDBRANCH   7  15
ENDBRANCH   1   2
BRANCH   1  17
ATOM     17  C   UNL     1     159.925 162.232 233.096  1.00  0.00     0.224 C 
ATOM     18  C   UNL     1     160.615 162.194 231.717  1.00  0.00     0.208 C 
ATOM     19  O   UNL     1     159.502 160.908 233.393  1.00  0.00    -0.337 OA
ATOM     20  C   UNL     1     159.890 161.057 231.036  1.00  0.00     0.180 C 
ATOM     21  C   UNL     1     159.565 160.138 232.209  1.00  0.00     0.179 C 
BRANCH  17  22
ATOM     22  C   UNL     1     160.879 162.737 234.210  1.00  0.00     0.225 C 
BRANCH  22  23
ATOM     23  O   UNL     1     161.730 161.710 234.646  1.00  0.00    -0.391 OA
ATOM     24  H   UNL     1     161.825 161.078 233.889  1.00  0.00     0.210 HD
ENDBRANCH  22  23
ENDBRANCH  17  22
BRANCH  18  25
ATOM     25  O   UNL     1     162.005 161.959 231.796  1.00  0.00    -0.385 OA
ATOM     26  H   UNL     1     162.333 162.287 232.674  1.00  0.00     0.211 HD
ENDBRANCH  18  25
BRANCH  20  27
ATOM     27  O   UNL     1     160.691 160.404 230.085  1.00  0.00    -0.387 OA
ATOM     28  H   UNL     1     160.583 159.431 230.250  1.00  0.00     0.211 HD
ENDBRANCH  20  27
BRANCH  21  29
ATOM     29  C   UNL     1     158.248 159.379 232.000  1.00  0.00     0.191 C 
BRANCH  29  30
ATOM     30  O   UNL     1     157.725 159.649 230.728  1.00  0.00    -0.394 OA
ATOM     31  H   UNL     1     158.412 160.176 230.244  1.00  0.00     0.210 HD
ENDBRANCH  29  30
ENDBRANCH  21  29
ENDBRANCH   1  17
TORSDOF 13
ENDMDL
MODEL 5
REMARK VINA RESULT:    -6.284      7.016     10.887
REMARK INTER + INTRA:         -11.006
REMARK INTER:                  -9.403
REMARK INTRA:                  -1.602
REMARK UNBOUND:                -1.415
REMARK SMILES OC[C@@H]1O[C@H](O[C@@]2(CO)O[C@@H](CO)[C@H](O)[C@@H]2O)[C@H](O)[C@@H](O)[C@H]1O
REMARK SMILES IDX 6 1 5 2 3 3 22 4 4 5 20 6 18 7 2 8 1 9 23 11 21 13 19 15
REMARK SMILES IDX 7 17 16 18 10 19 14 20 11 21 8 22 9 23 17 25 15 27 12 29
REMARK SMILES IDX 13 30
REMARK H PARENT 1 10 23 12 21 14 19 16 9 24 17 26 15 28 13 31
REMARK Flexibility Score: inf
ROOT
ATOM      1  O   UNL     1     159.105 163.885 233.337  1.00  0.00    -0.313 OA
ENDROOT
BRANCH   1   2
ATOM      2  C   UNL     1     157.734 164.017 232.976  1.00  0.00     0.285 C 
ATOM      3  C   UNL     1     157.286 166.388 233.049  1.00  0.00     0.178 C 
ATOM      4  C   UNL     1     156.789 166.441 231.573  1.00  0.00     0.177 C 
ATOM      5  O   UNL     1     157.159 165.116 233.674  1.00  0.00    -0.341 OA
ATOM      6  C   UNL     1     156.481 165.041 231.009  1.00  0.00     0.179 C 
ATOM      7  C   UNL     1     157.571 164.054 231.430  1.00  0.00     0.202 C 
BRANCH   3   8
ATOM      8  C   UNL     1     158.674 167.024 233.277  1.00  0.00     0.191 C 
BRANCH   8   9
ATOM      9  O   UNL     1     159.331 167.312 232.071  1.00  0.00    -0.394 OA
ATOM     10  H   UNL     1     158.633 167.450 231.380  1.00  0.00     0.210 HD
ENDBRANCH   8   9
ENDBRANCH   3   8
BRANCH   4  11
ATOM     11  O   UNL     1     155.646 167.257 231.481  1.00  0.00    -0.387 OA
ATOM     12  H   UNL     1     155.900 168.151 231.834  1.00  0.00     0.211 HD
ENDBRANCH   4  11
BRANCH   6  13
ATOM     13  O   UNL     1     155.201 164.579 231.378  1.00  0.00    -0.387 OA
ATOM     14  H   UNL     1     154.527 165.248 231.093  1.00  0.00     0.211 HD
ENDBRANCH   6  13
BRANCH   7  15
ATOM     15  O   UNL     1     158.775 164.416 230.799  1.00  0.00    -0.385 OA
ATOM     16  H   UNL     1     159.079 163.632 230.273  1.00  0.00     0.211 HD
ENDBRANCH   7  15
ENDBRANCH   1   2
BRANCH   1  17
ATOM     17  C   UNL     1     159.426 162.671 234.016  1.00  0.00     0.224 C 
ATOM     18  C   UNL     1     160.934 162.425 233.802  1.00  0.00     0.208 C 
ATOM     19  O   UNL     1     158.733 161.578 233.430  1.00  0.00    -0.337 OA
ATOM     20  C   UNL     1     160.942 161.638 232.511  1.00  0.00     0.180 C 
ATOM     21  C   UNL     1     159.630 160.865 232.602  1.00  0.00     0.179 C 
BRANCH  17  22
ATOM     22  C   UNL     1     159.062 162.776 235.519  1.00  0.00     0.225 C 
BRANCH  22  23
ATOM     23  O   UNL     1     159.679 163.890 236.109  1.00  0.00    -0.391 OA
ATOM     24  H   UNL     1     160.642 163.838 235.878  1.00  0.00     0.210 HD
ENDBRANCH  22  23
ENDBRANCH  17  22
BRANCH  18  25
ATOM     25  O   UNL     1     161.537 161.709 234.858  1.00  0.00    -0.385 OA
ATOM     26  H   UNL     1     160.922 161.715 235.637  1.00  0.00     0.211 HD
ENDBRANCH  18  25
BRANCH  20  27
ATOM     27  O   UNL     1     162.040 160.766 232.423  1.00  0.00    -0.387 OA
ATOM     28  H   UNL     1     162.568 161.062 231.636  1.00  0.00     0.211 HD
ENDBRANCH  20  27
BRANCH  21  29
ATOM     29  C   UNL     1     159.002 160.630 231.222  1.00  0.00     0.191 C 
BRANCH  29  30
ATOM     30  O   UNL     1     159.926 160.922 230.208  1.00  0.00    -0.394 OA
ATOM     31  H   UNL     1     160.445 160.091 230.049  1.00  0.00     0.210 HD
ENDBRANCH  29  30
ENDBRANCH  21  29
ENDBRANCH   1  17
TORSDOF 13
ENDMDL
MODEL 6
REMARK VINA RESULT:    -6.233      1.592      3.550
REMARK INTER + INTRA:         -10.926
REMARK INTER:                  -9.336
REMARK INTRA:                  -1.591
REMARK UNBOUND:                -1.415
REMARK SMILES OC[C@@H]1O[C@H](O[C@@]2(CO)O[C@@H](CO)[C@H](O)[C@@H]2O)[C@H](O)[C@@H](O)[C@H]1O
REMARK SMILES IDX 6 1 5 2 3 3 22 4 4 5 20 6 18 7 2 8 1 9 23 11 21 13 19 15
REMARK SMILES IDX 7 17 16 18 10 19 14 20 11 21 8 22 9 23 17 25 15 27 12 29
REMARK SMILES IDX 13 30
REMARK H PARENT 1 10 23 12 21 14 19 16 9 24 17 26 15 28 13 31
REMARK Flexibility Score: inf
ROOT
ATOM      1  O   UNL     1     158.909 154.187 233.289  1.00  0.00    -0.313 OA
ENDROOT
BRANCH   1   2
ATOM      2  C   UNL     1     160.279 154.018 232.942  1.00  0.00     0.285 C 
ATOM      3  C   UNL     1     160.675 151.640 233.065  1.00  0.00     0.178 C 
ATOM      4  C   UNL     1     161.182 151.546 231.594  1.00  0.00     0.177 C 
ATOM      5  O   UNL     1     160.825 152.921 233.665  1.00  0.00    -0.341 OA
ATOM      6  C   UNL     1     161.523 152.928 231.004  1.00  0.00     0.179 C 
ATOM      7  C   UNL     1     160.451 153.946 231.397  1.00  0.00     0.202 C 
BRANCH   3   8
ATOM      8  C   UNL     1     159.272 151.039 233.296  1.00  0.00     0.191 C 
BRANCH   8   9
ATOM      9  O   UNL     1     158.635 150.702 232.092  1.00  0.00    -0.394 OA
ATOM     10  H   UNL     1     157.840 151.287 232.004  1.00  0.00     0.210 HD
ENDBRANCH   8   9
ENDBRANCH   3   8
BRANCH   4  11
ATOM     11  O   UNL     1     162.307 150.704 231.526  1.00  0.00    -0.387 OA
ATOM     12  H   UNL     1     162.080 149.879 232.031  1.00  0.00     0.211 HD
ENDBRANCH   4  11
BRANCH   6  13
ATOM     13  O   UNL     1     162.810 153.370 231.373  1.00  0.00    -0.387 OA
ATOM     14  H   UNL     1     162.719 154.063 232.075  1.00  0.00     0.211 HD
ENDBRANCH   6  13
BRANCH   7  15
ATOM     15  O   UNL     1     159.244 153.597 230.765  1.00  0.00    -0.385 OA
ATOM     16  H   UNL     1     159.277 152.622 230.586  1.00  0.00     0.211 HD
ENDBRANCH   7  15
ENDBRANCH   1   2
BRANCH   1  17
ATOM     17  C   UNL     1     158.612 155.412 233.958  1.00  0.00     0.224 C 
ATOM     18  C   UNL     1     157.117 155.703 233.716  1.00  0.00     0.208 C 
ATOM     19  O   UNL     1     159.349 156.482 233.382  1.00  0.00    -0.337 OA
ATOM     20  C   UNL     1     157.156 156.485 232.423  1.00  0.00     0.180 C 
ATOM     21  C   UNL     1     158.489 157.218 232.535  1.00  0.00     0.179 C 
BRANCH  17  22
ATOM     22  C   UNL     1     158.945 155.302 235.468  1.00  0.00     0.225 C 
BRANCH  22  23
ATOM     23  O   UNL     1     158.236 154.247 236.064  1.00  0.00    -0.391 OA
ATOM     24  H   UNL     1     158.492 153.422 235.578  1.00  0.00     0.210 HD
ENDBRANCH  22  23
ENDBRANCH  17  22
BRANCH  18  25
ATOM     25  O   UNL     1     156.517 156.442 234.759  1.00  0.00    -0.385 OA
ATOM     26  H   UNL     1     156.131 157.273 234.377  1.00  0.00     0.211 HD
ENDBRANCH  18  25
BRANCH  20  27
ATOM     27  O   UNL     1     156.088 157.390 232.311  1.00  0.00    -0.387 OA
ATOM     28  H   UNL     1     155.657 157.425 233.204  1.00  0.00     0.211 HD
ENDBRANCH  20  27
BRANCH  21  29
ATOM     29  C   UNL     1     159.149 157.429 231.166  1.00  0.00     0.191 C 
BRANCH  29  30
ATOM     30  O   UNL     1     158.250 157.115 230.137  1.00  0.00    -0.394 OA
ATOM     31  H   UNL     1     157.341 157.150 230.533  1.00  0.00     0.210 HD
ENDBRANCH  29  30
ENDBRANCH  21  29
ENDBRANCH   1  17
TORSDOF 13
ENDMDL
MODEL 7
REMARK VINA RESULT:    -6.185      6.169     10.552
REMARK INTER + INTRA:         -10.854
REMARK INTER:                  -9.158
REMARK INTRA:                  -1.696
REMARK UNBOUND:                -1.415
REMARK SMILES OC[C@@H]1O[C@H](O[C@@]2(CO)O[C@@H](CO)[C@H](O)[C@@H]2O)[C@H](O)[C@@H](O)[C@H]1O
REMARK SMILES IDX 6 1 5 2 3 3 22 4 4 5 20 6 18 7 2 8 1 9 23 11 21 13 19 15
REMARK SMILES IDX 7 17 16 18 10 19 14 20 11 21 8 22 9 23 17 25 15 27 12 29
REMARK SMILES IDX 13 30
REMARK H PARENT 1 10 23 12 21 14 19 16 9 24 17 26 15 28 13 31
REMARK Flexibility Score: inf
ROOT
ATOM      1  O   UNL     1     156.934 162.891 232.320  1.00  0.00    -0.313 OA
ENDROOT
BRANCH   1   2
ATOM      2  C   UNL     1     156.455 164.120 231.783  1.00  0.00     0.285 C 
ATOM      3  C   UNL     1     156.990 165.787 233.445  1.00  0.00     0.178 C 
ATOM      4  C   UNL     1     157.806 166.664 232.448  1.00  0.00     0.177 C 
ATOM      5  O   UNL     1     156.004 164.960 232.840  1.00  0.00    -0.341 OA
ATOM      6  C   UNL     1     157.543 166.278 230.979  1.00  0.00     0.179 C 
ATOM      7  C   UNL     1     157.511 164.756 230.834  1.00  0.00     0.202 C 
BRANCH   3   8
ATOM      8  C   UNL     1     157.851 165.026 234.475  1.00  0.00     0.191 C 
BRANCH   8   9
ATOM      9  O   UNL     1     159.051 164.557 233.922  1.00  0.00    -0.394 OA
ATOM     10  H   UNL     1     159.559 165.347 233.604  1.00  0.00     0.210 HD
ENDBRANCH   8   9
ENDBRANCH   3   8
BRANCH   4  11
ATOM     11  O   UNL     1     157.506 168.024 232.647  1.00  0.00    -0.387 OA
ATOM     12  H   UNL     1     158.227 168.398 233.221  1.00  0.00     0.211 HD
ENDBRANCH   4  11
BRANCH   6  13
ATOM     13  O   UNL     1     156.369 166.867 230.468  1.00  0.00    -0.387 OA
ATOM     14  H   UNL     1     155.893 167.322 231.208  1.00  0.00     0.211 HD
ENDBRANCH   6  13
BRANCH   7  15
ATOM     15  O   UNL     1     158.799 164.251 231.091  1.00  0.00    -0.385 OA
ATOM     16  H   UNL     1     159.448 164.872 230.670  1.00  0.00     0.211 HD
ENDBRANCH   7  15
ENDBRANCH   1   2
BRANCH   1  17
ATOM     17  C   UNL     1     156.572 161.733 231.569  1.00  0.00     0.224 C 
ATOM     18  C   UNL     1     156.327 160.600 232.585  1.00  0.00     0.208 C 
ATOM     19  O   UNL     1     157.650 161.327 230.736  1.00  0.00    -0.337 OA
ATOM     20  C   UNL     1     157.708 160.004 232.729  1.00  0.00     0.180 C 
ATOM     21  C   UNL     1     158.296 160.224 231.339  1.00  0.00     0.179 C 
BRANCH  17  22
ATOM     22  C   UNL     1     155.320 162.018 230.701  1.00  0.00     0.225 C 
BRANCH  22  23
ATOM     23  O   UNL     1     155.216 161.093 229.650  1.00  0.00    -0.391 OA
ATOM     24  H   UNL     1     154.389 161.320 229.152  1.00  0.00     0.210 HD
ENDBRANCH  22  23
ENDBRANCH  17  22
BRANCH  18  25
ATOM     25  O   UNL     1     155.386 159.646 232.139  1.00  0.00    -0.385 OA
ATOM     26  H   UNL     1     154.797 160.073 231.465  1.00  0.00     0.211 HD
ENDBRANCH  18  25
BRANCH  20  27
ATOM     27  O   UNL     1     157.671 158.638 233.055  1.00  0.00    -0.387 OA
ATOM     28  H   UNL     1     158.200 158.535 233.888  1.00  0.00     0.211 HD
ENDBRANCH  20  27
BRANCH  21  29
ATOM     29  C   UNL     1     159.811 160.458 231.383  1.00  0.00     0.191 C 
BRANCH  29  30
ATOM     30  O   UNL     1     160.155 161.582 230.618  1.00  0.00    -0.394 OA
ATOM     31  H   UNL     1     160.352 161.253 229.703  1.00  0.00     0.210 HD
ENDBRANCH  29  30
ENDBRANCH  21  29
ENDBRANCH   1  17
TORSDOF 13
ENDMDL
MODEL 8
REMARK VINA RESULT:    -6.175      1.838      3.419
REMARK INTER + INTRA:         -10.838
REMARK INTER:                  -9.152
REMARK INTRA:                  -1.687
REMARK UNBOUND:                -1.415
REMARK SMILES OC[C@@H]1O[C@H](O[C@@]2(CO)O[C@@H](CO)[C@H](O)[C@@H]2O)[C@H](O)[C@@H](O)[C@H]1O
REMARK SMILES IDX 6 1 5 2 3 3 22 4 4 5 20 6 18 7 2 8 1 9 23 11 21 13 19 15
REMARK SMILES IDX 7 17 16 18 10 19 14 20 11 21 8 22 9 23 17 25 15 27 12 29
REMARK SMILES IDX 13 30
REMARK H PARENT 1 10 23 12 21 14 19 16 9 24 17 26 15 28 13 31
REMARK Flexibility Score: inf
ROOT
ATOM      1  O   UNL     1     161.055 155.099 232.315  1.00  0.00    -0.313 OA
ENDROOT
BRANCH   1   2
ATOM      2  C   UNL     1     161.550 153.878 231.777  1.00  0.00     0.285 C 
ATOM      3  C   UNL     1     161.045 152.203 233.441  1.00  0.00     0.178 C 
ATOM      4  C   UNL     1     160.239 151.314 232.447  1.00  0.00     0.177 C 
ATOM      5  O   UNL     1     162.017 153.044 232.832  1.00  0.00    -0.341 OA
ATOM      6  C   UNL     1     160.492 151.703 230.977  1.00  0.00     0.179 C 
ATOM      7  C   UNL     1     160.501 153.225 230.832  1.00  0.00     0.202 C 
BRANCH   3   8
ATOM      8  C   UNL     1     160.176 152.952 234.474  1.00  0.00     0.191 C 
BRANCH   8   9
ATOM      9  O   UNL     1     158.970 153.409 233.922  1.00  0.00    -0.394 OA
ATOM     10  H   UNL     1     158.518 153.958 234.613  1.00  0.00     0.210 HD
ENDBRANCH   8   9
ENDBRANCH   3   8
BRANCH   4  11
ATOM     11  O   UNL     1     160.559 149.958 232.646  1.00  0.00    -0.387 OA
ATOM     12  H   UNL     1     161.335 149.933 233.265  1.00  0.00     0.211 HD
ENDBRANCH   4  11
BRANCH   6  13
ATOM     13  O   UNL     1     161.673 151.131 230.462  1.00  0.00    -0.387 OA
ATOM     14  H   UNL     1     161.713 150.181 230.740  1.00  0.00     0.211 HD
ENDBRANCH   6  13
BRANCH   7  15
ATOM     15  O   UNL     1     159.206 153.712 231.093  1.00  0.00    -0.385 OA
ATOM     16  H   UNL     1     158.938 153.368 231.984  1.00  0.00     0.211 HD
ENDBRANCH   7  15
ENDBRANCH   1   2
BRANCH   1  17
ATOM     17  C   UNL     1     161.403 156.263 231.566  1.00  0.00     0.224 C 
ATOM     18  C   UNL     1     161.647 157.394 232.585  1.00  0.00     0.208 C 
ATOM     19  O   UNL     1     160.318 156.664 230.741  1.00  0.00    -0.337 OA
ATOM     20  C   UNL     1     160.261 157.979 232.740  1.00  0.00     0.180 C 
ATOM     21  C   UNL     1     159.667 157.760 231.353  1.00  0.00     0.179 C 
BRANCH  17  22
ATOM     22  C   UNL     1     162.653 155.991 230.689  1.00  0.00     0.225 C 
BRANCH  22  23
ATOM     23  O   UNL     1     162.759 156.937 229.658  1.00  0.00    -0.391 OA
ATOM     24  H   UNL     1     161.869 156.986 229.223  1.00  0.00     0.210 HD
ENDBRANCH  22  23
ENDBRANCH  17  22
BRANCH  18  25
ATOM     25  O   UNL     1     162.577 158.357 232.137  1.00  0.00    -0.385 OA
ATOM     26  H   UNL     1     162.082 159.175 231.868  1.00  0.00     0.211 HD
ENDBRANCH  18  25
BRANCH  20  27
ATOM     27  O   UNL     1     160.290 159.344 233.070  1.00  0.00    -0.387 OA
ATOM     28  H   UNL     1     161.200 159.667 232.842  1.00  0.00     0.211 HD
ENDBRANCH  20  27
BRANCH  21  29
ATOM     29  C   UNL     1     158.153 157.514 231.405  1.00  0.00     0.191 C 
BRANCH  29  30
ATOM     30  O   UNL     1     157.817 156.376 230.658  1.00  0.00    -0.394 OA
ATOM     31  H   UNL     1     157.448 156.701 229.796  1.00  0.00     0.210 HD
ENDBRANCH  29  30
ENDBRANCH  21  29
ENDBRANCH   1  17
TORSDOF 13
ENDMDL
MODEL 9
REMARK VINA RESULT:    -5.987      3.333      5.772
REMARK INTER + INTRA:         -10.552
REMARK INTER:                  -8.875
REMARK INTRA:                  -1.677
REMARK UNBOUND:                -1.415
REMARK SMILES OC[C@@H]1O[C@H](O[C@@]2(CO)O[C@@H](CO)[C@H](O)[C@@H]2O)[C@H](O)[C@@H](O)[C@H]1O
REMARK SMILES IDX 6 1 5 2 3 3 22 4 4 5 20 6 18 7 2 8 1 9 23 11 21 13 19 15
REMARK SMILES IDX 7 17 16 18 10 19 14 20 11 21 8 22 9 23 17 25 15 27 12 29
REMARK SMILES IDX 13 30
REMARK H PARENT 1 10 23 12 21 14 19 16 9 24 17 26 15 28 13 31
REMARK Flexibility Score: inf
ROOT
ATOM      1  O   UNL     1     159.133 158.913 231.660  1.00  0.00    -0.313 OA
ENDROOT
BRANCH   1   2
ATOM      2  C   UNL     1     158.830 157.862 232.571  1.00  0.00     0.285 C 
ATOM      3  C   UNL     1     156.449 158.013 232.940  1.00  0.00     0.178 C 
ATOM      4  C   UNL     1     156.186 156.542 232.496  1.00  0.00     0.177 C 
ATOM      5  O   UNL     1     157.763 158.261 233.424  1.00  0.00    -0.341 OA
ATOM      6  C   UNL     1     157.479 155.706 232.446  1.00  0.00     0.179 C 
ATOM      7  C   UNL     1     158.607 156.523 231.812  1.00  0.00     0.202 C 
BRANCH   3   8
ATOM      8  C   UNL     1     155.979 159.078 231.926  1.00  0.00     0.191 C 
BRANCH   8   9
ATOM      9  O   UNL     1     156.019 158.607 230.605  1.00  0.00    -0.394 OA
ATOM     10  H   UNL     1     156.857 158.088 230.500  1.00  0.00     0.210 HD
ENDBRANCH   8   9
ENDBRANCH   3   8
BRANCH   4  11
ATOM     11  O   UNL     1     155.257 155.937 233.363  1.00  0.00    -0.387 OA
ATOM     12  H   UNL     1     155.579 155.012 233.531  1.00  0.00     0.211 HD
ENDBRANCH   4  11
BRANCH   6  13
ATOM     13  O   UNL     1     157.853 155.211 233.711  1.00  0.00    -0.387 OA
ATOM     14  H   UNL     1     157.511 155.828 234.408  1.00  0.00     0.211 HD
ENDBRANCH   6  13
BRANCH   7  15
ATOM     15  O   UNL     1     158.296 156.747 230.459  1.00  0.00    -0.385 OA
ATOM     16  H   UNL     1     159.093 156.487 229.927  1.00  0.00     0.211 HD
ENDBRANCH   7  15
ENDBRANCH   1   2
BRANCH   1  17
ATOM     17  C   UNL     1     160.407 159.525 231.860  1.00  0.00     0.224 C 
ATOM     18  C   UNL     1     160.815 160.160 230.515  1.00  0.00     0.208 C 
ATOM     19  O   UNL     1     161.383 158.542 232.176  1.00  0.00    -0.337 OA
ATOM     20  C   UNL     1     161.534 159.018 229.835  1.00  0.00     0.180 C 
ATOM     21  C   UNL     1     162.153 158.283 231.019  1.00  0.00     0.179 C 
BRANCH  17  22
ATOM     22  C   UNL     1     160.334 160.573 233.000  1.00  0.00     0.225 C 
BRANCH  22  23
ATOM     23  O   UNL     1     161.602 160.800 233.556  1.00  0.00    -0.391 OA
ATOM     24  H   UNL     1     161.677 161.777 233.705  1.00  0.00     0.210 HD
ENDBRANCH  22  23
ENDBRANCH  17  22
BRANCH  18  25
ATOM     25  O   UNL     1     161.646 161.292 230.663  1.00  0.00    -0.385 OA
ATOM     26  H   UNL     1     161.414 161.950 229.958  1.00  0.00     0.211 HD
ENDBRANCH  18  25
BRANCH  20  27
ATOM     27  O   UNL     1     162.521 159.463 228.941  1.00  0.00    -0.387 OA
ATOM     28  H   UNL     1     162.353 158.994 228.083  1.00  0.00     0.211 HD
ENDBRANCH  20  27
BRANCH  21  29
ATOM     29  C   UNL     1     162.248 156.771 230.774  1.00  0.00     0.191 C 
BRANCH  29  30
ATOM     30  O   UNL     1     163.138 156.500 229.725  1.00  0.00    -0.394 OA
ATOM     31  H   UNL     1     163.361 155.535 229.784  1.00  0.00     0.210 HD
ENDBRANCH  29  30
ENDBRANCH  21  29
ENDBRANCH   1  17
TORSDOF 13
ENDMDL
