MODEL 1
REMARK VINA RESULT:    -7.641      0.000      0.000
REMARK INTER + INTRA:          -9.778
REMARK INTER:                  -9.427
REMARK INTRA:                  -0.350
REMARK UNBOUND:                -0.350
REMARK SMILES Oc1cc(O)c2cc(O)c(-c3cc(O)c(O)c(O)c3)[o+]c2c1.[Cl-]
REMARK SMILES IDX 10 1 20 2 21 3 22 4 2 5 3 6 4 7 6 8 7 9 8 10 11 11 12 12
REMARK SMILES IDX 13 13 19 14 15 15 17 16 14 17 16 19 18 21 9 23 1 25 5 27
REMARK H PARENT 14 18 16 20 18 22 9 24 1 26 5 28
REMARK Flexibility Score: inf
ROOT
ATOM      1  C   UNL     1     -16.996  39.025  12.496  1.00  0.00     0.402 A 
ATOM      2  O   UNL     1     -16.387  39.010  11.314  1.00  0.00    -0.202 OA
ATOM      3  C   UNL     1     -16.499  39.988  10.421  1.00  0.00     0.368 A 
ATOM      4  C   UNL     1     -15.818  39.883   9.206  1.00  0.00     0.162 A 
ATOM      5  C   UNL     1     -15.915  40.899   8.251  1.00  0.00     0.128 A 
ATOM      6  C   UNL     1     -16.699  42.026   8.513  1.00  0.00     0.093 A 
ATOM      7  C   UNL     1     -17.392  42.155   9.723  1.00  0.00     0.136 A 
ATOM      8  C   UNL     1     -17.297  41.125  10.695  1.00  0.00     0.125 A 
ATOM      9  C   UNL     1     -17.965  41.164  11.929  1.00  0.00     0.078 A 
ATOM     10  C   UNL     1     -17.827  40.108  12.835  1.00  0.00     0.223 A 
ENDROOT
BRANCH   1  11
ATOM     11  C   UNL     1     -16.783  37.878  13.409  1.00  0.00     0.091 A 
ATOM     12  C   UNL     1     -17.737  36.852  13.461  1.00  0.00     0.068 A 
ATOM     13  C   UNL     1     -17.558  35.744  14.298  1.00  0.00     0.162 A 
ATOM     14  C   UNL     1     -15.618  37.767  14.183  1.00  0.00     0.068 A 
ATOM     15  C   UNL     1     -16.391  35.650  15.093  1.00  0.00     0.200 A 
ATOM     16  C   UNL     1     -15.426  36.663  15.024  1.00  0.00     0.162 A 
BRANCH  13  17
ATOM     17  O   UNL     1     -18.557  34.768  14.305  1.00  0.00    -0.504 OA
ATOM     18  H   UNL     1     -19.164  34.586  15.090  1.00  0.00     0.293 HD
ENDBRANCH  13  17
BRANCH  15  19
ATOM     19  O   UNL     1     -16.154  34.574  15.953  1.00  0.00    -0.502 OA
ATOM     20  H   UNL     1     -16.881  34.029  16.391  1.00  0.00     0.293 HD
ENDBRANCH  15  19
BRANCH  16  21
ATOM     21  O   UNL     1     -14.269  36.564  15.795  1.00  0.00    -0.504 OA
ATOM     22  H   UNL     1     -13.393  36.240  15.401  1.00  0.00     0.293 HD
ENDBRANCH  16  21
ENDBRANCH   1  11
BRANCH  10  23
ATOM     23  O   UNL     1     -18.531  40.122  14.039  1.00  0.00    -0.500 OA
ATOM     24  H   UNL     1     -18.132  40.512  14.885  1.00  0.00     0.294 HD
ENDBRANCH  10  23
BRANCH   5  25
ATOM     25  O   UNL     1     -15.239  40.800   7.038  1.00  0.00    -0.507 OA
ATOM     26  H   UNL     1     -14.439  41.385   6.828  1.00  0.00     0.293 HD
ENDBRANCH   5  25
BRANCH   7  27
ATOM     27  O   UNL     1     -18.150  43.315   9.910  1.00  0.00    -0.507 OA
ATOM     28  H   UNL     1     -17.835  44.126  10.423  1.00  0.00     0.293 HD
ENDBRANCH   7  27
TORSDOF 7
ENDMDL
MODEL 2
REMARK VINA RESULT:    -7.397      1.234      7.152
REMARK INTER + INTRA:          -9.478
REMARK INTER:                  -9.356
REMARK INTRA:                  -0.121
REMARK UNBOUND:                -0.350
REMARK SMILES Oc1cc(O)c2cc(O)c(-c3cc(O)c(O)c(O)c3)[o+]c2c1.[Cl-]
REMARK SMILES IDX 10 1 20 2 21 3 22 4 2 5 3 6 4 7 6 8 7 9 8 10 11 11 12 12
REMARK SMILES IDX 13 13 19 14 15 15 17 16 14 17 16 19 18 21 9 23 1 25 5 27
REMARK H PARENT 14 18 16 20 18 22 9 24 1 26 5 28
REMARK Flexibility Score: inf
ROOT
ATOM      1  C   UNL     1     -16.242  39.232  12.173  1.00  0.00     0.402 A 
ATOM      2  O   UNL     1     -17.130  38.265  12.386  1.00  0.00    -0.202 OA
ATOM      3  C   UNL     1     -16.908  37.236  13.197  1.00  0.00     0.368 A 
ATOM      4  C   UNL     1     -17.903  36.268  13.359  1.00  0.00     0.162 A 
ATOM      5  C   UNL     1     -17.697  35.178  14.208  1.00  0.00     0.128 A 
ATOM      6  C   UNL     1     -16.489  35.054  14.900  1.00  0.00     0.093 A 
ATOM      7  C   UNL     1     -15.476  36.009  14.755  1.00  0.00     0.136 A 
ATOM      8  C   UNL     1     -15.680  37.117  13.892  1.00  0.00     0.125 A 
ATOM      9  C   UNL     1     -14.716  38.116  13.676  1.00  0.00     0.078 A 
ATOM     10  C   UNL     1     -14.988  39.176  12.806  1.00  0.00     0.223 A 
ENDROOT
BRANCH   1  11
ATOM     11  C   UNL     1     -16.613  40.333  11.253  1.00  0.00     0.091 A 
ATOM     12  C   UNL     1     -17.742  41.115  11.533  1.00  0.00     0.068 A 
ATOM     13  C   UNL     1     -18.111  42.175  10.696  1.00  0.00     0.162 A 
ATOM     14  C   UNL     1     -15.826  40.646  10.134  1.00  0.00     0.068 A 
ATOM     15  C   UNL     1     -17.325  42.470   9.556  1.00  0.00     0.200 A 
ATOM     16  C   UNL     1     -16.183  41.704   9.288  1.00  0.00     0.162 A 
BRANCH  13  17
ATOM     17  O   UNL     1     -19.254  42.902  11.033  1.00  0.00    -0.504 OA
ATOM     18  H   UNL     1     -19.833  42.706  11.836  1.00  0.00     0.293 HD
ENDBRANCH  13  17
BRANCH  15  19
ATOM     19  O   UNL     1     -17.640  43.510   8.677  1.00  0.00    -0.502 OA
ATOM     20  H   UNL     1     -18.277  43.420   7.900  1.00  0.00     0.293 HD
ENDBRANCH  15  19
BRANCH  16  21
ATOM     21  O   UNL     1     -15.400  42.004   8.175  1.00  0.00    -0.504 OA
ATOM     22  H   UNL     1     -14.425  41.732   8.121  1.00  0.00     0.293 HD
ENDBRANCH  16  21
ENDBRANCH   1  11
BRANCH  10  23
ATOM     23  O   UNL     1     -14.012  40.141  12.553  1.00  0.00    -0.500 OA
ATOM     24  H   UNL     1     -14.026  41.045  13.010  1.00  0.00     0.294 HD
ENDBRANCH  10  23
BRANCH   5  25
ATOM     25  O   UNL     1     -18.685  34.210  14.373  1.00  0.00    -0.507 OA
ATOM     26  H   UNL     1     -19.597  34.442  14.750  1.00  0.00     0.293 HD
ENDBRANCH   5  25
BRANCH   7  27
ATOM     27  O   UNL     1     -14.300  35.815  15.485  1.00  0.00    -0.507 OA
ATOM     28  H   UNL     1     -14.122  36.211  16.398  1.00  0.00     0.293 HD
ENDBRANCH   7  27
TORSDOF 7
ENDMDL
MODEL 3
REMARK VINA RESULT:    -7.044      2.060      7.225
REMARK INTER + INTRA:          -9.042
REMARK INTER:                  -8.778
REMARK INTRA:                  -0.263
REMARK UNBOUND:                -0.350
REMARK SMILES Oc1cc(O)c2cc(O)c(-c3cc(O)c(O)c(O)c3)[o+]c2c1.[Cl-]
REMARK SMILES IDX 10 1 20 2 21 3 22 4 2 5 3 6 4 7 6 8 7 9 8 10 11 11 12 12
REMARK SMILES IDX 13 13 19 14 15 15 17 16 14 17 16 19 18 21 9 23 1 25 5 27
REMARK H PARENT 14 18 16 20 18 22 9 24 1 26 5 28
REMARK Flexibility Score: inf
ROOT
ATOM      1  C   UNL     1     -15.759  40.264  11.923  1.00  0.00     0.402 A 
ATOM      2  O   UNL     1     -14.814  39.559  12.538  1.00  0.00    -0.202 OA
ATOM      3  C   UNL     1     -15.073  38.523  13.329  1.00  0.00     0.368 A 
ATOM      4  C   UNL     1     -14.011  37.842  13.930  1.00  0.00     0.162 A 
ATOM      5  C   UNL     1     -14.255  36.748  14.763  1.00  0.00     0.128 A 
ATOM      6  C   UNL     1     -15.568  36.331  14.998  1.00  0.00     0.093 A 
ATOM      7  C   UNL     1     -16.650  36.997  14.408  1.00  0.00     0.136 A 
ATOM      8  C   UNL     1     -16.407  38.110  13.563  1.00  0.00     0.125 A 
ATOM      9  C   UNL     1     -17.429  38.845  12.939  1.00  0.00     0.078 A 
ATOM     10  C   UNL     1     -17.112  39.934  12.123  1.00  0.00     0.223 A 
ENDROOT
BRANCH   1  11
ATOM     11  C   UNL     1     -15.342  41.391  11.058  1.00  0.00     0.091 A 
ATOM     12  C   UNL     1     -14.722  41.124   9.829  1.00  0.00     0.068 A 
ATOM     13  C   UNL     1     -14.332  42.165   8.977  1.00  0.00     0.162 A 
ATOM     14  C   UNL     1     -15.603  42.723  11.415  1.00  0.00     0.068 A 
ATOM     15  C   UNL     1     -14.578  43.506   9.355  1.00  0.00     0.200 A 
ATOM     16  C   UNL     1     -15.218  43.774  10.573  1.00  0.00     0.162 A 
BRANCH  13  17
ATOM     17  O   UNL     1     -13.710  41.822   7.775  1.00  0.00    -0.504 OA
ATOM     18  H   UNL     1     -14.080  41.152   7.117  1.00  0.00     0.293 HD
ENDBRANCH  13  17
BRANCH  15  19
ATOM     19  O   UNL     1     -14.209  44.591   8.555  1.00  0.00    -0.502 OA
ATOM     20  H   UNL     1     -14.386  45.555   8.793  1.00  0.00     0.293 HD
ENDBRANCH  15  19
BRANCH  16  21
ATOM     21  O   UNL     1     -15.475  45.094  10.939  1.00  0.00    -0.504 OA
ATOM     22  H   UNL     1     -14.830  45.843  10.716  1.00  0.00     0.293 HD
ENDBRANCH  16  21
ENDBRANCH   1  11
BRANCH  10  23
ATOM     23  O   UNL     1     -18.129  40.695  11.544  1.00  0.00    -0.500 OA
ATOM     24  H   UNL     1     -19.094  40.605  11.839  1.00  0.00     0.294 HD
ENDBRANCH  10  23
BRANCH   5  25
ATOM     25  O   UNL     1     -13.200  36.065  15.366  1.00  0.00    -0.507 OA
ATOM     26  H   UNL     1     -13.120  35.056  15.308  1.00  0.00     0.293 HD
ENDBRANCH   5  25
BRANCH   7  27
ATOM     27  O   UNL     1     -17.932  36.516  14.690  1.00  0.00    -0.507 OA
ATOM     28  H   UNL     1     -18.414  36.655  15.566  1.00  0.00     0.293 HD
ENDBRANCH   7  27
TORSDOF 7
ENDMDL
MODEL 4
REMARK VINA RESULT:    -7.019      2.050      2.664
REMARK INTER + INTRA:          -9.011
REMARK INTER:                  -8.829
REMARK INTRA:                  -0.182
REMARK UNBOUND:                -0.350
REMARK SMILES Oc1cc(O)c2cc(O)c(-c3cc(O)c(O)c(O)c3)[o+]c2c1.[Cl-]
REMARK SMILES IDX 10 1 20 2 21 3 22 4 2 5 3 6 4 7 6 8 7 9 8 10 11 11 12 12
REMARK SMILES IDX 13 13 19 14 15 15 17 16 14 17 16 19 18 21 9 23 1 25 5 27
REMARK H PARENT 14 18 16 20 18 22 9 24 1 26 5 28
REMARK Flexibility Score: inf
ROOT
ATOM      1  C   UNL     1     -15.709  39.008  12.471  1.00  0.00     0.402 A 
ATOM      2  O   UNL     1     -16.596  39.680  11.743  1.00  0.00    -0.202 OA
ATOM      3  C   UNL     1     -16.333  40.847  11.165  1.00  0.00     0.368 A 
ATOM      4  C   UNL     1     -17.330  41.477  10.416  1.00  0.00     0.162 A 
ATOM      5  C   UNL     1     -17.078  42.704   9.795  1.00  0.00     0.128 A 
ATOM      6  C   UNL     1     -15.823  43.304   9.925  1.00  0.00     0.093 A 
ATOM      7  C   UNL     1     -14.807  42.694  10.671  1.00  0.00     0.136 A 
ATOM      8  C   UNL     1     -15.059  41.449  11.304  1.00  0.00     0.125 A 
ATOM      9  C   UNL     1     -14.105  40.771  12.081  1.00  0.00     0.078 A 
ATOM     10  C   UNL     1     -14.428  39.550  12.679  1.00  0.00     0.223 A 
ENDROOT
BRANCH   1  11
ATOM     11  C   UNL     1     -16.121  37.710  13.054  1.00  0.00     0.091 A 
ATOM     12  C   UNL     1     -16.445  36.644  12.203  1.00  0.00     0.068 A 
ATOM     13  C   UNL     1     -16.819  35.398  12.720  1.00  0.00     0.162 A 
ATOM     14  C   UNL     1     -16.141  37.506  14.442  1.00  0.00     0.068 A 
ATOM     15  C   UNL     1     -16.859  35.205  14.122  1.00  0.00     0.200 A 
ATOM     16  C   UNL     1     -16.513  36.264  14.973  1.00  0.00     0.162 A 
BRANCH  13  17
ATOM     17  O   UNL     1     -17.139  34.387  11.811  1.00  0.00    -0.504 OA
ATOM     18  H   UNL     1     -16.630  34.212  10.957  1.00  0.00     0.293 HD
ENDBRANCH  13  17
BRANCH  15  19
ATOM     19  O   UNL     1     -17.230  33.990  14.702  1.00  0.00    -0.502 OA
ATOM     20  H   UNL     1     -17.178  33.099  14.231  1.00  0.00     0.293 HD
ENDBRANCH  15  19
BRANCH  16  21
ATOM     21  O   UNL     1     -16.537  36.071  16.353  1.00  0.00    -0.504 OA
ATOM     22  H   UNL     1     -16.820  36.809  16.988  1.00  0.00     0.293 HD
ENDBRANCH  16  21
ENDBRANCH   1  11
BRANCH  10  23
ATOM     23  O   UNL     1     -13.498  38.901  13.492  1.00  0.00    -0.500 OA
ATOM     24  H   UNL     1     -12.511  38.882  13.262  1.00  0.00     0.294 HD
ENDBRANCH  10  23
BRANCH   5  25
ATOM     25  O   UNL     1     -18.068  43.337   9.047  1.00  0.00    -0.507 OA
ATOM     26  H   UNL     1     -19.046  43.088   9.143  1.00  0.00     0.293 HD
ENDBRANCH   5  25
BRANCH   7  27
ATOM     27  O   UNL     1     -13.579  43.357  10.748  1.00  0.00    -0.507 OA
ATOM     28  H   UNL     1     -13.443  44.257  11.188  1.00  0.00     0.293 HD
ENDBRANCH   7  27
TORSDOF 7
ENDMDL
MODEL 5
REMARK VINA RESULT:    -6.881      2.387      3.878
REMARK INTER + INTRA:          -8.840
REMARK INTER:                  -8.499
REMARK INTRA:                  -0.341
REMARK UNBOUND:                -0.350
REMARK SMILES Oc1cc(O)c2cc(O)c(-c3cc(O)c(O)c(O)c3)[o+]c2c1.[Cl-]
REMARK SMILES IDX 10 1 20 2 21 3 22 4 2 5 3 6 4 7 6 8 7 9 8 10 11 11 12 12
REMARK SMILES IDX 13 13 19 14 15 15 17 16 14 17 16 19 18 21 9 23 1 25 5 27
REMARK H PARENT 14 18 16 20 18 22 9 24 1 26 5 28
REMARK Flexibility Score: inf
ROOT
ATOM      1  C   UNL     1     -15.897  40.750  11.191  1.00  0.00     0.402 A 
ATOM      2  O   UNL     1     -15.605  41.982  11.601  1.00  0.00    -0.202 OA
ATOM      3  C   UNL     1     -15.556  43.030  10.786  1.00  0.00     0.368 A 
ATOM      4  C   UNL     1     -15.242  44.287  11.311  1.00  0.00     0.162 A 
ATOM      5  C   UNL     1     -15.187  45.407  10.477  1.00  0.00     0.128 A 
ATOM      6  C   UNL     1     -15.447  45.270   9.111  1.00  0.00     0.093 A 
ATOM      7  C   UNL     1     -15.764  44.022   8.560  1.00  0.00     0.136 A 
ATOM      8  C   UNL     1     -15.819  42.882   9.403  1.00  0.00     0.125 A 
ATOM      9  C   UNL     1     -16.116  41.590   8.937  1.00  0.00     0.078 A 
ATOM     10  C   UNL     1     -16.146  40.513   9.827  1.00  0.00     0.223 A 
ENDROOT
BRANCH   1  11
ATOM     11  C   UNL     1     -15.931  39.666  12.200  1.00  0.00     0.091 A 
ATOM     12  C   UNL     1     -14.729  39.200  12.751  1.00  0.00     0.068 A 
ATOM     13  C   UNL     1     -14.724  38.190  13.720  1.00  0.00     0.162 A 
ATOM     14  C   UNL     1     -17.144  39.132  12.658  1.00  0.00     0.068 A 
ATOM     15  C   UNL     1     -15.951  37.640  14.161  1.00  0.00     0.200 A 
ATOM     16  C   UNL     1     -17.154  38.121  13.628  1.00  0.00     0.162 A 
BRANCH  13  17
ATOM     17  O   UNL     1     -13.488  37.770  14.215  1.00  0.00    -0.504 OA
ATOM     18  H   UNL     1     -12.604  38.181  13.953  1.00  0.00     0.293 HD
ENDBRANCH  13  17
BRANCH  15  19
ATOM     19  O   UNL     1     -16.017  36.626  15.121  1.00  0.00    -0.502 OA
ATOM     20  H   UNL     1     -15.416  36.573  15.930  1.00  0.00     0.293 HD
ENDBRANCH  15  19
BRANCH  16  21
ATOM     21  O   UNL     1     -18.364  37.590  14.073  1.00  0.00    -0.504 OA
ATOM     22  H   UNL     1     -19.110  38.183  14.419  1.00  0.00     0.293 HD
ENDBRANCH  16  21
ENDBRANCH   1  11
BRANCH  10  23
ATOM     23  O   UNL     1     -16.391  39.223   9.357  1.00  0.00    -0.500 OA
ATOM     24  H   UNL     1     -15.786  38.445   9.594  1.00  0.00     0.294 HD
ENDBRANCH  10  23
BRANCH   5  25
ATOM     25  O   UNL     1     -14.875  46.662  10.994  1.00  0.00    -0.507 OA
ATOM     26  H   UNL     1     -14.608  47.432  10.391  1.00  0.00     0.293 HD
ENDBRANCH   5  25
BRANCH   7  27
ATOM     27  O   UNL     1     -16.015  43.970   7.186  1.00  0.00    -0.507 OA
ATOM     28  H   UNL     1     -16.132  44.782   6.596  1.00  0.00     0.293 HD
ENDBRANCH   7  27
TORSDOF 7
ENDMDL
MODEL 6
REMARK VINA RESULT:    -6.590      3.008      4.273
REMARK INTER + INTRA:          -8.482
REMARK INTER:                  -8.124
REMARK INTRA:                  -0.358
REMARK UNBOUND:                -0.350
REMARK SMILES Oc1cc(O)c2cc(O)c(-c3cc(O)c(O)c(O)c3)[o+]c2c1.[Cl-]
REMARK SMILES IDX 10 1 20 2 21 3 22 4 2 5 3 6 4 7 6 8 7 9 8 10 11 11 12 12
REMARK SMILES IDX 13 13 19 14 15 15 17 16 14 17 16 19 18 21 9 23 1 25 5 27
REMARK H PARENT 14 18 16 20 18 22 9 24 1 26 5 28
REMARK Flexibility Score: inf
ROOT
ATOM      1  C   UNL     1     -15.563  41.512  11.091  1.00  0.00     0.402 A 
ATOM      2  O   UNL     1     -15.430  42.691  11.691  1.00  0.00    -0.202 OA
ATOM      3  C   UNL     1     -15.201  43.824  11.034  1.00  0.00     0.368 A 
ATOM      4  C   UNL     1     -15.080  45.016  11.752  1.00  0.00     0.162 A 
ATOM      5  C   UNL     1     -14.842  46.221  11.086  1.00  0.00     0.128 A 
ATOM      6  C   UNL     1     -14.726  46.234   9.693  1.00  0.00     0.093 A 
ATOM      7  C   UNL     1     -14.843  45.053   8.950  1.00  0.00     0.136 A 
ATOM      8  C   UNL     1     -15.083  43.827   9.623  1.00  0.00     0.125 A 
ATOM      9  C   UNL     1     -15.202  42.593   8.962  1.00  0.00     0.078 A 
ATOM     10  C   UNL     1     -15.433  41.425   9.693  1.00  0.00     0.223 A 
ENDROOT
BRANCH   1  11
ATOM     11  C   UNL     1     -15.827  40.323  11.934  1.00  0.00     0.091 A 
ATOM     12  C   UNL     1     -17.134  39.826  12.035  1.00  0.00     0.068 A 
ATOM     13  C   UNL     1     -17.417  38.693  12.807  1.00  0.00     0.162 A 
ATOM     14  C   UNL     1     -14.788  39.648  12.592  1.00  0.00     0.068 A 
ATOM     15  C   UNL     1     -16.366  38.030  13.487  1.00  0.00     0.200 A 
ATOM     16  C   UNL     1     -15.056  38.513  13.368  1.00  0.00     0.162 A 
BRANCH  13  17
ATOM     17  O   UNL     1     -18.744  38.263  12.869  1.00  0.00    -0.504 OA
ATOM     18  H   UNL     1     -19.191  37.703  12.158  1.00  0.00     0.293 HD
ENDBRANCH  13  17
BRANCH  15  19
ATOM     19  O   UNL     1     -16.581  36.899  14.278  1.00  0.00    -0.502 OA
ATOM     20  H   UNL     1     -16.825  36.931  15.256  1.00  0.00     0.293 HD
ENDBRANCH  15  19
BRANCH  16  21
ATOM     21  O   UNL     1     -14.019  37.852  14.024  1.00  0.00    -0.504 OA
ATOM     22  H   UNL     1     -14.082  37.604  15.005  1.00  0.00     0.293 HD
ENDBRANCH  16  21
ENDBRANCH   1  11
BRANCH  10  23
ATOM     23  O   UNL     1     -15.502  40.193   9.042  1.00  0.00    -0.500 OA
ATOM     24  H   UNL     1     -15.247  40.092   8.066  1.00  0.00     0.294 HD
ENDBRANCH  10  23
BRANCH   5  25
ATOM     25  O   UNL     1     -14.719  47.413  11.796  1.00  0.00    -0.507 OA
ATOM     26  H   UNL     1     -15.406  48.153  11.712  1.00  0.00     0.293 HD
ENDBRANCH   5  25
BRANCH   7  27
ATOM     27  O   UNL     1     -14.719  45.152   7.561  1.00  0.00    -0.507 OA
ATOM     28  H   UNL     1     -14.063  44.619   7.008  1.00  0.00     0.293 HD
ENDBRANCH   7  27
TORSDOF 7
ENDMDL
MODEL 7
REMARK VINA RESULT:    -6.547     10.487     13.066
REMARK INTER + INTRA:          -8.428
REMARK INTER:                  -8.641
REMARK INTRA:                   0.213
REMARK UNBOUND:                -0.350
REMARK SMILES Oc1cc(O)c2cc(O)c(-c3cc(O)c(O)c(O)c3)[o+]c2c1.[Cl-]
REMARK SMILES IDX 10 1 20 2 21 3 22 4 2 5 3 6 4 7 6 8 7 9 8 10 11 11 12 12
REMARK SMILES IDX 13 13 19 14 15 15 17 16 14 17 16 19 18 21 9 23 1 25 5 27
REMARK H PARENT 14 18 16 20 18 22 9 24 1 26 5 28
REMARK Flexibility Score: inf
ROOT
ATOM      1  C   UNL     1     -26.027  32.998  18.147  1.00  0.00     0.402 A 
ATOM      2  O   UNL     1     -26.597  33.346  16.997  1.00  0.00    -0.202 OA
ATOM      3  C   UNL     1     -26.016  33.180  15.813  1.00  0.00     0.368 A 
ATOM      4  C   UNL     1     -26.697  33.574  14.659  1.00  0.00     0.162 A 
ATOM      5  C   UNL     1     -26.111  33.407  13.401  1.00  0.00     0.128 A 
ATOM      6  C   UNL     1     -24.837  32.842  13.298  1.00  0.00     0.093 A 
ATOM      7  C   UNL     1     -24.134  32.439  14.439  1.00  0.00     0.136 A 
ATOM      8  C   UNL     1     -24.725  32.608  15.718  1.00  0.00     0.125 A 
ATOM      9  C   UNL     1     -24.089  32.245  16.917  1.00  0.00     0.078 A 
ATOM     10  C   UNL     1     -24.733  32.447  18.141  1.00  0.00     0.223 A 
ENDROOT
BRANCH   1  11
ATOM     11  C   UNL     1     -26.782  33.226  19.401  1.00  0.00     0.091 A 
ATOM     12  C   UNL     1     -28.180  33.125  19.391  1.00  0.00     0.068 A 
ATOM     13  C   UNL     1     -28.925  33.315  20.561  1.00  0.00     0.162 A 
ATOM     14  C   UNL     1     -26.125  33.486  20.613  1.00  0.00     0.068 A 
ATOM     15  C   UNL     1     -28.256  33.599  21.776  1.00  0.00     0.200 A 
ATOM     16  C   UNL     1     -26.857  33.677  21.792  1.00  0.00     0.162 A 
BRANCH  13  17
ATOM     17  O   UNL     1     -30.314  33.210  20.472  1.00  0.00    -0.504 OA
ATOM     18  H   UNL     1     -30.955  33.582  21.158  1.00  0.00     0.293 HD
ENDBRANCH  13  17
BRANCH  15  19
ATOM     19  O   UNL     1     -28.939  33.805  22.978  1.00  0.00    -0.502 OA
ATOM     20  H   UNL     1     -28.541  33.638  23.890  1.00  0.00     0.293 HD
ENDBRANCH  15  19
BRANCH  16  21
ATOM     21  O   UNL     1     -26.197  33.942  22.990  1.00  0.00    -0.504 OA
ATOM     22  H   UNL     1     -25.198  34.111  23.021  1.00  0.00     0.293 HD
ENDBRANCH  16  21
ENDBRANCH   1  11
BRANCH  10  23
ATOM     23  O   UNL     1     -24.082  32.133  19.335  1.00  0.00    -0.500 OA
ATOM     24  H   UNL     1     -23.083  31.965  19.368  1.00  0.00     0.294 HD
ENDBRANCH  10  23
BRANCH   5  25
ATOM     25  O   UNL     1     -26.784  33.799  12.246  1.00  0.00    -0.507 OA
ATOM     26  H   UNL     1     -26.417  34.522  11.639  1.00  0.00     0.293 HD
ENDBRANCH   5  25
BRANCH   7  27
ATOM     27  O   UNL     1     -22.867  31.879  14.250  1.00  0.00    -0.507 OA
ATOM     28  H   UNL     1     -22.673  31.100  13.637  1.00  0.00     0.293 HD
ENDBRANCH   7  27
TORSDOF 7
ENDMDL
MODEL 8
REMARK VINA RESULT:    -6.476      2.779      7.591
REMARK INTER + INTRA:          -8.340
REMARK INTER:                  -7.968
REMARK INTRA:                  -0.373
REMARK UNBOUND:                -0.350
REMARK SMILES Oc1cc(O)c2cc(O)c(-c3cc(O)c(O)c(O)c3)[o+]c2c1.[Cl-]
REMARK SMILES IDX 10 1 20 2 21 3 22 4 2 5 3 6 4 7 6 8 7 9 8 10 11 11 12 12
REMARK SMILES IDX 13 13 19 14 15 15 17 16 14 17 16 19 18 21 9 23 1 25 5 27
REMARK H PARENT 14 18 16 20 18 22 9 24 1 26 5 28
REMARK Flexibility Score: inf
ROOT
ATOM      1  C   UNL     1     -16.033  41.966  11.219  1.00  0.00     0.402 A 
ATOM      2  O   UNL     1     -15.126  41.167  11.772  1.00  0.00    -0.202 OA
ATOM      3  C   UNL     1     -15.423  39.993  12.320  1.00  0.00     0.368 A 
ATOM      4  C   UNL     1     -14.399  39.222  12.875  1.00  0.00     0.162 A 
ATOM      5  C   UNL     1     -14.683  37.982  13.455  1.00  0.00     0.128 A 
ATOM      6  C   UNL     1     -15.998  37.511  13.478  1.00  0.00     0.093 A 
ATOM      7  C   UNL     1     -17.042  38.264  12.929  1.00  0.00     0.136 A 
ATOM      8  C   UNL     1     -16.759  39.524  12.341  1.00  0.00     0.125 A 
ATOM      9  C   UNL     1     -17.743  40.353  11.777  1.00  0.00     0.078 A 
ATOM     10  C   UNL     1     -17.388  41.585  11.221  1.00  0.00     0.223 A 
ENDROOT
BRANCH   1  11
ATOM     11  C   UNL     1     -15.575  43.246  10.631  1.00  0.00     0.091 A 
ATOM     12  C   UNL     1     -15.335  43.325   9.252  1.00  0.00     0.068 A 
ATOM     13  C   UNL     1     -14.919  44.524   8.661  1.00  0.00     0.162 A 
ATOM     14  C   UNL     1     -15.428  44.399  11.417  1.00  0.00     0.068 A 
ATOM     15  C   UNL     1     -14.751  45.678   9.463  1.00  0.00     0.200 A 
ATOM     16  C   UNL     1     -15.013  45.606  10.838  1.00  0.00     0.162 A 
BRANCH  13  17
ATOM     17  O   UNL     1     -14.688  44.523   7.283  1.00  0.00    -0.504 OA
ATOM     18  H   UNL     1     -14.733  43.699   6.703  1.00  0.00     0.293 HD
ENDBRANCH  13  17
BRANCH  15  19
ATOM     19  O   UNL     1     -14.333  46.903   8.938  1.00  0.00    -0.502 OA
ATOM     20  H   UNL     1     -13.403  47.278   9.047  1.00  0.00     0.293 HD
ENDBRANCH  15  19
BRANCH  16  21
ATOM     21  O   UNL     1     -14.863  46.745  11.627  1.00  0.00    -0.504 OA
ATOM     22  H   UNL     1     -14.512  47.615  11.243  1.00  0.00     0.293 HD
ENDBRANCH  16  21
ENDBRANCH   1  11
BRANCH  10  23
ATOM     23  O   UNL     1     -18.371  42.431  10.707  1.00  0.00    -0.500 OA
ATOM     24  H   UNL     1     -18.613  43.304  11.161  1.00  0.00     0.294 HD
ENDBRANCH  10  23
BRANCH   5  25
ATOM     25  O   UNL     1     -13.666  37.208  14.011  1.00  0.00    -0.507 OA
ATOM     26  H   UNL     1     -12.724  37.566  14.113  1.00  0.00     0.293 HD
ENDBRANCH   5  25
BRANCH   7  27
ATOM     27  O   UNL     1     -18.329  37.721  12.988  1.00  0.00    -0.507 OA
ATOM     28  H   UNL     1     -19.126  38.083  12.484  1.00  0.00     0.293 HD
ENDBRANCH   7  27
TORSDOF 7
ENDMDL
MODEL 9
REMARK VINA RESULT:    -6.300     14.408     15.704
REMARK INTER + INTRA:          -8.124
REMARK INTER:                  -7.789
REMARK INTRA:                  -0.335
REMARK UNBOUND:                -0.350
REMARK SMILES Oc1cc(O)c2cc(O)c(-c3cc(O)c(O)c(O)c3)[o+]c2c1.[Cl-]
REMARK SMILES IDX 10 1 20 2 21 3 22 4 2 5 3 6 4 7 6 8 7 9 8 10 11 11 12 12
REMARK SMILES IDX 13 13 19 14 15 15 17 16 14 17 16 19 18 21 9 23 1 25 5 27
REMARK H PARENT 14 18 16 20 18 22 9 24 1 26 5 28
REMARK Flexibility Score: inf
ROOT
ATOM      1  C   UNL     1     -30.501  37.714  20.012  1.00  0.00     0.402 A 
ATOM      2  O   UNL     1     -29.741  38.683  19.510  1.00  0.00    -0.202 OA
ATOM      3  C   UNL     1     -30.152  39.941  19.381  1.00  0.00     0.368 A 
ATOM      4  C   UNL     1     -29.279  40.891  18.844  1.00  0.00     0.162 A 
ATOM      5  C   UNL     1     -29.683  42.221  18.701  1.00  0.00     0.128 A 
ATOM      6  C   UNL     1     -30.967  42.603  19.097  1.00  0.00     0.093 A 
ATOM      7  C   UNL     1     -31.861  41.671  19.638  1.00  0.00     0.136 A 
ATOM      8  C   UNL     1     -31.455  40.319  19.784  1.00  0.00     0.125 A 
ATOM      9  C   UNL     1     -32.287  39.314  20.304  1.00  0.00     0.078 A 
ATOM     10  C   UNL     1     -31.819  38.002  20.412  1.00  0.00     0.223 A 
ENDROOT
BRANCH   1  11
ATOM     11  C   UNL     1     -29.925  36.353  20.113  1.00  0.00     0.091 A 
ATOM     12  C   UNL     1     -30.258  35.390  19.151  1.00  0.00     0.068 A 
ATOM     13  C   UNL     1     -29.717  34.100  19.204  1.00  0.00     0.162 A 
ATOM     14  C   UNL     1     -29.007  36.022  21.121  1.00  0.00     0.068 A 
ATOM     15  C   UNL     1     -28.810  33.766  20.238  1.00  0.00     0.200 A 
ATOM     16  C   UNL     1     -28.458  34.735  21.187  1.00  0.00     0.162 A 
BRANCH  13  17
ATOM     17  O   UNL     1     -30.105  33.191  18.217  1.00  0.00    -0.504 OA
ATOM     18  H   UNL     1     -29.623  33.070  17.339  1.00  0.00     0.293 HD
ENDBRANCH  13  17
BRANCH  15  19
ATOM     19  O   UNL     1     -28.238  32.496  20.352  1.00  0.00    -0.502 OA
ATOM     20  H   UNL     1     -28.504  31.816  21.049  1.00  0.00     0.293 HD
ENDBRANCH  15  19
BRANCH  16  21
ATOM     21  O   UNL     1     -27.552  34.411  22.196  1.00  0.00    -0.504 OA
ATOM     22  H   UNL     1     -27.832  34.369  23.169  1.00  0.00     0.293 HD
ENDBRANCH  16  21
ENDBRANCH   1  11
BRANCH  10  23
ATOM     23  O   UNL     1     -32.662  36.994  20.882  1.00  0.00    -0.500 OA
ATOM     24  H   UNL     1     -32.341  36.039  20.990  1.00  0.00     0.294 HD
ENDBRANCH  10  23
BRANCH   5  25
ATOM     25  O   UNL     1     -28.818  43.172  18.165  1.00  0.00    -0.507 OA
ATOM     26  H   UNL     1     -27.812  43.057  18.207  1.00  0.00     0.293 HD
ENDBRANCH   5  25
BRANCH   7  27
ATOM     27  O   UNL     1     -33.125  42.135  20.014  1.00  0.00    -0.507 OA
ATOM     28  H   UNL     1     -33.798  42.536  19.377  1.00  0.00     0.293 HD
ENDBRANCH   7  27
TORSDOF 7
ENDMDL
