MODEL 1
REMARK VINA RESULT:    -5.103      0.000      0.000
REMARK INTER + INTRA:         -11.474
REMARK INTER:                  -9.578
REMARK INTRA:                  -1.897
REMARK UNBOUND:                -1.897
REMARK SMILES O=C([O-])CCCCCCCCCCCCCCC(=O)[O-]
REMARK SMILES IDX 10 1 9 2 8 3 7 4 6 5 5 6 4 7 2 8 1 9 3 10 11 11 12 12 13 13
REMARK SMILES IDX 14 14 15 15 16 16 17 17 18 18 19 19 20 20
REMARK H PARENT
REMARK Flexibility Score: inf
ROOT
ATOM      1  C   UNL     1      11.628  16.235 161.180  1.00  0.00     0.000 C 
ENDROOT
BRANCH   1   2
ATOM      2  C   UNL     1      11.255  17.559 161.870  1.00  0.00     0.000 C 
BRANCH   2   3
ATOM      3  C   UNL     1      11.371  17.469 163.407  1.00  0.00     0.000 C 
BRANCH   3   4
ATOM      4  C   UNL     1      10.100  17.912 164.151  1.00  0.00     0.000 C 
BRANCH   4   5
ATOM      5  C   UNL     1       9.620  16.873 165.179  1.00  0.00     0.000 C 
BRANCH   5   6
ATOM      6  C   UNL     1       8.252  17.231 165.782  1.00  0.00     0.006 C 
BRANCH   6   7
ATOM      7  C   UNL     1       8.228  17.105 167.311  1.00  0.00     0.053 C 
BRANCH   7   8
ATOM      8  C   UNL     1       7.221  16.082 167.734  1.00  0.00     0.041 C 
ATOM      9  O   UNL     1       6.065  16.087 167.236  1.00  0.00    -0.550 OA
ATOM     10  O   UNL     1       7.544  15.154 168.716  1.00  0.00    -0.550 OA
ENDBRANCH   7   8
ENDBRANCH   6   7
ENDBRANCH   5   6
ENDBRANCH   4   5
ENDBRANCH   3   4
ENDBRANCH   2   3
ENDBRANCH   1   2
BRANCH   1  11
ATOM     11  C   UNL     1      10.384  15.454 160.704  1.00  0.00     0.000 C 
BRANCH  11  12
ATOM     12  C   UNL     1       9.745  14.583 161.799  1.00  0.00     0.000 C 
BRANCH  12  13
ATOM     13  C   UNL     1      10.138  13.102 161.689  1.00  0.00     0.000 C 
BRANCH  13  14
ATOM     14  C   UNL     1      11.395  12.763 162.506  1.00  0.00     0.000 C 
BRANCH  14  15
ATOM     15  C   UNL     1      11.425  13.472 163.869  1.00  0.00     0.000 C 
BRANCH  15  16
ATOM     16  C   UNL     1      12.761  14.195 164.082  1.00  0.00     0.006 C 
BRANCH  16  17
ATOM     17  C   UNL     1      13.838  13.646 163.142  1.00  0.00     0.053 C 
BRANCH  17  18
ATOM     18  C   UNL     1      14.910  14.666 162.921  1.00  0.00     0.041 C 
ATOM     19  O   UNL     1      16.099  14.303 162.725  1.00  0.00    -0.550 OA
ATOM     20  O   UNL     1      14.605  16.020 162.983  1.00  0.00    -0.550 OA
ENDBRANCH  17  18
ENDBRANCH  16  17
ENDBRANCH  15  16
ENDBRANCH  14  15
ENDBRANCH  13  14
ENDBRANCH  12  13
ENDBRANCH  11  12
ENDBRANCH   1  11
TORSDOF 15
ENDMDL
MODEL 2
REMARK VINA RESULT:    -5.101      1.817      3.114
REMARK INTER + INTRA:         -11.471
REMARK INTER:                  -9.379
REMARK INTRA:                  -2.091
REMARK UNBOUND:                -1.897
REMARK SMILES O=C([O-])CCCCCCCCCCCCCCC(=O)[O-]
REMARK SMILES IDX 10 1 9 2 8 3 7 4 6 5 5 6 4 7 2 8 1 9 3 10 11 11 12 12 13 13
REMARK SMILES IDX 14 14 15 15 16 16 17 17 18 18 19 19 20 20
REMARK H PARENT
REMARK Flexibility Score: inf
ROOT
ATOM      1  C   UNL     1      13.958  15.731 163.092  1.00  0.00     0.000 C 
ENDROOT
BRANCH   1   2
ATOM      2  C   UNL     1      13.015  16.736 163.777  1.00  0.00     0.000 C 
BRANCH   2   3
ATOM      3  C   UNL     1      12.180  16.083 164.900  1.00  0.00     0.000 C 
BRANCH   3   4
ATOM      4  C   UNL     1      10.672  16.039 164.604  1.00  0.00     0.000 C 
BRANCH   4   5
ATOM      5  C   UNL     1      10.055  17.438 164.447  1.00  0.00     0.000 C 
BRANCH   5   6
ATOM      6  C   UNL     1       8.890  17.681 165.421  1.00  0.00     0.006 C 
BRANCH   6   7
ATOM      7  C   UNL     1       8.847  16.653 166.559  1.00  0.00     0.053 C 
BRANCH   7   8
ATOM      8  C   UNL     1       7.681  16.920 167.459  1.00  0.00     0.041 C 
ATOM      9  O   UNL     1       7.422  18.095 167.830  1.00  0.00    -0.550 OA
ATOM     10  O   UNL     1       6.909  15.865 167.926  1.00  0.00    -0.550 OA
ENDBRANCH   7   8
ENDBRANCH   6   7
ENDBRANCH   5   6
ENDBRANCH   4   5
ENDBRANCH   3   4
ENDBRANCH   2   3
ENDBRANCH   1   2
BRANCH   1  11
ATOM     11  C   UNL     1      13.912  14.339 163.761  1.00  0.00     0.000 C 
BRANCH  11  12
ATOM     12  C   UNL     1      14.091  13.173 162.774  1.00  0.00     0.000 C 
BRANCH  12  13
ATOM     13  C   UNL     1      12.773  12.752 162.104  1.00  0.00     0.000 C 
BRANCH  13  14
ATOM     14  C   UNL     1      11.583  12.774 163.076  1.00  0.00     0.000 C 
BRANCH  14  15
ATOM     15  C   UNL     1      10.332  13.425 162.466  1.00  0.00     0.000 C 
BRANCH  15  16
ATOM     16  C   UNL     1      10.631  13.987 161.070  1.00  0.00     0.006 C 
BRANCH  16  17
ATOM     17  C   UNL     1      10.345  15.490 161.010  1.00  0.00     0.053 C 
BRANCH  17  18
ATOM     18  C   UNL     1      11.416  16.197 160.241  1.00  0.00     0.041 C 
ATOM     19  O   UNL     1      12.479  15.595 159.935  1.00  0.00    -0.550 OA
ATOM     20  O   UNL     1      11.262  17.536 159.906  1.00  0.00    -0.550 OA
ENDBRANCH  17  18
ENDBRANCH  16  17
ENDBRANCH  15  16
ENDBRANCH  14  15
ENDBRANCH  13  14
ENDBRANCH  12  13
ENDBRANCH  11  12
ENDBRANCH   1  11
TORSDOF 15
ENDMDL
MODEL 3
REMARK VINA RESULT:    -5.099      3.124      4.640
REMARK INTER + INTRA:         -11.466
REMARK INTER:                  -9.366
REMARK INTRA:                  -2.100
REMARK UNBOUND:                -1.897
REMARK SMILES O=C([O-])CCCCCCCCCCCCCCC(=O)[O-]
REMARK SMILES IDX 10 1 9 2 8 3 7 4 6 5 5 6 4 7 2 8 1 9 3 10 11 11 12 12 13 13
REMARK SMILES IDX 14 14 15 15 16 16 17 17 18 18 19 19 20 20
REMARK H PARENT
REMARK Flexibility Score: inf
ROOT
ATOM      1  C   UNL     1      11.380  17.329 163.605  1.00  0.00     0.000 C 
ENDROOT
BRANCH   1   2
ATOM      2  C   UNL     1      10.247  16.981 164.587  1.00  0.00     0.000 C 
BRANCH   2   3
ATOM      3  C   UNL     1      10.634  15.831 165.542  1.00  0.00     0.000 C 
BRANCH   3   4
ATOM      4  C   UNL     1      11.798  14.966 165.028  1.00  0.00     0.000 C 
BRANCH   4   5
ATOM      5  C   UNL     1      11.484  13.462 165.068  1.00  0.00     0.000 C 
BRANCH   5   6
ATOM      6  C   UNL     1      11.565  12.807 163.679  1.00  0.00     0.006 C 
BRANCH   6   7
ATOM      7  C   UNL     1      10.339  13.110 162.809  1.00  0.00     0.053 C 
BRANCH   7   8
ATOM      8  C   UNL     1      10.276  12.165 161.650  1.00  0.00     0.041 C 
ATOM      9  O   UNL     1      10.801  12.477 160.549  1.00  0.00    -0.550 OA
ATOM     10  O   UNL     1       9.594  10.962 161.771  1.00  0.00    -0.550 OA
ENDBRANCH   7   8
ENDBRANCH   6   7
ENDBRANCH   5   6
ENDBRANCH   4   5
ENDBRANCH   3   4
ENDBRANCH   2   3
ENDBRANCH   1   2
BRANCH   1  11
ATOM     11  C   UNL     1      10.903  18.259 162.469  1.00  0.00     0.000 C 
BRANCH  11  12
ATOM     12  C   UNL     1      11.209  17.722 161.061  1.00  0.00     0.000 C 
BRANCH  12  13
ATOM     13  C   UNL     1      11.335  16.190 161.021  1.00  0.00     0.000 C 
BRANCH  13  14
ATOM     14  C   UNL     1      12.164  15.697 159.826  1.00  0.00     0.000 C 
BRANCH  14  15
ATOM     15  C   UNL     1      13.464  14.997 160.254  1.00  0.00     0.000 C 
BRANCH  15  16
ATOM     16  C   UNL     1      13.416  14.612 161.738  1.00  0.00     0.006 C 
BRANCH  16  17
ATOM     17  C   UNL     1      14.487  15.360 162.535  1.00  0.00     0.053 C 
BRANCH  17  18
ATOM     18  C   UNL     1      15.542  14.413 163.014  1.00  0.00     0.041 C 
ATOM     19  O   UNL     1      15.348  13.717 164.046  1.00  0.00    -0.550 OA
ATOM     20  O   UNL     1      16.759  14.334 162.349  1.00  0.00    -0.550 OA
ENDBRANCH  17  18
ENDBRANCH  16  17
ENDBRANCH  15  16
ENDBRANCH  14  15
ENDBRANCH  13  14
ENDBRANCH  12  13
ENDBRANCH  11  12
ENDBRANCH   1  11
TORSDOF 15
ENDMDL
MODEL 4
REMARK VINA RESULT:    -5.094      2.025      6.154
REMARK INTER + INTRA:         -11.458
REMARK INTER:                  -9.338
REMARK INTRA:                  -2.120
REMARK UNBOUND:                -1.897
REMARK SMILES O=C([O-])CCCCCCCCCCCCCCC(=O)[O-]
REMARK SMILES IDX 10 1 9 2 8 3 7 4 6 5 5 6 4 7 2 8 1 9 3 10 11 11 12 12 13 13
REMARK SMILES IDX 14 14 15 15 16 16 17 17 18 18 19 19 20 20
REMARK H PARENT
REMARK Flexibility Score: inf
ROOT
ATOM      1  C   UNL     1      10.366  15.452 160.360  1.00  0.00     0.000 C 
ENDROOT
BRANCH   1   2
ATOM      2  C   UNL     1       9.480  14.953 161.515  1.00  0.00     0.000 C 
BRANCH   2   3
ATOM      3  C   UNL     1      10.127  13.781 162.283  1.00  0.00     0.000 C 
BRANCH   3   4
ATOM      4  C   UNL     1      10.754  12.714 161.370  1.00  0.00     0.000 C 
BRANCH   4   5
ATOM      5  C   UNL     1      12.214  12.400 161.736  1.00  0.00     0.000 C 
BRANCH   5   6
ATOM      6  C   UNL     1      12.918  13.585 162.417  1.00  0.00     0.006 C 
BRANCH   6   7
ATOM      7  C   UNL     1      14.367  13.267 162.809  1.00  0.00     0.053 C 
BRANCH   7   8
ATOM      8  C   UNL     1      15.200  14.510 162.775  1.00  0.00     0.041 C 
ATOM      9  O   UNL     1      16.457  14.430 162.768  1.00  0.00    -0.550 OA
ATOM     10  O   UNL     1      14.590  15.756 162.799  1.00  0.00    -0.550 OA
ENDBRANCH   7   8
ENDBRANCH   6   7
ENDBRANCH   5   6
ENDBRANCH   4   5
ENDBRANCH   3   4
ENDBRANCH   2   3
ENDBRANCH   1   2
BRANCH   1  11
ATOM     11  C   UNL     1      11.418  16.479 160.832  1.00  0.00     0.000 C 
BRANCH  11  12
ATOM     12  C   UNL     1      11.212  17.887 160.249  1.00  0.00     0.000 C 
BRANCH  12  13
ATOM     13  C   UNL     1      11.174  18.980 161.329  1.00  0.00     0.000 C 
BRANCH  13  14
ATOM     14  C   UNL     1      11.509  18.440 162.728  1.00  0.00     0.000 C 
BRANCH  14  15
ATOM     15  C   UNL     1      10.349  18.610 163.722  1.00  0.00     0.000 C 
BRANCH  15  16
ATOM     16  C   UNL     1      10.026  17.282 164.420  1.00  0.00     0.006 C 
BRANCH  16  17
ATOM     17  C   UNL     1      11.275  16.404 164.534  1.00  0.00     0.053 C 
BRANCH  17  18
ATOM     18  C   UNL     1      11.082  15.351 165.579  1.00  0.00     0.041 C 
ATOM     19  O   UNL     1      11.628  14.224 165.452  1.00  0.00    -0.550 OA
ATOM     20  O   UNL     1      10.259  15.598 166.671  1.00  0.00    -0.550 OA
ENDBRANCH  17  18
ENDBRANCH  16  17
ENDBRANCH  15  16
ENDBRANCH  14  15
ENDBRANCH  13  14
ENDBRANCH  12  13
ENDBRANCH  11  12
ENDBRANCH   1  11
TORSDOF 15
ENDMDL
MODEL 5
REMARK VINA RESULT:    -5.066      0.641      6.763
REMARK INTER + INTRA:         -11.404
REMARK INTER:                  -9.532
REMARK INTRA:                  -1.872
REMARK UNBOUND:                -1.897
REMARK SMILES O=C([O-])CCCCCCCCCCCCCCC(=O)[O-]
REMARK SMILES IDX 10 1 9 2 8 3 7 4 6 5 5 6 4 7 2 8 1 9 3 10 11 11 12 12 13 13
REMARK SMILES IDX 14 14 15 15 16 16 17 17 18 18 19 19 20 20
REMARK H PARENT
REMARK Flexibility Score: inf
ROOT
ATOM      1  C   UNL     1      10.469  15.260 160.611  1.00  0.00     0.000 C 
ENDROOT
BRANCH   1   2
ATOM      2  C   UNL     1       9.714  14.646 161.804  1.00  0.00     0.000 C 
BRANCH   2   3
ATOM      3  C   UNL     1       9.801  13.104 161.819  1.00  0.00     0.000 C 
BRANCH   3   4
ATOM      4  C   UNL     1      11.099  12.565 162.443  1.00  0.00     0.000 C 
BRANCH   4   5
ATOM      5  C   UNL     1      11.345  13.102 163.863  1.00  0.00     0.000 C 
BRANCH   5   6
ATOM      6  C   UNL     1      12.597  13.989 163.948  1.00  0.00     0.006 C 
BRANCH   6   7
ATOM      7  C   UNL     1      13.648  13.633 162.889  1.00  0.00     0.053 C 
BRANCH   7   8
ATOM      8  C   UNL     1      14.828  14.547 162.998  1.00  0.00     0.041 C 
ATOM      9  O   UNL     1      14.686  15.788 162.841  1.00  0.00    -0.550 OA
ATOM     10  O   UNL     1      16.094  14.022 163.223  1.00  0.00    -0.550 OA
ENDBRANCH   7   8
ENDBRANCH   6   7
ENDBRANCH   5   6
ENDBRANCH   4   5
ENDBRANCH   3   4
ENDBRANCH   2   3
ENDBRANCH   1   2
BRANCH   1  11
ATOM     11  C   UNL     1      11.658  16.135 161.061  1.00  0.00     0.000 C 
BRANCH  11  12
ATOM     12  C   UNL     1      11.240  17.496 161.642  1.00  0.00     0.000 C 
BRANCH  12  13
ATOM     13  C   UNL     1      11.590  17.643 163.131  1.00  0.00     0.000 C 
BRANCH  13  14
ATOM     14  C   UNL     1      10.372  18.015 163.990  1.00  0.00     0.000 C 
BRANCH  14  15
ATOM     15  C   UNL     1       9.821  16.820 164.786  1.00  0.00     0.000 C 
BRANCH  15  16
ATOM     16  C   UNL     1       8.678  17.257 165.710  1.00  0.00     0.006 C 
BRANCH  16  17
ATOM     17  C   UNL     1       8.678  16.444 167.007  1.00  0.00     0.053 C 
BRANCH  17  18
ATOM     18  C   UNL     1       7.357  16.559 167.699  1.00  0.00     0.041 C 
ATOM     19  O   UNL     1       6.633  15.541 167.857  1.00  0.00    -0.550 OA
ATOM     20  O   UNL     1       6.902  17.800 168.126  1.00  0.00    -0.550 OA
ENDBRANCH  17  18
ENDBRANCH  16  17
ENDBRANCH  15  16
ENDBRANCH  14  15
ENDBRANCH  13  14
ENDBRANCH  12  13
ENDBRANCH  11  12
ENDBRANCH   1  11
TORSDOF 15
ENDMDL
MODEL 6
REMARK VINA RESULT:    -5.051      2.013      2.488
REMARK INTER + INTRA:         -11.376
REMARK INTER:                  -9.322
REMARK INTRA:                  -2.055
REMARK UNBOUND:                -1.897
REMARK SMILES O=C([O-])CCCCCCCCCCCCCCC(=O)[O-]
REMARK SMILES IDX 10 1 9 2 8 3 7 4 6 5 5 6 4 7 2 8 1 9 3 10 11 11 12 12 13 13
REMARK SMILES IDX 14 14 15 15 16 16 17 17 18 18 19 19 20 20
REMARK H PARENT
REMARK Flexibility Score: inf
ROOT
ATOM      1  C   UNL     1      11.739  16.402 160.680  1.00  0.00     0.000 C 
ENDROOT
BRANCH   1   2
ATOM      2  C   UNL     1      11.179  17.729 160.136  1.00  0.00     0.000 C 
BRANCH   2   3
ATOM      3  C   UNL     1      11.185  18.846 161.202  1.00  0.00     0.000 C 
BRANCH   3   4
ATOM      4  C   UNL     1      11.596  18.361 162.602  1.00  0.00     0.000 C 
BRANCH   4   5
ATOM      5  C   UNL     1      10.465  18.497 163.635  1.00  0.00     0.000 C 
BRANCH   5   6
ATOM      6  C   UNL     1      10.117  17.159 164.306  1.00  0.00     0.006 C 
BRANCH   6   7
ATOM      7  C   UNL     1      11.349  16.276 164.541  1.00  0.00     0.053 C 
BRANCH   7   8
ATOM      8  C   UNL     1      11.071  15.264 165.608  1.00  0.00     0.041 C 
ATOM      9  O   UNL     1      11.530  14.096 165.510  1.00  0.00    -0.550 OA
ATOM     10  O   UNL     1      10.262  15.597 166.687  1.00  0.00    -0.550 OA
ENDBRANCH   7   8
ENDBRANCH   6   7
ENDBRANCH   5   6
ENDBRANCH   4   5
ENDBRANCH   3   4
ENDBRANCH   2   3
ENDBRANCH   1   2
BRANCH   1  11
ATOM     11  C   UNL     1      10.792  15.213 160.406  1.00  0.00     0.000 C 
BRANCH  11  12
ATOM     12  C   UNL     1       9.694  15.040 161.468  1.00  0.00     0.000 C 
BRANCH  12  13
ATOM     13  C   UNL     1       9.633  13.613 162.035  1.00  0.00     0.000 C 
BRANCH  13  14
ATOM     14  C   UNL     1      10.787  12.730 161.538  1.00  0.00     0.000 C 
BRANCH  14  15
ATOM     15  C   UNL     1      11.918  12.596 162.570  1.00  0.00     0.000 C 
BRANCH  15  16
ATOM     16  C   UNL     1      13.201  13.271 162.068  1.00  0.00     0.006 C 
BRANCH  16  17
ATOM     17  C   UNL     1      14.226  13.410 163.196  1.00  0.00     0.053 C 
BRANCH  17  18
ATOM     18  C   UNL     1      15.088  14.613 162.976  1.00  0.00     0.041 C 
ATOM     19  O   UNL     1      16.337  14.489 162.881  1.00  0.00    -0.550 OA
ATOM     20  O   UNL     1      14.516  15.878 162.926  1.00  0.00    -0.550 OA
ENDBRANCH  17  18
ENDBRANCH  16  17
ENDBRANCH  15  16
ENDBRANCH  14  15
ENDBRANCH  13  14
ENDBRANCH  12  13
ENDBRANCH  11  12
ENDBRANCH   1  11
TORSDOF 15
ENDMDL
MODEL 7
REMARK VINA RESULT:    -5.010      1.990      6.691
REMARK INTER + INTRA:         -11.301
REMARK INTER:                  -9.246
REMARK INTRA:                  -2.054
REMARK UNBOUND:                -1.897
REMARK SMILES O=C([O-])CCCCCCCCCCCCCCC(=O)[O-]
REMARK SMILES IDX 10 1 9 2 8 3 7 4 6 5 5 6 4 7 2 8 1 9 3 10 11 11 12 12 13 13
REMARK SMILES IDX 14 14 15 15 16 16 17 17 18 18 19 19 20 20
REMARK H PARENT
REMARK Flexibility Score: inf
ROOT
ATOM      1  C   UNL     1      13.912  14.522 163.219  1.00  0.00     0.000 C 
ENDROOT
BRANCH   1   2
ATOM      2  C   UNL     1      13.538  13.956 161.837  1.00  0.00     0.000 C 
BRANCH   2   3
ATOM      3  C   UNL     1      12.472  12.842 161.932  1.00  0.00     0.000 C 
BRANCH   3   4
ATOM      4  C   UNL     1      11.269  13.211 162.817  1.00  0.00     0.000 C 
BRANCH   4   5
ATOM      5  C   UNL     1      10.082  13.760 162.009  1.00  0.00     0.000 C 
BRANCH   5   6
ATOM      6  C   UNL     1      10.149  15.284 161.824  1.00  0.00     0.006 C 
BRANCH   6   7
ATOM      7  C   UNL     1      10.356  15.694 160.360  1.00  0.00     0.053 C 
BRANCH   7   8
ATOM      8  C   UNL     1      11.133  16.970 160.281  1.00  0.00     0.041 C 
ATOM      9  O   UNL     1      11.040  17.827 161.198  1.00  0.00    -0.550 OA
ATOM     10  O   UNL     1      11.923  17.234 159.170  1.00  0.00    -0.550 OA
ENDBRANCH   7   8
ENDBRANCH   6   7
ENDBRANCH   5   6
ENDBRANCH   4   5
ENDBRANCH   3   4
ENDBRANCH   2   3
ENDBRANCH   1   2
BRANCH   1  11
ATOM     11  C   UNL     1      13.842  16.064 163.256  1.00  0.00     0.000 C 
BRANCH  11  12
ATOM     12  C   UNL     1      12.633  16.610 164.033  1.00  0.00     0.000 C 
BRANCH  12  13
ATOM     13  C   UNL     1      12.266  15.745 165.250  1.00  0.00     0.000 C 
BRANCH  13  14
ATOM     14  C   UNL     1      10.755  15.727 165.528  1.00  0.00     0.000 C 
BRANCH  14  15
ATOM     15  C   UNL     1      10.016  16.900 164.862  1.00  0.00     0.000 C 
BRANCH  15  16
ATOM     16  C   UNL     1       8.766  17.285 165.663  1.00  0.00     0.006 C 
BRANCH  16  17
ATOM     17  C   UNL     1       8.699  16.511 166.982  1.00  0.00     0.053 C 
BRANCH  17  18
ATOM     18  C   UNL     1       7.514  16.946 167.786  1.00  0.00     0.041 C 
ATOM     19  O   UNL     1       7.173  18.158 167.807  1.00  0.00    -0.550 OA
ATOM     20  O   UNL     1       6.816  16.021 168.551  1.00  0.00    -0.550 OA
ENDBRANCH  17  18
ENDBRANCH  16  17
ENDBRANCH  15  16
ENDBRANCH  14  15
ENDBRANCH  13  14
ENDBRANCH  12  13
ENDBRANCH  11  12
ENDBRANCH   1  11
TORSDOF 15
ENDMDL
MODEL 8
REMARK VINA RESULT:    -4.979      1.652      3.125
REMARK INTER + INTRA:         -11.242
REMARK INTER:                  -9.230
REMARK INTRA:                  -2.012
REMARK UNBOUND:                -1.897
REMARK SMILES O=C([O-])CCCCCCCCCCCCCCC(=O)[O-]
REMARK SMILES IDX 10 1 9 2 8 3 7 4 6 5 5 6 4 7 2 8 1 9 3 10 11 11 12 12 13 13
REMARK SMILES IDX 14 14 15 15 16 16 17 17 18 18 19 19 20 20
REMARK H PARENT
REMARK Flexibility Score: inf
ROOT
ATOM      1  C   UNL     1      12.842  16.560 164.092  1.00  0.00     0.000 C 
ENDROOT
BRANCH   1   2
ATOM      2  C   UNL     1      12.053  15.733 165.123  1.00  0.00     0.000 C 
BRANCH   2   3
ATOM      3  C   UNL     1      10.539  16.033 165.076  1.00  0.00     0.000 C 
BRANCH   3   4
ATOM      4  C   UNL     1      10.198  17.397 164.455  1.00  0.00     0.000 C 
BRANCH   4   5
ATOM      5  C   UNL     1       9.098  18.144 165.227  1.00  0.00     0.000 C 
BRANCH   5   6
ATOM      6  C   UNL     1       8.062  17.192 165.846  1.00  0.00     0.006 C 
BRANCH   6   7
ATOM      7  C   UNL     1       7.966  17.331 167.371  1.00  0.00     0.053 C 
BRANCH   7   8
ATOM      8  C   UNL     1       7.130  16.229 167.943  1.00  0.00     0.041 C 
ATOM      9  O   UNL     1       5.964  16.029 167.511  1.00  0.00    -0.550 OA
ATOM     10  O   UNL     1       7.620  15.456 168.987  1.00  0.00    -0.550 OA
ENDBRANCH   7   8
ENDBRANCH   6   7
ENDBRANCH   5   6
ENDBRANCH   4   5
ENDBRANCH   3   4
ENDBRANCH   2   3
ENDBRANCH   1   2
BRANCH   1  11
ATOM     11  C   UNL     1      13.665  15.671 163.135  1.00  0.00     0.000 C 
BRANCH  11  12
ATOM     12  C   UNL     1      13.647  14.179 163.509  1.00  0.00     0.000 C 
BRANCH  12  13
ATOM     13  C   UNL     1      13.001  13.301 162.426  1.00  0.00     0.000 C 
BRANCH  13  14
ATOM     14  C   UNL     1      11.549  12.924 162.759  1.00  0.00     0.000 C 
BRANCH  14  15
ATOM     15  C   UNL     1      10.569  13.288 161.632  1.00  0.00     0.000 C 
BRANCH  15  16
ATOM     16  C   UNL     1       9.933  14.661 161.882  1.00  0.00     0.006 C 
BRANCH  16  17
ATOM     17  C   UNL     1       9.934  15.508 160.606  1.00  0.00     0.053 C 
BRANCH  17  18
ATOM     18  C   UNL     1      11.181  16.329 160.523  1.00  0.00     0.041 C 
ATOM     19  O   UNL     1      11.213  17.485 161.021  1.00  0.00    -0.550 OA
ATOM     20  O   UNL     1      12.294  15.838 159.852  1.00  0.00    -0.550 OA
ENDBRANCH  17  18
ENDBRANCH  16  17
ENDBRANCH  15  16
ENDBRANCH  14  15
ENDBRANCH  13  14
ENDBRANCH  12  13
ENDBRANCH  11  12
ENDBRANCH   1  11
TORSDOF 15
ENDMDL
MODEL 9
REMARK VINA RESULT:    -4.909      2.184      3.021
REMARK INTER + INTRA:         -11.111
REMARK INTER:                  -9.612
REMARK INTRA:                  -1.498
REMARK UNBOUND:                -1.897
REMARK SMILES O=C([O-])CCCCCCCCCCCCCCC(=O)[O-]
REMARK SMILES IDX 10 1 9 2 8 3 7 4 6 5 5 6 4 7 2 8 1 9 3 10 11 11 12 12 13 13
REMARK SMILES IDX 14 14 15 15 16 16 17 17 18 18 19 19 20 20
REMARK H PARENT
REMARK Flexibility Score: inf
ROOT
ATOM      1  C   UNL     1      11.182  17.967 161.687  1.00  0.00     0.000 C 
ENDROOT
BRANCH   1   2
ATOM      2  C   UNL     1      11.059  18.016 163.220  1.00  0.00     0.000 C 
BRANCH   2   3
ATOM      3  C   UNL     1      10.643  16.653 163.816  1.00  0.00     0.000 C 
BRANCH   3   4
ATOM      4  C   UNL     1       9.806  16.770 165.101  1.00  0.00     0.000 C 
BRANCH   4   5
ATOM      5  C   UNL     1       8.949  18.045 165.139  1.00  0.00     0.000 C 
BRANCH   5   6
ATOM      6  C   UNL     1       7.661  17.865 165.958  1.00  0.00     0.006 C 
BRANCH   6   7
ATOM      7  C   UNL     1       7.934  17.425 167.402  1.00  0.00     0.053 C 
BRANCH   7   8
ATOM      8  C   UNL     1       7.223  16.142 167.701  1.00  0.00     0.041 C 
ATOM      9  O   UNL     1       6.073  15.932 167.236  1.00  0.00    -0.550 OA
ATOM     10  O   UNL     1       7.812  15.200 168.533  1.00  0.00    -0.550 OA
ENDBRANCH   7   8
ENDBRANCH   6   7
ENDBRANCH   5   6
ENDBRANCH   4   5
ENDBRANCH   3   4
ENDBRANCH   2   3
ENDBRANCH   1   2
BRANCH   1  11
ATOM     11  C   UNL     1      10.946  16.547 161.127  1.00  0.00     0.000 C 
BRANCH  11  12
ATOM     12  C   UNL     1      11.936  16.147 160.021  1.00  0.00     0.000 C 
BRANCH  12  13
ATOM     13  C   UNL     1      12.902  15.034 160.459  1.00  0.00     0.000 C 
BRANCH  13  14
ATOM     14  C   UNL     1      13.375  15.201 161.911  1.00  0.00     0.000 C 
BRANCH  14  15
ATOM     15  C   UNL     1      13.683  13.858 162.592  1.00  0.00     0.000 C 
BRANCH  15  16
ATOM     16  C   UNL     1      12.701  12.773 162.133  1.00  0.00     0.006 C 
BRANCH  16  17
ATOM     17  C   UNL     1      11.409  12.818 162.954  1.00  0.00     0.053 C 
BRANCH  17  18
ATOM     18  C   UNL     1      10.215  12.753 162.057  1.00  0.00     0.041 C 
ATOM     19  O   UNL     1       9.433  13.737 161.969  1.00  0.00    -0.550 OA
ATOM     20  O   UNL     1       9.936  11.587 161.354  1.00  0.00    -0.550 OA
ENDBRANCH  17  18
ENDBRANCH  16  17
ENDBRANCH  15  16
ENDBRANCH  14  15
ENDBRANCH  13  14
ENDBRANCH  12  13
ENDBRANCH  11  12
ENDBRANCH   1  11
TORSDOF 15
ENDMDL
