MODEL 1
REMARK VINA RESULT:    -5.824      0.000      0.000
REMARK INTER + INTRA:          -6.775
REMARK INTER:                  -6.845
REMARK INTRA:                   0.070
REMARK UNBOUND:                 0.070
REMARK SMILES O=C([O-])C=Cc1ccc(O)c(O)c1
REMARK SMILES IDX 6 1 13 2 7 3 11 4 8 5 9 6 5 7 4 8 2 9 1 10 3 11 12 12 10 14
REMARK H PARENT 12 13 10 15
REMARK Flexibility Score: inf
ROOT
ATOM      1  C   UNL     1     -24.254 -16.641 -15.497  1.00  0.00    -0.022 A 
ATOM      2  C   UNL     1     -25.640 -16.775 -15.338  1.00  0.00     0.058 A 
ATOM      3  C   UNL     1     -23.395 -17.306 -14.611  1.00  0.00     0.012 A 
ATOM      4  C   UNL     1     -26.172 -17.604 -14.341  1.00  0.00     0.157 A 
ATOM      5  C   UNL     1     -23.915 -18.135 -13.616  1.00  0.00     0.051 A 
ATOM      6  C   UNL     1     -25.297 -18.298 -13.472  1.00  0.00     0.157 A 
ENDROOT
BRANCH   1   7
ATOM      7  C   UNL     1     -23.730 -15.717 -16.523  1.00  0.00     0.010 C 
ATOM      8  C   UNL     1     -23.084 -14.566 -16.276  1.00  0.00     0.025 C 
BRANCH   8   9
ATOM      9  C   UNL     1     -22.618 -14.114 -14.952  1.00  0.00     0.064 C 
ATOM     10  O   UNL     1     -23.463 -13.875 -14.051  1.00  0.00    -0.545 OA
ATOM     11  O   UNL     1     -21.272 -13.875 -14.699  1.00  0.00    -0.545 OA
ENDBRANCH   8   9
ENDBRANCH   1   7
BRANCH   4  12
ATOM     12  O   UNL     1     -27.562 -17.704 -14.251  1.00  0.00    -0.504 OA
ATOM     13  H   UNL     1     -28.203 -17.016 -14.619  1.00  0.00     0.293 HD
ENDBRANCH   4  12
BRANCH   6  14
ATOM     14  O   UNL     1     -25.753 -19.146 -12.461  1.00  0.00    -0.504 OA
ATOM     15  H   UNL     1     -26.703 -19.481 -12.390  1.00  0.00     0.293 HD
ENDBRANCH   6  14
TORSDOF 4
ENDMDL
MODEL 2
REMARK VINA RESULT:    -5.750      1.382      1.729
REMARK INTER + INTRA:          -6.689
REMARK INTER:                  -7.007
REMARK INTRA:                   0.319
REMARK UNBOUND:                 0.070
REMARK SMILES O=C([O-])C=Cc1ccc(O)c(O)c1
REMARK SMILES IDX 6 1 13 2 7 3 11 4 8 5 9 6 5 7 4 8 2 9 1 10 3 11 12 12 10 14
REMARK H PARENT 12 13 10 15
REMARK Flexibility Score: inf
ROOT
ATOM      1  C   UNL     1     -22.926 -16.788 -14.195  1.00  0.00    -0.022 A 
ATOM      2  C   UNL     1     -24.093 -17.165 -14.873  1.00  0.00     0.058 A 
ATOM      3  C   UNL     1     -22.747 -17.186 -12.863  1.00  0.00     0.012 A 
ATOM      4  C   UNL     1     -25.054 -17.975 -14.253  1.00  0.00     0.157 A 
ATOM      5  C   UNL     1     -23.697 -17.995 -12.236  1.00  0.00     0.051 A 
ATOM      6  C   UNL     1     -24.850 -18.400 -12.918  1.00  0.00     0.157 A 
ENDROOT
BRANCH   1   7
ATOM      7  C   UNL     1     -21.960 -15.890 -14.862  1.00  0.00     0.010 C 
ATOM      8  C   UNL     1     -22.275 -14.767 -15.527  1.00  0.00     0.025 C 
BRANCH   8   9
ATOM      9  C   UNL     1     -23.606 -14.131 -15.551  1.00  0.00     0.064 C 
ATOM     10  O   UNL     1     -24.185 -13.875 -14.463  1.00  0.00    -0.545 OA
ATOM     11  O   UNL     1     -24.266 -13.875 -16.747  1.00  0.00    -0.545 OA
ENDBRANCH   8   9
ENDBRANCH   1   7
BRANCH   4  12
ATOM     12  O   UNL     1     -26.185 -18.327 -14.992  1.00  0.00    -0.504 OA
ATOM     13  H   UNL     1     -26.817 -19.072 -14.736  1.00  0.00     0.293 HD
ENDBRANCH   4  12
BRANCH   6  14
ATOM     14  O   UNL     1     -25.759 -19.213 -12.237  1.00  0.00    -0.504 OA
ATOM     15  H   UNL     1     -25.696 -19.428 -11.252  1.00  0.00     0.293 HD
ENDBRANCH   6  14
TORSDOF 4
ENDMDL
MODEL 3
REMARK VINA RESULT:    -5.566      0.865      1.933
REMARK INTER + INTRA:          -6.472
REMARK INTER:                  -6.863
REMARK INTRA:                   0.391
REMARK UNBOUND:                 0.070
REMARK SMILES O=C([O-])C=Cc1ccc(O)c(O)c1
REMARK SMILES IDX 6 1 13 2 7 3 11 4 8 5 9 6 5 7 4 8 2 9 1 10 3 11 12 12 10 14
REMARK H PARENT 12 13 10 15
REMARK Flexibility Score: inf
ROOT
ATOM      1  C   UNL     1     -24.415 -16.571 -15.366  1.00  0.00    -0.022 A 
ATOM      2  C   UNL     1     -23.487 -17.087 -14.452  1.00  0.00     0.058 A 
ATOM      3  C   UNL     1     -25.752 -16.990 -15.298  1.00  0.00     0.012 A 
ATOM      4  C   UNL     1     -23.889 -17.972 -13.443  1.00  0.00     0.157 A 
ATOM      5  C   UNL     1     -26.162 -17.870 -14.295  1.00  0.00     0.051 A 
ATOM      6  C   UNL     1     -25.247 -18.365 -13.360  1.00  0.00     0.157 A 
ENDROOT
BRANCH   1   7
ATOM      7  C   UNL     1     -23.946 -15.682 -16.449  1.00  0.00     0.010 C 
ATOM      8  C   UNL     1     -23.233 -14.558 -16.278  1.00  0.00     0.025 C 
BRANCH   8   9
ATOM      9  C   UNL     1     -22.631 -14.112 -15.007  1.00  0.00     0.064 C 
ATOM     10  O   UNL     1     -23.379 -13.875 -14.022  1.00  0.00    -0.545 OA
ATOM     11  O   UNL     1     -21.266 -13.877 -14.893  1.00  0.00    -0.545 OA
ENDBRANCH   8   9
ENDBRANCH   1   7
BRANCH   4  12
ATOM     12  O   UNL     1     -22.915 -18.434 -12.555  1.00  0.00    -0.504 OA
ATOM     13  H   UNL     1     -21.989 -18.037 -12.476  1.00  0.00     0.293 HD
ENDBRANCH   4  12
BRANCH   6  14
ATOM     14  O   UNL     1     -25.722 -19.237 -12.379  1.00  0.00    -0.504 OA
ATOM     15  H   UNL     1     -25.222 -19.458 -11.529  1.00  0.00     0.293 HD
ENDBRANCH   6  14
TORSDOF 4
ENDMDL
MODEL 4
REMARK VINA RESULT:    -5.453      1.578      4.906
REMARK INTER + INTRA:          -6.339
REMARK INTER:                  -7.407
REMARK INTRA:                   1.069
REMARK UNBOUND:                 0.070
REMARK SMILES O=C([O-])C=Cc1ccc(O)c(O)c1
REMARK SMILES IDX 6 1 13 2 7 3 11 4 8 5 9 6 5 7 4 8 2 9 1 10 3 11 12 12 10 14
REMARK H PARENT 12 13 10 15
REMARK Flexibility Score: inf
ROOT
ATOM      1  C   UNL     1     -24.087 -16.168 -14.752  1.00  0.00    -0.022 A 
ATOM      2  C   UNL     1     -22.827 -16.780 -14.768  1.00  0.00     0.058 A 
ATOM      3  C   UNL     1     -24.188 -14.816 -14.395  1.00  0.00     0.012 A 
ATOM      4  C   UNL     1     -21.668 -16.046 -14.484  1.00  0.00     0.157 A 
ATOM      5  C   UNL     1     -23.040 -14.075 -14.113  1.00  0.00     0.051 A 
ATOM      6  C   UNL     1     -21.776 -14.673 -14.158  1.00  0.00     0.157 A 
ENDROOT
BRANCH   1   7
ATOM      7  C   UNL     1     -25.292 -16.986 -15.004  1.00  0.00     0.010 C 
ATOM      8  C   UNL     1     -25.683 -18.040 -14.270  1.00  0.00     0.025 C 
BRANCH   8   9
ATOM      9  C   UNL     1     -25.093 -18.453 -12.983  1.00  0.00     0.064 C 
ATOM     10  O   UNL     1     -25.706 -19.283 -12.263  1.00  0.00    -0.545 OA
ATOM     11  O   UNL     1     -23.911 -17.892 -12.513  1.00  0.00    -0.545 OA
ENDBRANCH   8   9
ENDBRANCH   1   7
BRANCH   4  12
ATOM     12  O   UNL     1     -20.444 -16.715 -14.536  1.00  0.00    -0.504 OA
ATOM     13  H   UNL     1     -20.079 -17.284 -13.785  1.00  0.00     0.293 HD
ENDBRANCH   4  12
BRANCH   6  14
ATOM     14  O   UNL     1     -20.666 -13.876 -13.870  1.00  0.00    -0.504 OA
ATOM     15  H   UNL     1     -19.905 -13.713 -14.515  1.00  0.00     0.293 HD
ENDBRANCH   6  14
TORSDOF 4
ENDMDL
MODEL 5
REMARK VINA RESULT:    -5.387      0.996      2.369
REMARK INTER + INTRA:          -6.261
REMARK INTER:                  -6.574
REMARK INTRA:                   0.313
REMARK UNBOUND:                 0.070
REMARK SMILES O=C([O-])C=Cc1ccc(O)c(O)c1
REMARK SMILES IDX 6 1 13 2 7 3 11 4 8 5 9 6 5 7 4 8 2 9 1 10 3 11 12 12 10 14
REMARK H PARENT 12 13 10 15
REMARK Flexibility Score: inf
ROOT
ATOM      1  C   UNL     1     -23.226 -17.163 -13.938  1.00  0.00    -0.022 A 
ATOM      2  C   UNL     1     -23.817 -17.984 -12.968  1.00  0.00     0.058 A 
ATOM      3  C   UNL     1     -23.975 -16.778 -15.059  1.00  0.00     0.012 A 
ATOM      4  C   UNL     1     -25.156 -18.378 -13.080  1.00  0.00     0.157 A 
ATOM      5  C   UNL     1     -25.311 -17.164 -15.179  1.00  0.00     0.051 A 
ATOM      6  C   UNL     1     -25.915 -17.958 -14.198  1.00  0.00     0.157 A 
ENDROOT
BRANCH   1   7
ATOM      7  C   UNL     1     -21.796 -16.811 -13.814  1.00  0.00     0.010 C 
ATOM      8  C   UNL     1     -21.247 -15.646 -14.194  1.00  0.00     0.025 C 
BRANCH   8   9
ATOM      9  C   UNL     1     -21.993 -14.448 -14.624  1.00  0.00     0.064 C 
ATOM     10  O   UNL     1     -21.692 -13.893 -15.712  1.00  0.00    -0.545 OA
ATOM     11  O   UNL     1     -22.972 -13.876 -13.820  1.00  0.00    -0.545 OA
ENDBRANCH   8   9
ENDBRANCH   1   7
BRANCH   4  12
ATOM     12  O   UNL     1     -25.686 -19.182 -12.068  1.00  0.00    -0.504 OA
ATOM     13  H   UNL     1     -25.967 -20.143 -12.200  1.00  0.00     0.293 HD
ENDBRANCH   4  12
BRANCH   6  14
ATOM     14  O   UNL     1     -27.256 -18.304 -14.374  1.00  0.00    -0.504 OA
ATOM     15  H   UNL     1     -27.959 -18.228 -13.652  1.00  0.00     0.293 HD
ENDBRANCH   6  14
TORSDOF 4
ENDMDL
MODEL 6
REMARK VINA RESULT:    -5.144      1.513      2.442
REMARK INTER + INTRA:          -5.976
REMARK INTER:                  -7.075
REMARK INTRA:                   1.099
REMARK UNBOUND:                 0.070
REMARK SMILES O=C([O-])C=Cc1ccc(O)c(O)c1
REMARK SMILES IDX 6 1 13 2 7 3 11 4 8 5 9 6 5 7 4 8 2 9 1 10 3 11 12 12 10 14
REMARK H PARENT 12 13 10 15
REMARK Flexibility Score: inf
ROOT
ATOM      1  C   UNL     1     -23.908 -15.319 -14.864  1.00  0.00    -0.022 A 
ATOM      2  C   UNL     1     -23.501 -16.082 -13.761  1.00  0.00     0.058 A 
ATOM      3  C   UNL     1     -25.010 -15.740 -15.622  1.00  0.00     0.012 A 
ATOM      4  C   UNL     1     -24.212 -17.226 -13.379  1.00  0.00     0.157 A 
ATOM      5  C   UNL     1     -25.726 -16.878 -15.248  1.00  0.00     0.051 A 
ATOM      6  C   UNL     1     -25.344 -17.627 -14.129  1.00  0.00     0.157 A 
ENDROOT
BRANCH   1   7
ATOM      7  C   UNL     1     -23.103 -14.148 -15.271  1.00  0.00     0.010 C 
ATOM      8  C   UNL     1     -21.859 -13.875 -14.845  1.00  0.00     0.025 C 
BRANCH   8   9
ATOM      9  C   UNL     1     -21.007 -14.782 -14.052  1.00  0.00     0.064 C 
ATOM     10  O   UNL     1     -20.464 -14.353 -13.001  1.00  0.00    -0.545 OA
ATOM     11  O   UNL     1     -20.732 -16.076 -14.478  1.00  0.00    -0.545 OA
ENDBRANCH   8   9
ENDBRANCH   1   7
BRANCH   4  12
ATOM     12  O   UNL     1     -23.762 -17.929 -12.260  1.00  0.00    -0.504 OA
ATOM     13  H   UNL     1     -22.813 -18.255 -12.141  1.00  0.00     0.293 HD
ENDBRANCH   4  12
BRANCH   6  14
ATOM     14  O   UNL     1     -26.106 -18.751 -13.805  1.00  0.00    -0.504 OA
ATOM     15  H   UNL     1     -27.116 -18.771 -13.815  1.00  0.00     0.293 HD
ENDBRANCH   6  14
TORSDOF 4
ENDMDL
MODEL 7
REMARK VINA RESULT:    -4.922      2.581      3.724
REMARK INTER + INTRA:          -5.715
REMARK INTER:                  -5.689
REMARK INTRA:                  -0.027
REMARK UNBOUND:                 0.070
REMARK SMILES O=C([O-])C=Cc1ccc(O)c(O)c1
REMARK SMILES IDX 6 1 13 2 7 3 11 4 8 5 9 6 5 7 4 8 2 9 1 10 3 11 12 12 10 14
REMARK H PARENT 12 13 10 15
REMARK Flexibility Score: inf
ROOT
ATOM      1  C   UNL     1     -23.533 -15.952 -13.728  1.00  0.00    -0.022 A 
ATOM      2  C   UNL     1     -22.183 -15.979 -14.102  1.00  0.00     0.058 A 
ATOM      3  C   UNL     1     -24.179 -17.154 -13.402  1.00  0.00     0.012 A 
ATOM      4  C   UNL     1     -21.461 -17.180 -14.101  1.00  0.00     0.157 A 
ATOM      5  C   UNL     1     -23.469 -18.355 -13.397  1.00  0.00     0.051 A 
ATOM      6  C   UNL     1     -22.112 -18.384 -13.738  1.00  0.00     0.157 A 
ENDROOT
BRANCH   1   7
ATOM      7  C   UNL     1     -24.276 -14.677 -13.792  1.00  0.00     0.010 C 
ATOM      8  C   UNL     1     -24.652 -14.052 -14.919  1.00  0.00     0.025 C 
BRANCH   8   9
ATOM      9  C   UNL     1     -24.560 -14.613 -16.280  1.00  0.00     0.064 C 
ATOM     10  O   UNL     1     -24.179 -13.875 -17.226  1.00  0.00    -0.545 OA
ATOM     11  O   UNL     1     -24.955 -15.917 -16.556  1.00  0.00    -0.545 OA
ENDBRANCH   8   9
ENDBRANCH   1   7
BRANCH   4  12
ATOM     12  O   UNL     1     -20.115 -17.132 -14.467  1.00  0.00    -0.504 OA
ATOM     13  H   UNL     1     -19.584 -16.276 -14.555  1.00  0.00     0.293 HD
ENDBRANCH   4  12
BRANCH   6  14
ATOM     14  O   UNL     1     -21.457 -19.617 -13.708  1.00  0.00    -0.504 OA
ATOM     15  H   UNL     1     -21.670 -20.385 -14.329  1.00  0.00     0.293 HD
ENDBRANCH   6  14
TORSDOF 4
ENDMDL
MODEL 8
REMARK VINA RESULT:    -4.854      2.959      5.119
REMARK INTER + INTRA:          -5.635
REMARK INTER:                  -5.600
REMARK INTRA:                  -0.035
REMARK UNBOUND:                 0.070
REMARK SMILES O=C([O-])C=Cc1ccc(O)c(O)c1
REMARK SMILES IDX 6 1 13 2 7 3 11 4 8 5 9 6 5 7 4 8 2 9 1 10 3 11 12 12 10 14
REMARK H PARENT 12 13 10 15
REMARK Flexibility Score: inf
ROOT
ATOM      1  C   UNL     1     -22.387 -15.808 -14.370  1.00  0.00    -0.022 A 
ATOM      2  C   UNL     1     -21.202 -16.555 -14.393  1.00  0.00     0.058 A 
ATOM      3  C   UNL     1     -22.347 -14.470 -13.952  1.00  0.00     0.012 A 
ATOM      4  C   UNL     1     -19.976 -15.968 -14.055  1.00  0.00     0.157 A 
ATOM      5  C   UNL     1     -21.130 -13.875 -13.615  1.00  0.00     0.051 A 
ATOM      6  C   UNL     1     -19.939 -14.607 -13.666  1.00  0.00     0.157 A 
ENDROOT
BRANCH   1   7
ATOM      7  C   UNL     1     -23.669 -16.474 -14.681  1.00  0.00     0.010 C 
ATOM      8  C   UNL     1     -24.524 -16.102 -15.647  1.00  0.00     0.025 C 
BRANCH   8   9
ATOM      9  C   UNL     1     -24.254 -15.089 -16.685  1.00  0.00     0.064 C 
ATOM     10  O   UNL     1     -24.466 -13.875 -16.430  1.00  0.00    -0.545 OA
ATOM     11  O   UNL     1     -23.839 -15.451 -17.961  1.00  0.00    -0.545 OA
ENDBRANCH   8   9
ENDBRANCH   1   7
BRANCH   4  12
ATOM     12  O   UNL     1     -18.832 -16.766 -14.117  1.00  0.00    -0.504 OA
ATOM     13  H   UNL     1     -17.989 -16.588 -13.588  1.00  0.00     0.293 HD
ENDBRANCH   4  12
BRANCH   6  14
ATOM     14  O   UNL     1     -18.754 -13.952 -13.322  1.00  0.00    -0.504 OA
ATOM     15  H   UNL     1     -18.007 -13.757 -13.973  1.00  0.00     0.293 HD
ENDBRANCH   6  14
TORSDOF 4
ENDMDL
MODEL 9
REMARK VINA RESULT:    -4.644      1.991      2.122
REMARK INTER + INTRA:          -5.388
REMARK INTER:                  -5.337
REMARK INTRA:                  -0.051
REMARK UNBOUND:                 0.070
REMARK SMILES O=C([O-])C=Cc1ccc(O)c(O)c1
REMARK SMILES IDX 6 1 13 2 7 3 11 4 8 5 9 6 5 7 4 8 2 9 1 10 3 11 12 12 10 14
REMARK H PARENT 12 13 10 15
REMARK Flexibility Score: inf
ROOT
ATOM      1  C   UNL     1     -24.758 -15.618 -14.617  1.00  0.00    -0.022 A 
ATOM      2  C   UNL     1     -25.729 -16.599 -14.857  1.00  0.00     0.058 A 
ATOM      3  C   UNL     1     -23.783 -15.844 -13.635  1.00  0.00     0.012 A 
ATOM      4  C   UNL     1     -25.706 -17.818 -14.166  1.00  0.00     0.157 A 
ATOM      5  C   UNL     1     -23.750 -17.055 -12.942  1.00  0.00     0.051 A 
ATOM      6  C   UNL     1     -24.699 -18.051 -13.199  1.00  0.00     0.157 A 
ENDROOT
BRANCH   1   7
ATOM      7  C   UNL     1     -24.845 -14.325 -15.326  1.00  0.00     0.010 C 
ATOM      8  C   UNL     1     -24.266 -14.044 -16.504  1.00  0.00     0.025 C 
BRANCH   8   9
ATOM      9  C   UNL     1     -23.602 -15.022 -17.386  1.00  0.00     0.064 C 
ATOM     10  O   UNL     1     -23.956 -15.103 -18.591  1.00  0.00    -0.545 OA
ATOM     11  O   UNL     1     -22.647 -15.907 -16.901  1.00  0.00    -0.545 OA
ENDBRANCH   8   9
ENDBRANCH   1   7
BRANCH   4  12
ATOM     12  O   UNL     1     -26.694 -18.757 -14.467  1.00  0.00    -0.504 OA
ATOM     13  H   UNL     1     -27.299 -19.181 -13.778  1.00  0.00     0.293 HD
ENDBRANCH   4  12
BRANCH   6  14
ATOM     14  O   UNL     1     -24.607 -19.242 -12.476  1.00  0.00    -0.504 OA
ATOM     15  H   UNL     1     -24.862 -20.148 -12.845  1.00  0.00     0.293 HD
ENDBRANCH   6  14
TORSDOF 4
ENDMDL
