MODEL 1
REMARK VINA RESULT:    -4.218      0.000      0.000
REMARK INTER + INTRA:          -4.218
REMARK INTER:                  -4.218
REMARK INTRA:                   0.000
REMARK UNBOUND:                 0.000
REMARK SMILES C=C1CC[C@H]2C[C@@H]1C2(C)C
REMARK SMILES IDX 9 1 8 2 5 3 4 4 3 5 2 6 1 7 7 8 6 9 10 10
REMARK H PARENT
REMARK Flexibility Score: inf
ROOT
ATOM      1  C   UNL     1     164.951 166.596 200.236  1.00  0.00     0.012 C 
ATOM      2  C   UNL     1     163.495 167.084 200.003  1.00  0.00    -0.026 C 
ATOM      3  C   UNL     1     162.982 168.304 200.809  1.00  0.00    -0.004 C 
ATOM      4  C   UNL     1     164.114 169.362 201.010  1.00  0.00     0.008 C 
ATOM      5  C   UNL     1     164.823 169.752 199.658  1.00  0.00     0.031 C 
ATOM      6  C   UNL     1     164.357 168.881 198.482  1.00  0.00    -0.074 C 
ATOM      7  C   UNL     1     164.941 168.961 197.281  1.00  0.00     0.008 C 
ATOM      8  C   UNL     1     163.195 167.927 198.741  1.00  0.00     0.021 C 
ATOM      9  C   UNL     1     162.188 168.743 199.568  1.00  0.00     0.012 C 
ATOM     10  C   UNL     1     162.546 165.866 200.127  1.00  0.00     0.012 C 
ENDROOT
TORSDOF 0
ENDMDL
MODEL 2
REMARK VINA RESULT:    -4.206      4.729      6.937
REMARK INTER + INTRA:          -4.206
REMARK INTER:                  -4.206
REMARK INTRA:                   0.000
REMARK UNBOUND:                 0.000
REMARK SMILES C=C1CC[C@H]2C[C@@H]1C2(C)C
REMARK SMILES IDX 9 1 8 2 5 3 4 4 3 5 2 6 1 7 7 8 6 9 10 10
REMARK H PARENT
REMARK Flexibility Score: inf
ROOT
ATOM      1  C   UNL     1     167.045 165.387 200.225  1.00  0.00     0.012 C 
ATOM      2  C   UNL     1     168.494 164.882 199.989  1.00  0.00    -0.026 C 
ATOM      3  C   UNL     1     168.997 163.658 200.797  1.00  0.00    -0.004 C 
ATOM      4  C   UNL     1     167.853 162.614 201.004  1.00  0.00     0.008 C 
ATOM      5  C   UNL     1     167.135 162.228 199.655  1.00  0.00     0.031 C 
ATOM      6  C   UNL     1     167.607 163.091 198.474  1.00  0.00    -0.074 C 
ATOM      7  C   UNL     1     167.019 163.014 197.276  1.00  0.00     0.008 C 
ATOM      8  C   UNL     1     168.781 164.032 198.728  1.00  0.00     0.021 C 
ATOM      9  C   UNL     1     169.781 163.207 199.554  1.00  0.00     0.012 C 
ATOM     10  C   UNL     1     169.458 166.090 200.107  1.00  0.00     0.012 C 
ENDROOT
TORSDOF 0
ENDMDL
MODEL 3
REMARK VINA RESULT:    -4.131      1.196      2.417
REMARK INTER + INTRA:          -4.131
REMARK INTER:                  -4.131
REMARK INTRA:                   0.000
REMARK UNBOUND:                 0.000
REMARK SMILES C=C1CC[C@H]2C[C@@H]1C2(C)C
REMARK SMILES IDX 9 1 8 2 5 3 4 4 3 5 2 6 1 7 7 8 6 9 10 10
REMARK H PARENT
REMARK Flexibility Score: inf
ROOT
ATOM      1  C   UNL     1     164.715 169.868 200.463  1.00  0.00     0.012 C 
ATOM      2  C   UNL     1     163.780 168.670 200.784  1.00  0.00    -0.026 C 
ATOM      3  C   UNL     1     162.436 168.549 200.022  1.00  0.00    -0.004 C 
ATOM      4  C   UNL     1     162.587 169.018 198.539  1.00  0.00     0.008 C 
ATOM      5  C   UNL     1     163.793 168.319 197.805  1.00  0.00     0.031 C 
ATOM      6  C   UNL     1     164.646 167.470 198.760  1.00  0.00    -0.074 C 
ATOM      7  C   UNL     1     165.794 166.911 198.360  1.00  0.00     0.008 C 
ATOM      8  C   UNL     1     164.123 167.287 200.181  1.00  0.00     0.021 C 
ATOM      9  C   UNL     1     162.617 167.022 200.020  1.00  0.00     0.012 C 
ATOM     10  C   UNL     1     163.584 168.602 202.320  1.00  0.00     0.012 C 
ENDROOT
TORSDOF 0
ENDMDL
MODEL 4
REMARK VINA RESULT:    -4.085      5.042      6.648
REMARK INTER + INTRA:          -4.085
REMARK INTER:                  -4.085
REMARK INTRA:                   0.000
REMARK UNBOUND:                 0.000
REMARK SMILES C=C1CC[C@H]2C[C@@H]1C2(C)C
REMARK SMILES IDX 9 1 8 2 5 3 4 4 3 5 2 6 1 7 7 8 6 9 10 10
REMARK H PARENT
REMARK Flexibility Score: inf
ROOT
ATOM      1  C   UNL     1     166.447 164.275 200.091  1.00  0.00     0.012 C 
ATOM      2  C   UNL     1     167.737 163.408 200.101  1.00  0.00    -0.026 C 
ATOM      3  C   UNL     1     168.358 162.984 198.746  1.00  0.00    -0.004 C 
ATOM      4  C   UNL     1     168.214 164.118 197.682  1.00  0.00     0.008 C 
ATOM      5  C   UNL     1     168.736 165.509 198.207  1.00  0.00     0.031 C 
ATOM      6  C   UNL     1     169.106 165.470 199.697  1.00  0.00    -0.074 C 
ATOM      7  C   UNL     1     169.436 166.581 200.363  1.00  0.00     0.008 C 
ATOM      8  C   UNL     1     169.089 164.106 200.381  1.00  0.00     0.021 C 
ATOM      9  C   UNL     1     169.751 163.149 199.377  1.00  0.00     0.012 C 
ATOM     10  C   UNL     1     167.503 162.196 201.038  1.00  0.00     0.012 C 
ENDROOT
TORSDOF 0
ENDMDL
MODEL 5
REMARK VINA RESULT:    -4.080      1.004      3.137
REMARK INTER + INTRA:          -4.080
REMARK INTER:                  -4.080
REMARK INTRA:                   0.000
REMARK UNBOUND:                 0.000
REMARK SMILES C=C1CC[C@H]2C[C@@H]1C2(C)C
REMARK SMILES IDX 9 1 8 2 5 3 4 4 3 5 2 6 1 7 7 8 6 9 10 10
REMARK H PARENT
REMARK Flexibility Score: inf
ROOT
ATOM      1  C   UNL     1     165.550 167.702 200.073  1.00  0.00     0.012 C 
ATOM      2  C   UNL     1     164.264 168.572 200.110  1.00  0.00    -0.026 C 
ATOM      3  C   UNL     1     163.619 169.003 198.768  1.00  0.00    -0.004 C 
ATOM      4  C   UNL     1     163.741 167.872 197.697  1.00  0.00     0.008 C 
ATOM      5  C   UNL     1     163.225 166.480 198.226  1.00  0.00     0.031 C 
ATOM      6  C   UNL     1     162.882 166.516 199.724  1.00  0.00    -0.074 C 
ATOM      7  C   UNL     1     162.561 165.402 200.391  1.00  0.00     0.008 C 
ATOM      8  C   UNL     1     162.915 167.877 200.412  1.00  0.00     0.021 C 
ATOM      9  C   UNL     1     162.238 168.839 199.422  1.00  0.00     0.012 C 
ATOM     10  C   UNL     1     164.518 169.780 201.046  1.00  0.00     0.012 C 
ENDROOT
TORSDOF 0
ENDMDL
MODEL 6
REMARK VINA RESULT:    -4.006      1.554      2.355
REMARK INTER + INTRA:          -4.006
REMARK INTER:                  -4.006
REMARK INTRA:                   0.000
REMARK UNBOUND:                 0.000
REMARK SMILES C=C1CC[C@H]2C[C@@H]1C2(C)C
REMARK SMILES IDX 9 1 8 2 5 3 4 4 3 5 2 6 1 7 7 8 6 9 10 10
REMARK H PARENT
REMARK Flexibility Score: inf
ROOT
ATOM      1  C   UNL     1     164.483 167.252 199.238  1.00  0.00     0.012 C 
ATOM      2  C   UNL     1     163.982 168.472 200.060  1.00  0.00    -0.026 C 
ATOM      3  C   UNL     1     164.407 168.594 201.545  1.00  0.00    -0.004 C 
ATOM      4  C   UNL     1     165.871 168.087 201.754  1.00  0.00     0.008 C 
ATOM      5  C   UNL     1     166.889 168.749 200.750  1.00  0.00     0.031 C 
ATOM      6  C   UNL     1     166.186 169.608 199.687  1.00  0.00    -0.074 C 
ATOM      7  C   UNL     1     166.861 170.140 198.662  1.00  0.00     0.008 C 
ATOM      8  C   UNL     1     164.687 169.834 199.857  1.00  0.00     0.021 C 
ATOM      9  C   UNL     1     164.495 170.118 201.355  1.00  0.00     0.012 C 
ATOM     10  C   UNL     1     162.446 168.581 199.885  1.00  0.00     0.012 C 
ENDROOT
TORSDOF 0
ENDMDL
MODEL 7
REMARK VINA RESULT:    -3.983      1.029      2.847
REMARK INTER + INTRA:          -3.983
REMARK INTER:                  -3.983
REMARK INTRA:                   0.000
REMARK UNBOUND:                 0.000
REMARK SMILES C=C1CC[C@H]2C[C@@H]1C2(C)C
REMARK SMILES IDX 9 1 8 2 5 3 4 4 3 5 2 6 1 7 7 8 6 9 10 10
REMARK H PARENT
REMARK Flexibility Score: inf
ROOT
ATOM      1  C   UNL     1     165.470 167.388 199.286  1.00  0.00     0.012 C 
ATOM      2  C   UNL     1     164.125 168.080 198.933  1.00  0.00    -0.026 C 
ATOM      3  C   UNL     1     162.801 167.349 199.273  1.00  0.00    -0.004 C 
ATOM      4  C   UNL     1     162.921 166.565 200.619  1.00  0.00     0.008 C 
ATOM      5  C   UNL     1     163.466 167.463 201.794  1.00  0.00     0.031 C 
ATOM      6  C   UNL     1     163.915 168.851 201.309  1.00  0.00    -0.074 C 
ATOM      7  C   UNL     1     164.535 169.707 202.127  1.00  0.00     0.008 C 
ATOM      8  C   UNL     1     163.614 169.210 199.858  1.00  0.00     0.021 C 
ATOM      9  C   UNL     1     162.179 168.713 199.614  1.00  0.00     0.012 C 
ATOM     10  C   UNL     1     164.178 168.523 197.449  1.00  0.00     0.012 C 
ENDROOT
TORSDOF 0
ENDMDL
MODEL 8
REMARK VINA RESULT:    -3.981      4.894      6.999
REMARK INTER + INTRA:          -3.981
REMARK INTER:                  -3.981
REMARK INTRA:                   0.000
REMARK UNBOUND:                 0.000
REMARK SMILES C=C1CC[C@H]2C[C@@H]1C2(C)C
REMARK SMILES IDX 9 1 8 2 5 3 4 4 3 5 2 6 1 7 7 8 6 9 10 10
REMARK H PARENT
REMARK Flexibility Score: inf
ROOT
ATOM      1  C   UNL     1     166.459 164.534 199.349  1.00  0.00     0.012 C 
ATOM      2  C   UNL     1     167.809 163.860 198.981  1.00  0.00    -0.026 C 
ATOM      3  C   UNL     1     169.127 164.611 199.298  1.00  0.00    -0.004 C 
ATOM      4  C   UNL     1     169.014 165.401 200.641  1.00  0.00     0.008 C 
ATOM      5  C   UNL     1     168.499 164.503 201.829  1.00  0.00     0.031 C 
ATOM      6  C   UNL     1     168.063 163.107 201.359  1.00  0.00    -0.074 C 
ATOM      7  C   UNL     1     167.466 162.246 202.190  1.00  0.00     0.008 C 
ATOM      8  C   UNL     1     168.348 162.743 199.905  1.00  0.00     0.021 C 
ATOM      9  C   UNL     1     169.772 163.258 199.638  1.00  0.00     0.012 C 
ATOM     10  C   UNL     1     167.740 163.407 197.501  1.00  0.00     0.012 C 
ENDROOT
TORSDOF 0
ENDMDL
MODEL 9
REMARK VINA RESULT:    -3.886      5.128      6.728
REMARK INTER + INTRA:          -3.886
REMARK INTER:                  -3.886
REMARK INTRA:                   0.000
REMARK UNBOUND:                 0.000
REMARK SMILES C=C1CC[C@H]2C[C@@H]1C2(C)C
REMARK SMILES IDX 9 1 8 2 5 3 4 4 3 5 2 6 1 7 7 8 6 9 10 10
REMARK H PARENT
REMARK Flexibility Score: inf
ROOT
ATOM      1  C   UNL     1     167.343 164.754 199.550  1.00  0.00     0.012 C 
ATOM      2  C   UNL     1     167.887 163.486 200.262  1.00  0.00    -0.026 C 
ATOM      3  C   UNL     1     167.588 163.294 201.771  1.00  0.00    -0.004 C 
ATOM      4  C   UNL     1     166.158 163.812 202.131  1.00  0.00     0.008 C 
ATOM      5  C   UNL     1     165.045 163.219 201.186  1.00  0.00     0.031 C 
ATOM      6  C   UNL     1     165.637 162.405 200.024  1.00  0.00    -0.074 C 
ATOM      7  C   UNL     1     164.866 161.938 199.037  1.00  0.00     0.008 C 
ATOM      8  C   UNL     1     167.141 162.147 200.053  1.00  0.00     0.021 C 
ATOM      9  C   UNL     1     167.454 161.784 201.513  1.00  0.00     0.012 C 
ATOM     10  C   UNL     1     169.400 163.363 199.951  1.00  0.00     0.012 C 
ENDROOT
TORSDOF 0
ENDMDL
