MODEL 1
REMARK VINA RESULT:    -7.466      0.000      0.000
REMARK INTER + INTRA:         -21.225
REMARK INTER:                 -17.724
REMARK INTRA:                  -3.501
REMARK UNBOUND:                -3.501
REMARK SMILES O=C(OC[C@@H]1O[C@@H](OC(=O)c2cc(O)c(O)c(O)c2)[C@@H](OC(=O)c2cc(O)c(O)c(O)c2)[C@H](OC(=O)c2cc(O)c(O)c(O)c2)[C@@H]1OC(=O)c1cc(O)c(O)c(O)c1)c1cc(O)c(O)c(O)c1
REMARK SMILES IDX 5 1 46 2 33 3 20 4 7 5 6 6 4 7 3 8 2 9 1 10 59 11 60 12
REMARK SMILES IDX 61 13 67 14 63 15 65 16 62 17 64 19 66 21 47 23 48 24 49 25
REMARK SMILES IDX 50 26 58 27 51 28 56 29 52 30 54 31 57 32 53 34 55 36 34 38
REMARK SMILES IDX 35 39 36 40 37 41 45 42 38 43 43 44 39 45 41 46 44 47 40 49
REMARK SMILES IDX 42 51 8 53 9 54 10 55 11 56 19 57 12 58 17 59 13 60 15 61
REMARK SMILES IDX 18 62 14 64 16 66 21 68 22 69 23 70 24 71 32 72 25 73 30 74
REMARK SMILES IDX 26 75 28 76 31 77 27 79 29 81
REMARK H PARENT 62 18 64 20 66 22 57 33 53 35 55 37 44 48 40 50 42 52 18 63
REMARK H PARENT 14 65 16 67 31 78 27 80 29 82
REMARK Flexibility Score: inf
ROOT
ATOM      1  C   UNL     1      20.931  27.557  29.958  1.00  0.00     0.205 C 
ATOM      2  C   UNL     1      19.866  28.158  30.902  1.00  0.00     0.254 C 
ATOM      3  C   UNL     1      18.544  27.382  30.730  1.00  0.00     0.267 C 
ATOM      4  C   UNL     1      18.150  27.330  29.243  1.00  0.00     0.290 C 
ATOM      5  C   UNL     1      19.336  26.832  28.398  1.00  0.00     0.357 C 
ATOM      6  O   UNL     1      20.494  27.624  28.609  1.00  0.00    -0.329 OA
ENDROOT
BRANCH   1   7
ATOM      7  C   UNL     1      22.271  28.300  30.092  1.00  0.00     0.269 C 
BRANCH   7   8
ATOM      8  O   UNL     1      22.623  28.930  28.862  1.00  0.00    -0.459 OA
BRANCH   8   9
ATOM      9  C   UNL     1      23.750  28.596  28.102  1.00  0.00     0.338 C 
ATOM     10  O   UNL     1      23.660  27.749  27.173  1.00  0.00    -0.246 OA
BRANCH   9  11
ATOM     11  C   UNL     1      25.040  29.267  28.374  1.00  0.00     0.067 A 
ATOM     12  C   UNL     1      26.171  28.956  27.609  1.00  0.00     0.066 A 
ATOM     13  C   UNL     1      27.399  29.570  27.865  1.00  0.00     0.162 A 
ATOM     14  C   UNL     1      25.151  30.216  29.401  1.00  0.00     0.066 A 
ATOM     15  C   UNL     1      27.514  30.513  28.902  1.00  0.00     0.200 A 
ATOM     16  C   UNL     1      26.371  30.844  29.673  1.00  0.00     0.162 A 
BRANCH  13  17
ATOM     17  O   UNL     1      28.504  29.216  27.088  1.00  0.00    -0.504 OA
ATOM     18  H   UNL     1      28.801  29.762  26.288  1.00  0.00     0.293 HD
ENDBRANCH  13  17
BRANCH  15  19
ATOM     19  O   UNL     1      28.765  31.090  29.141  1.00  0.00    -0.502 OA
ATOM     20  H   UNL     1      29.409  31.362  28.415  1.00  0.00     0.293 HD
ENDBRANCH  15  19
BRANCH  16  21
ATOM     21  O   UNL     1      26.401  31.789  30.703  1.00  0.00    -0.504 OA
ATOM     22  H   UNL     1      27.029  31.752  31.488  1.00  0.00     0.293 HD
ENDBRANCH  16  21
ENDBRANCH   9  11
ENDBRANCH   8   9
ENDBRANCH   7   8
ENDBRANCH   1   7
BRANCH   2  23
ATOM     23  O   UNL     1      19.665  29.533  30.578  1.00  0.00    -0.452 OA
BRANCH  23  24
ATOM     24  C   UNL     1      19.886  30.589  31.473  1.00  0.00     0.338 C 
ATOM     25  O   UNL     1      19.089  30.791  32.430  1.00  0.00    -0.246 OA
BRANCH  24  26
ATOM     26  C   UNL     1      21.062  31.464  31.292  1.00  0.00     0.067 A 
ATOM     27  C   UNL     1      21.119  32.377  30.224  1.00  0.00     0.066 A 
ATOM     28  C   UNL     1      22.135  31.398  32.193  1.00  0.00     0.066 A 
ATOM     29  C   UNL     1      22.228  33.211  30.058  1.00  0.00     0.162 A 
ATOM     30  C   UNL     1      23.251  32.223  32.032  1.00  0.00     0.162 A 
ATOM     31  C   UNL     1      23.303  33.133  30.961  1.00  0.00     0.200 A 
BRANCH  29  32
ATOM     32  O   UNL     1      22.237  34.125  29.004  1.00  0.00    -0.504 OA
ATOM     33  H   UNL     1      21.966  35.093  29.132  1.00  0.00     0.293 HD
ENDBRANCH  29  32
BRANCH  30  34
ATOM     34  O   UNL     1      24.318  32.141  32.929  1.00  0.00    -0.504 OA
ATOM     35  H   UNL     1      25.173  31.651  32.685  1.00  0.00     0.293 HD
ENDBRANCH  30  34
BRANCH  31  36
ATOM     36  O   UNL     1      24.408  33.968  30.789  1.00  0.00    -0.502 OA
ATOM     37  H   UNL     1      24.411  34.934  31.105  1.00  0.00     0.293 HD
ENDBRANCH  31  36
ENDBRANCH  24  26
ENDBRANCH  23  24
ENDBRANCH   2  23
BRANCH   3  38
ATOM     38  O   UNL     1      17.492  28.004  31.468  1.00  0.00    -0.450 OA
BRANCH  38  39
ATOM     39  C   UNL     1      16.327  28.529  30.898  1.00  0.00     0.338 C 
ATOM     40  O   UNL     1      15.354  27.770  30.634  1.00  0.00    -0.246 OA
BRANCH  39  41
ATOM     41  C   UNL     1      16.249  29.978  30.598  1.00  0.00     0.067 A 
ATOM     42  C   UNL     1      16.993  30.546  29.551  1.00  0.00     0.066 A 
ATOM     43  C   UNL     1      15.425  30.808  31.374  1.00  0.00     0.066 A 
ATOM     44  C   UNL     1      16.943  31.926  29.301  1.00  0.00     0.162 A 
ATOM     45  C   UNL     1      15.369  32.184  31.136  1.00  0.00     0.162 A 
ATOM     46  C   UNL     1      16.133  32.750  30.101  1.00  0.00     0.200 A 
BRANCH  44  47
ATOM     47  O   UNL     1      17.696  32.482  28.264  1.00  0.00    -0.504 OA
ATOM     48  H   UNL     1      17.316  32.602  27.331  1.00  0.00     0.293 HD
ENDBRANCH  44  47
BRANCH  45  49
ATOM     49  O   UNL     1      14.545  32.978  31.934  1.00  0.00    -0.504 OA
ATOM     50  H   UNL     1      14.920  33.658  32.582  1.00  0.00     0.293 HD
ENDBRANCH  45  49
BRANCH  46  51
ATOM     51  O   UNL     1      16.074  34.125  29.878  1.00  0.00    -0.502 OA
ATOM     52  H   UNL     1      16.435  34.801  30.542  1.00  0.00     0.293 HD
ENDBRANCH  46  51
ENDBRANCH  39  41
ENDBRANCH  38  39
ENDBRANCH   3  38
BRANCH   5  53
ATOM     53  O   UNL     1      19.611  25.455  28.669  1.00  0.00    -0.428 OA
BRANCH  53  54
ATOM     54  C   UNL     1      20.605  24.723  28.008  1.00  0.00     0.340 C 
ATOM     55  O   UNL     1      21.793  24.740  28.433  1.00  0.00    -0.246 OA
BRANCH  54  56
ATOM     56  C   UNL     1      20.257  23.954  26.793  1.00  0.00     0.067 A 
ATOM     57  C   UNL     1      21.082  24.019  25.658  1.00  0.00     0.066 A 
ATOM     58  C   UNL     1      19.110  23.144  26.764  1.00  0.00     0.066 A 
ATOM     59  C   UNL     1      20.760  23.291  24.502  1.00  0.00     0.162 A 
ATOM     60  C   UNL     1      18.788  22.409  25.615  1.00  0.00     0.162 A 
ATOM     61  C   UNL     1      19.608  22.486  24.478  1.00  0.00     0.200 A 
BRANCH  59  62
ATOM     62  O   UNL     1      21.580  23.364  23.379  1.00  0.00    -0.504 OA
ATOM     63  H   UNL     1      21.482  22.715  22.606  1.00  0.00     0.293 HD
ENDBRANCH  59  62
BRANCH  60  64
ATOM     64  O   UNL     1      17.641  21.615  25.609  1.00  0.00    -0.504 OA
ATOM     65  H   UNL     1      17.307  21.150  26.446  1.00  0.00     0.293 HD
ENDBRANCH  60  64
BRANCH  61  66
ATOM     66  O   UNL     1      19.268  21.757  23.336  1.00  0.00    -0.502 OA
ATOM     67  H   UNL     1      19.640  21.992  22.417  1.00  0.00     0.293 HD
ENDBRANCH  61  66
ENDBRANCH  54  56
ENDBRANCH  53  54
ENDBRANCH   5  53
BRANCH   4  68
ATOM     68  O   UNL     1      17.033  26.456  29.056  1.00  0.00    -0.448 OA
BRANCH  68  69
ATOM     69  C   UNL     1      16.679  25.905  27.815  1.00  0.00     0.339 C 
ATOM     70  O   UNL     1      17.037  26.473  26.747  1.00  0.00    -0.246 OA
BRANCH  69  71
ATOM     71  C   UNL     1      15.921  24.638  27.756  1.00  0.00     0.067 A 
ATOM     72  C   UNL     1      15.551  24.082  26.519  1.00  0.00     0.066 A 
ATOM     73  C   UNL     1      15.564  23.969  28.938  1.00  0.00     0.066 A 
ATOM     74  C   UNL     1      14.865  22.861  26.463  1.00  0.00     0.162 A 
ATOM     75  C   UNL     1      14.864  22.756  28.898  1.00  0.00     0.162 A 
ATOM     76  C   UNL     1      14.528  22.185  27.645  1.00  0.00     0.200 A 
BRANCH  74  77
ATOM     77  O   UNL     1      14.523  22.300  25.232  1.00  0.00    -0.504 OA
ATOM     78  H   UNL     1      13.725  22.625  24.709  1.00  0.00     0.293 HD
ENDBRANCH  74  77
BRANCH  75  79
ATOM     79  O   UNL     1      14.519  22.167  30.118  1.00  0.00    -0.504 OA
ATOM     80  H   UNL     1      15.133  21.572  30.652  1.00  0.00     0.293 HD
ENDBRANCH  75  79
BRANCH  76  81
ATOM     81  O   UNL     1      13.875  20.955  27.537  1.00  0.00    -0.502 OA
ATOM     82  H   UNL     1      14.343  20.070  27.622  1.00  0.00     0.293 HD
ENDBRANCH  76  81
ENDBRANCH  69  71
ENDBRANCH  68  69
ENDBRANCH   4  68
TORSDOF 31
ENDMDL
MODEL 2
REMARK VINA RESULT:    -7.416      0.211      2.069
REMARK INTER + INTRA:         -21.105
REMARK INTER:                 -17.496
REMARK INTRA:                  -3.609
REMARK UNBOUND:                -3.501
REMARK SMILES O=C(OC[C@@H]1O[C@@H](OC(=O)c2cc(O)c(O)c(O)c2)[C@@H](OC(=O)c2cc(O)c(O)c(O)c2)[C@H](OC(=O)c2cc(O)c(O)c(O)c2)[C@@H]1OC(=O)c1cc(O)c(O)c(O)c1)c1cc(O)c(O)c(O)c1
REMARK SMILES IDX 5 1 46 2 33 3 20 4 7 5 6 6 4 7 3 8 2 9 1 10 59 11 60 12
REMARK SMILES IDX 61 13 67 14 63 15 65 16 62 17 64 19 66 21 47 23 48 24 49 25
REMARK SMILES IDX 50 26 58 27 51 28 56 29 52 30 54 31 57 32 53 34 55 36 34 38
REMARK SMILES IDX 35 39 36 40 37 41 45 42 38 43 43 44 39 45 41 46 44 47 40 49
REMARK SMILES IDX 42 51 8 53 9 54 10 55 11 56 19 57 12 58 17 59 13 60 15 61
REMARK SMILES IDX 18 62 14 64 16 66 21 68 22 69 23 70 24 71 32 72 25 73 30 74
REMARK SMILES IDX 26 75 28 76 31 77 27 79 29 81
REMARK H PARENT 62 18 64 20 66 22 57 33 53 35 55 37 44 48 40 50 42 52 18 63
REMARK H PARENT 14 65 16 67 31 78 27 80 29 82
REMARK Flexibility Score: inf
ROOT
ATOM      1  C   UNL     1      20.905  27.684  30.043  1.00  0.00     0.205 C 
ATOM      2  C   UNL     1      19.782  28.239  30.946  1.00  0.00     0.254 C 
ATOM      3  C   UNL     1      18.510  27.389  30.753  1.00  0.00     0.267 C 
ATOM      4  C   UNL     1      18.162  27.291  29.256  1.00  0.00     0.290 C 
ATOM      5  C   UNL     1      19.397  26.845  28.453  1.00  0.00     0.357 C 
ATOM      6  O   UNL     1      20.503  27.704  28.682  1.00  0.00    -0.329 OA
ENDROOT
BRANCH   1   7
ATOM      7  C   UNL     1      22.197  28.502  30.200  1.00  0.00     0.269 C 
BRANCH   7   8
ATOM      8  O   UNL     1      22.638  28.995  28.936  1.00  0.00    -0.459 OA
BRANCH   8   9
ATOM      9  C   UNL     1      23.784  28.542  28.272  1.00  0.00     0.338 C 
ATOM     10  O   UNL     1      23.714  27.559  27.485  1.00  0.00    -0.246 OA
BRANCH   9  11
ATOM     11  C   UNL     1      25.071  29.243  28.473  1.00  0.00     0.067 A 
ATOM     12  C   UNL     1      25.189  30.230  29.460  1.00  0.00     0.066 A 
ATOM     13  C   UNL     1      26.393  30.912  29.650  1.00  0.00     0.162 A 
ATOM     14  C   UNL     1      26.185  28.936  27.679  1.00  0.00     0.066 A 
ATOM     15  C   UNL     1      27.507  30.612  28.846  1.00  0.00     0.200 A 
ATOM     16  C   UNL     1      27.401  29.605  27.854  1.00  0.00     0.162 A 
BRANCH  13  17
ATOM     17  O   UNL     1      26.459  31.900  30.634  1.00  0.00    -0.504 OA
ATOM     18  H   UNL     1      27.339  32.290  30.953  1.00  0.00     0.293 HD
ENDBRANCH  13  17
BRANCH  15  19
ATOM     19  O   UNL     1      28.688  31.332  29.053  1.00  0.00    -0.502 OA
ATOM     20  H   UNL     1      29.430  31.035  29.668  1.00  0.00     0.293 HD
ENDBRANCH  15  19
BRANCH  16  21
ATOM     21  O   UNL     1      28.471  29.236  27.034  1.00  0.00    -0.504 OA
ATOM     22  H   UNL     1      29.020  28.401  27.158  1.00  0.00     0.293 HD
ENDBRANCH  16  21
ENDBRANCH   9  11
ENDBRANCH   8   9
ENDBRANCH   7   8
ENDBRANCH   1   7
BRANCH   2  23
ATOM     23  O   UNL     1      19.515  29.596  30.592  1.00  0.00    -0.452 OA
BRANCH  23  24
ATOM     24  C   UNL     1      19.736  30.687  31.446  1.00  0.00     0.338 C 
ATOM     25  O   UNL     1      18.912  30.955  32.363  1.00  0.00    -0.246 OA
BRANCH  24  26
ATOM     26  C   UNL     1      20.943  31.519  31.266  1.00  0.00     0.067 A 
ATOM     27  C   UNL     1      22.030  31.407  32.151  1.00  0.00     0.066 A 
ATOM     28  C   UNL     1      21.020  32.426  30.199  1.00  0.00     0.066 A 
ATOM     29  C   UNL     1      23.175  32.187  31.974  1.00  0.00     0.162 A 
ATOM     30  C   UNL     1      22.158  33.217  30.019  1.00  0.00     0.162 A 
ATOM     31  C   UNL     1      23.242  33.101  30.908  1.00  0.00     0.200 A 
BRANCH  29  32
ATOM     32  O   UNL     1      24.246  32.029  32.855  1.00  0.00    -0.504 OA
ATOM     33  H   UNL     1      24.173  32.275  33.835  1.00  0.00     0.293 HD
ENDBRANCH  29  32
BRANCH  30  34
ATOM     34  O   UNL     1      22.219  34.125  28.960  1.00  0.00    -0.504 OA
ATOM     35  H   UNL     1      22.365  35.116  29.125  1.00  0.00     0.293 HD
ENDBRANCH  30  34
BRANCH  31  36
ATOM     36  O   UNL     1      24.388  33.879  30.738  1.00  0.00    -0.502 OA
ATOM     37  H   UNL     1      24.667  34.242  29.831  1.00  0.00     0.293 HD
ENDBRANCH  31  36
ENDBRANCH  24  26
ENDBRANCH  23  24
ENDBRANCH   2  23
BRANCH   3  38
ATOM     38  O   UNL     1      17.405  27.963  31.450  1.00  0.00    -0.450 OA
BRANCH  38  39
ATOM     39  C   UNL     1      16.282  28.523  30.832  1.00  0.00     0.338 C 
ATOM     40  O   UNL     1      15.331  27.784  30.459  1.00  0.00    -0.246 OA
BRANCH  39  41
ATOM     41  C   UNL     1      16.224  29.987  30.610  1.00  0.00     0.067 A 
ATOM     42  C   UNL     1      15.451  30.819  31.438  1.00  0.00     0.066 A 
ATOM     43  C   UNL     1      16.943  30.563  29.552  1.00  0.00     0.066 A 
ATOM     44  C   UNL     1      15.369  32.197  31.195  1.00  0.00     0.162 A 
ATOM     45  C   UNL     1      16.868  31.935  29.299  1.00  0.00     0.162 A 
ATOM     46  C   UNL     1      16.076  32.758  30.117  1.00  0.00     0.200 A 
BRANCH  44  47
ATOM     47  O   UNL     1      14.589  33.014  32.018  1.00  0.00    -0.504 OA
ATOM     48  H   UNL     1      14.008  33.755  31.641  1.00  0.00     0.293 HD
ENDBRANCH  44  47
BRANCH  45  49
ATOM     49  O   UNL     1      17.591  32.469  28.232  1.00  0.00    -0.504 OA
ATOM     50  H   UNL     1      17.310  32.330  27.270  1.00  0.00     0.293 HD
ENDBRANCH  45  49
BRANCH  46  51
ATOM     51  O   UNL     1      16.003  34.125  29.850  1.00  0.00    -0.502 OA
ATOM     52  H   UNL     1      16.821  34.682  29.631  1.00  0.00     0.293 HD
ENDBRANCH  46  51
ENDBRANCH  39  41
ENDBRANCH  38  39
ENDBRANCH   3  38
BRANCH   5  53
ATOM     53  O   UNL     1      19.740  25.490  28.756  1.00  0.00    -0.428 OA
BRANCH  53  54
ATOM     54  C   UNL     1      20.764  24.790  28.107  1.00  0.00     0.340 C 
ATOM     55  O   UNL     1      21.933  24.794  28.581  1.00  0.00    -0.246 OA
BRANCH  54  56
ATOM     56  C   UNL     1      20.470  24.072  26.847  1.00  0.00     0.067 A 
ATOM     57  C   UNL     1      19.354  23.224  26.764  1.00  0.00     0.066 A 
ATOM     58  C   UNL     1      21.293  24.238  25.721  1.00  0.00     0.066 A 
ATOM     59  C   UNL     1      19.066  22.542  25.573  1.00  0.00     0.162 A 
ATOM     60  C   UNL     1      21.006  23.565  24.526  1.00  0.00     0.162 A 
ATOM     61  C   UNL     1      19.896  22.709  24.451  1.00  0.00     0.200 A 
BRANCH  59  62
ATOM     62  O   UNL     1      17.960  21.699  25.498  1.00  0.00    -0.504 OA
ATOM     63  H   UNL     1      17.039  22.003  25.789  1.00  0.00     0.293 HD
ENDBRANCH  59  62
BRANCH  60  64
ATOM     64  O   UNL     1      21.840  23.744  23.422  1.00  0.00    -0.504 OA
ATOM     65  H   UNL     1      22.059  24.665  23.060  1.00  0.00     0.293 HD
ENDBRANCH  60  64
BRANCH  61  66
ATOM     66  O   UNL     1      19.630  22.035  23.256  1.00  0.00    -0.502 OA
ATOM     67  H   UNL     1      19.683  22.503  22.351  1.00  0.00     0.293 HD
ENDBRANCH  61  66
ENDBRANCH  54  56
ENDBRANCH  53  54
ENDBRANCH   5  53
BRANCH   4  68
ATOM     68  O   UNL     1      17.101  26.352  29.055  1.00  0.00    -0.448 OA
BRANCH  68  69
ATOM     69  C   UNL     1      16.663  25.937  27.788  1.00  0.00     0.339 C 
ATOM     70  O   UNL     1      16.941  26.624  26.768  1.00  0.00    -0.246 OA
BRANCH  69  71
ATOM     71  C   UNL     1      15.910  24.674  27.642  1.00  0.00     0.067 A 
ATOM     72  C   UNL     1      15.717  24.099  26.373  1.00  0.00     0.066 A 
ATOM     73  C   UNL     1      15.381  24.028  28.771  1.00  0.00     0.066 A 
ATOM     74  C   UNL     1      15.035  22.882  26.238  1.00  0.00     0.162 A 
ATOM     75  C   UNL     1      14.684  22.819  28.650  1.00  0.00     0.162 A 
ATOM     76  C   UNL     1      14.525  22.229  27.371  1.00  0.00     0.200 A 
BRANCH  74  77
ATOM     77  O   UNL     1      14.869  22.302  24.981  1.00  0.00    -0.504 OA
ATOM     78  H   UNL     1      15.293  22.700  24.157  1.00  0.00     0.293 HD
ENDBRANCH  74  77
BRANCH  75  79
ATOM     79  O   UNL     1      14.162  22.253  29.817  1.00  0.00    -0.504 OA
ATOM     80  H   UNL     1      14.675  22.163  30.679  1.00  0.00     0.293 HD
ENDBRANCH  75  79
BRANCH  76  81
ATOM     81  O   UNL     1      13.884  21.001  27.191  1.00  0.00    -0.502 OA
ATOM     82  H   UNL     1      13.025  20.752  27.649  1.00  0.00     0.293 HD
ENDBRANCH  76  81
ENDBRANCH  69  71
ENDBRANCH  68  69
ENDBRANCH   4  68
TORSDOF 31
ENDMDL
MODEL 3
REMARK VINA RESULT:    -7.144      1.336      6.722
REMARK INTER + INTRA:         -20.459
REMARK INTER:                 -17.402
REMARK INTRA:                  -3.057
REMARK UNBOUND:                -3.501
REMARK SMILES O=C(OC[C@@H]1O[C@@H](OC(=O)c2cc(O)c(O)c(O)c2)[C@@H](OC(=O)c2cc(O)c(O)c(O)c2)[C@H](OC(=O)c2cc(O)c(O)c(O)c2)[C@@H]1OC(=O)c1cc(O)c(O)c(O)c1)c1cc(O)c(O)c(O)c1
REMARK SMILES IDX 5 1 46 2 33 3 20 4 7 5 6 6 4 7 3 8 2 9 1 10 59 11 60 12
REMARK SMILES IDX 61 13 67 14 63 15 65 16 62 17 64 19 66 21 47 23 48 24 49 25
REMARK SMILES IDX 50 26 58 27 51 28 56 29 52 30 54 31 57 32 53 34 55 36 34 38
REMARK SMILES IDX 35 39 36 40 37 41 45 42 38 43 43 44 39 45 41 46 44 47 40 49
REMARK SMILES IDX 42 51 8 53 9 54 10 55 11 56 19 57 12 58 17 59 13 60 15 61
REMARK SMILES IDX 18 62 14 64 16 66 21 68 22 69 23 70 24 71 32 72 25 73 30 74
REMARK SMILES IDX 26 75 28 76 31 77 27 79 29 81
REMARK H PARENT 62 18 64 20 66 22 57 33 53 35 55 37 44 48 40 50 42 52 18 63
REMARK H PARENT 14 65 16 67 31 78 27 80 29 82
REMARK Flexibility Score: inf
ROOT
ATOM      1  C   UNL     1      17.435  28.071  30.161  1.00  0.00     0.205 C 
ATOM      2  C   UNL     1      18.800  28.783  30.029  1.00  0.00     0.254 C 
ATOM      3  C   UNL     1      19.528  28.253  28.778  1.00  0.00     0.267 C 
ATOM      4  C   UNL     1      19.590  26.715  28.813  1.00  0.00     0.290 C 
ATOM      5  C   UNL     1      18.189  26.134  29.071  1.00  0.00     0.357 C 
ATOM      6  O   UNL     1      17.617  26.666  30.256  1.00  0.00    -0.329 OA
ENDROOT
BRANCH   1   7
ATOM      7  C   UNL     1      16.670  28.566  31.399  1.00  0.00     0.269 C 
BRANCH   7   8
ATOM      8  O   UNL     1      15.431  29.164  31.020  1.00  0.00    -0.459 OA
BRANCH   8   9
ATOM      9  C   UNL     1      15.183  30.541  31.046  1.00  0.00     0.338 C 
ATOM     10  O   UNL     1      14.034  30.973  31.335  1.00  0.00    -0.246 OA
BRANCH   9  11
ATOM     11  C   UNL     1      16.285  31.488  30.768  1.00  0.00     0.067 A 
ATOM     12  C   UNL     1      16.613  31.820  29.447  1.00  0.00     0.066 A 
ATOM     13  C   UNL     1      17.662  32.699  29.170  1.00  0.00     0.162 A 
ATOM     14  C   UNL     1      17.019  32.060  31.817  1.00  0.00     0.066 A 
ATOM     15  C   UNL     1      18.406  33.264  30.221  1.00  0.00     0.200 A 
ATOM     16  C   UNL     1      18.072  32.945  31.561  1.00  0.00     0.162 A 
BRANCH  13  17
ATOM     17  O   UNL     1      17.964  32.987  27.838  1.00  0.00    -0.504 OA
ATOM     18  H   UNL     1      17.423  33.644  27.289  1.00  0.00     0.293 HD
ENDBRANCH  13  17
BRANCH  15  19
ATOM     19  O   UNL     1      19.461  34.123  29.901  1.00  0.00    -0.502 OA
ATOM     20  H   UNL     1      20.134  34.465  30.570  1.00  0.00     0.293 HD
ENDBRANCH  15  19
BRANCH  16  21
ATOM     21  O   UNL     1      18.749  33.486  32.658  1.00  0.00    -0.504 OA
ATOM     22  H   UNL     1      19.055  32.953  33.456  1.00  0.00     0.293 HD
ENDBRANCH  16  21
ENDBRANCH   9  11
ENDBRANCH   8   9
ENDBRANCH   7   8
ENDBRANCH   1   7
BRANCH   2  23
ATOM     23  O   UNL     1      19.585  28.524  31.193  1.00  0.00    -0.452 OA
BRANCH  23  24
ATOM     24  C   UNL     1      19.716  29.418  32.265  1.00  0.00     0.338 C 
ATOM     25  O   UNL     1      18.746  29.624  33.045  1.00  0.00    -0.246 OA
BRANCH  24  26
ATOM     26  C   UNL     1      21.001  30.115  32.478  1.00  0.00     0.067 A 
ATOM     27  C   UNL     1      22.184  29.388  32.695  1.00  0.00     0.066 A 
ATOM     28  C   UNL     1      21.053  31.517  32.457  1.00  0.00     0.066 A 
ATOM     29  C   UNL     1      23.400  30.049  32.888  1.00  0.00     0.162 A 
ATOM     30  C   UNL     1      22.263  32.187  32.655  1.00  0.00     0.162 A 
ATOM     31  C   UNL     1      23.443  31.454  32.874  1.00  0.00     0.200 A 
BRANCH  29  32
ATOM     32  O   UNL     1      24.560  29.295  33.072  1.00  0.00    -0.504 OA
ATOM     33  H   UNL     1      25.416  29.498  32.570  1.00  0.00     0.293 HD
ENDBRANCH  29  32
BRANCH  30  34
ATOM     34  O   UNL     1      22.300  33.582  32.644  1.00  0.00    -0.504 OA
ATOM     35  H   UNL     1      21.475  34.132  32.862  1.00  0.00     0.293 HD
ENDBRANCH  30  34
BRANCH  31  36
ATOM     36  O   UNL     1      24.661  32.108  33.068  1.00  0.00    -0.502 OA
ATOM     37  H   UNL     1      25.455  31.654  33.509  1.00  0.00     0.293 HD
ENDBRANCH  31  36
ENDBRANCH  24  26
ENDBRANCH  23  24
ENDBRANCH   2  23
BRANCH   3  38
ATOM     38  O   UNL     1      20.857  28.771  28.707  1.00  0.00    -0.450 OA
BRANCH  38  39
ATOM     39  C   UNL     1      21.976  28.159  29.280  1.00  0.00     0.338 C 
ATOM     40  O   UNL     1      21.831  27.198  30.084  1.00  0.00    -0.246 OA
BRANCH  39  41
ATOM     41  C   UNL     1      23.332  28.654  28.943  1.00  0.00     0.067 A 
ATOM     42  C   UNL     1      24.162  27.955  28.051  1.00  0.00     0.066 A 
ATOM     43  C   UNL     1      23.809  29.838  29.527  1.00  0.00     0.066 A 
ATOM     44  C   UNL     1      25.458  28.409  27.770  1.00  0.00     0.162 A 
ATOM     45  C   UNL     1      25.100  30.299  29.257  1.00  0.00     0.162 A 
ATOM     46  C   UNL     1      25.932  29.583  28.381  1.00  0.00     0.200 A 
BRANCH  44  47
ATOM     47  O   UNL     1      26.279  27.700  26.889  1.00  0.00    -0.504 OA
ATOM     48  H   UNL     1      26.256  26.687  26.834  1.00  0.00     0.293 HD
ENDBRANCH  44  47
BRANCH  45  49
ATOM     49  O   UNL     1      25.541  31.476  29.863  1.00  0.00    -0.504 OA
ATOM     50  H   UNL     1      24.899  32.197  30.163  1.00  0.00     0.293 HD
ENDBRANCH  45  49
BRANCH  46  51
ATOM     51  O   UNL     1      27.221  30.050  28.124  1.00  0.00    -0.502 OA
ATOM     52  H   UNL     1      28.015  29.428  28.016  1.00  0.00     0.293 HD
ENDBRANCH  46  51
ENDBRANCH  39  41
ENDBRANCH  38  39
ENDBRANCH   3  38
BRANCH   5  53
ATOM     53  O   UNL     1      17.330  26.359  27.951  1.00  0.00    -0.428 OA
BRANCH  53  54
ATOM     54  C   UNL     1      15.960  26.068  27.959  1.00  0.00     0.340 C 
ATOM     55  O   UNL     1      15.116  26.993  28.112  1.00  0.00    -0.246 OA
BRANCH  54  56
ATOM     56  C   UNL     1      15.513  24.664  27.815  1.00  0.00     0.067 A 
ATOM     57  C   UNL     1      15.332  23.863  28.954  1.00  0.00     0.066 A 
ATOM     58  C   UNL     1      15.255  24.123  26.545  1.00  0.00     0.066 A 
ATOM     59  C   UNL     1      14.907  22.532  28.828  1.00  0.00     0.162 A 
ATOM     60  C   UNL     1      14.822  22.797  26.413  1.00  0.00     0.162 A 
ATOM     61  C   UNL     1      14.654  21.995  27.553  1.00  0.00     0.200 A 
BRANCH  59  62
ATOM     62  O   UNL     1      14.734  21.742  29.960  1.00  0.00    -0.504 OA
ATOM     63  H   UNL     1      13.834  21.340  30.197  1.00  0.00     0.293 HD
ENDBRANCH  59  62
BRANCH  60  64
ATOM     64  O   UNL     1      14.575  22.280  25.141  1.00  0.00    -0.504 OA
ATOM     65  H   UNL     1      14.679  22.844  24.305  1.00  0.00     0.293 HD
ENDBRANCH  60  64
BRANCH  61  66
ATOM     66  O   UNL     1      14.233  20.671  27.404  1.00  0.00    -0.502 OA
ATOM     67  H   UNL     1      14.563  19.930  28.021  1.00  0.00     0.293 HD
ENDBRANCH  61  66
ENDBRANCH  54  56
ENDBRANCH  53  54
ENDBRANCH   5  53
BRANCH   4  68
ATOM     68  O   UNL     1      20.093  26.210  27.572  1.00  0.00    -0.448 OA
BRANCH  68  69
ATOM     69  C   UNL     1      20.720  24.962  27.440  1.00  0.00     0.339 C 
ATOM     70  O   UNL     1      21.653  24.639  28.224  1.00  0.00    -0.246 OA
BRANCH  69  71
ATOM     71  C   UNL     1      20.261  24.009  26.408  1.00  0.00     0.067 A 
ATOM     72  C   UNL     1      19.099  23.242  26.609  1.00  0.00     0.066 A 
ATOM     73  C   UNL     1      20.978  23.860  25.210  1.00  0.00     0.066 A 
ATOM     74  C   UNL     1      18.644  22.365  25.614  1.00  0.00     0.162 A 
ATOM     75  C   UNL     1      20.543  22.975  24.214  1.00  0.00     0.162 A 
ATOM     76  C   UNL     1      19.352  22.233  24.410  1.00  0.00     0.200 A 
BRANCH  74  77
ATOM     77  O   UNL     1      17.477  21.626  25.807  1.00  0.00    -0.504 OA
ATOM     78  H   UNL     1      16.763  21.927  26.453  1.00  0.00     0.293 HD
ENDBRANCH  74  77
BRANCH  75  79
ATOM     79  O   UNL     1      21.328  22.861  23.063  1.00  0.00    -0.504 OA
ATOM     80  H   UNL     1      21.698  23.647  22.551  1.00  0.00     0.293 HD
ENDBRANCH  75  79
BRANCH  76  81
ATOM     81  O   UNL     1      18.840  21.374  23.436  1.00  0.00    -0.502 OA
ATOM     82  H   UNL     1      18.076  20.742  23.600  1.00  0.00     0.293 HD
ENDBRANCH  76  81
ENDBRANCH  69  71
ENDBRANCH  68  69
ENDBRANCH   4  68
TORSDOF 31
ENDMDL
MODEL 4
REMARK VINA RESULT:    -7.057      1.542     10.192
REMARK INTER + INTRA:         -20.253
REMARK INTER:                 -17.087
REMARK INTRA:                  -3.165
REMARK UNBOUND:                -3.501
REMARK SMILES O=C(OC[C@@H]1O[C@@H](OC(=O)c2cc(O)c(O)c(O)c2)[C@@H](OC(=O)c2cc(O)c(O)c(O)c2)[C@H](OC(=O)c2cc(O)c(O)c(O)c2)[C@@H]1OC(=O)c1cc(O)c(O)c(O)c1)c1cc(O)c(O)c(O)c1
REMARK SMILES IDX 5 1 46 2 33 3 20 4 7 5 6 6 4 7 3 8 2 9 1 10 59 11 60 12
REMARK SMILES IDX 61 13 67 14 63 15 65 16 62 17 64 19 66 21 47 23 48 24 49 25
REMARK SMILES IDX 50 26 58 27 51 28 56 29 52 30 54 31 57 32 53 34 55 36 34 38
REMARK SMILES IDX 35 39 36 40 37 41 45 42 38 43 43 44 39 45 41 46 44 47 40 49
REMARK SMILES IDX 42 51 8 53 9 54 10 55 11 56 19 57 12 58 17 59 13 60 15 61
REMARK SMILES IDX 18 62 14 64 16 66 21 68 22 69 23 70 24 71 32 72 25 73 30 74
REMARK SMILES IDX 26 75 28 76 31 77 27 79 29 81
REMARK H PARENT 62 18 64 20 66 22 57 33 53 35 55 37 44 48 40 50 42 52 18 63
REMARK H PARENT 14 65 16 67 31 78 27 80 29 82
REMARK Flexibility Score: inf
ROOT
ATOM      1  C   UNL     1      19.271  28.281  30.838  1.00  0.00     0.205 C 
ATOM      2  C   UNL     1      19.499  27.159  29.801  1.00  0.00     0.254 C 
ATOM      3  C   UNL     1      21.007  27.047  29.500  1.00  0.00     0.267 C 
ATOM      4  C   UNL     1      21.573  28.425  29.112  1.00  0.00     0.290 C 
ATOM      5  C   UNL     1      21.174  29.477  30.162  1.00  0.00     0.357 C 
ATOM      6  O   UNL     1      19.768  29.517  30.347  1.00  0.00    -0.329 OA
ENDROOT
BRANCH   1   7
ATOM      7  C   UNL     1      17.777  28.432  31.170  1.00  0.00     0.269 C 
BRANCH   7   8
ATOM      8  O   UNL     1      17.601  29.215  32.349  1.00  0.00    -0.459 OA
BRANCH   8   9
ATOM      9  C   UNL     1      17.246  30.569  32.347  1.00  0.00     0.338 C 
ATOM     10  O   UNL     1      16.345  30.990  33.122  1.00  0.00    -0.246 OA
BRANCH   9  11
ATOM     11  C   UNL     1      17.958  31.510  31.455  1.00  0.00     0.067 A 
ATOM     12  C   UNL     1      17.456  31.786  30.176  1.00  0.00     0.066 A 
ATOM     13  C   UNL     1      18.127  32.659  29.318  1.00  0.00     0.162 A 
ATOM     14  C   UNL     1      19.145  32.131  31.869  1.00  0.00     0.066 A 
ATOM     15  C   UNL     1      19.323  33.274  29.729  1.00  0.00     0.200 A 
ATOM     16  C   UNL     1      19.832  33.011  31.026  1.00  0.00     0.162 A 
BRANCH  13  17
ATOM     17  O   UNL     1      17.599  32.892  28.046  1.00  0.00    -0.504 OA
ATOM     18  H   UNL     1      17.857  33.699  27.491  1.00  0.00     0.293 HD
ENDBRANCH  13  17
BRANCH  15  19
ATOM     19  O   UNL     1      19.976  34.125  28.832  1.00  0.00    -0.502 OA
ATOM     20  H   UNL     1      20.711  33.831  28.208  1.00  0.00     0.293 HD
ENDBRANCH  15  19
BRANCH  16  21
ATOM     21  O   UNL     1      21.000  33.602  31.514  1.00  0.00    -0.504 OA
ATOM     22  H   UNL     1      21.023  34.443  32.067  1.00  0.00     0.293 HD
ENDBRANCH  16  21
ENDBRANCH   9  11
ENDBRANCH   8   9
ENDBRANCH   7   8
ENDBRANCH   1   7
BRANCH   2  23
ATOM     23  O   UNL     1      18.788  27.468  28.602  1.00  0.00    -0.452 OA
BRANCH  23  24
ATOM     24  C   UNL     1      17.390  27.527  28.513  1.00  0.00     0.338 C 
ATOM     25  O   UNL     1      16.804  28.642  28.430  1.00  0.00    -0.246 OA
BRANCH  24  26
ATOM     26  C   UNL     1      16.607  26.276  28.514  1.00  0.00     0.067 A 
ATOM     27  C   UNL     1      15.894  25.876  29.659  1.00  0.00     0.066 A 
ATOM     28  C   UNL     1      16.558  25.475  27.364  1.00  0.00     0.066 A 
ATOM     29  C   UNL     1      15.145  24.697  29.655  1.00  0.00     0.162 A 
ATOM     30  C   UNL     1      15.817  24.289  27.353  1.00  0.00     0.162 A 
ATOM     31  C   UNL     1      15.108  23.894  28.501  1.00  0.00     0.200 A 
BRANCH  29  32
ATOM     32  O   UNL     1      14.427  24.347  30.799  1.00  0.00    -0.504 OA
ATOM     33  H   UNL     1      14.080  25.044  31.448  1.00  0.00     0.293 HD
ENDBRANCH  29  32
BRANCH  30  34
ATOM     34  O   UNL     1      15.786  23.494  26.206  1.00  0.00    -0.504 OA
ATOM     35  H   UNL     1      15.267  23.780  25.382  1.00  0.00     0.293 HD
ENDBRANCH  30  34
BRANCH  31  36
ATOM     36  O   UNL     1      14.359  22.717  28.505  1.00  0.00    -0.502 OA
ATOM     37  H   UNL     1      13.770  22.452  29.290  1.00  0.00     0.293 HD
ENDBRANCH  31  36
ENDBRANCH  24  26
ENDBRANCH  23  24
ENDBRANCH   2  23
BRANCH   3  38
ATOM     38  O   UNL     1      21.245  26.129  28.432  1.00  0.00    -0.450 OA
BRANCH  38  39
ATOM     39  C   UNL     1      20.816  24.798  28.421  1.00  0.00     0.338 C 
ATOM     40  O   UNL     1      20.710  24.158  29.503  1.00  0.00    -0.246 OA
BRANCH  39  41
ATOM     41  C   UNL     1      20.496  24.144  27.131  1.00  0.00     0.067 A 
ATOM     42  C   UNL     1      19.378  23.303  26.998  1.00  0.00     0.066 A 
ATOM     43  C   UNL     1      21.324  24.354  26.017  1.00  0.00     0.066 A 
ATOM     44  C   UNL     1      19.108  22.656  25.783  1.00  0.00     0.162 A 
ATOM     45  C   UNL     1      21.064  23.713  24.802  1.00  0.00     0.162 A 
ATOM     46  C   UNL     1      19.958  22.856  24.682  1.00  0.00     0.200 A 
BRANCH  44  47
ATOM     47  O   UNL     1      17.999  21.813  25.665  1.00  0.00    -0.504 OA
ATOM     48  H   UNL     1      17.947  20.925  26.154  1.00  0.00     0.293 HD
ENDBRANCH  44  47
BRANCH  45  49
ATOM     49  O   UNL     1      21.915  23.941  23.720  1.00  0.00    -0.504 OA
ATOM     50  H   UNL     1      21.563  24.177  22.802  1.00  0.00     0.293 HD
ENDBRANCH  45  49
BRANCH  46  51
ATOM     51  O   UNL     1      19.714  22.216  23.467  1.00  0.00    -0.502 OA
ATOM     52  H   UNL     1      19.023  22.550  22.804  1.00  0.00     0.293 HD
ENDBRANCH  46  51
ENDBRANCH  39  41
ENDBRANCH  38  39
ENDBRANCH   3  38
BRANCH   5  53
ATOM     53  O   UNL     1      21.839  29.234  31.404  1.00  0.00    -0.428 OA
BRANCH  53  54
ATOM     54  C   UNL     1      22.318  30.255  32.235  1.00  0.00     0.340 C 
ATOM     55  O   UNL     1      21.573  30.749  33.124  1.00  0.00    -0.246 OA
BRANCH  54  56
ATOM     56  C   UNL     1      23.693  30.767  32.040  1.00  0.00     0.067 A 
ATOM     57  C   UNL     1      23.906  31.958  31.326  1.00  0.00     0.066 A 
ATOM     58  C   UNL     1      24.794  30.079  32.574  1.00  0.00     0.066 A 
ATOM     59  C   UNL     1      25.205  32.453  31.139  1.00  0.00     0.162 A 
ATOM     60  C   UNL     1      26.094  30.572  32.397  1.00  0.00     0.162 A 
ATOM     61  C   UNL     1      26.304  31.757  31.673  1.00  0.00     0.200 A 
BRANCH  59  62
ATOM     62  O   UNL     1      25.410  33.631  30.427  1.00  0.00    -0.504 OA
ATOM     63  H   UNL     1      24.755  34.403  30.476  1.00  0.00     0.293 HD
ENDBRANCH  59  62
BRANCH  60  64
ATOM     64  O   UNL     1      27.172  29.869  32.934  1.00  0.00    -0.504 OA
ATOM     65  H   UNL     1      27.072  28.927  33.293  1.00  0.00     0.293 HD
ENDBRANCH  60  64
BRANCH  61  66
ATOM     66  O   UNL     1      27.606  32.229  31.495  1.00  0.00    -0.502 OA
ATOM     67  H   UNL     1      27.888  33.159  31.803  1.00  0.00     0.293 HD
ENDBRANCH  61  66
ENDBRANCH  54  56
ENDBRANCH  53  54
ENDBRANCH   5  53
BRANCH   4  68
ATOM     68  O   UNL     1      23.000  28.366  29.017  1.00  0.00    -0.448 OA
BRANCH  68  69
ATOM     69  C   UNL     1      23.690  28.206  27.806  1.00  0.00     0.339 C 
ATOM     70  O   UNL     1      23.090  27.758  26.792  1.00  0.00    -0.246 OA
BRANCH  69  71
ATOM     71  C   UNL     1      25.111  28.599  27.706  1.00  0.00     0.067 A 
ATOM     72  C   UNL     1      25.581  29.754  28.358  1.00  0.00     0.066 A 
ATOM     73  C   UNL     1      26.012  27.822  26.961  1.00  0.00     0.066 A 
ATOM     74  C   UNL     1      26.937  30.106  28.293  1.00  0.00     0.162 A 
ATOM     75  C   UNL     1      27.366  28.171  26.875  1.00  0.00     0.162 A 
ATOM     76  C   UNL     1      27.838  29.315  27.565  1.00  0.00     0.200 A 
BRANCH  74  77
ATOM     77  O   UNL     1      27.403  31.237  28.963  1.00  0.00    -0.504 OA
ATOM     78  H   UNL     1      27.419  32.142  28.520  1.00  0.00     0.293 HD
ENDBRANCH  74  77
BRANCH  75  79
ATOM     79  O   UNL     1      28.194  27.363  26.089  1.00  0.00    -0.504 OA
ATOM     80  H   UNL     1      28.979  26.842  26.447  1.00  0.00     0.293 HD
ENDBRANCH  75  79
BRANCH  76  81
ATOM     81  O   UNL     1      29.184  29.687  27.559  1.00  0.00    -0.502 OA
ATOM     82  H   UNL     1      29.866  29.291  26.935  1.00  0.00     0.293 HD
ENDBRANCH  76  81
ENDBRANCH  69  71
ENDBRANCH  68  69
ENDBRANCH   4  68
TORSDOF 31
ENDMDL
MODEL 5
REMARK VINA RESULT:    -6.519      2.079      8.297
REMARK INTER + INTRA:         -18.975
REMARK INTER:                 -13.938
REMARK INTRA:                  -5.037
REMARK UNBOUND:                -3.501
REMARK SMILES O=C(OC[C@@H]1O[C@@H](OC(=O)c2cc(O)c(O)c(O)c2)[C@@H](OC(=O)c2cc(O)c(O)c(O)c2)[C@H](OC(=O)c2cc(O)c(O)c(O)c2)[C@@H]1OC(=O)c1cc(O)c(O)c(O)c1)c1cc(O)c(O)c(O)c1
REMARK SMILES IDX 5 1 46 2 33 3 20 4 7 5 6 6 4 7 3 8 2 9 1 10 59 11 60 12
REMARK SMILES IDX 61 13 67 14 63 15 65 16 62 17 64 19 66 21 47 23 48 24 49 25
REMARK SMILES IDX 50 26 58 27 51 28 56 29 52 30 54 31 57 32 53 34 55 36 34 38
REMARK SMILES IDX 35 39 36 40 37 41 45 42 38 43 43 44 39 45 41 46 44 47 40 49
REMARK SMILES IDX 42 51 8 53 9 54 10 55 11 56 19 57 12 58 17 59 13 60 15 61
REMARK SMILES IDX 18 62 14 64 16 66 21 68 22 69 23 70 24 71 32 72 25 73 30 74
REMARK SMILES IDX 26 75 28 76 31 77 27 79 29 81
REMARK H PARENT 62 18 64 20 66 22 57 33 53 35 55 37 44 48 40 50 42 52 18 63
REMARK H PARENT 14 65 16 67 31 78 27 80 29 82
REMARK Flexibility Score: inf
ROOT
ATOM      1  C   UNL     1      16.638  24.917  26.755  1.00  0.00     0.205 C 
ATOM      2  C   UNL     1      16.818  26.244  27.524  1.00  0.00     0.254 C 
ATOM      3  C   UNL     1      18.324  26.542  27.673  1.00  0.00     0.267 C 
ATOM      4  C   UNL     1      19.046  25.326  28.281  1.00  0.00     0.290 C 
ATOM      5  C   UNL     1      18.688  24.050  27.498  1.00  0.00     0.357 C 
ATOM      6  O   UNL     1      17.284  23.854  27.440  1.00  0.00    -0.329 OA
ENDROOT
BRANCH   1   7
ATOM      7  C   UNL     1      15.148  24.575  26.582  1.00  0.00     0.269 C 
BRANCH   7   8
ATOM      8  O   UNL     1      14.993  23.309  25.944  1.00  0.00    -0.459 OA
BRANCH   8   9
ATOM      9  C   UNL     1      14.459  22.175  26.568  1.00  0.00     0.338 C 
ATOM     10  O   UNL     1      13.876  21.290  25.885  1.00  0.00    -0.246 OA
BRANCH   9  11
ATOM     11  C   UNL     1      14.614  22.005  28.029  1.00  0.00     0.067 A 
ATOM     12  C   UNL     1      15.187  20.835  28.546  1.00  0.00     0.066 A 
ATOM     13  C   UNL     1      15.323  20.654  29.924  1.00  0.00     0.162 A 
ATOM     14  C   UNL     1      14.185  23.003  28.916  1.00  0.00     0.066 A 
ATOM     15  C   UNL     1      14.883  21.650  30.814  1.00  0.00     0.200 A 
ATOM     16  C   UNL     1      14.315  22.843  30.300  1.00  0.00     0.162 A 
BRANCH  13  17
ATOM     17  O   UNL     1      15.884  19.465  30.394  1.00  0.00    -0.504 OA
ATOM     18  H   UNL     1      15.580  19.025  31.254  1.00  0.00     0.293 HD
ENDBRANCH  13  17
BRANCH  15  19
ATOM     19  O   UNL     1      15.019  21.422  32.186  1.00  0.00    -0.502 OA
ATOM     20  H   UNL     1      14.733  20.573  32.649  1.00  0.00     0.293 HD
ENDBRANCH  15  19
BRANCH  16  21
ATOM     21  O   UNL     1      13.878  23.887  31.120  1.00  0.00    -0.504 OA
ATOM     22  H   UNL     1      13.039  23.858  31.677  1.00  0.00     0.293 HD
ENDBRANCH  16  21
ENDBRANCH   9  11
ENDBRANCH   8   9
ENDBRANCH   7   8
ENDBRANCH   1   7
BRANCH   2  23
ATOM     23  O   UNL     1      16.218  26.131  28.814  1.00  0.00    -0.452 OA
BRANCH  23  24
ATOM     24  C   UNL     1      15.209  26.983  29.286  1.00  0.00     0.338 C 
ATOM     25  O   UNL     1      14.011  26.812  28.928  1.00  0.00    -0.246 OA
BRANCH  24  26
ATOM     26  C   UNL     1      15.558  28.081  30.210  1.00  0.00     0.067 A 
ATOM     27  C   UNL     1      14.847  29.294  30.183  1.00  0.00     0.066 A 
ATOM     28  C   UNL     1      16.600  27.920  31.134  1.00  0.00     0.066 A 
ATOM     29  C   UNL     1      15.171  30.329  31.064  1.00  0.00     0.162 A 
ATOM     30  C   UNL     1      16.937  28.952  32.014  1.00  0.00     0.162 A 
ATOM     31  C   UNL     1      16.223  30.163  31.981  1.00  0.00     0.200 A 
BRANCH  29  32
ATOM     32  O   UNL     1      14.425  31.508  31.028  1.00  0.00    -0.504 OA
ATOM     33  H   UNL     1      13.507  31.573  31.451  1.00  0.00     0.293 HD
ENDBRANCH  29  32
BRANCH  30  34
ATOM     34  O   UNL     1      17.984  28.784  32.922  1.00  0.00    -0.504 OA
ATOM     35  H   UNL     1      18.535  29.575  33.241  1.00  0.00     0.293 HD
ENDBRANCH  30  34
BRANCH  31  36
ATOM     36  O   UNL     1      16.542  31.202  32.857  1.00  0.00    -0.502 OA
ATOM     37  H   UNL     1      15.831  31.726  33.359  1.00  0.00     0.293 HD
ENDBRANCH  31  36
ENDBRANCH  24  26
ENDBRANCH  23  24
ENDBRANCH   2  23
BRANCH   3  38
ATOM     38  O   UNL     1      18.536  27.676  28.513  1.00  0.00    -0.450 OA
BRANCH  38  39
ATOM     39  C   UNL     1      18.695  28.987  28.049  1.00  0.00     0.338 C 
ATOM     40  O   UNL     1      18.689  29.225  26.810  1.00  0.00    -0.246 OA
BRANCH  39  41
ATOM     41  C   UNL     1      18.879  30.089  29.022  1.00  0.00     0.067 A 
ATOM     42  C   UNL     1      18.044  31.219  29.009  1.00  0.00     0.066 A 
ATOM     43  C   UNL     1      19.908  30.016  29.974  1.00  0.00     0.066 A 
ATOM     44  C   UNL     1      18.253  32.275  29.907  1.00  0.00     0.162 A 
ATOM     45  C   UNL     1      20.126  31.064  30.873  1.00  0.00     0.162 A 
ATOM     46  C   UNL     1      19.302  32.201  30.839  1.00  0.00     0.200 A 
BRANCH  44  47
ATOM     47  O   UNL     1      17.423  33.400  29.878  1.00  0.00    -0.504 OA
ATOM     48  H   UNL     1      17.718  34.293  30.260  1.00  0.00     0.293 HD
ENDBRANCH  44  47
BRANCH  45  49
ATOM     49  O   UNL     1      21.164  30.959  31.799  1.00  0.00    -0.504 OA
ATOM     50  H   UNL     1      21.049  30.479  32.681  1.00  0.00     0.293 HD
ENDBRANCH  45  49
BRANCH  46  51
ATOM     51  O   UNL     1      19.534  33.243  31.737  1.00  0.00    -0.502 OA
ATOM     52  H   UNL     1      19.308  33.174  32.723  1.00  0.00     0.293 HD
ENDBRANCH  46  51
ENDBRANCH  39  41
ENDBRANCH  38  39
ENDBRANCH   3  38
BRANCH   5  53
ATOM     53  O   UNL     1      19.247  24.086  26.183  1.00  0.00    -0.428 OA
BRANCH  53  54
ATOM     54  C   UNL     1      19.091  23.053  25.251  1.00  0.00     0.340 C 
ATOM     55  O   UNL     1      18.045  22.348  25.254  1.00  0.00    -0.246 OA
BRANCH  54  56
ATOM     56  C   UNL     1      20.176  22.777  24.282  1.00  0.00     0.067 A 
ATOM     57  C   UNL     1      21.461  23.301  24.496  1.00  0.00     0.066 A 
ATOM     58  C   UNL     1      19.938  21.980  23.150  1.00  0.00     0.066 A 
ATOM     59  C   UNL     1      22.496  23.042  23.585  1.00  0.00     0.162 A 
ATOM     60  C   UNL     1      20.969  21.711  22.241  1.00  0.00     0.162 A 
ATOM     61  C   UNL     1      22.249  22.248  22.451  1.00  0.00     0.200 A 
BRANCH  59  62
ATOM     62  O   UNL     1      23.766  23.570  23.800  1.00  0.00    -0.504 OA
ATOM     63  H   UNL     1      23.900  24.520  24.125  1.00  0.00     0.293 HD
ENDBRANCH  59  62
BRANCH  60  64
ATOM     64  O   UNL     1      20.707  20.921  21.122  1.00  0.00    -0.504 OA
ATOM     65  H   UNL     1      21.150  20.019  20.988  1.00  0.00     0.293 HD
ENDBRANCH  60  64
BRANCH  61  66
ATOM     66  O   UNL     1      23.264  21.982  21.529  1.00  0.00    -0.502 OA
ATOM     67  H   UNL     1      24.170  21.612  21.817  1.00  0.00     0.293 HD
ENDBRANCH  61  66
ENDBRANCH  54  56
ENDBRANCH  53  54
ENDBRANCH   5  53
BRANCH   4  68
ATOM     68  O   UNL     1      20.463  25.522  28.246  1.00  0.00    -0.448 OA
BRANCH  68  69
ATOM     69  C   UNL     1      21.206  26.003  29.335  1.00  0.00     0.339 C 
ATOM     70  O   UNL     1      21.021  25.523  30.486  1.00  0.00    -0.246 OA
BRANCH  69  71
ATOM     71  C   UNL     1      22.234  27.044  29.128  1.00  0.00     0.067 A 
ATOM     72  C   UNL     1      22.928  27.131  27.908  1.00  0.00     0.066 A 
ATOM     73  C   UNL     1      22.529  27.964  30.147  1.00  0.00     0.066 A 
ATOM     74  C   UNL     1      23.877  28.142  27.698  1.00  0.00     0.162 A 
ATOM     75  C   UNL     1      23.486  28.969  29.957  1.00  0.00     0.162 A 
ATOM     76  C   UNL     1      24.154  29.072  28.711  1.00  0.00     0.200 A 
BRANCH  74  77
ATOM     77  O   UNL     1      24.543  28.241  26.476  1.00  0.00    -0.504 OA
ATOM     78  H   UNL     1      24.163  28.777  25.711  1.00  0.00     0.293 HD
ENDBRANCH  74  77
BRANCH  75  79
ATOM     79  O   UNL     1      23.744  29.828  31.030  1.00  0.00    -0.504 OA
ATOM     80  H   UNL     1      24.293  30.670  30.961  1.00  0.00     0.293 HD
ENDBRANCH  75  79
BRANCH  76  81
ATOM     81  O   UNL     1      25.081  30.081  28.443  1.00  0.00    -0.502 OA
ATOM     82  H   UNL     1      25.999  30.113  28.851  1.00  0.00     0.293 HD
ENDBRANCH  76  81
ENDBRANCH  69  71
ENDBRANCH  68  69
ENDBRANCH   4  68
TORSDOF 31
ENDMDL
MODEL 6
REMARK VINA RESULT:    -6.431      2.045      8.369
REMARK INTER + INTRA:         -18.766
REMARK INTER:                 -13.831
REMARK INTRA:                  -4.935
REMARK UNBOUND:                -3.501
REMARK SMILES O=C(OC[C@@H]1O[C@@H](OC(=O)c2cc(O)c(O)c(O)c2)[C@@H](OC(=O)c2cc(O)c(O)c(O)c2)[C@H](OC(=O)c2cc(O)c(O)c(O)c2)[C@@H]1OC(=O)c1cc(O)c(O)c(O)c1)c1cc(O)c(O)c(O)c1
REMARK SMILES IDX 5 1 46 2 33 3 20 4 7 5 6 6 4 7 3 8 2 9 1 10 59 11 60 12
REMARK SMILES IDX 61 13 67 14 63 15 65 16 62 17 64 19 66 21 47 23 48 24 49 25
REMARK SMILES IDX 50 26 58 27 51 28 56 29 52 30 54 31 57 32 53 34 55 36 34 38
REMARK SMILES IDX 35 39 36 40 37 41 45 42 38 43 43 44 39 45 41 46 44 47 40 49
REMARK SMILES IDX 42 51 8 53 9 54 10 55 11 56 19 57 12 58 17 59 13 60 15 61
REMARK SMILES IDX 18 62 14 64 16 66 21 68 22 69 23 70 24 71 32 72 25 73 30 74
REMARK SMILES IDX 26 75 28 76 31 77 27 79 29 81
REMARK H PARENT 62 18 64 20 66 22 57 33 53 35 55 37 44 48 40 50 42 52 18 63
REMARK H PARENT 14 65 16 67 31 78 27 80 29 82
REMARK Flexibility Score: inf
ROOT
ATOM      1  C   UNL     1      16.735  24.956  26.813  1.00  0.00     0.205 C 
ATOM      2  C   UNL     1      16.913  26.292  27.568  1.00  0.00     0.254 C 
ATOM      3  C   UNL     1      18.418  26.606  27.691  1.00  0.00     0.267 C 
ATOM      4  C   UNL     1      19.161  25.403  28.300  1.00  0.00     0.290 C 
ATOM      5  C   UNL     1      18.804  24.116  27.535  1.00  0.00     0.357 C 
ATOM      6  O   UNL     1      17.401  23.907  27.499  1.00  0.00    -0.329 OA
ENDROOT
BRANCH   1   7
ATOM      7  C   UNL     1      15.246  24.599  26.666  1.00  0.00     0.269 C 
BRANCH   7   8
ATOM      8  O   UNL     1      15.094  23.258  26.204  1.00  0.00    -0.459 OA
BRANCH   8   9
ATOM      9  C   UNL     1      14.500  22.233  26.949  1.00  0.00     0.338 C 
ATOM     10  O   UNL     1      13.875  21.305  26.367  1.00  0.00    -0.246 OA
BRANCH   9  11
ATOM     11  C   UNL     1      14.638  22.226  28.422  1.00  0.00     0.067 A 
ATOM     12  C   UNL     1      15.203  21.120  29.071  1.00  0.00     0.066 A 
ATOM     13  C   UNL     1      15.324  21.093  30.462  1.00  0.00     0.162 A 
ATOM     14  C   UNL     1      14.203  23.317  29.188  1.00  0.00     0.066 A 
ATOM     15  C   UNL     1      14.878  22.182  31.231  1.00  0.00     0.200 A 
ATOM     16  C   UNL     1      14.318  23.311  30.582  1.00  0.00     0.162 A 
BRANCH  13  17
ATOM     17  O   UNL     1      15.877  19.962  31.068  1.00  0.00    -0.504 OA
ATOM     18  H   UNL     1      16.056  19.914  32.064  1.00  0.00     0.293 HD
ENDBRANCH  13  17
BRANCH  15  19
ATOM     19  O   UNL     1      14.998  22.107  32.622  1.00  0.00    -0.502 OA
ATOM     20  H   UNL     1      15.797  21.721  33.100  1.00  0.00     0.293 HD
ENDBRANCH  15  19
BRANCH  16  21
ATOM     21  O   UNL     1      13.875  24.440  31.276  1.00  0.00    -0.504 OA
ATOM     22  H   UNL     1      13.689  24.462  32.265  1.00  0.00     0.293 HD
ENDBRANCH  16  21
ENDBRANCH   9  11
ENDBRANCH   8   9
ENDBRANCH   7   8
ENDBRANCH   1   7
BRANCH   2  23
ATOM     23  O   UNL     1      16.333  26.185  28.868  1.00  0.00    -0.452 OA
BRANCH  23  24
ATOM     24  C   UNL     1      15.299  27.009  29.334  1.00  0.00     0.338 C 
ATOM     25  O   UNL     1      14.109  26.809  28.964  1.00  0.00    -0.246 OA
BRANCH  24  26
ATOM     26  C   UNL     1      15.610  28.112  30.266  1.00  0.00     0.067 A 
ATOM     27  C   UNL     1      16.595  27.957  31.257  1.00  0.00     0.066 A 
ATOM     28  C   UNL     1      14.928  29.333  30.163  1.00  0.00     0.066 A 
ATOM     29  C   UNL     1      16.895  29.005  32.131  1.00  0.00     0.162 A 
ATOM     30  C   UNL     1      15.216  30.384  31.038  1.00  0.00     0.162 A 
ATOM     31  C   UNL     1      16.202  30.224  32.028  1.00  0.00     0.200 A 
BRANCH  29  32
ATOM     32  O   UNL     1      17.899  28.826  33.084  1.00  0.00    -0.504 OA
ATOM     33  H   UNL     1      18.847  28.581  32.823  1.00  0.00     0.293 HD
ENDBRANCH  29  32
BRANCH  30  34
ATOM     34  O   UNL     1      14.522  31.591  30.934  1.00  0.00    -0.504 OA
ATOM     35  H   UNL     1      14.675  32.219  30.151  1.00  0.00     0.293 HD
ENDBRANCH  30  34
BRANCH  31  36
ATOM     36  O   UNL     1      16.506  31.265  32.906  1.00  0.00    -0.502 OA
ATOM     37  H   UNL     1      16.075  32.182  32.828  1.00  0.00     0.293 HD
ENDBRANCH  31  36
ENDBRANCH  24  26
ENDBRANCH  23  24
ENDBRANCH   2  23
BRANCH   3  38
ATOM     38  O   UNL     1      18.631  27.750  28.518  1.00  0.00    -0.450 OA
BRANCH  38  39
ATOM     39  C   UNL     1      18.627  29.072  28.058  1.00  0.00     0.338 C 
ATOM     40  O   UNL     1      18.493  29.313  26.827  1.00  0.00    -0.246 OA
BRANCH  39  41
ATOM     41  C   UNL     1      18.789  30.182  29.025  1.00  0.00     0.067 A 
ATOM     42  C   UNL     1      19.692  30.089  30.097  1.00  0.00     0.066 A 
ATOM     43  C   UNL     1      18.025  31.351  28.881  1.00  0.00     0.066 A 
ATOM     44  C   UNL     1      19.808  31.129  31.031  1.00  0.00     0.162 A 
ATOM     45  C   UNL     1      18.132  32.393  29.806  1.00  0.00     0.162 A 
ATOM     46  C   UNL     1      19.020  32.284  30.889  1.00  0.00     0.200 A 
BRANCH  44  47
ATOM     47  O   UNL     1      20.702  31.020  32.100  1.00  0.00    -0.504 OA
ATOM     48  H   UNL     1      21.518  30.419  32.056  1.00  0.00     0.293 HD
ENDBRANCH  44  47
BRANCH  45  49
ATOM     49  O   UNL     1      17.350  33.536  29.634  1.00  0.00    -0.504 OA
ATOM     50  H   UNL     1      16.413  33.493  29.255  1.00  0.00     0.293 HD
ENDBRANCH  45  49
BRANCH  46  51
ATOM     51  O   UNL     1      19.112  33.328  31.809  1.00  0.00    -0.502 OA
ATOM     52  H   UNL     1      19.970  33.846  31.962  1.00  0.00     0.293 HD
ENDBRANCH  46  51
ENDBRANCH  39  41
ENDBRANCH  38  39
ENDBRANCH   3  38
BRANCH   5  53
ATOM     53  O   UNL     1      19.343  24.145  26.211  1.00  0.00    -0.428 OA
BRANCH  53  54
ATOM     54  C   UNL     1      19.161  23.114  25.281  1.00  0.00     0.340 C 
ATOM     55  O   UNL     1      18.101  22.430  25.293  1.00  0.00    -0.246 OA
BRANCH  54  56
ATOM     56  C   UNL     1      20.233  22.815  24.306  1.00  0.00     0.067 A 
ATOM     57  C   UNL     1      19.961  22.018  23.182  1.00  0.00     0.066 A 
ATOM     58  C   UNL     1      21.527  23.332  24.485  1.00  0.00     0.066 A 
ATOM     59  C   UNL     1      20.970  21.732  22.251  1.00  0.00     0.162 A 
ATOM     60  C   UNL     1      22.537  23.056  23.555  1.00  0.00     0.162 A 
ATOM     61  C   UNL     1      22.264  22.249  22.439  1.00  0.00     0.200 A 
BRANCH  59  62
ATOM     62  O   UNL     1      20.695  20.938  21.141  1.00  0.00    -0.504 OA
ATOM     63  H   UNL     1      21.291  20.943  20.322  1.00  0.00     0.293 HD
ENDBRANCH  59  62
BRANCH  60  64
ATOM     64  O   UNL     1      23.815  23.578  23.756  1.00  0.00    -0.504 OA
ATOM     65  H   UNL     1      24.149  23.836  24.678  1.00  0.00     0.293 HD
ENDBRANCH  60  64
BRANCH  61  66
ATOM     66  O   UNL     1      23.285  21.973  21.526  1.00  0.00    -0.502 OA
ATOM     67  H   UNL     1      24.232  21.749  21.830  1.00  0.00     0.293 HD
ENDBRANCH  61  66
ENDBRANCH  54  56
ENDBRANCH  53  54
ENDBRANCH   5  53
BRANCH   4  68
ATOM     68  O   UNL     1      20.575  25.612  28.243  1.00  0.00    -0.448 OA
BRANCH  68  69
ATOM     69  C   UNL     1      21.337  26.064  29.331  1.00  0.00     0.339 C 
ATOM     70  O   UNL     1      21.171  25.555  30.472  1.00  0.00    -0.246 OA
BRANCH  69  71
ATOM     71  C   UNL     1      22.364  27.109  29.133  1.00  0.00     0.067 A 
ATOM     72  C   UNL     1      22.239  28.362  29.760  1.00  0.00     0.066 A 
ATOM     73  C   UNL     1      23.481  26.861  28.319  1.00  0.00     0.066 A 
ATOM     74  C   UNL     1      23.232  29.339  29.602  1.00  0.00     0.162 A 
ATOM     75  C   UNL     1      24.473  27.835  28.140  1.00  0.00     0.162 A 
ATOM     76  C   UNL     1      24.356  29.081  28.805  1.00  0.00     0.200 A 
BRANCH  74  77
ATOM     77  O   UNL     1      23.117  30.571  30.247  1.00  0.00    -0.504 OA
ATOM     78  H   UNL     1      22.229  30.906  30.589  1.00  0.00     0.293 HD
ENDBRANCH  74  77
BRANCH  75  79
ATOM     79  O   UNL     1      25.539  27.523  27.291  1.00  0.00    -0.504 OA
ATOM     80  H   UNL     1      25.459  26.936  26.476  1.00  0.00     0.293 HD
ENDBRANCH  75  79
BRANCH  76  81
ATOM     81  O   UNL     1      25.335  30.072  28.706  1.00  0.00    -0.502 OA
ATOM     82  H   UNL     1      25.801  30.473  29.501  1.00  0.00     0.293 HD
ENDBRANCH  76  81
ENDBRANCH  69  71
ENDBRANCH  68  69
ENDBRANCH   4  68
TORSDOF 31
ENDMDL
MODEL 7
REMARK VINA RESULT:    -6.371      1.454     10.492
REMARK INTER + INTRA:         -18.624
REMARK INTER:                 -15.794
REMARK INTRA:                  -2.831
REMARK UNBOUND:                -3.501
REMARK SMILES O=C(OC[C@@H]1O[C@@H](OC(=O)c2cc(O)c(O)c(O)c2)[C@@H](OC(=O)c2cc(O)c(O)c(O)c2)[C@H](OC(=O)c2cc(O)c(O)c(O)c2)[C@@H]1OC(=O)c1cc(O)c(O)c(O)c1)c1cc(O)c(O)c(O)c1
REMARK SMILES IDX 5 1 46 2 33 3 20 4 7 5 6 6 4 7 3 8 2 9 1 10 59 11 60 12
REMARK SMILES IDX 61 13 67 14 63 15 65 16 62 17 64 19 66 21 47 23 48 24 49 25
REMARK SMILES IDX 50 26 58 27 51 28 56 29 52 30 54 31 57 32 53 34 55 36 34 38
REMARK SMILES IDX 35 39 36 40 37 41 45 42 38 43 43 44 39 45 41 46 44 47 40 49
REMARK SMILES IDX 42 51 8 53 9 54 10 55 11 56 19 57 12 58 17 59 13 60 15 61
REMARK SMILES IDX 18 62 14 64 16 66 21 68 22 69 23 70 24 71 32 72 25 73 30 74
REMARK SMILES IDX 26 75 28 76 31 77 27 79 29 81
REMARK H PARENT 62 18 64 20 66 22 57 33 53 35 55 37 44 48 40 50 42 52 18 63
REMARK H PARENT 14 65 16 67 31 78 27 80 29 82
REMARK Flexibility Score: inf
ROOT
ATOM      1  C   UNL     1      19.349  27.817  30.208  1.00  0.00     0.205 C 
ATOM      2  C   UNL     1      19.600  26.688  29.184  1.00  0.00     0.254 C 
ATOM      3  C   UNL     1      21.120  26.494  29.007  1.00  0.00     0.267 C 
ATOM      4  C   UNL     1      21.789  27.840  28.678  1.00  0.00     0.290 C 
ATOM      5  C   UNL     1      21.363  28.909  29.701  1.00  0.00     0.357 C 
ATOM      6  O   UNL     1      19.951  29.026  29.770  1.00  0.00    -0.329 OA
ENDROOT
BRANCH   1   7
ATOM      7  C   UNL     1      17.844  28.049  30.418  1.00  0.00     0.269 C 
BRANCH   7   8
ATOM      8  O   UNL     1      17.583  28.488  31.750  1.00  0.00    -0.459 OA
BRANCH   8   9
ATOM      9  C   UNL     1      17.145  29.776  32.081  1.00  0.00     0.338 C 
ATOM     10  O   UNL     1      16.464  29.966  33.125  1.00  0.00    -0.246 OA
BRANCH   9  11
ATOM     11  C   UNL     1      17.514  30.918  31.216  1.00  0.00     0.067 A 
ATOM     12  C   UNL     1      16.594  31.428  30.291  1.00  0.00     0.066 A 
ATOM     13  C   UNL     1      16.936  32.495  29.457  1.00  0.00     0.162 A 
ATOM     14  C   UNL     1      18.787  31.500  31.304  1.00  0.00     0.066 A 
ATOM     15  C   UNL     1      18.216  33.072  29.537  1.00  0.00     0.200 A 
ATOM     16  C   UNL     1      19.149  32.571  30.480  1.00  0.00     0.162 A 
BRANCH  13  17
ATOM     17  O   UNL     1      15.993  32.960  28.538  1.00  0.00    -0.504 OA
ATOM     18  H   UNL     1      16.088  33.852  28.068  1.00  0.00     0.293 HD
ENDBRANCH  13  17
BRANCH  15  19
ATOM     19  O   UNL     1      18.526  34.124  28.671  1.00  0.00    -0.502 OA
ATOM     20  H   UNL     1      19.391  34.199  28.159  1.00  0.00     0.293 HD
ENDBRANCH  15  19
BRANCH  16  21
ATOM     21  O   UNL     1      20.430  33.108  30.635  1.00  0.00    -0.504 OA
ATOM     22  H   UNL     1      20.860  33.303  31.524  1.00  0.00     0.293 HD
ENDBRANCH  16  21
ENDBRANCH   9  11
ENDBRANCH   8   9
ENDBRANCH   7   8
ENDBRANCH   1   7
BRANCH   2  23
ATOM     23  O   UNL     1      19.008  27.040  27.934  1.00  0.00    -0.452 OA
BRANCH  23  24
ATOM     24  C   UNL     1      17.629  27.005  27.682  1.00  0.00     0.338 C 
ATOM     25  O   UNL     1      17.029  28.039  27.280  1.00  0.00    -0.246 OA
BRANCH  24  26
ATOM     26  C   UNL     1      16.883  25.747  27.888  1.00  0.00     0.067 A 
ATOM     27  C   UNL     1      16.890  24.740  26.906  1.00  0.00     0.066 A 
ATOM     28  C   UNL     1      16.166  25.540  29.075  1.00  0.00     0.066 A 
ATOM     29  C   UNL     1      16.191  23.547  27.106  1.00  0.00     0.162 A 
ATOM     30  C   UNL     1      15.458  24.353  29.281  1.00  0.00     0.162 A 
ATOM     31  C   UNL     1      15.467  23.350  28.295  1.00  0.00     0.200 A 
BRANCH  29  32
ATOM     32  O   UNL     1      16.243  22.558  26.123  1.00  0.00    -0.504 OA
ATOM     33  H   UNL     1      15.823  22.689  25.210  1.00  0.00     0.293 HD
ENDBRANCH  29  32
BRANCH  30  34
ATOM     34  O   UNL     1      14.738  24.163  30.462  1.00  0.00    -0.504 OA
ATOM     35  H   UNL     1      14.712  23.259  30.923  1.00  0.00     0.293 HD
ENDBRANCH  30  34
BRANCH  31  36
ATOM     36  O   UNL     1      14.771  22.156  28.488  1.00  0.00    -0.502 OA
ATOM     37  H   UNL     1      14.329  21.923  29.373  1.00  0.00     0.293 HD
ENDBRANCH  31  36
ENDBRANCH  24  26
ENDBRANCH  23  24
ENDBRANCH   2  23
BRANCH   3  38
ATOM     38  O   UNL     1      21.394  25.569  27.955  1.00  0.00    -0.450 OA
BRANCH  38  39
ATOM     39  C   UNL     1      20.571  24.490  27.615  1.00  0.00     0.338 C 
ATOM     40  O   UNL     1      19.791  23.993  28.473  1.00  0.00    -0.246 OA
BRANCH  39  41
ATOM     41  C   UNL     1      20.631  23.929  26.244  1.00  0.00     0.067 A 
ATOM     42  C   UNL     1      19.625  23.073  25.763  1.00  0.00     0.066 A 
ATOM     43  C   UNL     1      21.710  24.246  25.406  1.00  0.00     0.066 A 
ATOM     44  C   UNL     1      19.712  22.515  24.480  1.00  0.00     0.162 A 
ATOM     45  C   UNL     1      21.807  23.694  24.125  1.00  0.00     0.162 A 
ATOM     46  C   UNL     1      20.811  22.822  23.659  1.00  0.00     0.200 A 
BRANCH  44  47
ATOM     47  O   UNL     1      18.712  21.656  24.016  1.00  0.00    -0.504 OA
ATOM     48  H   UNL     1      17.834  21.540  24.511  1.00  0.00     0.293 HD
ENDBRANCH  44  47
BRANCH  45  49
ATOM     49  O   UNL     1      22.900  24.027  23.324  1.00  0.00    -0.504 OA
ATOM     50  H   UNL     1      23.635  23.364  23.117  1.00  0.00     0.293 HD
ENDBRANCH  45  49
BRANCH  46  51
ATOM     51  O   UNL     1      20.922  22.272  22.382  1.00  0.00    -0.502 OA
ATOM     52  H   UNL     1      21.242  21.322  22.223  1.00  0.00     0.293 HD
ENDBRANCH  46  51
ENDBRANCH  39  41
ENDBRANCH  38  39
ENDBRANCH   3  38
BRANCH   5  53
ATOM     53  O   UNL     1      21.910  28.625  30.991  1.00  0.00    -0.428 OA
BRANCH  53  54
ATOM     54  C   UNL     1      21.815  29.502  32.078  1.00  0.00     0.340 C 
ATOM     55  O   UNL     1      20.782  29.505  32.802  1.00  0.00    -0.246 OA
BRANCH  54  56
ATOM     56  C   UNL     1      22.923  30.445  32.353  1.00  0.00     0.067 A 
ATOM     57  C   UNL     1      24.231  29.963  32.524  1.00  0.00     0.066 A 
ATOM     58  C   UNL     1      22.683  31.826  32.432  1.00  0.00     0.066 A 
ATOM     59  C   UNL     1      25.287  30.849  32.781  1.00  0.00     0.162 A 
ATOM     60  C   UNL     1      23.735  32.717  32.681  1.00  0.00     0.162 A 
ATOM     61  C   UNL     1      25.040  32.230  32.864  1.00  0.00     0.200 A 
BRANCH  59  62
ATOM     62  O   UNL     1      26.581  30.365  32.955  1.00  0.00    -0.504 OA
ATOM     63  H   UNL     1      26.961  30.179  33.876  1.00  0.00     0.293 HD
ENDBRANCH  59  62
BRANCH  60  64
ATOM     64  O   UNL     1      23.472  34.084  32.760  1.00  0.00    -0.504 OA
ATOM     65  H   UNL     1      23.475  34.581  33.643  1.00  0.00     0.293 HD
ENDBRANCH  60  64
BRANCH  61  66
ATOM     66  O   UNL     1      26.076  33.130  33.124  1.00  0.00    -0.502 OA
ATOM     67  H   UNL     1      26.428  33.288  34.068  1.00  0.00     0.293 HD
ENDBRANCH  61  66
ENDBRANCH  54  56
ENDBRANCH  53  54
ENDBRANCH   5  53
BRANCH   4  68
ATOM     68  O   UNL     1      23.214  27.704  28.700  1.00  0.00    -0.448 OA
BRANCH  68  69
ATOM     69  C   UNL     1      24.053  28.173  27.678  1.00  0.00     0.339 C 
ATOM     70  O   UNL     1      23.751  27.970  26.470  1.00  0.00    -0.246 OA
BRANCH  69  71
ATOM     71  C   UNL     1      25.271  28.939  28.013  1.00  0.00     0.067 A 
ATOM     72  C   UNL     1      26.504  28.620  27.417  1.00  0.00     0.066 A 
ATOM     73  C   UNL     1      25.211  30.002  28.929  1.00  0.00     0.066 A 
ATOM     74  C   UNL     1      27.652  29.371  27.707  1.00  0.00     0.162 A 
ATOM     75  C   UNL     1      26.354  30.751  29.241  1.00  0.00     0.162 A 
ATOM     76  C   UNL     1      27.584  30.445  28.608  1.00  0.00     0.200 A 
BRANCH  74  77
ATOM     77  O   UNL     1      28.867  29.067  27.094  1.00  0.00    -0.504 OA
ATOM     78  H   UNL     1      29.745  29.178  27.578  1.00  0.00     0.293 HD
ENDBRANCH  74  77
BRANCH  75  79
ATOM     79  O   UNL     1      26.219  31.774  30.184  1.00  0.00    -0.504 OA
ATOM     80  H   UNL     1      26.887  31.959  30.916  1.00  0.00     0.293 HD
ENDBRANCH  75  79
BRANCH  76  81
ATOM     81  O   UNL     1      28.746  31.185  28.838  1.00  0.00    -0.502 OA
ATOM     82  H   UNL     1      29.585  31.084  28.294  1.00  0.00     0.293 HD
ENDBRANCH  76  81
ENDBRANCH  69  71
ENDBRANCH  68  69
ENDBRANCH   4  68
TORSDOF 31
ENDMDL
MODEL 8
REMARK VINA RESULT:    -6.163      1.938      8.277
REMARK INTER + INTRA:         -18.130
REMARK INTER:                 -15.651
REMARK INTRA:                  -2.479
REMARK UNBOUND:                -3.501
REMARK SMILES O=C(OC[C@@H]1O[C@@H](OC(=O)c2cc(O)c(O)c(O)c2)[C@@H](OC(=O)c2cc(O)c(O)c(O)c2)[C@H](OC(=O)c2cc(O)c(O)c(O)c2)[C@@H]1OC(=O)c1cc(O)c(O)c(O)c1)c1cc(O)c(O)c(O)c1
REMARK SMILES IDX 5 1 46 2 33 3 20 4 7 5 6 6 4 7 3 8 2 9 1 10 59 11 60 12
REMARK SMILES IDX 61 13 67 14 63 15 65 16 62 17 64 19 66 21 47 23 48 24 49 25
REMARK SMILES IDX 50 26 58 27 51 28 56 29 52 30 54 31 57 32 53 34 55 36 34 38
REMARK SMILES IDX 35 39 36 40 37 41 45 42 38 43 43 44 39 45 41 46 44 47 40 49
REMARK SMILES IDX 42 51 8 53 9 54 10 55 11 56 19 57 12 58 17 59 13 60 15 61
REMARK SMILES IDX 18 62 14 64 16 66 21 68 22 69 23 70 24 71 32 72 25 73 30 74
REMARK SMILES IDX 26 75 28 76 31 77 27 79 29 81
REMARK H PARENT 62 18 64 20 66 22 57 33 53 35 55 37 44 48 40 50 42 52 18 63
REMARK H PARENT 14 65 16 67 31 78 27 80 29 82
REMARK Flexibility Score: inf
ROOT
ATOM      1  C   UNL     1      23.406  28.893  28.606  1.00  0.00     0.205 C 
ATOM      2  C   UNL     1      22.184  28.033  28.216  1.00  0.00     0.254 C 
ATOM      3  C   UNL     1      20.894  28.771  28.629  1.00  0.00     0.267 C 
ATOM      4  C   UNL     1      20.968  29.173  30.113  1.00  0.00     0.290 C 
ATOM      5  C   UNL     1      22.286  29.915  30.397  1.00  0.00     0.357 C 
ATOM      6  O   UNL     1      23.410  29.144  30.003  1.00  0.00    -0.329 OA
ENDROOT
BRANCH   1   7
ATOM      7  C   UNL     1      24.720  28.196  28.214  1.00  0.00     0.269 C 
BRANCH   7   8
ATOM      8  O   UNL     1      25.843  29.000  28.573  1.00  0.00    -0.459 OA
BRANCH   8   9
ATOM      9  C   UNL     1      27.044  29.037  27.856  1.00  0.00     0.338 C 
ATOM     10  O   UNL     1      27.193  28.319  26.830  1.00  0.00    -0.246 OA
BRANCH   9  11
ATOM     11  C   UNL     1      28.124  29.951  28.287  1.00  0.00     0.067 A 
ATOM     12  C   UNL     1      28.487  30.025  29.639  1.00  0.00     0.066 A 
ATOM     13  C   UNL     1      29.494  30.895  30.062  1.00  0.00     0.162 A 
ATOM     14  C   UNL     1      28.795  30.758  27.356  1.00  0.00     0.066 A 
ATOM     15  C   UNL     1      30.159  31.712  29.130  1.00  0.00     0.200 A 
ATOM     16  C   UNL     1      29.808  31.634  27.759  1.00  0.00     0.162 A 
BRANCH  13  17
ATOM     17  O   UNL     1      29.810  30.948  31.421  1.00  0.00    -0.504 OA
ATOM     18  H   UNL     1      30.043  31.816  31.890  1.00  0.00     0.293 HD
ENDBRANCH  13  17
BRANCH  15  19
ATOM     19  O   UNL     1      31.146  32.585  29.597  1.00  0.00    -0.502 OA
ATOM     20  H   UNL     1      31.759  32.383  30.372  1.00  0.00     0.293 HD
ENDBRANCH  15  19
BRANCH  16  21
ATOM     21  O   UNL     1      30.440  32.396  26.772  1.00  0.00    -0.504 OA
ATOM     22  H   UNL     1      30.037  32.611  25.875  1.00  0.00     0.293 HD
ENDBRANCH  16  21
ENDBRANCH   9  11
ENDBRANCH   8   9
ENDBRANCH   7   8
ENDBRANCH   1   7
BRANCH   2  23
ATOM     23  O   UNL     1      22.256  26.773  28.883  1.00  0.00    -0.452 OA
BRANCH  23  24
ATOM     24  C   UNL     1      21.243  25.805  28.841  1.00  0.00     0.338 C 
ATOM     25  O   UNL     1      20.544  25.568  29.864  1.00  0.00    -0.246 OA
BRANCH  24  26
ATOM     26  C   UNL     1      20.996  25.064  27.587  1.00  0.00     0.067 A 
ATOM     27  C   UNL     1      21.667  25.416  26.402  1.00  0.00     0.066 A 
ATOM     28  C   UNL     1      20.093  23.991  27.570  1.00  0.00     0.066 A 
ATOM     29  C   UNL     1      21.440  24.708  25.219  1.00  0.00     0.162 A 
ATOM     30  C   UNL     1      19.855  23.281  26.389  1.00  0.00     0.162 A 
ATOM     31  C   UNL     1      20.527  23.639  25.207  1.00  0.00     0.200 A 
BRANCH  29  32
ATOM     32  O   UNL     1      22.144  25.066  24.069  1.00  0.00    -0.504 OA
ATOM     33  H   UNL     1      23.148  24.953  23.999  1.00  0.00     0.293 HD
ENDBRANCH  29  32
BRANCH  30  34
ATOM     34  O   UNL     1      18.945  22.222  26.382  1.00  0.00    -0.504 OA
ATOM     35  H   UNL     1      18.413  21.992  25.548  1.00  0.00     0.293 HD
ENDBRANCH  30  34
BRANCH  31  36
ATOM     36  O   UNL     1      20.304  22.937  24.021  1.00  0.00    -0.502 OA
ATOM     37  H   UNL     1      19.775  23.332  23.249  1.00  0.00     0.293 HD
ENDBRANCH  31  36
ENDBRANCH  24  26
ENDBRANCH  23  24
ENDBRANCH   2  23
BRANCH   3  38
ATOM     38  O   UNL     1      19.749  27.941  28.429  1.00  0.00    -0.450 OA
BRANCH  38  39
ATOM     39  C   UNL     1      18.459  28.419  28.176  1.00  0.00     0.338 C 
ATOM     40  O   UNL     1      18.288  29.612  27.803  1.00  0.00    -0.246 OA
BRANCH  39  41
ATOM     41  C   UNL     1      17.297  27.519  28.360  1.00  0.00     0.067 A 
ATOM     42  C   UNL     1      16.221  27.878  29.189  1.00  0.00     0.066 A 
ATOM     43  C   UNL     1      17.264  26.278  27.704  1.00  0.00     0.066 A 
ATOM     44  C   UNL     1      15.145  27.000  29.388  1.00  0.00     0.162 A 
ATOM     45  C   UNL     1      16.198  25.396  27.897  1.00  0.00     0.162 A 
ATOM     46  C   UNL     1      15.136  25.751  28.744  1.00  0.00     0.200 A 
BRANCH  44  47
ATOM     47  O   UNL     1      14.085  27.363  30.224  1.00  0.00    -0.504 OA
ATOM     48  H   UNL     1      14.007  28.296  30.616  1.00  0.00     0.293 HD
ENDBRANCH  44  47
BRANCH  45  49
ATOM     49  O   UNL     1      16.206  24.168  27.234  1.00  0.00    -0.504 OA
ATOM     50  H   UNL     1      17.065  23.684  27.010  1.00  0.00     0.293 HD
ENDBRANCH  45  49
BRANCH  46  51
ATOM     51  O   UNL     1      14.081  24.858  28.934  1.00  0.00    -0.502 OA
ATOM     52  H   UNL     1      13.349  24.725  28.245  1.00  0.00     0.293 HD
ENDBRANCH  46  51
ENDBRANCH  39  41
ENDBRANCH  38  39
ENDBRANCH   3  38
BRANCH   5  53
ATOM     53  O   UNL     1      22.300  31.191  29.753  1.00  0.00    -0.428 OA
BRANCH  53  54
ATOM     54  C   UNL     1      22.909  32.326  30.304  1.00  0.00     0.340 C 
ATOM     55  O   UNL     1      22.380  33.462  30.159  1.00  0.00    -0.246 OA
BRANCH  54  56
ATOM     56  C   UNL     1      24.190  32.185  31.032  1.00  0.00     0.067 A 
ATOM     57  C   UNL     1      24.474  31.002  31.735  1.00  0.00     0.066 A 
ATOM     58  C   UNL     1      25.138  33.221  31.017  1.00  0.00     0.066 A 
ATOM     59  C   UNL     1      25.686  30.859  32.425  1.00  0.00     0.162 A 
ATOM     60  C   UNL     1      26.354  33.080  31.698  1.00  0.00     0.162 A 
ATOM     61  C   UNL     1      26.629  31.902  32.410  1.00  0.00     0.200 A 
BRANCH  59  62
ATOM     62  O   UNL     1      25.960  29.686  33.124  1.00  0.00    -0.504 OA
ATOM     63  H   UNL     1      26.666  29.652  33.849  1.00  0.00     0.293 HD
ENDBRANCH  59  62
BRANCH  60  64
ATOM     64  O   UNL     1      27.279  34.124  31.672  1.00  0.00    -0.504 OA
ATOM     65  H   UNL     1      27.036  35.045  31.325  1.00  0.00     0.293 HD
ENDBRANCH  60  64
BRANCH  61  66
ATOM     66  O   UNL     1      27.841  31.781  33.094  1.00  0.00    -0.502 OA
ATOM     67  H   UNL     1      28.731  31.708  32.602  1.00  0.00     0.293 HD
ENDBRANCH  61  66
ENDBRANCH  54  56
ENDBRANCH  53  54
ENDBRANCH   5  53
BRANCH   4  68
ATOM     68  O   UNL     1      19.865  30.019  30.453  1.00  0.00    -0.448 OA
BRANCH  68  69
ATOM     69  C   UNL     1      19.137  29.902  31.647  1.00  0.00     0.339 C 
ATOM     70  O   UNL     1      19.659  29.348  32.652  1.00  0.00    -0.246 OA
BRANCH  69  71
ATOM     71  C   UNL     1      17.773  30.463  31.741  1.00  0.00     0.067 A 
ATOM     72  C   UNL     1      17.534  31.815  31.438  1.00  0.00     0.066 A 
ATOM     73  C   UNL     1      16.696  29.650  32.131  1.00  0.00     0.066 A 
ATOM     74  C   UNL     1      16.234  32.338  31.492  1.00  0.00     0.162 A 
ATOM     75  C   UNL     1      15.395  30.164  32.204  1.00  0.00     0.162 A 
ATOM     76  C   UNL     1      15.158  31.519  31.861  1.00  0.00     0.200 A 
BRANCH  74  77
ATOM     77  O   UNL     1      15.998  33.673  31.165  1.00  0.00    -0.504 OA
ATOM     78  H   UNL     1      15.418  34.263  31.743  1.00  0.00     0.293 HD
ENDBRANCH  74  77
BRANCH  75  79
ATOM     79  O   UNL     1      14.381  29.299  32.628  1.00  0.00    -0.504 OA
ATOM     80  H   UNL     1      14.095  28.474  32.126  1.00  0.00     0.293 HD
ENDBRANCH  75  79
BRANCH  76  81
ATOM     81  O   UNL     1      13.877  32.075  31.866  1.00  0.00    -0.502 OA
ATOM     82  H   UNL     1      13.035  31.529  31.926  1.00  0.00     0.293 HD
ENDBRANCH  76  81
ENDBRANCH  69  71
ENDBRANCH  68  69
ENDBRANCH   4  68
TORSDOF 31
ENDMDL
