MODEL 1
REMARK VINA RESULT:    -4.542      0.000      0.000
REMARK INTER + INTRA:          -8.327
REMARK INTER:                  -6.932
REMARK INTRA:                  -1.395
REMARK UNBOUND:                -1.395
REMARK SMILES CCCCCCCCCCC(=O)[O-]
REMARK SMILES IDX 7 1 8 2 9 3 10 4 11 5 12 6 13 7 6 8 5 9 4 10 3 11 2 12 1 13
REMARK H PARENT
REMARK Flexibility Score: inf
ROOT
ATOM      1  C   UNL     1      14.226  15.799  70.389  1.00  0.00     0.000 C 
ENDROOT
BRANCH   1   2
ATOM      2  C   UNL     1      13.814  14.997  69.149  1.00  0.00     0.000 C 
BRANCH   2   3
ATOM      3  C   UNL     1      13.401  13.568  69.532  1.00  0.00     0.006 C 
BRANCH   3   4
ATOM      4  C   UNL     1      12.115  13.125  68.819  1.00  0.00     0.053 C 
BRANCH   4   5
ATOM      5  C   UNL     1      10.907  13.309  69.685  1.00  0.00     0.041 C 
ATOM      6  O   UNL     1      11.012  13.250  70.939  1.00  0.00    -0.550 OA
ATOM      7  O   UNL     1       9.660  13.513  69.108  1.00  0.00    -0.550 OA
ENDBRANCH   4   5
ENDBRANCH   3   4
ENDBRANCH   2   3
ENDBRANCH   1   2
BRANCH   1   8
ATOM      8  C   UNL     1      13.250  16.954  70.646  1.00  0.00     0.000 C 
BRANCH   8   9
ATOM      9  C   UNL     1      12.094  16.507  71.550  1.00  0.00    -0.000 C 
BRANCH   9  10
ATOM     10  C   UNL     1      10.741  16.912  70.955  1.00  0.00    -0.000 C 
BRANCH  10  11
ATOM     11  C   UNL     1      10.922  17.608  69.598  1.00  0.00    -0.000 C 
BRANCH  11  12
ATOM     12  C   UNL     1      10.140  16.918  68.470  1.00  0.00    -0.003 C 
ATOM     13  C   UNL     1      11.025  16.543  67.282  1.00  0.00     0.004 C 
ENDBRANCH  11  12
ENDBRANCH  10  11
ENDBRANCH   9  10
ENDBRANCH   8   9
ENDBRANCH   1   8
TORSDOF 9
ENDMDL
MODEL 2
REMARK VINA RESULT:    -4.500      1.979      3.659
REMARK INTER + INTRA:          -8.263
REMARK INTER:                  -7.001
REMARK INTRA:                  -1.261
REMARK UNBOUND:                -1.395
REMARK SMILES CCCCCCCCCCC(=O)[O-]
REMARK SMILES IDX 7 1 8 2 9 3 10 4 11 5 12 6 13 7 6 8 5 9 4 10 3 11 2 12 1 13
REMARK H PARENT
REMARK Flexibility Score: inf
ROOT
ATOM      1  C   UNL     1       9.778  13.743  68.675  1.00  0.00     0.000 C 
ENDROOT
BRANCH   1   2
ATOM      2  C   UNL     1      10.914  13.564  69.689  1.00  0.00     0.000 C 
BRANCH   2   3
ATOM      3  C   UNL     1      12.223  13.178  68.986  1.00  0.00     0.006 C 
BRANCH   3   4
ATOM      4  C   UNL     1      13.460  13.679  69.745  1.00  0.00     0.053 C 
BRANCH   4   5
ATOM      5  C   UNL     1      13.959  14.981  69.196  1.00  0.00     0.041 C 
ATOM      6  O   UNL     1      14.645  15.751  69.919  1.00  0.00    -0.550 OA
ATOM      7  O   UNL     1      13.637  15.359  67.899  1.00  0.00    -0.550 OA
ENDBRANCH   4   5
ENDBRANCH   3   4
ENDBRANCH   2   3
ENDBRANCH   1   2
BRANCH   1   8
ATOM      8  C   UNL     1       9.216  15.169  68.722  1.00  0.00     0.000 C 
BRANCH   8   9
ATOM      9  C   UNL     1      10.206  16.171  68.117  1.00  0.00    -0.000 C 
BRANCH   9  10
ATOM     10  C   UNL     1      10.285  17.448  68.962  1.00  0.00    -0.000 C 
BRANCH  10  11
ATOM     11  C   UNL     1      11.388  17.338  70.024  1.00  0.00    -0.000 C 
BRANCH  11  12
ATOM     12  C   UNL     1      10.846  16.915  71.398  1.00  0.00    -0.003 C 
ATOM     13  C   UNL     1      11.875  16.148  72.228  1.00  0.00     0.004 C 
ENDBRANCH  11  12
ENDBRANCH  10  11
ENDBRANCH   9  10
ENDBRANCH   8   9
ENDBRANCH   1   8
TORSDOF 9
ENDMDL
MODEL 3
REMARK VINA RESULT:    -4.463      2.059      4.241
REMARK INTER + INTRA:          -8.206
REMARK INTER:                  -6.884
REMARK INTRA:                  -1.323
REMARK UNBOUND:                -1.395
REMARK SMILES CCCCCCCCCCC(=O)[O-]
REMARK SMILES IDX 7 1 8 2 9 3 10 4 11 5 12 6 13 7 6 8 5 9 4 10 3 11 2 12 1 13
REMARK H PARENT
REMARK Flexibility Score: inf
ROOT
ATOM      1  C   UNL     1      10.991  13.591  69.766  1.00  0.00     0.000 C 
ENDROOT
BRANCH   1   2
ATOM      2  C   UNL     1       9.816  14.095  68.921  1.00  0.00     0.000 C 
BRANCH   2   3
ATOM      3  C   UNL     1       9.704  15.625  68.991  1.00  0.00     0.006 C 
BRANCH   3   4
ATOM      4  C   UNL     1       9.909  16.286  67.620  1.00  0.00     0.053 C 
BRANCH   4   5
ATOM      5  C   UNL     1      11.246  16.954  67.520  1.00  0.00     0.041 C 
ATOM      6  O   UNL     1      11.355  18.189  67.740  1.00  0.00    -0.550 OA
ATOM      7  O   UNL     1      12.366  16.220  67.149  1.00  0.00    -0.550 OA
ENDBRANCH   4   5
ENDBRANCH   3   4
ENDBRANCH   2   3
ENDBRANCH   1   2
BRANCH   1   8
ATOM      8  C   UNL     1      12.148  13.121  68.876  1.00  0.00     0.000 C 
BRANCH   8   9
ATOM      9  C   UNL     1      13.502  13.492  69.492  1.00  0.00    -0.000 C 
BRANCH   9  10
ATOM     10  C   UNL     1      13.325  14.445  70.681  1.00  0.00    -0.000 C 
BRANCH  10  11
ATOM     11  C   UNL     1      13.884  15.838  70.357  1.00  0.00    -0.000 C 
BRANCH  11  12
ATOM     12  C   UNL     1      12.943  16.970  70.800  1.00  0.00    -0.003 C 
ATOM     13  C   UNL     1      12.000  16.547  71.925  1.00  0.00     0.004 C 
ENDBRANCH  11  12
ENDBRANCH  10  11
ENDBRANCH   9  10
ENDBRANCH   8   9
ENDBRANCH   1   8
TORSDOF 9
ENDMDL
MODEL 4
REMARK VINA RESULT:    -4.440      2.219      3.431
REMARK INTER + INTRA:          -8.171
REMARK INTER:                  -6.814
REMARK INTRA:                  -1.357
REMARK UNBOUND:                -1.395
REMARK SMILES CCCCCCCCCCC(=O)[O-]
REMARK SMILES IDX 7 1 8 2 9 3 10 4 11 5 12 6 13 7 6 8 5 9 4 10 3 11 2 12 1 13
REMARK H PARENT
REMARK Flexibility Score: inf
ROOT
ATOM      1  C   UNL     1      10.688  13.818  69.647  1.00  0.00     0.000 C 
ENDROOT
BRANCH   1   2
ATOM      2  C   UNL     1      11.790  13.074  68.883  1.00  0.00     0.000 C 
BRANCH   2   3
ATOM      3  C   UNL     1      13.170  13.358  69.495  1.00  0.00     0.006 C 
BRANCH   3   4
ATOM      4  C   UNL     1      13.103  14.399  70.621  1.00  0.00     0.053 C 
BRANCH   4   5
ATOM      5  C   UNL     1      14.047  15.538  70.382  1.00  0.00     0.041 C 
ATOM      6  O   UNL     1      13.694  16.718  70.645  1.00  0.00    -0.550 OA
ATOM      7  O   UNL     1      15.302  15.300  69.838  1.00  0.00    -0.550 OA
ENDBRANCH   4   5
ENDBRANCH   3   4
ENDBRANCH   2   3
ENDBRANCH   1   2
BRANCH   1   8
ATOM      8  C   UNL     1       9.467  14.064  68.751  1.00  0.00     0.000 C 
BRANCH   8   9
ATOM      9  C   UNL     1       9.101  15.552  68.717  1.00  0.00    -0.000 C 
BRANCH   9  10
ATOM     10  C   UNL     1      10.087  16.382  69.547  1.00  0.00    -0.000 C 
BRANCH  10  11
ATOM     11  C   UNL     1      10.819  17.407  68.668  1.00  0.00    -0.000 C 
BRANCH  11  12
ATOM     12  C   UNL     1      11.028  16.910  67.229  1.00  0.00    -0.003 C 
ATOM     13  C   UNL     1      12.378  16.222  67.033  1.00  0.00     0.004 C 
ENDBRANCH  11  12
ENDBRANCH  10  11
ENDBRANCH   9  10
ENDBRANCH   8   9
ENDBRANCH   1   8
TORSDOF 9
ENDMDL
MODEL 5
REMARK VINA RESULT:    -4.420      2.121      2.828
REMARK INTER + INTRA:          -8.140
REMARK INTER:                  -6.779
REMARK INTRA:                  -1.362
REMARK UNBOUND:                -1.395
REMARK SMILES CCCCCCCCCCC(=O)[O-]
REMARK SMILES IDX 7 1 8 2 9 3 10 4 11 5 12 6 13 7 6 8 5 9 4 10 3 11 2 12 1 13
REMARK H PARENT
REMARK Flexibility Score: inf
ROOT
ATOM      1  C   UNL     1      11.355  14.670  72.116  1.00  0.00     0.000 C 
ENDROOT
BRANCH   1   2
ATOM      2  C   UNL     1      11.207  13.790  70.870  1.00  0.00     0.000 C 
BRANCH   2   3
ATOM      3  C   UNL     1      12.572  13.532  70.214  1.00  0.00     0.006 C 
BRANCH   3   4
ATOM      4  C   UNL     1      12.554  13.817  68.705  1.00  0.00     0.053 C 
BRANCH   4   5
ATOM      5  C   UNL     1      13.386  15.013  68.356  1.00  0.00     0.041 C 
ATOM      6  O   UNL     1      13.398  15.453  67.176  1.00  0.00    -0.550 OA
ATOM      7  O   UNL     1      14.175  15.620  69.325  1.00  0.00    -0.550 OA
ENDBRANCH   4   5
ENDBRANCH   3   4
ENDBRANCH   2   3
ENDBRANCH   1   2
BRANCH   1   8
ATOM      8  C   UNL     1      11.476  16.151  71.733  1.00  0.00     0.000 C 
BRANCH   8   9
ATOM      9  C   UNL     1      10.138  16.877  71.916  1.00  0.00    -0.000 C 
BRANCH   9  10
ATOM     10  C   UNL     1       9.709  17.575  70.620  1.00  0.00    -0.000 C 
BRANCH  10  11
ATOM     11  C   UNL     1      10.715  17.306  69.491  1.00  0.00    -0.000 C 
BRANCH  11  12
ATOM     12  C   UNL     1      10.067  16.636  68.269  1.00  0.00    -0.003 C 
ATOM     13  C   UNL     1       8.893  15.733  68.645  1.00  0.00     0.004 C 
ENDBRANCH  11  12
ENDBRANCH  10  11
ENDBRANCH   9  10
ENDBRANCH   8   9
ENDBRANCH   1   8
TORSDOF 9
ENDMDL
MODEL 6
REMARK VINA RESULT:    -4.410      2.085      4.125
REMARK INTER + INTRA:          -8.124
REMARK INTER:                  -6.874
REMARK INTRA:                  -1.250
REMARK UNBOUND:                -1.395
REMARK SMILES CCCCCCCCCCC(=O)[O-]
REMARK SMILES IDX 7 1 8 2 9 3 10 4 11 5 12 6 13 7 6 8 5 9 4 10 3 11 2 12 1 13
REMARK H PARENT
REMARK Flexibility Score: inf
ROOT
ATOM      1  C   UNL     1      12.096  16.477  71.639  1.00  0.00     0.000 C 
ENDROOT
BRANCH   1   2
ATOM      2  C   UNL     1      10.791  16.767  70.889  1.00  0.00     0.000 C 
BRANCH   2   3
ATOM      3  C   UNL     1      11.035  17.718  69.708  1.00  0.00     0.006 C 
BRANCH   3   4
ATOM      4  C   UNL     1      10.492  17.155  68.387  1.00  0.00     0.053 C 
BRANCH   4   5
ATOM      5  C   UNL     1      11.507  17.243  67.287  1.00  0.00     0.041 C 
ATOM      6  O   UNL     1      12.340  16.314  67.119  1.00  0.00    -0.550 OA
ATOM      7  O   UNL     1      11.553  18.366  66.471  1.00  0.00    -0.550 OA
ENDBRANCH   4   5
ENDBRANCH   3   4
ENDBRANCH   2   3
ENDBRANCH   1   2
BRANCH   1   8
ATOM      8  C   UNL     1      13.310  16.969  70.842  1.00  0.00     0.000 C 
BRANCH   8   9
ATOM      9  C   UNL     1      14.081  15.792  70.232  1.00  0.00    -0.000 C 
BRANCH   9  10
ATOM     10  C   UNL     1      13.461  14.453  70.646  1.00  0.00    -0.000 C 
BRANCH  10  11
ATOM     11  C   UNL     1      13.297  13.524  69.434  1.00  0.00    -0.000 C 
BRANCH  11  12
ATOM     12  C   UNL     1      11.845  13.452  68.937  1.00  0.00    -0.003 C 
ATOM     13  C   UNL     1      10.844  13.232  70.070  1.00  0.00     0.004 C 
ENDBRANCH  11  12
ENDBRANCH  10  11
ENDBRANCH   9  10
ENDBRANCH   8   9
ENDBRANCH   1   8
TORSDOF 9
ENDMDL
MODEL 7
REMARK VINA RESULT:    -4.374      1.429      3.179
REMARK INTER + INTRA:          -8.070
REMARK INTER:                  -6.759
REMARK INTRA:                  -1.311
REMARK UNBOUND:                -1.395
REMARK SMILES CCCCCCCCCCC(=O)[O-]
REMARK SMILES IDX 7 1 8 2 9 3 10 4 11 5 12 6 13 7 6 8 5 9 4 10 3 11 2 12 1 13
REMARK H PARENT
REMARK Flexibility Score: inf
ROOT
ATOM      1  C   UNL     1      13.866  14.867  69.066  1.00  0.00     0.000 C 
ENDROOT
BRANCH   1   2
ATOM      2  C   UNL     1      14.220  15.804  70.227  1.00  0.00     0.000 C 
BRANCH   2   3
ATOM      3  C   UNL     1      13.059  16.760  70.535  1.00  0.00     0.006 C 
BRANCH   3   4
ATOM      4  C   UNL     1      12.545  16.605  71.974  1.00  0.00     0.053 C 
BRANCH   4   5
ATOM      5  C   UNL     1      11.202  15.942  72.016  1.00  0.00     0.041 C 
ATOM      6  O   UNL     1      11.117  14.687  72.078  1.00  0.00    -0.550 OA
ATOM      7  O   UNL     1      10.045  16.709  71.953  1.00  0.00    -0.550 OA
ENDBRANCH   4   5
ENDBRANCH   3   4
ENDBRANCH   2   3
ENDBRANCH   1   2
BRANCH   1   8
ATOM      8  C   UNL     1      13.331  13.526  69.585  1.00  0.00     0.000 C 
BRANCH   8   9
ATOM      9  C   UNL     1      12.066  13.108  68.827  1.00  0.00    -0.000 C 
BRANCH   9  10
ATOM     10  C   UNL     1      11.444  14.301  68.092  1.00  0.00    -0.000 C 
BRANCH  10  11
ATOM     11  C   UNL     1      10.102  14.698  68.724  1.00  0.00    -0.000 C 
BRANCH  11  12
ATOM     12  C   UNL     1       9.597  16.063  68.231  1.00  0.00    -0.003 C 
ATOM     13  C   UNL     1      10.719  16.946  67.688  1.00  0.00     0.004 C 
ENDBRANCH  11  12
ENDBRANCH  10  11
ENDBRANCH   9  10
ENDBRANCH   8   9
ENDBRANCH   1   8
TORSDOF 9
ENDMDL
MODEL 8
REMARK VINA RESULT:    -4.327      1.852      4.147
REMARK INTER + INTRA:          -7.999
REMARK INTER:                  -6.572
REMARK INTRA:                  -1.427
REMARK UNBOUND:                -1.395
REMARK SMILES CCCCCCCCCCC(=O)[O-]
REMARK SMILES IDX 7 1 8 2 9 3 10 4 11 5 12 6 13 7 6 8 5 9 4 10 3 11 2 12 1 13
REMARK H PARENT
REMARK Flexibility Score: inf
ROOT
ATOM      1  C   UNL     1      11.464  16.953  67.788  1.00  0.00     0.000 C 
ENDROOT
BRANCH   1   2
ATOM      2  C   UNL     1      10.033  16.447  68.006  1.00  0.00     0.000 C 
BRANCH   2   3
ATOM      3  C   UNL     1       9.647  16.514  69.491  1.00  0.00     0.006 C 
BRANCH   3   4
ATOM      4  C   UNL     1      10.528  17.496  70.276  1.00  0.00     0.053 C 
BRANCH   4   5
ATOM      5  C   UNL     1      11.206  16.830  71.435  1.00  0.00     0.041 C 
ATOM      6  O   UNL     1      12.460  16.867  71.542  1.00  0.00    -0.550 OA
ATOM      7  O   UNL     1      10.454  16.139  72.378  1.00  0.00    -0.550 OA
ENDBRANCH   4   5
ENDBRANCH   3   4
ENDBRANCH   2   3
ENDBRANCH   1   2
BRANCH   1   8
ATOM      8  C   UNL     1      12.394  15.809  67.365  1.00  0.00     0.000 C 
BRANCH   8   9
ATOM      9  C   UNL     1      13.150  15.240  68.571  1.00  0.00    -0.000 C 
BRANCH   9  10
ATOM     10  C   UNL     1      12.845  13.749  68.759  1.00  0.00    -0.000 C 
BRANCH  10  11
ATOM     11  C   UNL     1      11.886  13.529  69.939  1.00  0.00    -0.000 C 
BRANCH  11  12
ATOM     12  C   UNL     1      10.507  13.019  69.492  1.00  0.00    -0.003 C 
ATOM     13  C   UNL     1      10.488  12.573  68.031  1.00  0.00     0.004 C 
ENDBRANCH  11  12
ENDBRANCH  10  11
ENDBRANCH   9  10
ENDBRANCH   8   9
ENDBRANCH   1   8
TORSDOF 9
ENDMDL
MODEL 9
REMARK VINA RESULT:    -4.289      2.196      4.154
REMARK INTER + INTRA:          -7.941
REMARK INTER:                  -6.716
REMARK INTRA:                  -1.224
REMARK UNBOUND:                -1.395
REMARK SMILES CCCCCCCCCCC(=O)[O-]
REMARK SMILES IDX 7 1 8 2 9 3 10 4 11 5 12 6 13 7 6 8 5 9 4 10 3 11 2 12 1 13
REMARK H PARENT
REMARK Flexibility Score: inf
ROOT
ATOM      1  C   UNL     1      11.715  16.012  71.512  1.00  0.00     0.000 C 
ENDROOT
BRANCH   1   2
ATOM      2  C   UNL     1      10.455  16.818  71.176  1.00  0.00     0.000 C 
BRANCH   2   3
ATOM      3  C   UNL     1      10.241  16.896  69.657  1.00  0.00     0.006 C 
BRANCH   3   4
ATOM      4  C   UNL     1      11.545  17.188  68.901  1.00  0.00     0.053 C 
BRANCH   4   5
ATOM      5  C   UNL     1      11.555  16.554  67.544  1.00  0.00     0.041 C 
ATOM      6  O   UNL     1      10.492  16.474  66.875  1.00  0.00    -0.550 OA
ATOM      7  O   UNL     1      12.732  16.020  67.034  1.00  0.00    -0.550 OA
ENDBRANCH   4   5
ENDBRANCH   3   4
ENDBRANCH   2   3
ENDBRANCH   1   2
BRANCH   1   8
ATOM      8  C   UNL     1      11.355  14.688  72.197  1.00  0.00     0.000 C 
BRANCH   8   9
ATOM      9  C   UNL     1      11.319  13.536  71.186  1.00  0.00    -0.000 C 
BRANCH   9  10
ATOM     10  C   UNL     1      12.400  13.710  70.113  1.00  0.00    -0.000 C 
BRANCH  10  11
ATOM     11  C   UNL     1      11.974  13.054  68.791  1.00  0.00    -0.000 C 
BRANCH  11  12
ATOM     12  C   UNL     1      10.455  13.108  68.567  1.00  0.00    -0.003 C 
ATOM     13  C   UNL     1       9.840  11.724  68.362  1.00  0.00     0.004 C 
ENDBRANCH  11  12
ENDBRANCH  10  11
ENDBRANCH   9  10
ENDBRANCH   8   9
ENDBRANCH   1   8
TORSDOF 9
ENDMDL
