MODEL 1
REMARK VINA RESULT:    -3.930      0.000      0.000
REMARK INTER + INTRA:          -5.809
REMARK INTER:                  -5.538
REMARK INTRA:                  -0.271
REMARK UNBOUND:                -0.271
REMARK SMILES CCCCCCCCC(=O)[O-]
REMARK SMILES IDX 6 1 7 2 8 3 9 4 10 5 11 6 5 7 4 8 3 9 2 10 1 11
REMARK H PARENT
REMARK Flexibility Score: inf
ROOT
ATOM      1  C   UNL     1      15.007  33.004  68.127  1.00  0.00     0.000 C 
ENDROOT
BRANCH   1   2
ATOM      2  C   UNL     1      14.435  33.987  67.091  1.00  0.00     0.006 C 
BRANCH   2   3
ATOM      3  C   UNL     1      13.709  35.172  67.740  1.00  0.00     0.053 C 
BRANCH   3   4
ATOM      4  C   UNL     1      14.429  36.450  67.443  1.00  0.00     0.041 C 
ATOM      5  O   UNL     1      13.790  37.462  67.055  1.00  0.00    -0.550 OA
ATOM      6  O   UNL     1      15.813  36.509  67.550  1.00  0.00    -0.550 OA
ENDBRANCH   3   4
ENDBRANCH   2   3
ENDBRANCH   1   2
BRANCH   1   7
ATOM      7  C   UNL     1      16.259  32.273  67.621  1.00  0.00     0.000 C 
BRANCH   7   8
ATOM      8  C   UNL     1      16.685  31.173  68.605  1.00  0.00    -0.000 C 
BRANCH   8   9
ATOM      9  C   UNL     1      15.845  31.173  69.892  1.00  0.00    -0.000 C 
BRANCH   9  10
ATOM     10  C   UNL     1      16.673  30.831  71.140  1.00  0.00    -0.003 C 
ATOM     11  C   UNL     1      16.348  29.430  71.648  1.00  0.00     0.004 C 
ENDBRANCH   9  10
ENDBRANCH   8   9
ENDBRANCH   7   8
ENDBRANCH   1   7
TORSDOF 7
ENDMDL
MODEL 2
REMARK VINA RESULT:    -3.903     12.505     13.325
REMARK INTER + INTRA:          -5.771
REMARK INTER:                  -5.436
REMARK INTRA:                  -0.335
REMARK UNBOUND:                -0.271
REMARK SMILES CCCCCCCCC(=O)[O-]
REMARK SMILES IDX 6 1 7 2 8 3 9 4 10 5 11 6 5 7 4 8 3 9 2 10 1 11
REMARK H PARENT
REMARK Flexibility Score: inf
ROOT
ATOM      1  C   UNL     1      17.195  43.240  61.788  1.00  0.00     0.000 C 
ENDROOT
BRANCH   1   2
ATOM      2  C   UNL     1      15.775  42.854  61.344  1.00  0.00     0.006 C 
BRANCH   2   3
ATOM      3  C   UNL     1      15.374  43.505  60.014  1.00  0.00     0.053 C 
BRANCH   3   4
ATOM      4  C   UNL     1      14.757  44.847  60.257  1.00  0.00     0.041 C 
ATOM      5  O   UNL     1      15.461  45.888  60.205  1.00  0.00    -0.550 OA
ATOM      6  O   UNL     1      13.410  44.942  60.587  1.00  0.00    -0.550 OA
ENDBRANCH   3   4
ENDBRANCH   2   3
ENDBRANCH   1   2
BRANCH   1   7
ATOM      7  C   UNL     1      18.135  43.503  60.601  1.00  0.00     0.000 C 
BRANCH   7   8
ATOM      8  C   UNL     1      19.604  43.335  61.020  1.00  0.00    -0.000 C 
BRANCH   8   9
ATOM      9  C   UNL     1      20.041  41.862  61.069  1.00  0.00    -0.000 C 
BRANCH   9  10
ATOM     10  C   UNL     1      21.516  41.669  60.688  1.00  0.00    -0.003 C 
ATOM     11  C   UNL     1      22.287  42.981  60.795  1.00  0.00     0.004 C 
ENDBRANCH   9  10
ENDBRANCH   8   9
ENDBRANCH   7   8
ENDBRANCH   1   7
TORSDOF 7
ENDMDL
MODEL 3
REMARK VINA RESULT:    -3.884      1.582      2.312
REMARK INTER + INTRA:          -5.744
REMARK INTER:                  -5.458
REMARK INTRA:                  -0.287
REMARK UNBOUND:                -0.271
REMARK SMILES CCCCCCCCC(=O)[O-]
REMARK SMILES IDX 6 1 7 2 8 3 9 4 10 5 11 6 5 7 4 8 3 9 2 10 1 11
REMARK H PARENT
REMARK Flexibility Score: inf
ROOT
ATOM      1  C   UNL     1      16.396  31.625  68.227  1.00  0.00     0.000 C 
ENDROOT
BRANCH   1   2
ATOM      2  C   UNL     1      15.027  32.291  68.018  1.00  0.00     0.006 C 
BRANCH   2   3
ATOM      3  C   UNL     1      15.143  33.779  67.662  1.00  0.00     0.053 C 
BRANCH   3   4
ATOM      4  C   UNL     1      13.802  34.439  67.739  1.00  0.00     0.041 C 
ATOM      5  O   UNL     1      12.751  33.759  67.602  1.00  0.00    -0.550 OA
ATOM      6  O   UNL     1      13.713  35.815  67.914  1.00  0.00    -0.550 OA
ENDBRANCH   3   4
ENDBRANCH   2   3
ENDBRANCH   1   2
BRANCH   1   7
ATOM      7  C   UNL     1      16.551  31.020  69.631  1.00  0.00     0.000 C 
BRANCH   7   8
ATOM      8  C   UNL     1      15.178  30.787  70.280  1.00  0.00    -0.000 C 
BRANCH   8   9
ATOM      9  C   UNL     1      15.132  29.501  71.121  1.00  0.00    -0.000 C 
BRANCH   9  10
ATOM     10  C   UNL     1      16.387  29.315  71.987  1.00  0.00    -0.003 C 
ATOM     11  C   UNL     1      16.153  28.269  73.074  1.00  0.00     0.004 C 
ENDBRANCH   9  10
ENDBRANCH   8   9
ENDBRANCH   7   8
ENDBRANCH   1   7
TORSDOF 7
ENDMDL
MODEL 4
REMARK VINA RESULT:    -3.850      1.089      1.448
REMARK INTER + INTRA:          -5.696
REMARK INTER:                  -5.442
REMARK INTRA:                  -0.254
REMARK UNBOUND:                -0.271
REMARK SMILES CCCCCCCCC(=O)[O-]
REMARK SMILES IDX 6 1 7 2 8 3 9 4 10 5 11 6 5 7 4 8 3 9 2 10 1 11
REMARK H PARENT
REMARK Flexibility Score: inf
ROOT
ATOM      1  C   UNL     1      13.829  32.260  68.397  1.00  0.00     0.000 C 
ENDROOT
BRANCH   1   2
ATOM      2  C   UNL     1      13.561  33.745  68.102  1.00  0.00     0.006 C 
BRANCH   2   3
ATOM      3  C   UNL     1      14.627  34.367  67.190  1.00  0.00     0.053 C 
BRANCH   3   4
ATOM      4  C   UNL     1      14.725  35.840  67.434  1.00  0.00     0.041 C 
ATOM      5  O   UNL     1      13.685  36.522  67.626  1.00  0.00    -0.550 OA
ATOM      6  O   UNL     1      15.964  36.469  67.400  1.00  0.00    -0.550 OA
ENDBRANCH   3   4
ENDBRANCH   2   3
ENDBRANCH   1   2
BRANCH   1   7
ATOM      7  C   UNL     1      15.275  31.997  68.843  1.00  0.00     0.000 C 
BRANCH   7   8
ATOM      8  C   UNL     1      15.376  30.671  69.613  1.00  0.00    -0.000 C 
BRANCH   8   9
ATOM      9  C   UNL     1      15.982  30.845  71.015  1.00  0.00    -0.000 C 
BRANCH   9  10
ATOM     10  C   UNL     1      17.322  30.111  71.176  1.00  0.00    -0.003 C 
ATOM     11  C   UNL     1      18.493  31.020  70.814  1.00  0.00     0.004 C 
ENDBRANCH   9  10
ENDBRANCH   8   9
ENDBRANCH   7   8
ENDBRANCH   1   7
TORSDOF 7
ENDMDL
MODEL 5
REMARK VINA RESULT:    -3.844     12.107     13.582
REMARK INTER + INTRA:          -5.688
REMARK INTER:                  -5.262
REMARK INTRA:                  -0.426
REMARK UNBOUND:                -0.271
REMARK SMILES CCCCCCCCC(=O)[O-]
REMARK SMILES IDX 6 1 7 2 8 3 9 4 10 5 11 6 5 7 4 8 3 9 2 10 1 11
REMARK H PARENT
REMARK Flexibility Score: inf
ROOT
ATOM      1  C   UNL     1      17.619  43.287  60.514  1.00  0.00     0.000 C 
ENDROOT
BRANCH   1   2
ATOM      2  C   UNL     1      19.109  43.235  60.889  1.00  0.00     0.006 C 
BRANCH   2   3
ATOM      3  C   UNL     1      19.436  42.087  61.852  1.00  0.00     0.053 C 
BRANCH   3   4
ATOM      4  C   UNL     1      20.752  41.469  61.499  1.00  0.00     0.041 C 
ATOM      5  O   UNL     1      20.949  41.013  60.342  1.00  0.00    -0.550 OA
ATOM      6  O   UNL     1      21.747  41.354  62.462  1.00  0.00    -0.550 OA
ENDBRANCH   3   4
ENDBRANCH   2   3
ENDBRANCH   1   2
BRANCH   1   7
ATOM      7  C   UNL     1      16.706  42.790  61.645  1.00  0.00     0.000 C 
BRANCH   7   8
ATOM      8  C   UNL     1      15.248  42.698  61.170  1.00  0.00    -0.000 C 
BRANCH   8   9
ATOM      9  C   UNL     1      14.978  43.547  59.917  1.00  0.00    -0.000 C 
BRANCH   9  10
ATOM     10  C   UNL     1      14.125  44.789  60.216  1.00  0.00    -0.003 C 
ATOM     11  C   UNL     1      14.985  45.930  60.750  1.00  0.00     0.004 C 
ENDBRANCH   9  10
ENDBRANCH   8   9
ENDBRANCH   7   8
ENDBRANCH   1   7
TORSDOF 7
ENDMDL
MODEL 6
REMARK VINA RESULT:    -3.839     11.998     13.007
REMARK INTER + INTRA:          -5.681
REMARK INTER:                  -5.035
REMARK INTRA:                  -0.646
REMARK UNBOUND:                -0.271
REMARK SMILES CCCCCCCCC(=O)[O-]
REMARK SMILES IDX 6 1 7 2 8 3 9 4 10 5 11 6 5 7 4 8 3 9 2 10 1 11
REMARK H PARENT
REMARK Flexibility Score: inf
ROOT
ATOM      1  C   UNL     1      15.929  44.127  60.058  1.00  0.00     0.000 C 
ENDROOT
BRANCH   1   2
ATOM      2  C   UNL     1      17.376  43.639  59.875  1.00  0.00     0.006 C 
BRANCH   2   3
ATOM      3  C   UNL     1      18.232  43.846  61.132  1.00  0.00     0.053 C 
BRANCH   3   4
ATOM      4  C   UNL     1      18.701  42.529  61.665  1.00  0.00     0.041 C 
ATOM      5  O   UNL     1      19.725  41.979  61.184  1.00  0.00    -0.550 OA
ATOM      6  O   UNL     1      17.977  41.886  62.662  1.00  0.00    -0.550 OA
ENDBRANCH   3   4
ENDBRANCH   2   3
ENDBRANCH   1   2
BRANCH   1   7
ATOM      7  C   UNL     1      14.899  43.001  59.884  1.00  0.00     0.000 C 
BRANCH   7   8
ATOM      8  C   UNL     1      13.984  42.903  61.115  1.00  0.00    -0.000 C 
BRANCH   8   9
ATOM      9  C   UNL     1      13.913  44.218  61.907  1.00  0.00    -0.000 C 
BRANCH   9  10
ATOM     10  C   UNL     1      14.157  44.018  63.410  1.00  0.00    -0.003 C 
ATOM     11  C   UNL     1      15.584  44.400  63.791  1.00  0.00     0.004 C 
ENDBRANCH   9  10
ENDBRANCH   8   9
ENDBRANCH   7   8
ENDBRANCH   1   7
TORSDOF 7
ENDMDL
MODEL 7
REMARK VINA RESULT:    -3.786      3.504      6.134
REMARK INTER + INTRA:          -5.606
REMARK INTER:                  -5.323
REMARK INTRA:                  -0.284
REMARK UNBOUND:                -0.271
REMARK SMILES CCCCCCCCC(=O)[O-]
REMARK SMILES IDX 6 1 7 2 8 3 9 4 10 5 11 6 5 7 4 8 3 9 2 10 1 11
REMARK H PARENT
REMARK Flexibility Score: inf
ROOT
ATOM      1  C   UNL     1      15.800  31.677  68.934  1.00  0.00     0.000 C 
ENDROOT
BRANCH   1   2
ATOM      2  C   UNL     1      15.485  30.783  70.145  1.00  0.00     0.006 C 
BRANCH   2   3
ATOM      3  C   UNL     1      16.551  30.882  71.244  1.00  0.00     0.053 C 
BRANCH   3   4
ATOM      4  C   UNL     1      17.873  30.403  70.731  1.00  0.00     0.041 C 
ATOM      5  O   UNL     1      18.873  31.168  70.744  1.00  0.00    -0.550 OA
ATOM      6  O   UNL     1      17.990  29.127  70.195  1.00  0.00    -0.550 OA
ENDBRANCH   3   4
ENDBRANCH   2   3
ENDBRANCH   1   2
BRANCH   1   7
ATOM      7  C   UNL     1      14.538  32.282  68.301  1.00  0.00     0.000 C 
BRANCH   7   8
ATOM      8  C   UNL     1      14.840  33.658  67.687  1.00  0.00    -0.000 C 
BRANCH   8   9
ATOM      9  C   UNL     1      13.689  34.658  67.878  1.00  0.00    -0.000 C 
BRANCH   9  10
ATOM     10  C   UNL     1      14.094  36.100  67.539  1.00  0.00    -0.003 C 
ATOM     11  C   UNL     1      15.608  36.224  67.389  1.00  0.00     0.004 C 
ENDBRANCH   9  10
ENDBRANCH   8   9
ENDBRANCH   7   8
ENDBRANCH   1   7
TORSDOF 7
ENDMDL
MODEL 8
REMARK VINA RESULT:    -3.733     12.200     13.203
REMARK INTER + INTRA:          -5.532
REMARK INTER:                  -4.852
REMARK INTRA:                  -0.680
REMARK UNBOUND:                -0.271
REMARK SMILES CCCCCCCCC(=O)[O-]
REMARK SMILES IDX 6 1 7 2 8 3 9 4 10 5 11 6 5 7 4 8 3 9 2 10 1 11
REMARK H PARENT
REMARK Flexibility Score: inf
ROOT
ATOM      1  C   UNL     1      14.365  42.946  61.295  1.00  0.00     0.000 C 
ENDROOT
BRANCH   1   2
ATOM      2  C   UNL     1      14.263  44.159  62.235  1.00  0.00     0.006 C 
BRANCH   2   3
ATOM      3  C   UNL     1      15.088  43.982  63.517  1.00  0.00     0.053 C 
BRANCH   3   4
ATOM      4  C   UNL     1      14.634  44.949  64.565  1.00  0.00     0.041 C 
ATOM      5  O   UNL     1      13.423  44.995  64.904  1.00  0.00    -0.550 OA
ATOM      6  O   UNL     1      15.542  45.834  65.134  1.00  0.00    -0.550 OA
ENDBRANCH   3   4
ENDBRANCH   2   3
ENDBRANCH   1   2
BRANCH   1   7
ATOM      7  C   UNL     1      14.805  43.334  59.875  1.00  0.00     0.000 C 
BRANCH   7   8
ATOM      8  C   UNL     1      15.981  44.323  59.918  1.00  0.00    -0.000 C 
BRANCH   8   9
ATOM      9  C   UNL     1      17.347  43.620  59.889  1.00  0.00    -0.000 C 
BRANCH   9  10
ATOM     10  C   UNL     1      18.151  43.835  61.180  1.00  0.00    -0.003 C 
ATOM     11  C   UNL     1      17.943  45.243  61.730  1.00  0.00     0.004 C 
ENDBRANCH   9  10
ENDBRANCH   8   9
ENDBRANCH   7   8
ENDBRANCH   1   7
TORSDOF 7
ENDMDL
MODEL 9
REMARK VINA RESULT:    -3.694      3.135      5.134
REMARK INTER + INTRA:          -5.477
REMARK INTER:                  -4.835
REMARK INTRA:                  -0.642
REMARK UNBOUND:                -0.271
REMARK SMILES CCCCCCCCC(=O)[O-]
REMARK SMILES IDX 6 1 7 2 8 3 9 4 10 5 11 6 5 7 4 8 3 9 2 10 1 11
REMARK H PARENT
REMARK Flexibility Score: inf
ROOT
ATOM      1  C   UNL     1      15.197  32.013  68.869  1.00  0.00     0.000 C 
ENDROOT
BRANCH   1   2
ATOM      2  C   UNL     1      13.939  31.130  68.882  1.00  0.00     0.006 C 
BRANCH   2   3
ATOM      3  C   UNL     1      12.645  31.948  68.984  1.00  0.00     0.053 C 
BRANCH   3   4
ATOM      4  C   UNL     1      11.804  31.747  67.762  1.00  0.00     0.041 C 
ATOM      5  O   UNL     1      11.693  30.602  67.250  1.00  0.00    -0.550 OA
ATOM      6  O   UNL     1      11.182  32.834  67.160  1.00  0.00    -0.550 OA
ENDBRANCH   3   4
ENDBRANCH   2   3
ENDBRANCH   1   2
BRANCH   1   7
ATOM      7  C   UNL     1      15.746  32.240  67.452  1.00  0.00     0.000 C 
BRANCH   7   8
ATOM      8  C   UNL     1      15.816  33.741  67.128  1.00  0.00    -0.000 C 
BRANCH   8   9
ATOM      9  C   UNL     1      14.463  34.313  66.675  1.00  0.00    -0.000 C 
BRANCH   9  10
ATOM     10  C   UNL     1      13.845  35.263  67.711  1.00  0.00    -0.003 C 
ATOM     11  C   UNL     1      14.117  36.721  67.350  1.00  0.00     0.004 C 
ENDBRANCH   9  10
ENDBRANCH   8   9
ENDBRANCH   7   8
ENDBRANCH   1   7
TORSDOF 7
ENDMDL
