MODEL 1
REMARK VINA RESULT:    -4.258      0.000      0.000
REMARK INTER + INTRA:          -6.438
REMARK INTER:                  -6.498
REMARK INTRA:                   0.060
REMARK UNBOUND:                 0.060
REMARK SMILES CC1=CCC[C@@H](C)C(=O)C[C@@H](C(C)C)C(=O)C1
REMARK SMILES IDX 8 1 9 2 6 3 7 4 5 5 4 6 3 7 2 8 1 9 10 11 11 12 15 13 16 14
REMARK SMILES IDX 17 15 12 17 13 18 14 19
REMARK H PARENT
REMARK Flexibility Score: 70.00
ROOT
ATOM      1  C   UNL     1      13.061 -19.577  21.077  1.00  0.00     0.136 C 
ATOM      2  O   UNL     1      13.466 -20.644  21.511  1.00  0.00    -0.299 OA
ENDROOT
BRANCH   1   3
ATOM      3  C   UNL     1      13.593 -19.077  19.714  1.00  0.00     0.053 C 
ATOM      4  C   UNL     1      15.122 -19.142  19.652  1.00  0.00     0.016 C 
BRANCH   3   5
ATOM      5  C   UNL     1      13.081 -17.641  19.350  1.00  0.00     0.015 C 
BRANCH   5   6
ATOM      6  C   UNL     1      11.858 -17.838  18.486  1.00  0.00     0.028 C 
BRANCH   6   7
ATOM      7  C   UNL     1      10.492 -17.356  18.774  1.00  0.00    -0.028 C 
ATOM      8  C   UNL     1       9.563 -18.305  19.071  1.00  0.00    -0.070 CG0
ATOM      9  C   UNL     1       8.128 -17.875  19.212  1.00  0.00     0.039 C 
ATOM     10  G   UNL     1       9.959 -19.770  19.395  1.00  0.00     0.000 G0
ENDBRANCH   6   7
ENDBRANCH   5   6
ENDBRANCH   3   5
ENDBRANCH   1   3
BRANCH   1  11
ATOM     11  C   UNL     1      12.088 -18.730  21.922  1.00  0.00     0.087 C 
BRANCH  11  12
ATOM     12  C   UNL     1      10.561 -19.159  22.032  1.00  0.00     0.066 C 
BRANCH  12  13
ATOM     13  C   UNL     1      10.078 -20.127  20.912  1.00  0.00     0.140 C 
ATOM     14  O   UNL     1       9.753 -21.257  21.249  1.00  0.00    -0.299 OA
BRANCH  13  15
ATOM     15  C   UNL     1       9.942 -19.783  19.416  1.00  0.00     0.106 CG0
ATOM     16  G   UNL     1       9.586 -18.308  19.090  1.00  0.00     0.000 G0
ENDBRANCH  13  15
ENDBRANCH  12  13
BRANCH  12  17
ATOM     17  C   UNL     1       9.571 -18.010  22.424  1.00  0.00    -0.006 C 
ATOM     18  C   UNL     1      10.249 -16.625  22.365  1.00  0.00     0.008 C 
ATOM     19  C   UNL     1       9.036 -18.180  23.864  1.00  0.00     0.008 C 
ENDBRANCH  12  17
ENDBRANCH  11  12
ENDBRANCH   1  11
TORSDOF 1
ENDMDL
MODEL 2
REMARK VINA RESULT:    -4.206      1.663      4.340
REMARK INTER + INTRA:          -6.359
REMARK INTER:                  -6.465
REMARK INTRA:                   0.106
REMARK UNBOUND:                 0.060
REMARK SMILES CC1=CCC[C@@H](C)C(=O)C[C@@H](C(C)C)C(=O)C1
REMARK SMILES IDX 8 1 9 2 6 3 7 4 5 5 4 6 3 7 2 8 1 9 10 11 11 12 15 13 16 14
REMARK SMILES IDX 17 15 12 17 13 18 14 19
REMARK H PARENT
REMARK Flexibility Score: 70.00
ROOT
ATOM      1  C   UNL     1       8.806 -19.173  18.845  1.00  0.00     0.136 C 
ATOM      2  O   UNL     1       8.155 -20.196  18.989  1.00  0.00    -0.299 OA
ENDROOT
BRANCH   1   3
ATOM      3  C   UNL     1       8.056 -17.830  18.684  1.00  0.00     0.053 C 
ATOM      4  C   UNL     1       7.443 -17.696  17.287  1.00  0.00     0.016 C 
BRANCH   3   5
ATOM      5  C   UNL     1       8.951 -16.588  19.021  1.00  0.00     0.015 C 
BRANCH   5   6
ATOM      6  C   UNL     1       8.928 -16.450  20.524  1.00  0.00     0.028 C 
BRANCH   6   7
ATOM      7  C   UNL     1      10.102 -16.341  21.415  1.00  0.00    -0.028 C 
ATOM      8  C   UNL     1      10.324 -17.385  22.257  1.00  0.00    -0.070 CG0
ATOM      9  C   UNL     1      11.409 -17.247  23.291  1.00  0.00     0.039 C 
ATOM     10  G   UNL     1       9.592 -18.744  22.094  1.00  0.00     0.000 G0
ENDBRANCH   6   7
ENDBRANCH   5   6
ENDBRANCH   3   5
ENDBRANCH   1   3
BRANCH   1  11
ATOM     11  C   UNL     1      10.343 -19.252  18.765  1.00  0.00     0.087 C 
BRANCH  11  12
ATOM     12  C   UNL     1      11.179 -19.685  20.046  1.00  0.00     0.066 C 
BRANCH  12  13
ATOM     13  C   UNL     1      10.332 -19.866  21.341  1.00  0.00     0.140 C 
ATOM     14  O   UNL     1      10.275 -20.990  21.820  1.00  0.00    -0.299 OA
BRANCH  13  15
ATOM     15  C   UNL     1       9.582 -18.751  22.093  1.00  0.00     0.106 CG0
ATOM     16  G   UNL     1      10.338 -17.403  22.236  1.00  0.00     0.000 G0
ENDBRANCH  13  15
ENDBRANCH  12  13
BRANCH  12  17
ATOM     17  C   UNL     1      12.558 -18.963  20.220  1.00  0.00    -0.006 C 
ATOM     18  C   UNL     1      12.847 -17.992  19.054  1.00  0.00     0.008 C 
ATOM     19  C   UNL     1      13.732 -19.967  20.260  1.00  0.00     0.008 C 
ENDBRANCH  12  17
ENDBRANCH  11  12
ENDBRANCH   1  11
TORSDOF 1
ENDMDL
MODEL 3
REMARK VINA RESULT:    -4.192      9.169     10.954
REMARK INTER + INTRA:          -6.337
REMARK INTER:                  -6.345
REMARK INTRA:                   0.008
REMARK UNBOUND:                 0.060
REMARK SMILES CC1=CCC[C@@H](C)C(=O)C[C@@H](C(C)C)C(=O)C1
REMARK SMILES IDX 8 1 9 2 6 3 7 4 5 5 4 6 3 7 2 8 1 9 10 11 11 12 15 13 16 14
REMARK SMILES IDX 17 15 12 17 13 18 14 19
REMARK H PARENT
REMARK Flexibility Score: 70.00
ROOT
ATOM      1  C   UNL     1       4.443 -25.146  23.658  1.00  0.00     0.136 C 
ATOM      2  O   UNL     1       4.584 -24.741  22.514  1.00  0.00    -0.299 OA
ENDROOT
BRANCH   1   3
ATOM      3  C   UNL     1       5.699 -25.536  24.470  1.00  0.00     0.053 C 
ATOM      4  C   UNL     1       5.368 -26.572  25.549  1.00  0.00     0.016 C 
BRANCH   3   5
ATOM      5  C   UNL     1       6.432 -24.298  25.092  1.00  0.00     0.015 C 
BRANCH   5   6
ATOM      6  C   UNL     1       5.761 -24.036  26.419  1.00  0.00     0.028 C 
BRANCH   6   7
ATOM      7  C   UNL     1       5.336 -22.723  26.945  1.00  0.00    -0.028 C 
ATOM      8  C   UNL     1       4.002 -22.553  27.148  1.00  0.00    -0.070 CG0
ATOM      9  C   UNL     1       3.509 -21.183  27.529  1.00  0.00     0.039 C 
ATOM     10  G   UNL     1       3.009 -23.744  27.129  1.00  0.00     0.000 G0
ENDBRANCH   6   7
ENDBRANCH   5   6
ENDBRANCH   3   5
ENDBRANCH   1   3
BRANCH   1  11
ATOM     11  C   UNL     1       3.024 -25.317  24.236  1.00  0.00     0.087 C 
BRANCH  11  12
ATOM     12  C   UNL     1       2.126 -24.035  24.515  1.00  0.00     0.066 C 
BRANCH  12  13
ATOM     13  C   UNL     1       1.932 -23.696  26.023  1.00  0.00     0.140 C 
ATOM     14  O   UNL     1       0.808 -23.379  26.385  1.00  0.00    -0.299 OA
BRANCH  13  15
ATOM     15  C   UNL     1       3.023 -23.750  27.109  1.00  0.00     0.106 CG0
ATOM     16  G   UNL     1       4.017 -22.558  27.131  1.00  0.00     0.000 G0
ENDBRANCH  13  15
ENDBRANCH  12  13
BRANCH  12  17
ATOM     17  C   UNL     1       0.855 -23.900  23.609  1.00  0.00    -0.006 C 
ATOM     18  C   UNL     1       0.993 -24.713  22.304  1.00  0.00     0.008 C 
ATOM     19  C   UNL     1       0.600 -22.434  23.192  1.00  0.00     0.008 C 
ENDBRANCH  12  17
ENDBRANCH  11  12
ENDBRANCH   1  11
TORSDOF 1
ENDMDL
MODEL 4
REMARK VINA RESULT:    -4.125     10.135     12.077
REMARK INTER + INTRA:          -6.235
REMARK INTER:                  -6.084
REMARK INTRA:                  -0.151
REMARK UNBOUND:                 0.060
REMARK SMILES CC1=CCC[C@@H](C)C(=O)C[C@@H](C(C)C)C(=O)C1
REMARK SMILES IDX 8 1 9 2 6 3 7 4 5 5 4 6 3 7 2 8 1 9 10 11 11 12 15 13 16 14
REMARK SMILES IDX 17 15 12 17 13 18 14 19
REMARK H PARENT
REMARK Flexibility Score: 70.00
ROOT
ATOM      1  C   UNL     1       2.319 -24.427  22.882  1.00  0.00     0.136 C 
ATOM      2  O   UNL     1       1.602 -24.388  21.894  1.00  0.00    -0.299 OA
ENDROOT
BRANCH   1   3
ATOM      3  C   UNL     1       3.473 -25.454  22.926  1.00  0.00     0.053 C 
ATOM      4  C   UNL     1       3.022 -26.777  23.551  1.00  0.00     0.016 C 
BRANCH   3   5
ATOM      5  C   UNL     1       4.752 -24.904  23.647  1.00  0.00     0.015 C 
BRANCH   5   6
ATOM      6  C   UNL     1       4.829 -25.624  24.971  1.00  0.00     0.028 C 
BRANCH   6   7
ATOM      7  C   UNL     1       5.242 -25.043  26.265  1.00  0.00    -0.028 C 
ATOM      8  C   UNL     1       4.245 -24.739  27.139  1.00  0.00    -0.070 CG0
ATOM      9  C   UNL     1       4.606 -24.000  28.400  1.00  0.00     0.039 C 
ATOM     10  G   UNL     1       2.792 -25.245  26.938  1.00  0.00     0.000 G0
ENDBRANCH   6   7
ENDBRANCH   5   6
ENDBRANCH   3   5
ENDBRANCH   1   3
BRANCH   1  11
ATOM     11  C   UNL     1       2.017 -23.503  24.079  1.00  0.00     0.087 C 
BRANCH  11  12
ATOM     12  C   UNL     1       1.036 -23.995  25.229  1.00  0.00     0.066 C 
BRANCH  12  13
ATOM     13  C   UNL     1       1.713 -24.192  26.617  1.00  0.00     0.140 C 
ATOM     14  O   UNL     1       1.355 -23.454  27.524  1.00  0.00    -0.299 OA
BRANCH  13  15
ATOM     15  C   UNL     1       2.774 -25.255  26.964  1.00  0.00     0.106 CG0
ATOM     16  G   UNL     1       4.225 -24.732  27.132  1.00  0.00     0.000 G0
ENDBRANCH  13  15
ENDBRANCH  12  13
BRANCH  12  17
ATOM     17  C   UNL     1       0.006 -25.096  24.802  1.00  0.00    -0.006 C 
ATOM     18  C   UNL     1      -1.151 -24.505  23.968  1.00  0.00     0.008 C 
ATOM     19  C   UNL     1      -0.638 -25.785  26.025  1.00  0.00     0.008 C 
ENDBRANCH  12  17
ENDBRANCH  11  12
ENDBRANCH   1  11
TORSDOF 1
ENDMDL
MODEL 5
REMARK VINA RESULT:    -4.012     10.040     12.430
REMARK INTER + INTRA:          -6.063
REMARK INTER:                  -6.332
REMARK INTRA:                   0.268
REMARK UNBOUND:                 0.060
REMARK SMILES CC1=CCC[C@@H](C)C(=O)C[C@@H](C(C)C)C(=O)C1
REMARK SMILES IDX 8 1 9 2 6 3 7 4 5 5 4 6 3 7 2 8 1 9 10 11 11 12 15 13 16 14
REMARK SMILES IDX 17 15 12 17 13 18 14 19
REMARK H PARENT
REMARK Flexibility Score: 70.00
ROOT
ATOM      1  C   UNL     1       1.391 -24.893  22.607  1.00  0.00     0.136 C 
ATOM      2  O   UNL     1       1.006 -24.511  21.513  1.00  0.00    -0.299 OA
ENDROOT
BRANCH   1   3
ATOM      3  C   UNL     1       0.364 -25.511  23.584  1.00  0.00     0.053 C 
ATOM      4  C   UNL     1      -0.063 -26.912  23.134  1.00  0.00     0.016 C 
BRANCH   3   5
ATOM      5  C   UNL     1      -0.886 -24.595  23.815  1.00  0.00     0.015 C 
BRANCH   5   6
ATOM      6  C   UNL     1      -0.463 -23.555  24.824  1.00  0.00     0.028 C 
BRANCH   6   7
ATOM      7  C   UNL     1      -0.256 -23.767  26.271  1.00  0.00    -0.028 C 
ATOM      8  C   UNL     1       1.027 -23.698  26.717  1.00  0.00    -0.070 CG0
ATOM      9  C   UNL     1       1.303 -24.065  28.150  1.00  0.00     0.039 C 
ATOM     10  G   UNL     1       2.174 -23.130  25.839  1.00  0.00     0.000 G0
ENDBRANCH   6   7
ENDBRANCH   5   6
ENDBRANCH   3   5
ENDBRANCH   1   3
BRANCH   1  11
ATOM     11  C   UNL     1       2.866 -24.692  23.009  1.00  0.00     0.087 C 
BRANCH  11  12
ATOM     12  C   UNL     1       3.368 -25.181  24.435  1.00  0.00     0.066 C 
BRANCH  12  13
ATOM     13  C   UNL     1       3.348 -24.084  25.540  1.00  0.00     0.140 C 
ATOM     14  O   UNL     1       4.357 -23.955  26.219  1.00  0.00    -0.299 OA
BRANCH  13  15
ATOM     15  C   UNL     1       2.181 -23.123  25.839  1.00  0.00     0.106 CG0
ATOM     16  G   UNL     1       1.044 -23.695  26.726  1.00  0.00     0.000 G0
ENDBRANCH  13  15
ENDBRANCH  12  13
BRANCH  12  17
ATOM     17  C   UNL     1       4.625 -26.117  24.416  1.00  0.00    -0.006 C 
ATOM     18  C   UNL     1       5.931 -25.319  24.217  1.00  0.00     0.008 C 
ATOM     19  C   UNL     1       4.556 -27.147  23.266  1.00  0.00     0.008 C 
ENDBRANCH  12  17
ENDBRANCH  11  12
ENDBRANCH   1  11
TORSDOF 1
ENDMDL
MODEL 6
REMARK VINA RESULT:    -3.974     11.129     12.473
REMARK INTER + INTRA:          -6.005
REMARK INTER:                  -5.880
REMARK INTRA:                  -0.125
REMARK UNBOUND:                 0.060
REMARK SMILES CC1=CCC[C@@H](C)C(=O)C[C@@H](C(C)C)C(=O)C1
REMARK SMILES IDX 8 1 9 2 6 3 7 4 5 5 4 6 3 7 2 8 1 9 10 11 11 12 15 13 16 14
REMARK SMILES IDX 17 15 12 17 13 18 14 19
REMARK H PARENT
REMARK Flexibility Score: 70.00
ROOT
ATOM      1  C   UNL     1       0.874 -22.838  25.000  1.00  0.00     0.136 C 
ATOM      2  O   UNL     1       1.589 -21.853  24.898  1.00  0.00    -0.299 OA
ENDROOT
BRANCH   1   3
ATOM      3  C   UNL     1       0.014 -23.263  23.787  1.00  0.00     0.053 C 
ATOM      4  C   UNL     1      -1.000 -24.343  24.171  1.00  0.00     0.016 C 
BRANCH   3   5
ATOM      5  C   UNL     1       0.876 -23.718  22.559  1.00  0.00     0.015 C 
BRANCH   5   6
ATOM      6  C   UNL     1       1.310 -25.134  22.853  1.00  0.00     0.028 C 
BRANCH   6   7
ATOM      7  C   UNL     1       2.699 -25.616  22.996  1.00  0.00    -0.028 C 
ATOM      8  C   UNL     1       3.031 -26.165  24.195  1.00  0.00    -0.070 CG0
ATOM      9  C   UNL     1       4.472 -26.522  24.440  1.00  0.00     0.039 C 
ATOM     10  G   UNL     1       1.958 -26.552  25.248  1.00  0.00     0.000 G0
ENDBRANCH   6   7
ENDBRANCH   5   6
ENDBRANCH   3   5
ENDBRANCH   1   3
BRANCH   1  11
ATOM     11  C   UNL     1       0.798 -23.589  26.344  1.00  0.00     0.087 C 
BRANCH  11  12
ATOM     12  C   UNL     1       2.087 -24.329  26.908  1.00  0.00     0.066 C 
BRANCH  12  13
ATOM     13  C   UNL     1       2.126 -25.861  26.635  1.00  0.00     0.140 C 
ATOM     14  O   UNL     1       2.271 -26.598  27.600  1.00  0.00    -0.299 OA
BRANCH  13  15
ATOM     15  C   UNL     1       1.967 -26.540  25.261  1.00  0.00     0.106 CG0
ATOM     16  G   UNL     1       3.024 -26.157  24.191  1.00  0.00     0.000 G0
ENDBRANCH  13  15
ENDBRANCH  12  13
BRANCH  12  17
ATOM     17  C   UNL     1       2.551 -23.870  28.332  1.00  0.00    -0.006 C 
ATOM     18  C   UNL     1       1.351 -23.553  29.251  1.00  0.00     0.008 C 
ATOM     19  C   UNL     1       3.413 -22.589  28.271  1.00  0.00     0.008 C 
ENDBRANCH  12  17
ENDBRANCH  11  12
ENDBRANCH   1  11
TORSDOF 1
ENDMDL
MODEL 7
REMARK VINA RESULT:    -3.934      2.197      4.296
REMARK INTER + INTRA:          -5.944
REMARK INTER:                  -5.744
REMARK INTRA:                  -0.200
REMARK UNBOUND:                 0.060
REMARK SMILES CC1=CCC[C@@H](C)C(=O)C[C@@H](C(C)C)C(=O)C1
REMARK SMILES IDX 8 1 9 2 6 3 7 4 5 5 4 6 3 7 2 8 1 9 10 11 11 12 15 13 16 14
REMARK SMILES IDX 17 15 12 17 13 18 14 19
REMARK H PARENT
REMARK Flexibility Score: 70.00
ROOT
ATOM      1  C   UNL     1      11.555 -19.269  21.674  1.00  0.00     0.136 C 
ATOM      2  O   UNL     1      12.244 -20.269  21.542  1.00  0.00    -0.299 OA
ENDROOT
BRANCH   1   3
ATOM      3  C   UNL     1      10.016 -19.417  21.658  1.00  0.00     0.053 C 
ATOM      4  C   UNL     1       9.562 -20.627  22.480  1.00  0.00     0.016 C 
BRANCH   3   5
ATOM      5  C   UNL     1       9.425 -19.476  20.207  1.00  0.00     0.015 C 
BRANCH   5   6
ATOM      6  C   UNL     1       8.550 -18.254  20.061  1.00  0.00     0.028 C 
BRANCH   6   7
ATOM      7  C   UNL     1       8.193 -17.295  21.126  1.00  0.00    -0.028 C 
ATOM      8  C   UNL     1       8.957 -16.173  21.214  1.00  0.00    -0.070 CG0
ATOM      9  C   UNL     1       8.733 -15.249  22.380  1.00  0.00     0.039 C 
ATOM     10  G   UNL     1       9.942 -15.760  20.089  1.00  0.00     0.000 G0
ENDBRANCH   6   7
ENDBRANCH   5   6
ENDBRANCH   3   5
ENDBRANCH   1   3
BRANCH   1  11
ATOM     11  C   UNL     1      12.230 -17.887  21.787  1.00  0.00     0.087 C 
BRANCH  11  12
ATOM     12  C   UNL     1      12.386 -16.977  20.494  1.00  0.00     0.066 C 
BRANCH  12  13
ATOM     13  C   UNL     1      11.440 -15.741  20.454  1.00  0.00     0.140 C 
ATOM     14  O   UNL     1      11.931 -14.651  20.713  1.00  0.00    -0.299 OA
BRANCH  13  15
ATOM     15  C   UNL     1       9.943 -15.759  20.088  1.00  0.00     0.106 CG0
ATOM     16  G   UNL     1       8.972 -16.170  21.227  1.00  0.00     0.000 G0
ENDBRANCH  13  15
ENDBRANCH  12  13
BRANCH  12  17
ATOM     17  C   UNL     1      12.559 -17.756  19.145  1.00  0.00    -0.006 C 
ATOM     18  C   UNL     1      13.977 -18.351  19.006  1.00  0.00     0.008 C 
ATOM     19  C   UNL     1      12.343 -16.839  17.921  1.00  0.00     0.008 C 
ENDBRANCH  12  17
ENDBRANCH  11  12
ENDBRANCH   1  11
TORSDOF 1
ENDMDL
MODEL 8
REMARK VINA RESULT:    -3.871      2.262      3.514
REMARK INTER + INTRA:          -5.847
REMARK INTER:                  -5.734
REMARK INTRA:                  -0.114
REMARK UNBOUND:                 0.060
REMARK SMILES CC1=CCC[C@@H](C)C(=O)C[C@@H](C(C)C)C(=O)C1
REMARK SMILES IDX 8 1 9 2 6 3 7 4 5 5 4 6 3 7 2 8 1 9 10 11 11 12 15 13 16 14
REMARK SMILES IDX 17 15 12 17 13 18 14 19
REMARK H PARENT
REMARK Flexibility Score: 70.00
ROOT
ATOM      1  C   UNL     1       9.924 -18.590  22.886  1.00  0.00     0.136 C 
ATOM      2  O   UNL     1       9.264 -18.831  23.886  1.00  0.00    -0.299 OA
ENDROOT
BRANCH   1   3
ATOM      3  C   UNL     1      10.630 -19.758  22.160  1.00  0.00     0.053 C 
ATOM      4  C   UNL     1      11.875 -19.278  21.408  1.00  0.00     0.016 C 
BRANCH   3   5
ATOM      5  C   UNL     1       9.673 -20.549  21.204  1.00  0.00     0.015 C 
BRANCH   5   6
ATOM      6  C   UNL     1       9.762 -19.866  19.861  1.00  0.00     0.028 C 
BRANCH   6   7
ATOM      7  C   UNL     1       8.630 -19.492  18.987  1.00  0.00    -0.028 C 
ATOM      8  C   UNL     1       8.483 -18.167  18.718  1.00  0.00    -0.070 CG0
ATOM      9  C   UNL     1       7.256 -17.725  17.968  1.00  0.00     0.039 C 
ATOM     10  G   UNL     1       9.596 -17.134  19.040  1.00  0.00     0.000 G0
ENDBRANCH   6   7
ENDBRANCH   5   6
ENDBRANCH   3   5
ENDBRANCH   1   3
BRANCH   1  11
ATOM     11  C   UNL     1      10.086 -17.131  22.415  1.00  0.00     0.087 C 
BRANCH  11  12
ATOM     12  C   UNL     1       8.910 -16.425  21.612  1.00  0.00     0.066 C 
BRANCH  12  13
ATOM     13  C   UNL     1       9.244 -16.096  20.128  1.00  0.00     0.140 C 
ATOM     14  O   UNL     1       9.257 -14.917  19.804  1.00  0.00    -0.299 OA
BRANCH  13  15
ATOM     15  C   UNL     1       9.591 -17.121  19.030  1.00  0.00     0.106 CG0
ATOM     16  G   UNL     1       8.491 -18.167  18.709  1.00  0.00     0.000 G0
ENDBRANCH  13  15
ENDBRANCH  12  13
BRANCH  12  17
ATOM     17  C   UNL     1       8.129 -15.321  22.404  1.00  0.00    -0.006 C 
ATOM     18  C   UNL     1       9.009 -14.668  23.492  1.00  0.00     0.008 C 
ATOM     19  C   UNL     1       6.890 -15.897  23.124  1.00  0.00     0.008 C 
ENDBRANCH  12  17
ENDBRANCH  11  12
ENDBRANCH   1  11
TORSDOF 1
ENDMDL
MODEL 9
REMARK VINA RESULT:    -3.799      5.224      7.204
REMARK INTER + INTRA:          -5.737
REMARK INTER:                  -5.915
REMARK INTRA:                   0.178
REMARK UNBOUND:                 0.060
REMARK SMILES CC1=CCC[C@@H](C)C(=O)C[C@@H](C(C)C)C(=O)C1
REMARK SMILES IDX 8 1 9 2 6 3 7 4 5 5 4 6 3 7 2 8 1 9 10 11 11 12 15 13 16 14
REMARK SMILES IDX 17 15 12 17 13 18 14 19
REMARK H PARENT
REMARK Flexibility Score: 70.00
ROOT
ATOM      1  C   UNL     1      10.013 -14.526  23.797  1.00  0.00     0.136 C 
ATOM      2  O   UNL     1      10.797 -14.026  23.005  1.00  0.00    -0.299 OA
ENDROOT
BRANCH   1   3
ATOM      3  C   UNL     1       9.660 -16.024  23.650  1.00  0.00     0.053 C 
ATOM      4  C   UNL     1      10.916 -16.900  23.678  1.00  0.00     0.016 C 
BRANCH   3   5
ATOM      5  C   UNL     1       8.799 -16.325  22.375  1.00  0.00     0.015 C 
BRANCH   5   6
ATOM      6  C   UNL     1       7.379 -16.498  22.859  1.00  0.00     0.028 C 
BRANCH   6   7
ATOM      7  C   UNL     1       6.953 -16.830  24.234  1.00  0.00    -0.028 C 
ATOM      8  C   UNL     1       6.440 -15.810  24.974  1.00  0.00    -0.070 CG0
ATOM      9  C   UNL     1       6.143 -16.063  26.427  1.00  0.00     0.039 C 
ATOM     10  G   UNL     1       6.033 -14.455  24.335  1.00  0.00     0.000 G0
ENDBRANCH   6   7
ENDBRANCH   5   6
ENDBRANCH   3   5
ENDBRANCH   1   3
BRANCH   1  11
ATOM     11  C   UNL     1       9.351 -13.645  24.875  1.00  0.00     0.087 C 
BRANCH  11  12
ATOM     12  C   UNL     1       8.148 -12.684  24.480  1.00  0.00     0.066 C 
BRANCH  12  13
ATOM     13  C   UNL     1       6.741 -13.201  24.902  1.00  0.00     0.140 C 
ATOM     14  O   UNL     1       6.134 -12.550  25.741  1.00  0.00    -0.299 OA
BRANCH  13  15
ATOM     15  C   UNL     1       6.028 -14.445  24.338  1.00  0.00     0.106 CG0
ATOM     16  G   UNL     1       6.437 -15.804  24.967  1.00  0.00     0.000 G0
ENDBRANCH  13  15
ENDBRANCH  12  13
BRANCH  12  17
ATOM     17  C   UNL     1       8.247 -12.042  23.054  1.00  0.00    -0.006 C 
ATOM     18  C   UNL     1       8.669 -10.559  23.123  1.00  0.00     0.008 C 
ATOM     19  C   UNL     1       6.893 -12.082  22.311  1.00  0.00     0.008 C 
ENDBRANCH  12  17
ENDBRANCH  11  12
ENDBRANCH   1  11
TORSDOF 1
ENDMDL
