MODEL 1
REMARK VINA RESULT:    -5.932      0.000      0.000
REMARK INTER + INTRA:          -6.851
REMARK INTER:                  -6.799
REMARK INTRA:                  -0.052
REMARK UNBOUND:                -0.052
REMARK SMILES O=C([O-])c1cc(O)c(O)c(O)c1
REMARK SMILES IDX 4 1 5 2 12 3 6 4 10 5 8 6 2 7 1 8 3 9 7 10 11 12 9 14
REMARK H PARENT 7 11 11 13 9 15
REMARK Flexibility Score: inf
ROOT
ATOM      1  C   UNL     1      27.790  24.042  48.447  1.00  0.00     0.005 A 
ATOM      2  C   UNL     1      29.038  24.599  48.123  1.00  0.00     0.060 A 
ATOM      3  C   UNL     1      26.838  23.871  47.433  1.00  0.00     0.060 A 
ATOM      4  C   UNL     1      29.339  24.980  46.811  1.00  0.00     0.162 A 
ATOM      5  C   UNL     1      27.121  24.247  46.117  1.00  0.00     0.162 A 
ATOM      6  C   UNL     1      28.372  24.804  45.792  1.00  0.00     0.200 A 
ENDROOT
BRANCH   1   7
ATOM      7  C   UNL     1      27.480  23.640  49.839  1.00  0.00     0.072 C 
ATOM      8  O   UNL     1      28.155  24.093  50.801  1.00  0.00    -0.545 OA
ATOM      9  O   UNL     1      26.440  22.757  50.102  1.00  0.00    -0.545 OA
ENDBRANCH   1   7
BRANCH   4  10
ATOM     10  O   UNL     1      30.601  25.527  46.568  1.00  0.00    -0.504 OA
ATOM     11  H   UNL     1      31.073  25.490  45.676  1.00  0.00     0.293 HD
ENDBRANCH   4  10
BRANCH   5  12
ATOM     12  O   UNL     1      26.142  24.057  45.140  1.00  0.00    -0.504 OA
ATOM     13  H   UNL     1      25.614  23.197  45.063  1.00  0.00     0.293 HD
ENDBRANCH   5  12
BRANCH   6  14
ATOM     14  O   UNL     1      28.614  25.167  44.464  1.00  0.00    -0.502 OA
ATOM     15  H   UNL     1      28.980  26.063  44.178  1.00  0.00     0.293 HD
ENDBRANCH   6  14
TORSDOF 4
ENDMDL
MODEL 2
REMARK VINA RESULT:    -5.900      0.162      2.620
REMARK INTER + INTRA:          -6.815
REMARK INTER:                  -6.763
REMARK INTRA:                  -0.052
REMARK UNBOUND:                -0.052
REMARK SMILES O=C([O-])c1cc(O)c(O)c(O)c1
REMARK SMILES IDX 4 1 5 2 12 3 6 4 10 5 8 6 2 7 1 8 3 9 7 10 11 12 9 14
REMARK H PARENT 7 11 11 13 9 15
REMARK Flexibility Score: inf
ROOT
ATOM      1  C   UNL     1      27.822  24.105  48.542  1.00  0.00     0.005 A 
ATOM      2  C   UNL     1      26.844  23.903  47.555  1.00  0.00     0.060 A 
ATOM      3  C   UNL     1      29.056  24.658  48.173  1.00  0.00     0.060 A 
ATOM      4  C   UNL     1      27.085  24.245  46.220  1.00  0.00     0.162 A 
ATOM      5  C   UNL     1      29.315  25.004  46.844  1.00  0.00     0.162 A 
ATOM      6  C   UNL     1      28.334  24.802  45.855  1.00  0.00     0.200 A 
ENDROOT
BRANCH   1   7
ATOM      7  C   UNL     1      27.557  23.742  49.953  1.00  0.00     0.072 C 
ATOM      8  O   UNL     1      26.632  22.938  50.245  1.00  0.00    -0.545 OA
ATOM      9  O   UNL     1      28.328  24.282  50.976  1.00  0.00    -0.545 OA
ENDBRANCH   1   7
BRANCH   4  10
ATOM     10  O   UNL     1      26.063  24.013  45.297  1.00  0.00    -0.504 OA
ATOM     11  H   UNL     1      25.203  24.541  45.257  1.00  0.00     0.293 HD
ENDBRANCH   4  10
BRANCH   5  12
ATOM     12  O   UNL     1      30.558  25.551  46.524  1.00  0.00    -0.504 OA
ATOM     13  H   UNL     1      30.711  26.087  45.678  1.00  0.00     0.293 HD
ENDBRANCH   5  12
BRANCH   6  14
ATOM     14  O   UNL     1      28.633  25.161  44.538  1.00  0.00    -0.502 OA
ATOM     15  H   UNL     1      28.678  26.113  44.205  1.00  0.00     0.293 HD
ENDBRANCH   6  14
TORSDOF 4
ENDMDL
MODEL 3
REMARK VINA RESULT:    -5.739      1.190      5.047
REMARK INTER + INTRA:          -6.630
REMARK INTER:                  -6.578
REMARK INTRA:                  -0.052
REMARK UNBOUND:                -0.052
REMARK SMILES O=C([O-])c1cc(O)c(O)c(O)c1
REMARK SMILES IDX 4 1 5 2 12 3 6 4 10 5 8 6 2 7 1 8 3 9 7 10 11 12 9 14
REMARK H PARENT 7 11 11 13 9 15
REMARK Flexibility Score: inf
ROOT
ATOM      1  C   UNL     1      28.157  24.331  48.011  1.00  0.00     0.005 A 
ATOM      2  C   UNL     1      26.967  23.595  48.132  1.00  0.00     0.060 A 
ATOM      3  C   UNL     1      28.891  24.631  49.166  1.00  0.00     0.060 A 
ATOM      4  C   UNL     1      26.512  23.160  49.382  1.00  0.00     0.162 A 
ATOM      5  C   UNL     1      28.452  24.206  50.423  1.00  0.00     0.162 A 
ATOM      6  C   UNL     1      27.260  23.467  50.545  1.00  0.00     0.200 A 
ENDROOT
BRANCH   1   7
ATOM      7  C   UNL     1      28.631  24.786  46.684  1.00  0.00     0.072 C 
ATOM      8  O   UNL     1      27.846  24.818  45.699  1.00  0.00    -0.545 OA
ATOM      9  O   UNL     1      29.951  25.184  46.506  1.00  0.00    -0.545 OA
ENDBRANCH   1   7
BRANCH   4  10
ATOM     10  O   UNL     1      25.321  22.433  49.421  1.00  0.00    -0.504 OA
ATOM     11  H   UNL     1      25.044  21.758  48.723  1.00  0.00     0.293 HD
ENDBRANCH   4  10
BRANCH   5  12
ATOM     12  O   UNL     1      29.216  24.528  51.545  1.00  0.00    -0.504 OA
ATOM     13  H   UNL     1      29.656  25.433  51.658  1.00  0.00     0.293 HD
ENDBRANCH   5  12
BRANCH   6  14
ATOM     14  O   UNL     1      26.856  23.062  51.819  1.00  0.00    -0.502 OA
ATOM     15  H   UNL     1      26.991  22.133  52.190  1.00  0.00     0.293 HD
ENDBRANCH   6  14
TORSDOF 4
ENDMDL
MODEL 4
REMARK VINA RESULT:    -5.736      1.482      4.301
REMARK INTER + INTRA:          -6.626
REMARK INTER:                  -6.577
REMARK INTRA:                  -0.050
REMARK UNBOUND:                -0.052
REMARK SMILES O=C([O-])c1cc(O)c(O)c(O)c1
REMARK SMILES IDX 4 1 5 2 12 3 6 4 10 5 8 6 2 7 1 8 3 9 7 10 11 12 9 14
REMARK H PARENT 7 11 11 13 9 15
REMARK Flexibility Score: inf
ROOT
ATOM      1  C   UNL     1      28.777  24.039  47.650  1.00  0.00     0.005 A 
ATOM      2  C   UNL     1      29.715  23.297  48.387  1.00  0.00     0.060 A 
ATOM      3  C   UNL     1      27.423  23.968  48.006  1.00  0.00     0.060 A 
ATOM      4  C   UNL     1      29.316  22.497  49.464  1.00  0.00     0.162 A 
ATOM      5  C   UNL     1      27.007  23.173  49.077  1.00  0.00     0.162 A 
ATOM      6  C   UNL     1      27.946  22.431  49.817  1.00  0.00     0.200 A 
ENDROOT
BRANCH   1   7
ATOM      7  C   UNL     1      29.208  24.884  46.513  1.00  0.00     0.072 C 
ATOM      8  O   UNL     1      30.299  25.512  46.559  1.00  0.00    -0.545 OA
ATOM      9  O   UNL     1      28.414  24.996  45.378  1.00  0.00    -0.545 OA
ENDBRANCH   1   7
BRANCH   4  10
ATOM     10  O   UNL     1      30.306  21.789  50.148  1.00  0.00    -0.504 OA
ATOM     11  H   UNL     1      30.397  21.768  51.153  1.00  0.00     0.293 HD
ENDBRANCH   4  10
BRANCH   5  12
ATOM     12  O   UNL     1      25.649  23.135  49.395  1.00  0.00    -0.504 OA
ATOM     13  H   UNL     1      25.277  23.560  50.235  1.00  0.00     0.293 HD
ENDBRANCH   5  12
BRANCH   6  14
ATOM     14  O   UNL     1      27.488  21.649  50.880  1.00  0.00    -0.502 OA
ATOM     15  H   UNL     1      27.960  21.564  51.768  1.00  0.00     0.293 HD
ENDBRANCH   6  14
TORSDOF 4
ENDMDL
MODEL 5
REMARK VINA RESULT:    -5.568      1.880      4.780
REMARK INTER + INTRA:          -6.434
REMARK INTER:                  -6.386
REMARK INTRA:                  -0.047
REMARK UNBOUND:                -0.052
REMARK SMILES O=C([O-])c1cc(O)c(O)c(O)c1
REMARK SMILES IDX 4 1 5 2 12 3 6 4 10 5 8 6 2 7 1 8 3 9 7 10 11 12 9 14
REMARK H PARENT 7 11 11 13 9 15
REMARK Flexibility Score: inf
ROOT
ATOM      1  C   UNL     1      29.155  24.144  48.164  1.00  0.00     0.005 A 
ATOM      2  C   UNL     1      30.116  23.172  48.488  1.00  0.00     0.060 A 
ATOM      3  C   UNL     1      28.156  24.449  49.098  1.00  0.00     0.060 A 
ATOM      4  C   UNL     1      30.087  22.512  49.722  1.00  0.00     0.162 A 
ATOM      5  C   UNL     1      28.111  23.800  50.334  1.00  0.00     0.162 A 
ATOM      6  C   UNL     1      29.074  22.826  50.659  1.00  0.00     0.200 A 
ENDROOT
BRANCH   1   7
ATOM      7  C   UNL     1      29.194  24.838  46.856  1.00  0.00     0.072 C 
ATOM      8  O   UNL     1      28.174  24.873  46.119  1.00  0.00    -0.545 OA
ATOM      9  O   UNL     1      30.359  25.461  46.424  1.00  0.00    -0.545 OA
ENDBRANCH   1   7
BRANCH   4  10
ATOM     10  O   UNL     1      31.076  21.558  49.970  1.00  0.00    -0.504 OA
ATOM     11  H   UNL     1      31.507  21.409  50.870  1.00  0.00     0.293 HD
ENDBRANCH   4  10
BRANCH   5  12
ATOM     12  O   UNL     1      27.097  24.137  51.232  1.00  0.00    -0.504 OA
ATOM     13  H   UNL     1      27.126  24.983  51.787  1.00  0.00     0.293 HD
ENDBRANCH   5  12
BRANCH   6  14
ATOM     14  O   UNL     1      28.993  22.200  51.906  1.00  0.00    -0.502 OA
ATOM     15  H   UNL     1      28.199  22.270  52.526  1.00  0.00     0.293 HD
ENDBRANCH   6  14
TORSDOF 4
ENDMDL
MODEL 6
REMARK VINA RESULT:    -5.554      1.916      4.926
REMARK INTER + INTRA:          -6.417
REMARK INTER:                  -6.366
REMARK INTRA:                  -0.051
REMARK UNBOUND:                -0.052
REMARK SMILES O=C([O-])c1cc(O)c(O)c(O)c1
REMARK SMILES IDX 4 1 5 2 12 3 6 4 10 5 8 6 2 7 1 8 3 9 7 10 11 12 9 14
REMARK H PARENT 7 11 11 13 9 15
REMARK Flexibility Score: inf
ROOT
ATOM      1  C   UNL     1      28.428  23.997  48.247  1.00  0.00     0.005 A 
ATOM      2  C   UNL     1      27.541  24.198  49.316  1.00  0.00     0.060 A 
ATOM      3  C   UNL     1      29.535  23.156  48.430  1.00  0.00     0.060 A 
ATOM      4  C   UNL     1      27.747  23.574  50.552  1.00  0.00     0.162 A 
ATOM      5  C   UNL     1      29.757  22.525  49.658  1.00  0.00     0.162 A 
ATOM      6  C   UNL     1      28.867  22.726  50.730  1.00  0.00     0.200 A 
ENDROOT
BRANCH   1   7
ATOM      7  C   UNL     1      28.202  24.661  46.942  1.00  0.00     0.072 C 
ATOM      8  O   UNL     1      29.174  24.969  46.203  1.00  0.00    -0.545 OA
ATOM      9  O   UNL     1      26.912  24.953  46.515  1.00  0.00    -0.545 OA
ENDBRANCH   1   7
BRANCH   4  10
ATOM     10  O   UNL     1      26.821  23.824  51.567  1.00  0.00    -0.504 OA
ATOM     11  H   UNL     1      26.820  24.655  52.141  1.00  0.00     0.293 HD
ENDBRANCH   4  10
BRANCH   5  12
ATOM     12  O   UNL     1      30.872  21.698  49.793  1.00  0.00    -0.504 OA
ATOM     13  H   UNL     1      30.817  20.782  50.221  1.00  0.00     0.293 HD
ENDBRANCH   5  12
BRANCH   6  14
ATOM     14  O   UNL     1      29.126  22.078  51.939  1.00  0.00    -0.502 OA
ATOM     15  H   UNL     1      28.688  21.215  52.227  1.00  0.00     0.293 HD
ENDBRANCH   6  14
TORSDOF 4
ENDMDL
MODEL 7
REMARK VINA RESULT:    -5.301      2.582      4.262
REMARK INTER + INTRA:          -6.128
REMARK INTER:                  -6.081
REMARK INTRA:                  -0.046
REMARK UNBOUND:                -0.052
REMARK SMILES O=C([O-])c1cc(O)c(O)c(O)c1
REMARK SMILES IDX 4 1 5 2 12 3 6 4 10 5 8 6 2 7 1 8 3 9 7 10 11 12 9 14
REMARK H PARENT 7 11 11 13 9 15
REMARK Flexibility Score: inf
ROOT
ATOM      1  C   UNL     1      28.377  22.678  51.190  1.00  0.00     0.005 A 
ATOM      2  C   UNL     1      27.167  22.200  50.662  1.00  0.00     0.060 A 
ATOM      3  C   UNL     1      28.954  23.828  50.634  1.00  0.00     0.060 A 
ATOM      4  C   UNL     1      26.536  22.854  49.598  1.00  0.00     0.162 A 
ATOM      5  C   UNL     1      28.339  24.493  49.570  1.00  0.00     0.162 A 
ATOM      6  C   UNL     1      27.125  24.015  49.042  1.00  0.00     0.200 A 
ENDROOT
BRANCH   1   7
ATOM      7  C   UNL     1      29.037  21.980  52.317  1.00  0.00     0.072 C 
ATOM      8  O   UNL     1      28.445  21.841  53.420  1.00  0.00    -0.545 OA
ATOM      9  O   UNL     1      30.322  21.469  52.174  1.00  0.00    -0.545 OA
ENDBRANCH   1   7
BRANCH   4  10
ATOM     10  O   UNL     1      25.336  22.317  49.128  1.00  0.00    -0.504 OA
ATOM     11  H   UNL     1      25.274  21.589  48.431  1.00  0.00     0.293 HD
ENDBRANCH   4  10
BRANCH   5  12
ATOM     12  O   UNL     1      28.950  25.634  49.050  1.00  0.00    -0.504 OA
ATOM     13  H   UNL     1      29.852  25.960  49.373  1.00  0.00     0.293 HD
ENDBRANCH   5  12
BRANCH   6  14
ATOM     14  O   UNL     1      26.543  24.709  47.978  1.00  0.00    -0.502 OA
ATOM     15  H   UNL     1      26.005  25.557  48.079  1.00  0.00     0.293 HD
ENDBRANCH   6  14
TORSDOF 4
ENDMDL
MODEL 8
REMARK VINA RESULT:    -5.299      2.655      3.653
REMARK INTER + INTRA:          -6.125
REMARK INTER:                  -6.079
REMARK INTRA:                  -0.046
REMARK UNBOUND:                -0.052
REMARK SMILES O=C([O-])c1cc(O)c(O)c(O)c1
REMARK SMILES IDX 4 1 5 2 12 3 6 4 10 5 8 6 2 7 1 8 3 9 7 10 11 12 9 14
REMARK H PARENT 7 11 11 13 9 15
REMARK Flexibility Score: inf
ROOT
ATOM      1  C   UNL     1      28.470  22.720  51.251  1.00  0.00     0.005 A 
ATOM      2  C   UNL     1      29.060  23.841  50.645  1.00  0.00     0.060 A 
ATOM      3  C   UNL     1      27.207  22.297  50.814  1.00  0.00     0.060 A 
ATOM      4  C   UNL     1      28.407  24.533  49.619  1.00  0.00     0.162 A 
ATOM      5  C   UNL     1      26.540  22.977  49.791  1.00  0.00     0.162 A 
ATOM      6  C   UNL     1      27.132  24.100  49.183  1.00  0.00     0.200 A 
ENDROOT
BRANCH   1   7
ATOM      7  C   UNL     1      29.168  21.992  52.336  1.00  0.00     0.072 C 
ATOM      8  O   UNL     1      30.286  21.451  52.128  1.00  0.00    -0.545 OA
ATOM      9  O   UNL     1      28.598  21.897  53.600  1.00  0.00    -0.545 OA
ENDBRANCH   1   7
BRANCH   4  10
ATOM     10  O   UNL     1      29.059  25.638  49.067  1.00  0.00    -0.504 OA
ATOM     11  H   UNL     1      28.856  26.019  48.154  1.00  0.00     0.293 HD
ENDBRANCH   4  10
BRANCH   5  12
ATOM     12  O   UNL     1      25.285  22.520  49.389  1.00  0.00    -0.504 OA
ATOM     13  H   UNL     1      24.859  21.691  49.785  1.00  0.00     0.293 HD
ENDBRANCH   5  12
BRANCH   6  14
ATOM     14  O   UNL     1      26.432  24.752  48.165  1.00  0.00    -0.502 OA
ATOM     15  H   UNL     1      26.090  25.700  48.227  1.00  0.00     0.293 HD
ENDBRANCH   6  14
TORSDOF 4
ENDMDL
MODEL 9
REMARK VINA RESULT:    -5.193      2.489      5.127
REMARK INTER + INTRA:          -6.004
REMARK INTER:                  -5.956
REMARK INTRA:                  -0.048
REMARK UNBOUND:                -0.052
REMARK SMILES O=C([O-])c1cc(O)c(O)c(O)c1
REMARK SMILES IDX 4 1 5 2 12 3 6 4 10 5 8 6 2 7 1 8 3 9 7 10 11 12 9 14
REMARK H PARENT 7 11 11 13 9 15
REMARK Flexibility Score: inf
ROOT
ATOM      1  C   UNL     1      29.962  23.079  48.997  1.00  0.00     0.005 A 
ATOM      2  C   UNL     1      28.782  23.687  48.538  1.00  0.00     0.060 A 
ATOM      3  C   UNL     1      30.071  22.745  50.354  1.00  0.00     0.060 A 
ATOM      4  C   UNL     1      27.724  23.960  49.413  1.00  0.00     0.162 A 
ATOM      5  C   UNL     1      29.025  23.011  51.242  1.00  0.00     0.162 A 
ATOM      6  C   UNL     1      27.842  23.619  50.782  1.00  0.00     0.200 A 
ENDROOT
BRANCH   1   7
ATOM      7  C   UNL     1      31.076  22.793  48.064  1.00  0.00     0.072 C 
ATOM      8  O   UNL     1      31.518  23.692  47.299  1.00  0.00    -0.545 OA
ATOM      9  O   UNL     1      31.650  21.528  48.019  1.00  0.00    -0.545 OA
ENDBRANCH   1   7
BRANCH   4  10
ATOM     10  O   UNL     1      26.584  24.567  48.882  1.00  0.00    -0.504 OA
ATOM     11  H   UNL     1      26.176  25.419  49.238  1.00  0.00     0.293 HD
ENDBRANCH   4  10
BRANCH   5  12
ATOM     12  O   UNL     1      29.179  22.660  52.583  1.00  0.00    -0.504 OA
ATOM     13  H   UNL     1      28.394  22.589  53.218  1.00  0.00     0.293 HD
ENDBRANCH   5  12
BRANCH   6  14
ATOM     14  O   UNL     1      26.821  23.868  51.703  1.00  0.00    -0.502 OA
ATOM     15  H   UNL     1      26.470  24.788  51.927  1.00  0.00     0.293 HD
ENDBRANCH   6  14
TORSDOF 4
ENDMDL
