MODEL 1
REMARK VINA RESULT:    -4.505      0.000      0.000
REMARK INTER + INTRA:          -6.676
REMARK INTER:                  -6.349
REMARK INTRA:                  -0.327
REMARK UNBOUND:                -0.327
REMARK SMILES CCCCCCCCC(=O)[O-]
REMARK SMILES IDX 6 1 7 2 8 3 9 4 10 5 11 6 5 7 4 8 3 9 2 10 1 11
REMARK H PARENT
REMARK Flexibility Score: inf
ROOT
ATOM      1  C   UNL     1     115.577 166.324 121.744  1.00  0.00     0.000 C 
ENDROOT
BRANCH   1   2
ATOM      2  C   UNL     1     115.145 167.292 122.861  1.00  0.00     0.006 C 
BRANCH   2   3
ATOM      3  C   UNL     1     116.258 167.639 123.864  1.00  0.00     0.053 C 
BRANCH   3   4
ATOM      4  C   UNL     1     115.876 167.290 125.270  1.00  0.00     0.041 C 
ATOM      5  O   UNL     1     114.689 166.972 125.544  1.00  0.00    -0.550 OA
ATOM      6  O   UNL     1     116.824 167.348 126.283  1.00  0.00    -0.550 OA
ENDBRANCH   3   4
ENDBRANCH   2   3
ENDBRANCH   1   2
BRANCH   1   7
ATOM      7  C   UNL     1     116.796 165.475 122.129  1.00  0.00     0.000 C 
BRANCH   7   8
ATOM      8  C   UNL     1     117.399 164.786 120.895  1.00  0.00    -0.000 C 
BRANCH   8   9
ATOM      9  C   UNL     1     116.692 165.203 119.590  1.00  0.00    -0.000 C 
BRANCH   9  10
ATOM     10  C   UNL     1     117.482 164.844 118.320  1.00  0.00    -0.003 C 
ATOM     11  C   UNL     1     117.490 165.963 117.282  1.00  0.00     0.004 C 
ENDBRANCH   9  10
ENDBRANCH   8   9
ENDBRANCH   7   8
ENDBRANCH   1   7
TORSDOF 7
ENDMDL
MODEL 2
REMARK VINA RESULT:    -4.442      3.292      5.901
REMARK INTER + INTRA:          -6.587
REMARK INTER:                  -6.170
REMARK INTRA:                  -0.417
REMARK UNBOUND:                -0.327
REMARK SMILES CCCCCCCCC(=O)[O-]
REMARK SMILES IDX 6 1 7 2 8 3 9 4 10 5 11 6 5 7 4 8 3 9 2 10 1 11
REMARK H PARENT
REMARK Flexibility Score: inf
ROOT
ATOM      1  C   UNL     1     118.466 165.059 121.797  1.00  0.00     0.000 C 
ENDROOT
BRANCH   1   2
ATOM      2  C   UNL     1     117.449 164.128 121.113  1.00  0.00     0.006 C 
BRANCH   2   3
ATOM      3  C   UNL     1     117.595 164.043 119.585  1.00  0.00     0.053 C 
BRANCH   3   4
ATOM      4  C   UNL     1     117.003 165.235 118.896  1.00  0.00     0.041 C 
ATOM      5  O   UNL     1     117.488 165.645 117.809  1.00  0.00    -0.550 OA
ATOM      6  O   UNL     1     115.937 165.912 119.474  1.00  0.00    -0.550 OA
ENDBRANCH   3   4
ENDBRANCH   2   3
ENDBRANCH   1   2
BRANCH   1   7
ATOM      7  C   UNL     1     117.849 165.883 122.935  1.00  0.00     0.000 C 
BRANCH   7   8
ATOM      8  C   UNL     1     116.316 165.909 122.829  1.00  0.00    -0.000 C 
BRANCH   8   9
ATOM      9  C   UNL     1     115.699 167.105 123.583  1.00  0.00    -0.000 C 
BRANCH   9  10
ATOM     10  C   UNL     1     116.666 167.770 124.577  1.00  0.00    -0.003 C 
ATOM     11  C   UNL     1     116.366 167.419 126.032  1.00  0.00     0.004 C 
ENDBRANCH   9  10
ENDBRANCH   8   9
ENDBRANCH   7   8
ENDBRANCH   1   7
TORSDOF 7
ENDMDL
MODEL 3
REMARK VINA RESULT:    -4.402     12.747     14.407
REMARK INTER + INTRA:          -6.530
REMARK INTER:                  -6.169
REMARK INTRA:                  -0.361
REMARK UNBOUND:                -0.327
REMARK SMILES CCCCCCCCC(=O)[O-]
REMARK SMILES IDX 6 1 7 2 8 3 9 4 10 5 11 6 5 7 4 8 3 9 2 10 1 11
REMARK H PARENT
REMARK Flexibility Score: inf
ROOT
ATOM      1  C   UNL     1     119.832 179.608 126.849  1.00  0.00     0.000 C 
ENDROOT
BRANCH   1   2
ATOM      2  C   UNL     1     120.226 180.125 125.454  1.00  0.00     0.006 C 
BRANCH   2   3
ATOM      3  C   UNL     1     120.705 179.031 124.485  1.00  0.00     0.053 C 
BRANCH   3   4
ATOM      4  C   UNL     1     120.181 179.241 123.097  1.00  0.00     0.041 C 
ATOM      5  O   UNL     1     118.982 178.970 122.825  1.00  0.00    -0.550 OA
ATOM      6  O   UNL     1     121.026 179.704 122.097  1.00  0.00    -0.550 OA
ENDBRANCH   3   4
ENDBRANCH   2   3
ENDBRANCH   1   2
BRANCH   1   7
ATOM      7  C   UNL     1     121.006 178.967 127.602  1.00  0.00     0.000 C 
BRANCH   7   8
ATOM      8  C   UNL     1     120.530 177.785 128.461  1.00  0.00    -0.000 C 
BRANCH   8   9
ATOM      9  C   UNL     1     119.198 177.195 127.956  1.00  0.00    -0.000 C 
BRANCH   9  10
ATOM     10  C   UNL     1     118.746 175.944 128.729  1.00  0.00    -0.003 C 
ATOM     11  C   UNL     1     118.337 176.246 130.169  1.00  0.00     0.004 C 
ENDBRANCH   9  10
ENDBRANCH   8   9
ENDBRANCH   7   8
ENDBRANCH   1   7
TORSDOF 7
ENDMDL
MODEL 4
REMARK VINA RESULT:    -4.336      2.034      3.002
REMARK INTER + INTRA:          -6.438
REMARK INTER:                  -6.183
REMARK INTRA:                  -0.255
REMARK UNBOUND:                -0.327
REMARK SMILES CCCCCCCCC(=O)[O-]
REMARK SMILES IDX 6 1 7 2 8 3 9 4 10 5 11 6 5 7 4 8 3 9 2 10 1 11
REMARK H PARENT
REMARK Flexibility Score: inf
ROOT
ATOM      1  C   UNL     1     119.173 166.231 123.168  1.00  0.00     0.000 C 
ENDROOT
BRANCH   1   2
ATOM      2  C   UNL     1     117.956 166.302 124.108  1.00  0.00     0.006 C 
BRANCH   2   3
ATOM      3  C   UNL     1     117.109 167.576 123.952  1.00  0.00     0.053 C 
BRANCH   3   4
ATOM      4  C   UNL     1     115.640 167.279 123.977  1.00  0.00     0.041 C 
ATOM      5  O   UNL     1     114.971 167.295 122.911  1.00  0.00    -0.550 OA
ATOM      6  O   UNL     1     115.004 167.019 125.185  1.00  0.00    -0.550 OA
ENDBRANCH   3   4
ENDBRANCH   2   3
ENDBRANCH   1   2
BRANCH   1   7
ATOM      7  C   UNL     1     119.141 165.006 122.244  1.00  0.00     0.000 C 
BRANCH   7   8
ATOM      8  C   UNL     1     117.838 164.963 121.430  1.00  0.00    -0.000 C 
BRANCH   8   9
ATOM      9  C   UNL     1     117.824 163.804 120.413  1.00  0.00    -0.000 C 
BRANCH   9  10
ATOM     10  C   UNL     1     117.705 162.415 121.064  1.00  0.00    -0.003 C 
ATOM     11  C   UNL     1     119.046 161.696 121.188  1.00  0.00     0.004 C 
ENDBRANCH   9  10
ENDBRANCH   8   9
ENDBRANCH   7   8
ENDBRANCH   1   7
TORSDOF 7
ENDMDL
MODEL 5
REMARK VINA RESULT:    -4.264     13.348     14.774
REMARK INTER + INTRA:          -6.337
REMARK INTER:                  -5.929
REMARK INTRA:                  -0.407
REMARK UNBOUND:                -0.327
REMARK SMILES CCCCCCCCC(=O)[O-]
REMARK SMILES IDX 6 1 7 2 8 3 9 4 10 5 11 6 5 7 4 8 3 9 2 10 1 11
REMARK H PARENT
REMARK Flexibility Score: inf
ROOT
ATOM      1  C   UNL     1     121.142 178.130 128.228  1.00  0.00     0.000 C 
ENDROOT
BRANCH   1   2
ATOM      2  C   UNL     1     120.716 179.326 127.356  1.00  0.00     0.006 C 
BRANCH   2   3
ATOM      3  C   UNL     1     121.376 179.363 125.967  1.00  0.00     0.053 C 
BRANCH   3   4
ATOM      4  C   UNL     1     120.385 179.124 124.868  1.00  0.00     0.041 C 
ATOM      5  O   UNL     1     119.265 178.609 125.125  1.00  0.00    -0.550 OA
ATOM      6  O   UNL     1     120.714 179.437 123.555  1.00  0.00    -0.550 OA
ENDBRANCH   3   4
ENDBRANCH   2   3
ENDBRANCH   1   2
BRANCH   1   7
ATOM      7  C   UNL     1     121.937 178.552 129.470  1.00  0.00     0.000 C 
BRANCH   7   8
ATOM      8  C   UNL     1     121.782 177.521 130.599  1.00  0.00    -0.000 C 
BRANCH   8   9
ATOM      9  C   UNL     1     121.007 176.268 130.143  1.00  0.00    -0.000 C 
BRANCH   9  10
ATOM     10  C   UNL     1     119.723 176.011 130.951  1.00  0.00    -0.003 C 
ATOM     11  C   UNL     1     118.451 176.170 130.122  1.00  0.00     0.004 C 
ENDBRANCH   9  10
ENDBRANCH   8   9
ENDBRANCH   7   8
ENDBRANCH   1   7
TORSDOF 7
ENDMDL
MODEL 6
REMARK VINA RESULT:    -4.249     13.582     14.684
REMARK INTER + INTRA:          -6.315
REMARK INTER:                  -5.999
REMARK INTRA:                  -0.317
REMARK UNBOUND:                -0.327
REMARK SMILES CCCCCCCCC(=O)[O-]
REMARK SMILES IDX 6 1 7 2 8 3 9 4 10 5 11 6 5 7 4 8 3 9 2 10 1 11
REMARK H PARENT
REMARK Flexibility Score: inf
ROOT
ATOM      1  C   UNL     1     123.004 179.156 127.077  1.00  0.00     0.000 C 
ENDROOT
BRANCH   1   2
ATOM      2  C   UNL     1     123.716 179.045 128.437  1.00  0.00     0.006 C 
BRANCH   2   3
ATOM      3  C   UNL     1     122.768 178.882 129.638  1.00  0.00     0.053 C 
BRANCH   3   4
ATOM      4  C   UNL     1     122.993 177.587 130.358  1.00  0.00     0.041 C 
ATOM      5  O   UNL     1     124.151 177.099 130.440  1.00  0.00    -0.550 OA
ATOM      6  O   UNL     1     121.917 176.902 130.908  1.00  0.00    -0.550 OA
ENDBRANCH   3   4
ENDBRANCH   2   3
ENDBRANCH   1   2
BRANCH   1   7
ATOM      7  C   UNL     1     121.483 178.983 127.185  1.00  0.00     0.000 C 
BRANCH   7   8
ATOM      8  C   UNL     1     120.951 178.079 126.062  1.00  0.00    -0.000 C 
BRANCH   8   9
ATOM      9  C   UNL     1     121.498 178.483 124.678  1.00  0.00    -0.000 C 
BRANCH   9  10
ATOM     10  C   UNL     1     120.577 179.445 123.909  1.00  0.00    -0.003 C 
ATOM     11  C   UNL     1     120.750 179.358 122.394  1.00  0.00     0.004 C 
ENDBRANCH   9  10
ENDBRANCH   8   9
ENDBRANCH   7   8
ENDBRANCH   1   7
TORSDOF 7
ENDMDL
MODEL 7
REMARK VINA RESULT:    -4.242     13.138     14.776
REMARK INTER + INTRA:          -6.305
REMARK INTER:                  -5.949
REMARK INTRA:                  -0.356
REMARK UNBOUND:                -0.327
REMARK SMILES CCCCCCCCC(=O)[O-]
REMARK SMILES IDX 6 1 7 2 8 3 9 4 10 5 11 6 5 7 4 8 3 9 2 10 1 11
REMARK H PARENT
REMARK Flexibility Score: inf
ROOT
ATOM      1  C   UNL     1     119.293 179.498 126.544  1.00  0.00     0.000 C 
ENDROOT
BRANCH   1   2
ATOM      2  C   UNL     1     118.064 179.824 125.676  1.00  0.00     0.006 C 
BRANCH   2   3
ATOM      3  C   UNL     1     117.568 178.651 124.814  1.00  0.00     0.053 C 
BRANCH   3   4
ATOM      4  C   UNL     1     117.597 178.977 123.351  1.00  0.00     0.041 C 
ATOM      5  O   UNL     1     116.526 179.224 122.736  1.00  0.00    -0.550 OA
ATOM      6  O   UNL     1     118.803 178.975 122.662  1.00  0.00    -0.550 OA
ENDBRANCH   3   4
ENDBRANCH   2   3
ENDBRANCH   1   2
BRANCH   1   7
ATOM      7  C   UNL     1     120.620 179.717 125.805  1.00  0.00     0.000 C 
BRANCH   7   8
ATOM      8  C   UNL     1     121.714 178.784 126.349  1.00  0.00    -0.000 C 
BRANCH   8   9
ATOM      9  C   UNL     1     123.021 179.540 126.664  1.00  0.00    -0.000 C 
BRANCH   9  10
ATOM     10  C   UNL     1     123.671 179.117 127.992  1.00  0.00    -0.003 C 
ATOM     11  C   UNL     1     122.652 178.799 129.084  1.00  0.00     0.004 C 
ENDBRANCH   9  10
ENDBRANCH   8   9
ENDBRANCH   7   8
ENDBRANCH   1   7
TORSDOF 7
ENDMDL
MODEL 8
REMARK VINA RESULT:    -4.209     13.308     15.032
REMARK INTER + INTRA:          -6.260
REMARK INTER:                  -5.811
REMARK INTRA:                  -0.449
REMARK UNBOUND:                -0.327
REMARK SMILES CCCCCCCCC(=O)[O-]
REMARK SMILES IDX 6 1 7 2 8 3 9 4 10 5 11 6 5 7 4 8 3 9 2 10 1 11
REMARK H PARENT
REMARK Flexibility Score: inf
ROOT
ATOM      1  C   UNL     1     121.002 179.656 125.952  1.00  0.00     0.000 C 
ENDROOT
BRANCH   1   2
ATOM      2  C   UNL     1     119.675 179.679 126.732  1.00  0.00     0.006 C 
BRANCH   2   3
ATOM      3  C   UNL     1     118.456 180.106 125.898  1.00  0.00     0.053 C 
BRANCH   3   4
ATOM      4  C   UNL     1     117.942 178.988 125.042  1.00  0.00     0.041 C 
ATOM      5  O   UNL     1     117.863 177.820 125.506  1.00  0.00    -0.550 OA
ATOM      6  O   UNL     1     117.581 179.232 123.723  1.00  0.00    -0.550 OA
ENDBRANCH   3   4
ENDBRANCH   2   3
ENDBRANCH   1   2
BRANCH   1   7
ATOM      7  C   UNL     1     122.014 178.656 126.526  1.00  0.00     0.000 C 
BRANCH   7   8
ATOM      8  C   UNL     1     123.236 179.383 127.109  1.00  0.00    -0.000 C 
BRANCH   8   9
ATOM      9  C   UNL     1     123.481 179.020 128.588  1.00  0.00    -0.000 C 
BRANCH   9  10
ATOM     10  C   UNL     1     122.190 178.910 129.416  1.00  0.00    -0.003 C 
ATOM     11  C   UNL     1     122.081 177.595 130.184  1.00  0.00     0.004 C 
ENDBRANCH   9  10
ENDBRANCH   8   9
ENDBRANCH   7   8
ENDBRANCH   1   7
TORSDOF 7
ENDMDL
MODEL 9
REMARK VINA RESULT:    -4.200     12.823     14.661
REMARK INTER + INTRA:          -6.247
REMARK INTER:                  -5.473
REMARK INTRA:                  -0.773
REMARK UNBOUND:                -0.327
REMARK SMILES CCCCCCCCC(=O)[O-]
REMARK SMILES IDX 6 1 7 2 8 3 9 4 10 5 11 6 5 7 4 8 3 9 2 10 1 11
REMARK H PARENT
REMARK Flexibility Score: inf
ROOT
ATOM      1  C   UNL     1     122.031 177.858 130.647  1.00  0.00     0.000 C 
ENDROOT
BRANCH   1   2
ATOM      2  C   UNL     1     122.365 178.939 129.604  1.00  0.00     0.006 C 
BRANCH   2   3
ATOM      3  C   UNL     1     121.451 178.931 128.368  1.00  0.00     0.053 C 
BRANCH   3   4
ATOM      4  C   UNL     1     122.175 178.476 127.137  1.00  0.00     0.041 C 
ATOM      5  O   UNL     1     121.953 177.333 126.658  1.00  0.00    -0.550 OA
ATOM      6  O   UNL     1     123.119 179.302 126.540  1.00  0.00    -0.550 OA
ENDBRANCH   3   4
ENDBRANCH   2   3
ENDBRANCH   1   2
BRANCH   1   7
ATOM      7  C   UNL     1     122.419 176.446 130.188  1.00  0.00     0.000 C 
BRANCH   7   8
ATOM      8  C   UNL     1     121.171 175.587 129.931  1.00  0.00    -0.000 C 
BRANCH   8   9
ATOM      9  C   UNL     1     120.003 175.961 130.866  1.00  0.00    -0.000 C 
BRANCH   9  10
ATOM     10  C   UNL     1     118.692 176.266 130.122  1.00  0.00    -0.003 C 
ATOM     11  C   UNL     1     118.845 176.238 128.603  1.00  0.00     0.004 C 
ENDBRANCH   9  10
ENDBRANCH   8   9
ENDBRANCH   7   8
ENDBRANCH   1   7
TORSDOF 7
ENDMDL
