MODEL 1
REMARK VINA RESULT:    -7.000      0.000      0.000
REMARK INTER + INTRA:          -7.943
REMARK INTER:                  -7.614
REMARK INTRA:                  -0.329
REMARK UNBOUND:                -0.329
REMARK SMILES C[C@@H]1[C@H](C)CC[C@]2(C(=O)[O-])CC[C@]3(C)C(=CC[C@H]4[C@@]5(C)CC[C@@H](O)C(C)(C)[C@H]5CC[C@]43C)[C@H]12
REMARK SMILES IDX 7 1 6 2 11 3 33 4 5 5 12 6 15 7 2 8 3 9 13 10 16 11 1 12
REMARK SMILES IDX 4 13 14 14 31 15 17 16 18 17 30 18 32 19 19 20 29 21 28 22
REMARK SMILES IDX 21 23 20 24 25 25 22 26 23 27 26 28 27 29 8 30 9 31 10 32
REMARK SMILES IDX 24 33
REMARK H PARENT 24 34
REMARK Flexibility Score: inf
ROOT
ATOM      1  C   UNL     1     106.006 121.617 120.231  1.00  0.00     0.017 C 
ATOM      2  C   UNL     1     107.169 122.260 119.424  1.00  0.00     0.014 C 
ATOM      3  C   UNL     1     105.449 120.364 119.467  1.00  0.00     0.014 C 
ATOM      4  C   UNL     1     104.863 122.678 120.581  1.00  0.00     0.030 C 
ATOM      5  C   UNL     1     106.691 123.210 118.334  1.00  0.00     0.004 C 
ATOM      6  C   UNL     1     104.003 120.496 119.002  1.00  0.00     0.013 C 
ATOM      7  C   UNL     1     103.566 121.937 121.004  1.00  0.00    -0.063 C 
ATOM      8  C   UNL     1     104.681 123.975 119.682  1.00  0.00    -0.003 C 
ATOM      9  C   UNL     1     106.003 124.406 118.989  1.00  0.00    -0.011 C 
ATOM     10  C   UNL     1     102.964 120.770 120.155  1.00  0.00    -0.006 C 
ATOM     11  C   UNL     1     103.259 122.044 122.307  1.00  0.00    -0.027 C 
ATOM     12  C   UNL     1     103.461 124.018 118.752  1.00  0.00     0.008 C 
ATOM     13  C   UNL     1     105.847 125.560 117.988  1.00  0.00     0.008 C 
ATOM     14  C   UNL     1     101.685 121.281 119.419  1.00  0.00     0.017 C 
ATOM     15  C   UNL     1     102.565 119.452 121.065  1.00  0.00    -0.020 C 
ATOM     16  C   UNL     1     102.963 120.841 123.141  1.00  0.00     0.032 C 
ATOM     17  C   UNL     1     103.350 119.495 122.431  1.00  0.00     0.006 C 
ATOM     18  C   UNL     1     101.037 119.382 121.460  1.00  0.00     0.008 C 
ATOM     19  C   UNL     1     102.819 118.169 120.217  1.00  0.00     0.012 C 
ATOM     20  C   UNL     1     103.190 118.189 123.363  1.00  0.00    -0.025 C 
ATOM     21  C   UNL     1     100.674 118.580 122.744  1.00  0.00     0.005 C 
ATOM     22  C   UNL     1     101.726 117.563 123.281  1.00  0.00     0.003 C 
ATOM     23  C   UNL     1     103.591 118.495 124.855  1.00  0.00     0.010 C 
ATOM     24  C   UNL     1     104.239 117.132 122.879  1.00  0.00     0.012 C 
ATOM     25  C   UNL     1     101.235 116.839 124.614  1.00  0.00    -0.006 C 
ATOM     26  C   UNL     1     102.408 118.889 125.744  1.00  0.00     0.033 C 
ATOM     27  C   UNL     1     101.352 117.776 125.878  1.00  0.00     0.120 C 
ATOM     28  C   UNL     1      99.771 116.325 124.454  1.00  0.00     0.014 C 
ATOM     29  C   UNL     1     102.068 115.544 124.858  1.00  0.00     0.014 C 
ENDROOT
BRANCH   1  30
ATOM     30  C   UNL     1     106.669 121.078 121.512  1.00  0.00     0.048 C 
ATOM     31  O   UNL     1     107.062 119.881 121.610  1.00  0.00    -0.550 OA
ATOM     32  O   UNL     1     106.768 121.900 122.634  1.00  0.00    -0.550 OA
ENDBRANCH   1  30
BRANCH  27  33
ATOM     33  O   UNL     1     100.121 118.395 126.172  1.00  0.00    -0.393 OA
ATOM     34  H   UNL     1     100.277 119.375 126.212  1.00  0.00     0.210 HD
ENDBRANCH  27  33
TORSDOF 2
ENDMDL
MODEL 2
REMARK VINA RESULT:    -6.783      2.032      7.496
REMARK INTER + INTRA:          -7.707
REMARK INTER:                  -7.623
REMARK INTRA:                  -0.084
REMARK UNBOUND:                -0.329
REMARK SMILES C[C@@H]1[C@H](C)CC[C@]2(C(=O)[O-])CC[C@]3(C)C(=CC[C@H]4[C@@]5(C)CC[C@@H](O)C(C)(C)[C@H]5CC[C@]43C)[C@H]12
REMARK SMILES IDX 7 1 6 2 11 3 33 4 5 5 12 6 15 7 2 8 3 9 13 10 16 11 1 12
REMARK SMILES IDX 4 13 14 14 31 15 17 16 18 17 30 18 32 19 19 20 29 21 28 22
REMARK SMILES IDX 21 23 20 24 25 25 22 26 23 27 26 28 27 29 8 30 9 31 10 32
REMARK SMILES IDX 24 33
REMARK H PARENT 24 34
REMARK Flexibility Score: inf
ROOT
ATOM      1  C   UNL     1     103.045 118.058 123.242  1.00  0.00     0.017 C 
ATOM      2  C   UNL     1     102.867 116.774 124.100  1.00  0.00     0.014 C 
ATOM      3  C   UNL     1     104.153 118.976 123.873  1.00  0.00     0.014 C 
ATOM      4  C   UNL     1     101.663 118.830 123.025  1.00  0.00     0.030 C 
ATOM      5  C   UNL     1     101.942 116.971 125.292  1.00  0.00     0.004 C 
ATOM      6  C   UNL     1     103.651 120.327 124.367  1.00  0.00     0.013 C 
ATOM      7  C   UNL     1     101.937 120.280 122.541  1.00  0.00    -0.063 C 
ATOM      8  C   UNL     1     100.475 118.639 124.062  1.00  0.00    -0.003 C 
ATOM      9  C   UNL     1     100.531 117.263 124.781  1.00  0.00    -0.011 C 
ATOM     10  C   UNL     1     102.958 121.216 123.265  1.00  0.00    -0.006 C 
ATOM     11  C   UNL     1     101.604 120.516 121.261  1.00  0.00    -0.027 C 
ATOM     12  C   UNL     1     100.174 119.810 125.007  1.00  0.00     0.008 C 
ATOM     13  C   UNL     1      99.498 117.091 125.904  1.00  0.00     0.008 C 
ATOM     14  C   UNL     1     102.175 122.301 124.069  1.00  0.00     0.017 C 
ATOM     15  C   UNL     1     103.994 121.968 122.222  1.00  0.00    -0.020 C 
ATOM     16  C   UNL     1     102.568 121.137 120.305  1.00  0.00     0.032 C 
ATOM     17  C   UNL     1     104.037 121.179 120.858  1.00  0.00     0.006 C 
ATOM     18  C   UNL     1     103.566 123.441 121.841  1.00  0.00     0.008 C 
ATOM     19  C   UNL     1     105.378 122.121 122.922  1.00  0.00     0.012 C 
ATOM     20  C   UNL     1     105.128 121.698 119.792  1.00  0.00    -0.025 C 
ATOM     21  C   UNL     1     104.081 123.999 120.483  1.00  0.00     0.005 C 
ATOM     22  C   UNL     1     105.299 123.283 119.824  1.00  0.00     0.003 C 
ATOM     23  C   UNL     1     104.795 121.196 118.337  1.00  0.00     0.010 C 
ATOM     24  C   UNL     1     106.495 121.018 120.144  1.00  0.00     0.012 C 
ATOM     25  C   UNL     1     105.697 123.940 118.426  1.00  0.00    -0.006 C 
ATOM     26  C   UNL     1     103.976 122.192 117.512  1.00  0.00     0.033 C 
ATOM     27  C   UNL     1     104.706 123.526 117.271  1.00  0.00     0.120 C 
ATOM     28  C   UNL     1     105.770 125.493 118.549  1.00  0.00     0.014 C 
ATOM     29  C   UNL     1     107.146 123.521 118.032  1.00  0.00     0.014 C 
ENDROOT
BRANCH   1  30
ATOM     30  C   UNL     1     103.615 117.559 121.902  1.00  0.00     0.048 C 
ATOM     31  O   UNL     1     104.808 117.160 121.788  1.00  0.00    -0.550 OA
ATOM     32  O   UNL     1     102.827 117.625 120.752  1.00  0.00    -0.550 OA
ENDBRANCH   1  30
BRANCH  27  33
ATOM     33  O   UNL     1     103.722 124.513 117.062  1.00  0.00    -0.393 OA
ATOM     34  H   UNL     1     103.337 124.748 117.947  1.00  0.00     0.210 HD
ENDBRANCH  27  33
TORSDOF 2
ENDMDL
MODEL 3
REMARK VINA RESULT:    -6.381      1.186      1.496
REMARK INTER + INTRA:          -7.270
REMARK INTER:                  -6.930
REMARK INTRA:                  -0.339
REMARK UNBOUND:                -0.329
REMARK SMILES C[C@@H]1[C@H](C)CC[C@]2(C(=O)[O-])CC[C@]3(C)C(=CC[C@H]4[C@@]5(C)CC[C@@H](O)C(C)(C)[C@H]5CC[C@]43C)[C@H]12
REMARK SMILES IDX 7 1 6 2 11 3 33 4 5 5 12 6 15 7 2 8 3 9 13 10 16 11 1 12
REMARK SMILES IDX 4 13 14 14 31 15 17 16 18 17 30 18 32 19 19 20 29 21 28 22
REMARK SMILES IDX 21 23 20 24 25 25 22 26 23 27 26 28 27 29 8 30 9 31 10 32
REMARK SMILES IDX 24 33
REMARK H PARENT 24 34
REMARK Flexibility Score: inf
ROOT
ATOM      1  C   UNL     1     104.367 122.054 119.777  1.00  0.00     0.017 C 
ATOM      2  C   UNL     1     105.266 122.934 118.863  1.00  0.00     0.014 C 
ATOM      3  C   UNL     1     104.182 120.631 119.138  1.00  0.00     0.014 C 
ATOM      4  C   UNL     1     102.972 122.763 120.105  1.00  0.00     0.030 C 
ATOM      5  C   UNL     1     104.499 123.605 117.732  1.00  0.00     0.004 C 
ATOM      6  C   UNL     1     102.749 120.296 118.742  1.00  0.00     0.013 C 
ATOM      7  C   UNL     1     101.963 121.717 120.650  1.00  0.00    -0.063 C 
ATOM      8  C   UNL     1     102.392 123.868 119.122  1.00  0.00    -0.003 C 
ATOM      9  C   UNL     1     103.508 124.603 118.330  1.00  0.00    -0.011 C 
ATOM     10  C   UNL     1     101.707 120.355 119.923  1.00  0.00    -0.006 C 
ATOM     11  C   UNL     1     101.674 121.843 121.956  1.00  0.00    -0.027 C 
ATOM     12  C   UNL     1     101.187 123.472 118.256  1.00  0.00     0.008 C 
ATOM     13  C   UNL     1     102.991 125.569 117.254  1.00  0.00     0.008 C 
ATOM     14  C   UNL     1     100.315 120.406 119.219  1.00  0.00     0.017 C 
ATOM     15  C   UNL     1     101.740 119.062 120.950  1.00  0.00    -0.020 C 
ATOM     16  C   UNL     1     101.770 120.683 122.892  1.00  0.00     0.032 C 
ATOM     17  C   UNL     1     102.515 119.451 122.266  1.00  0.00     0.006 C 
ATOM     18  C   UNL     1     100.312 118.585 121.428  1.00  0.00     0.008 C 
ATOM     19  C   UNL     1     102.337 117.840 120.188  1.00  0.00     0.012 C 
ATOM     20  C   UNL     1     102.773 118.242 123.299  1.00  0.00    -0.025 C 
ATOM     21  C   UNL     1     100.237 117.828 122.786  1.00  0.00     0.005 C 
ATOM     22  C   UNL     1     101.557 117.212 123.342  1.00  0.00     0.003 C 
ATOM     23  C   UNL     1     103.108 118.780 124.741  1.00  0.00     0.010 C 
ATOM     24  C   UNL     1     104.073 117.497 122.842  1.00  0.00     0.012 C 
ATOM     25  C   UNL     1     101.338 116.495 124.750  1.00  0.00    -0.006 C 
ATOM     26  C   UNL     1     101.887 118.888 125.659  1.00  0.00     0.033 C 
ATOM     27  C   UNL     1     101.209 117.532 125.932  1.00  0.00     0.120 C 
ATOM     28  C   UNL     1     100.087 115.565 124.705  1.00  0.00     0.014 C 
ATOM     29  C   UNL     1     102.521 115.525 125.046  1.00  0.00     0.014 C 
ENDROOT
BRANCH   1  30
ATOM     30  C   UNL     1     105.194 121.844 121.057  1.00  0.00     0.048 C 
ATOM     31  O   UNL     1     105.878 120.800 121.250  1.00  0.00    -0.550 OA
ATOM     32  O   UNL     1     105.129 122.789 122.081  1.00  0.00    -0.550 OA
ENDBRANCH   1  30
BRANCH  27  33
ATOM     33  O   UNL     1      99.859 117.789 126.242  1.00  0.00    -0.393 OA
ATOM     34  H   UNL     1      99.777 118.755 126.457  1.00  0.00     0.210 HD
ENDBRANCH  27  33
TORSDOF 2
ENDMDL
MODEL 4
REMARK VINA RESULT:    -6.375      2.028      7.518
REMARK INTER + INTRA:          -7.263
REMARK INTER:                  -6.908
REMARK INTRA:                  -0.355
REMARK UNBOUND:                -0.329
REMARK SMILES C[C@@H]1[C@H](C)CC[C@]2(C(=O)[O-])CC[C@]3(C)C(=CC[C@H]4[C@@]5(C)CC[C@@H](O)C(C)(C)[C@H]5CC[C@]43C)[C@H]12
REMARK SMILES IDX 7 1 6 2 11 3 33 4 5 5 12 6 15 7 2 8 3 9 13 10 16 11 1 12
REMARK SMILES IDX 4 13 14 14 31 15 17 16 18 17 30 18 32 19 19 20 29 21 28 22
REMARK SMILES IDX 21 23 20 24 25 25 22 26 23 27 26 28 27 29 8 30 9 31 10 32
REMARK SMILES IDX 24 33
REMARK H PARENT 24 34
REMARK Flexibility Score: inf
ROOT
ATOM      1  C   UNL     1     102.473 118.494 123.989  1.00  0.00     0.017 C 
ATOM      2  C   UNL     1     102.510 117.554 125.227  1.00  0.00     0.014 C 
ATOM      3  C   UNL     1     102.238 119.978 124.448  1.00  0.00     0.014 C 
ATOM      4  C   UNL     1     101.403 118.013 122.905  1.00  0.00     0.030 C 
ATOM      5  C   UNL     1     101.128 117.127 125.700  1.00  0.00     0.004 C 
ATOM      6  C   UNL     1     100.928 120.590 123.966  1.00  0.00     0.013 C 
ATOM      7  C   UNL     1     101.101 119.167 121.911  1.00  0.00    -0.063 C 
ATOM      8  C   UNL     1     100.170 117.115 123.349  1.00  0.00    -0.003 C 
ATOM      9  C   UNL     1     100.478 116.269 124.615  1.00  0.00    -0.011 C 
ATOM     10  C   UNL     1     100.747 120.610 122.400  1.00  0.00    -0.006 C 
ATOM     11  C   UNL     1     101.583 118.980 120.671  1.00  0.00    -0.027 C 
ATOM     12  C   UNL     1      98.790 117.787 123.384  1.00  0.00     0.008 C 
ATOM     13  C   UNL     1      99.270 115.504 125.176  1.00  0.00     0.008 C 
ATOM     14  C   UNL     1      99.223 120.863 122.182  1.00  0.00     0.017 C 
ATOM     15  C   UNL     1     101.602 121.783 121.613  1.00  0.00    -0.020 C 
ATOM     16  C   UNL     1     102.410 120.020 119.990  1.00  0.00     0.032 C 
ATOM     17  C   UNL     1     102.892 121.153 120.964  1.00  0.00     0.006 C 
ATOM     18  C   UNL     1     100.817 122.457 120.419  1.00  0.00     0.008 C 
ATOM     19  C   UNL     1     101.885 122.945 122.613  1.00  0.00     0.012 C 
ATOM     20  C   UNL     1     103.914 122.205 120.296  1.00  0.00    -0.025 C 
ATOM     21  C   UNL     1     101.668 123.096 119.283  1.00  0.00     0.005 C 
ATOM     22  C   UNL     1     103.160 123.423 119.596  1.00  0.00     0.003 C 
ATOM     23  C   UNL     1     104.894 121.494 119.288  1.00  0.00     0.010 C 
ATOM     24  C   UNL     1     104.843 122.749 121.434  1.00  0.00     0.012 C 
ATOM     25  C   UNL     1     103.916 124.041 118.336  1.00  0.00    -0.006 C 
ATOM     26  C   UNL     1     104.411 121.520 117.835  1.00  0.00     0.033 C 
ATOM     27  C   UNL     1     104.282 122.944 117.263  1.00  0.00     0.120 C 
ATOM     28  C   UNL     1     103.065 125.174 117.685  1.00  0.00     0.014 C 
ATOM     29  C   UNL     1     105.220 124.761 118.795  1.00  0.00     0.014 C 
ENDROOT
BRANCH   1  30
ATOM     30  C   UNL     1     103.901 118.445 123.416  1.00  0.00     0.048 C 
ATOM     31  O   UNL     1     104.672 119.445 123.451  1.00  0.00    -0.550 OA
ATOM     32  O   UNL     1     104.339 117.295 122.759  1.00  0.00    -0.550 OA
ENDBRANCH   1  30
BRANCH  27  33
ATOM     33  O   UNL     1     103.324 122.899 116.231  1.00  0.00    -0.393 OA
ATOM     34  H   UNL     1     103.294 123.796 115.806  1.00  0.00     0.210 HD
ENDBRANCH  27  33
TORSDOF 2
ENDMDL
MODEL 5
REMARK VINA RESULT:    -6.089      2.759      5.200
REMARK INTER + INTRA:          -6.952
REMARK INTER:                  -6.675
REMARK INTRA:                  -0.277
REMARK UNBOUND:                -0.329
REMARK SMILES C[C@@H]1[C@H](C)CC[C@]2(C(=O)[O-])CC[C@]3(C)C(=CC[C@H]4[C@@]5(C)CC[C@@H](O)C(C)(C)[C@H]5CC[C@]43C)[C@H]12
REMARK SMILES IDX 7 1 6 2 11 3 33 4 5 5 12 6 15 7 2 8 3 9 13 10 16 11 1 12
REMARK SMILES IDX 4 13 14 14 31 15 17 16 18 17 30 18 32 19 19 20 29 21 28 22
REMARK SMILES IDX 21 23 20 24 25 25 22 26 23 27 26 28 27 29 8 30 9 31 10 32
REMARK SMILES IDX 24 33
REMARK H PARENT 24 34
REMARK Flexibility Score: inf
ROOT
ATOM      1  C   UNL     1     106.084 119.924 122.601  1.00  0.00     0.017 C 
ATOM      2  C   UNL     1     107.245 119.242 123.379  1.00  0.00     0.014 C 
ATOM      3  C   UNL     1     105.523 118.946 121.508  1.00  0.00     0.014 C 
ATOM      4  C   UNL     1     106.519 121.336 121.993  1.00  0.00     0.030 C 
ATOM      5  C   UNL     1     108.589 119.354 122.673  1.00  0.00     0.004 C 
ATOM      6  C   UNL     1     105.712 119.424 120.073  1.00  0.00     0.013 C 
ATOM      7  C   UNL     1     105.505 121.778 120.904  1.00  0.00    -0.063 C 
ATOM      8  C   UNL     1     108.052 121.638 121.703  1.00  0.00    -0.003 C 
ATOM      9  C   UNL     1     109.001 120.825 122.625  1.00  0.00    -0.011 C 
ATOM     10  C   UNL     1     105.056 120.821 119.752  1.00  0.00    -0.006 C 
ATOM     11  C   UNL     1     104.728 122.818 121.250  1.00  0.00    -0.027 C 
ATOM     12  C   UNL     1     108.496 121.657 120.233  1.00  0.00     0.008 C 
ATOM     13  C   UNL     1     110.492 120.962 122.280  1.00  0.00     0.008 C 
ATOM     14  C   UNL     1     105.730 121.275 118.419  1.00  0.00     0.017 C 
ATOM     15  C   UNL     1     103.419 120.792 119.540  1.00  0.00    -0.020 C 
ATOM     16  C   UNL     1     103.242 122.761 121.117  1.00  0.00     0.032 C 
ATOM     17  C   UNL     1     102.707 121.310 120.847  1.00  0.00     0.006 C 
ATOM     18  C   UNL     1     102.904 121.733 118.380  1.00  0.00     0.008 C 
ATOM     19  C   UNL     1     103.001 119.354 119.106  1.00  0.00     0.012 C 
ATOM     20  C   UNL     1     101.100 121.188 120.855  1.00  0.00    -0.025 C 
ATOM     21  C   UNL     1     101.435 122.237 118.477  1.00  0.00     0.005 C 
ATOM     22  C   UNL     1     100.465 121.458 119.418  1.00  0.00     0.003 C 
ATOM     23  C   UNL     1     100.457 122.129 121.942  1.00  0.00     0.010 C 
ATOM     24  C   UNL     1     100.738 119.737 121.322  1.00  0.00     0.012 C 
ATOM     25  C   UNL     1      99.007 122.103 119.442  1.00  0.00    -0.006 C 
ATOM     26  C   UNL     1     100.037 123.499 121.402  1.00  0.00     0.033 C 
ATOM     27  C   UNL     1      98.951 123.417 120.314  1.00  0.00     0.120 C 
ATOM     28  C   UNL     1      98.508 122.391 117.993  1.00  0.00     0.014 C 
ATOM     29  C   UNL     1      97.977 121.075 120.001  1.00  0.00     0.014 C 
ENDROOT
BRANCH   1  30
ATOM     30  C   UNL     1     104.962 120.093 123.641  1.00  0.00     0.048 C 
ATOM     31  O   UNL     1     104.807 121.164 124.292  1.00  0.00    -0.550 OA
ATOM     32  O   UNL     1     104.136 119.010 123.945  1.00  0.00    -0.550 OA
ENDBRANCH   1  30
BRANCH  27  33
ATOM     33  O   UNL     1      99.071 124.568 119.510  1.00  0.00    -0.393 OA
ATOM     34  H   UNL     1      99.693 125.193 119.967  1.00  0.00     0.210 HD
ENDBRANCH  27  33
TORSDOF 2
ENDMDL
MODEL 6
REMARK VINA RESULT:    -6.063      2.796      7.948
REMARK INTER + INTRA:          -6.924
REMARK INTER:                  -6.616
REMARK INTRA:                  -0.309
REMARK UNBOUND:                -0.329
REMARK SMILES C[C@@H]1[C@H](C)CC[C@]2(C(=O)[O-])CC[C@]3(C)C(=CC[C@H]4[C@@]5(C)CC[C@@H](O)C(C)(C)[C@H]5CC[C@]43C)[C@H]12
REMARK SMILES IDX 7 1 6 2 11 3 33 4 5 5 12 6 15 7 2 8 3 9 13 10 16 11 1 12
REMARK SMILES IDX 4 13 14 14 31 15 17 16 18 17 30 18 32 19 19 20 29 21 28 22
REMARK SMILES IDX 21 23 20 24 25 25 22 26 23 27 26 28 27 29 8 30 9 31 10 32
REMARK SMILES IDX 24 33
REMARK H PARENT 24 34
REMARK Flexibility Score: inf
ROOT
ATOM      1  C   UNL     1     101.507 119.449 128.197  1.00  0.00     0.017 C 
ATOM      2  C   UNL     1     101.264 119.642 129.720  1.00  0.00     0.014 C 
ATOM      3  C   UNL     1     101.438 120.835 127.461  1.00  0.00     0.014 C 
ATOM      4  C   UNL     1     100.512 118.370 127.564  1.00  0.00     0.030 C 
ATOM      5  C   UNL     1      99.789 119.699 130.090  1.00  0.00     0.004 C 
ATOM      6  C   UNL     1     100.296 120.964 126.460  1.00  0.00     0.013 C 
ATOM      7  C   UNL     1     100.498 118.507 126.018  1.00  0.00    -0.063 C 
ATOM      8  C   UNL     1      99.119 118.068 128.265  1.00  0.00    -0.003 C 
ATOM      9  C   UNL     1      99.151 118.343 129.793  1.00  0.00    -0.011 C 
ATOM     10  C   UNL     1     100.303 119.887 125.309  1.00  0.00    -0.006 C 
ATOM     11  C   UNL     1     101.088 117.494 125.360  1.00  0.00    -0.027 C 
ATOM     12  C   UNL     1      97.856 118.604 127.575  1.00  0.00     0.008 C 
ATOM     13  C   UNL     1      97.789 118.216 130.490  1.00  0.00     0.008 C 
ATOM     14  C   UNL     1      98.867 119.950 124.701  1.00  0.00     0.017 C 
ATOM     15  C   UNL     1     101.404 120.155 124.108  1.00  0.00    -0.020 C 
ATOM     16  C   UNL     1     102.131 117.742 124.320  1.00  0.00     0.032 C 
ATOM     17  C   UNL     1     102.656 119.222 124.320  1.00  0.00     0.006 C 
ATOM     18  C   UNL     1     100.869 119.819 122.660  1.00  0.00     0.008 C 
ATOM     19  C   UNL     1     101.735 121.677 124.070  1.00  0.00     0.012 C 
ATOM     20  C   UNL     1     103.890 119.482 123.317  1.00  0.00    -0.025 C 
ATOM     21  C   UNL     1     101.930 119.461 121.579  1.00  0.00     0.005 C 
ATOM     22  C   UNL     1     103.407 119.880 121.851  1.00  0.00     0.003 C 
ATOM     23  C   UNL     1     104.867 118.247 123.274  1.00  0.00     0.010 C 
ATOM     24  C   UNL     1     104.750 120.646 123.918  1.00  0.00     0.012 C 
ATOM     25  C   UNL     1     104.386 119.422 120.679  1.00  0.00    -0.006 C 
ATOM     26  C   UNL     1     104.565 117.260 122.143  1.00  0.00     0.033 C 
ATOM     27  C   UNL     1     104.711 117.880 120.741  1.00  0.00     0.120 C 
ATOM     28  C   UNL     1     103.790 119.796 119.287  1.00  0.00     0.014 C 
ATOM     29  C   UNL     1     105.719 120.228 120.750  1.00  0.00     0.014 C 
ENDROOT
BRANCH   1  30
ATOM     30  C   UNL     1     102.969 118.980 128.089  1.00  0.00     0.048 C 
ATOM     31  O   UNL     1     103.396 117.966 128.710  1.00  0.00    -0.550 OA
ATOM     32  O   UNL     1     103.883 119.738 127.356  1.00  0.00    -0.550 OA
ENDBRANCH   1  30
BRANCH  27  33
ATOM     33  O   UNL     1     103.882 117.147 119.867  1.00  0.00    -0.393 OA
ATOM     34  H   UNL     1     102.941 117.395 120.064  1.00  0.00     0.210 HD
ENDBRANCH  27  33
TORSDOF 2
ENDMDL
MODEL 7
REMARK VINA RESULT:    -6.027      3.497      6.872
REMARK INTER + INTRA:          -6.884
REMARK INTER:                  -6.528
REMARK INTRA:                  -0.356
REMARK UNBOUND:                -0.329
REMARK SMILES C[C@@H]1[C@H](C)CC[C@]2(C(=O)[O-])CC[C@]3(C)C(=CC[C@H]4[C@@]5(C)CC[C@@H](O)C(C)(C)[C@H]5CC[C@]43C)[C@H]12
REMARK SMILES IDX 7 1 6 2 11 3 33 4 5 5 12 6 15 7 2 8 3 9 13 10 16 11 1 12
REMARK SMILES IDX 4 13 14 14 31 15 17 16 18 17 30 18 32 19 19 20 29 21 28 22
REMARK SMILES IDX 21 23 20 24 25 25 22 26 23 27 26 28 27 29 8 30 9 31 10 32
REMARK SMILES IDX 24 33
REMARK H PARENT 24 34
REMARK Flexibility Score: inf
ROOT
ATOM      1  C   UNL     1     100.719 121.871 119.476  1.00  0.00     0.017 C 
ATOM      2  C   UNL     1      99.175 121.972 119.623  1.00  0.00     0.014 C 
ATOM      3  C   UNL     1     101.402 123.151 120.077  1.00  0.00     0.014 C 
ATOM      4  C   UNL     1     101.159 121.596 117.964  1.00  0.00     0.030 C 
ATOM      5  C   UNL     1      98.516 122.775 118.510  1.00  0.00     0.004 C 
ATOM      6  C   UNL     1     102.152 124.005 119.062  1.00  0.00     0.013 C 
ATOM      7  C   UNL     1     102.669 121.911 117.787  1.00  0.00    -0.063 C 
ATOM      8  C   UNL     1     100.200 122.015 116.769  1.00  0.00    -0.003 C 
ATOM      9  C   UNL     1      98.704 122.032 117.188  1.00  0.00    -0.011 C 
ATOM     10  C   UNL     1     103.300 123.252 118.288  1.00  0.00    -0.006 C 
ATOM     11  C   UNL     1     103.449 120.833 117.601  1.00  0.00    -0.027 C 
ATOM     12  C   UNL     1     100.614 123.232 115.931  1.00  0.00     0.008 C 
ATOM     13  C   UNL     1      97.751 122.580 116.115  1.00  0.00     0.008 C 
ATOM     14  C   UNL     1     103.607 124.162 117.057  1.00  0.00     0.017 C 
ATOM     15  C   UNL     1     104.691 123.027 119.147  1.00  0.00    -0.020 C 
ATOM     16  C   UNL     1     104.672 120.602 118.427  1.00  0.00     0.032 C 
ATOM     17  C   UNL     1     104.751 121.546 119.680  1.00  0.00     0.006 C 
ATOM     18  C   UNL     1     106.010 123.221 118.298  1.00  0.00     0.008 C 
ATOM     19  C   UNL     1     104.768 124.116 120.260  1.00  0.00     0.012 C 
ATOM     20  C   UNL     1     105.975 121.217 120.676  1.00  0.00    -0.025 C 
ATOM     21  C   UNL     1     107.287 122.483 118.795  1.00  0.00     0.005 C 
ATOM     22  C   UNL     1     107.308 121.994 120.275  1.00  0.00     0.003 C 
ATOM     23  C   UNL     1     106.234 119.667 120.776  1.00  0.00     0.010 C 
ATOM     24  C   UNL     1     105.537 121.640 122.119  1.00  0.00     0.012 C 
ATOM     25  C   UNL     1     108.660 121.230 120.635  1.00  0.00    -0.006 C 
ATOM     26  C   UNL     1     107.299 119.154 119.803  1.00  0.00     0.033 C 
ATOM     27  C   UNL     1     108.691 119.765 120.049  1.00  0.00     0.120 C 
ATOM     28  C   UNL     1     109.898 122.039 120.140  1.00  0.00     0.014 C 
ATOM     29  C   UNL     1     108.842 121.166 122.181  1.00  0.00     0.014 C 
ENDROOT
BRANCH   1  30
ATOM     30  C   UNL     1     101.125 120.701 120.390  1.00  0.00     0.048 C 
ATOM     31  O   UNL     1     101.770 120.879 121.461  1.00  0.00    -0.550 OA
ATOM     32  O   UNL     1     100.851 119.391 119.994  1.00  0.00    -0.550 OA
ENDBRANCH   1  30
BRANCH  27  33
ATOM     33  O   UNL     1     109.394 119.718 118.829  1.00  0.00    -0.393 OA
ATOM     34  H   UNL     1     108.854 120.199 118.149  1.00  0.00     0.210 HD
ENDBRANCH  27  33
TORSDOF 2
ENDMDL
MODEL 8
REMARK VINA RESULT:    -6.024      1.828      2.653
REMARK INTER + INTRA:          -6.881
REMARK INTER:                  -6.538
REMARK INTRA:                  -0.343
REMARK UNBOUND:                -0.329
REMARK SMILES C[C@@H]1[C@H](C)CC[C@]2(C(=O)[O-])CC[C@]3(C)C(=CC[C@H]4[C@@]5(C)CC[C@@H](O)C(C)(C)[C@H]5CC[C@]43C)[C@H]12
REMARK SMILES IDX 7 1 6 2 11 3 33 4 5 5 12 6 15 7 2 8 3 9 13 10 16 11 1 12
REMARK SMILES IDX 4 13 14 14 31 15 17 16 18 17 30 18 32 19 19 20 29 21 28 22
REMARK SMILES IDX 21 23 20 24 25 25 22 26 23 27 26 28 27 29 8 30 9 31 10 32
REMARK SMILES IDX 24 33
REMARK H PARENT 24 34
REMARK Flexibility Score: inf
ROOT
ATOM      1  C   UNL     1     104.126 123.113 120.343  1.00  0.00     0.017 C 
ATOM      2  C   UNL     1     104.960 123.860 119.264  1.00  0.00     0.014 C 
ATOM      3  C   UNL     1     104.392 121.568 120.254  1.00  0.00     0.014 C 
ATOM      4  C   UNL     1     102.571 123.472 120.250  1.00  0.00     0.030 C 
ATOM      5  C   UNL     1     104.292 123.882 117.896  1.00  0.00     0.004 C 
ATOM      6  C   UNL     1     103.175 120.736 119.869  1.00  0.00     0.013 C 
ATOM      7  C   UNL     1     101.739 122.423 121.038  1.00  0.00    -0.063 C 
ATOM      8  C   UNL     1     101.954 123.986 118.880  1.00  0.00    -0.003 C 
ATOM      9  C   UNL     1     103.006 124.702 117.988  1.00  0.00    -0.011 C 
ATOM     10  C   UNL     1     101.942 120.886 120.838  1.00  0.00    -0.006 C 
ATOM     11  C   UNL     1     101.186 122.884 122.172  1.00  0.00    -0.027 C 
ATOM     12  C   UNL     1     101.058 123.010 118.104  1.00  0.00     0.008 C 
ATOM     13  C   UNL     1     102.499 125.078 116.588  1.00  0.00     0.008 C 
ATOM     14  C   UNL     1     100.734 120.313 120.031  1.00  0.00     0.017 C 
ATOM     15  C   UNL     1     102.069 120.063 122.264  1.00  0.00    -0.020 C 
ATOM     16  C   UNL     1     101.360 122.169 123.472  1.00  0.00     0.032 C 
ATOM     17  C   UNL     1     102.471 121.060 123.416  1.00  0.00     0.006 C 
ATOM     18  C   UNL     1     100.721 119.390 122.741  1.00  0.00     0.008 C 
ATOM     19  C   UNL     1     103.060 118.877 122.065  1.00  0.00     0.012 C 
ATOM     20  C   UNL     1     102.792 120.379 124.840  1.00  0.00    -0.025 C 
ATOM     21  C   UNL     1     100.562 119.130 124.267  1.00  0.00     0.005 C 
ATOM     22  C   UNL     1     101.856 119.123 125.137  1.00  0.00     0.003 C 
ATOM     23  C   UNL     1     102.716 121.429 126.011  1.00  0.00     0.010 C 
ATOM     24  C   UNL     1     104.290 119.919 124.817  1.00  0.00     0.012 C 
ATOM     25  C   UNL     1     101.540 118.876 126.680  1.00  0.00    -0.006 C 
ATOM     26  C   UNL     1     101.350 121.486 126.701  1.00  0.00     0.033 C 
ATOM     27  C   UNL     1     100.957 120.163 127.383  1.00  0.00     0.120 C 
ATOM     28  C   UNL     1     100.563 117.673 126.856  1.00  0.00     0.014 C 
ATOM     29  C   UNL     1     102.833 118.427 127.426  1.00  0.00     0.014 C 
ENDROOT
BRANCH   1  30
ATOM     30  C   UNL     1     104.719 123.574 121.686  1.00  0.00     0.048 C 
ATOM     31  O   UNL     1     104.604 124.762 122.098  1.00  0.00    -0.550 OA
ATOM     32  O   UNL     1     105.484 122.684 122.442  1.00  0.00    -0.550 OA
ENDBRANCH   1  30
BRANCH  27  33
ATOM     33  O   UNL     1      99.550 120.120 127.443  1.00  0.00    -0.393 OA
ATOM     34  H   UNL     1      99.265 120.644 128.237  1.00  0.00     0.210 HD
ENDBRANCH  27  33
TORSDOF 2
ENDMDL
MODEL 9
REMARK VINA RESULT:    -5.945      2.152      7.377
REMARK INTER + INTRA:          -6.795
REMARK INTER:                  -6.446
REMARK INTRA:                  -0.349
REMARK UNBOUND:                -0.329
REMARK SMILES C[C@@H]1[C@H](C)CC[C@]2(C(=O)[O-])CC[C@]3(C)C(=CC[C@H]4[C@@]5(C)CC[C@@H](O)C(C)(C)[C@H]5CC[C@]43C)[C@H]12
REMARK SMILES IDX 7 1 6 2 11 3 33 4 5 5 12 6 15 7 2 8 3 9 13 10 16 11 1 12
REMARK SMILES IDX 4 13 14 14 31 15 17 16 18 17 30 18 32 19 19 20 29 21 28 22
REMARK SMILES IDX 21 23 20 24 25 25 22 26 23 27 26 28 27 29 8 30 9 31 10 32
REMARK SMILES IDX 24 33
REMARK H PARENT 24 34
REMARK Flexibility Score: inf
ROOT
ATOM      1  C   UNL     1     100.949 120.888 125.087  1.00  0.00     0.017 C 
ATOM      2  C   UNL     1      99.673 121.221 125.911  1.00  0.00     0.014 C 
ATOM      3  C   UNL     1     100.579 120.717 123.570  1.00  0.00     0.014 C 
ATOM      4  C   UNL     1     101.726 119.621 125.674  1.00  0.00     0.030 C 
ATOM      5  C   UNL     1      98.873 119.988 126.305  1.00  0.00     0.004 C 
ATOM      6  C   UNL     1     100.812 119.317 123.015  1.00  0.00     0.013 C 
ATOM      7  C   UNL     1     102.724 119.077 124.616  1.00  0.00    -0.063 C 
ATOM      8  C   UNL     1     100.945 118.541 126.538  1.00  0.00    -0.003 C 
ATOM      9  C   UNL     1      99.710 119.141 127.263  1.00  0.00    -0.011 C 
ATOM     10  C   UNL     1     102.296 118.799 123.138  1.00  0.00    -0.006 C 
ATOM     11  C   UNL     1     104.019 119.281 124.910  1.00  0.00    -0.027 C 
ATOM     12  C   UNL     1     100.666 117.183 125.877  1.00  0.00     0.008 C 
ATOM     13  C   UNL     1      98.833 118.107 127.985  1.00  0.00     0.008 C 
ATOM     14  C   UNL     1     102.194 117.257 122.919  1.00  0.00     0.017 C 
ATOM     15  C   UNL     1     103.350 119.427 122.034  1.00  0.00    -0.020 C 
ATOM     16  C   UNL     1     104.953 119.910 123.929  1.00  0.00     0.032 C 
ATOM     17  C   UNL     1     104.210 120.562 122.708  1.00  0.00     0.006 C 
ATOM     18  C   UNL     1     104.395 118.382 121.476  1.00  0.00     0.008 C 
ATOM     19  C   UNL     1     102.541 119.889 120.784  1.00  0.00     0.012 C 
ATOM     20  C   UNL     1     105.175 121.383 121.713  1.00  0.00    -0.025 C 
ATOM     21  C   UNL     1     105.741 118.947 120.936  1.00  0.00     0.005 C 
ATOM     22  C   UNL     1     105.793 120.461 120.570  1.00  0.00     0.003 C 
ATOM     23  C   UNL     1     106.308 122.139 122.504  1.00  0.00     0.010 C 
ATOM     24  C   UNL     1     104.320 122.522 121.060  1.00  0.00     0.012 C 
ATOM     25  C   UNL     1     107.238 120.906 120.061  1.00  0.00    -0.006 C 
ATOM     26  C   UNL     1     107.616 121.350 122.613  1.00  0.00     0.033 C 
ATOM     27  C   UNL     1     108.266 121.059 121.248  1.00  0.00     0.120 C 
ATOM     28  C   UNL     1     107.780 119.902 118.998  1.00  0.00     0.014 C 
ATOM     29  C   UNL     1     107.140 122.258 119.291  1.00  0.00     0.014 C 
ENDROOT
BRANCH   1  30
ATOM     30  C   UNL     1     101.815 122.157 125.176  1.00  0.00     0.048 C 
ATOM     31  O   UNL     1     102.090 122.854 124.159  1.00  0.00    -0.550 OA
ATOM     32  O   UNL     1     102.392 122.513 126.395  1.00  0.00    -0.550 OA
ENDBRANCH   1  30
BRANCH  27  33
ATOM     33  O   UNL     1     109.054 119.900 121.394  1.00  0.00    -0.393 OA
ATOM     34  H   UNL     1     110.006 120.167 121.296  1.00  0.00     0.210 HD
ENDBRANCH  27  33
TORSDOF 2
ENDMDL
