MODEL 1
REMARK VINA RESULT:    -6.177      0.000      0.000
REMARK INTER + INTRA:          -6.177
REMARK INTER:                  -6.177
REMARK INTRA:                   0.000
REMARK UNBOUND:                 0.000
REMARK SMILES C=C1CCC[C@@]2(C)CC(=O)C(=C(C)C)C[C@@H]12
REMARK SMILES IDX 13 1 12 2 11 3 15 4 16 5 2 6 1 7 3 8 4 9 5 10 6 11 8 12 9 13
REMARK SMILES IDX 10 14 7 15 14 16
REMARK H PARENT
REMARK Flexibility Score: inf
ROOT
ATOM      1  C   UNL     1      10.494 -16.959 -23.571  1.00  0.00     0.039 C 
ATOM      2  C   UNL     1      11.936 -16.742 -23.173  1.00  0.00    -0.070 C 
ATOM      3  C   UNL     1      12.478 -17.370 -22.091  1.00  0.00    -0.006 C 
ATOM      4  C   UNL     1      13.931 -17.191 -21.699  1.00  0.00     0.047 C 
ATOM      5  C   UNL     1      14.565 -18.468 -21.086  1.00  0.00     0.025 C 
ATOM      6  C   UNL     1      15.926 -18.108 -20.514  1.00  0.00    -0.073 C 
ATOM      7  C   UNL     1      17.046 -18.342 -21.215  1.00  0.00     0.008 C 
ATOM      8  C   UNL     1      15.988 -17.338 -19.211  1.00  0.00     0.031 C 
ATOM      9  C   UNL     1      15.053 -17.941 -18.153  1.00  0.00     0.005 C 
ATOM     10  C   UNL     1      13.651 -18.254 -18.706  1.00  0.00     0.008 C 
ATOM     11  C   UNL     1      13.688 -19.144 -19.984  1.00  0.00    -0.018 C 
ATOM     12  C   UNL     1      12.248 -19.381 -20.511  1.00  0.00     0.088 C 
ATOM     13  C   UNL     1      11.659 -18.160 -21.143  1.00  0.00     0.159 C 
ATOM     14  O   UNL     1      10.478 -17.824 -20.858  1.00  0.00    -0.295 OA
ATOM     15  C   UNL     1      14.273 -20.539 -19.636  1.00  0.00     0.012 C 
ATOM     16  C   UNL     1      12.766 -15.831 -24.049  1.00  0.00     0.039 C 
ENDROOT
TORSDOF 0
ENDMDL
MODEL 2
REMARK VINA RESULT:    -6.078      2.776      5.022
REMARK INTER + INTRA:          -6.078
REMARK INTER:                  -6.078
REMARK INTRA:                   0.000
REMARK UNBOUND:                 0.000
REMARK SMILES C=C1CCC[C@@]2(C)CC(=O)C(=C(C)C)C[C@@H]12
REMARK SMILES IDX 13 1 12 2 11 3 15 4 16 5 2 6 1 7 3 8 4 9 5 10 6 11 8 12 9 13
REMARK SMILES IDX 10 14 7 15 14 16
REMARK H PARENT
REMARK Flexibility Score: inf
ROOT
ATOM      1  C   UNL     1       8.511 -19.373 -20.279  1.00  0.00     0.039 C 
ATOM      2  C   UNL     1       8.609 -18.626 -21.589  1.00  0.00    -0.070 C 
ATOM      3  C   UNL     1       9.798 -18.135 -22.042  1.00  0.00    -0.006 C 
ATOM      4  C   UNL     1       9.921 -17.415 -23.369  1.00  0.00     0.047 C 
ATOM      5  C   UNL     1      11.273 -17.668 -24.084  1.00  0.00     0.025 C 
ATOM      6  C   UNL     1      11.383 -16.719 -25.267  1.00  0.00    -0.073 C 
ATOM      7  C   UNL     1      11.079 -17.134 -26.506  1.00  0.00     0.008 C 
ATOM      8  C   UNL     1      11.689 -15.259 -25.003  1.00  0.00     0.031 C 
ATOM      9  C   UNL     1      12.852 -15.094 -24.015  1.00  0.00     0.005 C 
ATOM     10  C   UNL     1      12.720 -16.008 -22.782  1.00  0.00     0.008 C 
ATOM     11  C   UNL     1      12.520 -17.506 -23.157  1.00  0.00    -0.018 C 
ATOM     12  C   UNL     1      12.350 -18.360 -21.872  1.00  0.00     0.088 C 
ATOM     13  C   UNL     1      11.025 -18.147 -21.212  1.00  0.00     0.159 C 
ATOM     14  O   UNL     1      10.975 -17.981 -19.964  1.00  0.00    -0.295 OA
ATOM     15  C   UNL     1      13.784 -18.039 -23.885  1.00  0.00     0.012 C 
ATOM     16  C   UNL     1       7.341 -18.481 -22.399  1.00  0.00     0.039 C 
ENDROOT
TORSDOF 0
ENDMDL
MODEL 3
REMARK VINA RESULT:    -6.023      2.181      3.790
REMARK INTER + INTRA:          -6.023
REMARK INTER:                  -6.023
REMARK INTRA:                   0.000
REMARK UNBOUND:                 0.000
REMARK SMILES C=C1CCC[C@@]2(C)CC(=O)C(=C(C)C)C[C@@H]12
REMARK SMILES IDX 13 1 12 2 11 3 15 4 16 5 2 6 1 7 3 8 4 9 5 10 6 11 8 12 9 13
REMARK SMILES IDX 10 14 7 15 14 16
REMARK H PARENT
REMARK Flexibility Score: inf
ROOT
ATOM      1  C   UNL     1      15.479 -14.809 -24.427  1.00  0.00     0.039 C 
ATOM      2  C   UNL     1      14.341 -15.554 -23.768  1.00  0.00    -0.070 C 
ATOM      3  C   UNL     1      14.562 -16.438 -22.753  1.00  0.00    -0.006 C 
ATOM      4  C   UNL     1      13.430 -17.166 -22.057  1.00  0.00     0.047 C 
ATOM      5  C   UNL     1      13.692 -17.414 -20.549  1.00  0.00     0.025 C 
ATOM      6  C   UNL     1      12.620 -18.351 -20.016  1.00  0.00    -0.073 C 
ATOM      7  C   UNL     1      11.550 -17.866 -19.367  1.00  0.00     0.008 C 
ATOM      8  C   UNL     1      12.698 -19.822 -20.368  1.00  0.00     0.031 C 
ATOM      9  C   UNL     1      14.114 -20.379 -20.157  1.00  0.00     0.005 C 
ATOM     10  C   UNL     1      15.205 -19.467 -20.747  1.00  0.00     0.008 C 
ATOM     11  C   UNL     1      15.107 -17.997 -20.239  1.00  0.00    -0.018 C 
ATOM     12  C   UNL     1      16.206 -17.128 -20.905  1.00  0.00     0.088 C 
ATOM     13  C   UNL     1      15.925 -16.853 -22.348  1.00  0.00     0.159 C 
ATOM     14  O   UNL     1      16.851 -16.979 -23.194  1.00  0.00    -0.295 OA
ATOM     15  C   UNL     1      15.367 -17.952 -18.709  1.00  0.00     0.012 C 
ATOM     16  C   UNL     1      12.942 -15.249 -24.252  1.00  0.00     0.039 C 
ENDROOT
TORSDOF 0
ENDMDL
MODEL 4
REMARK VINA RESULT:    -5.674      2.020      4.748
REMARK INTER + INTRA:          -5.674
REMARK INTER:                  -5.674
REMARK INTRA:                   0.000
REMARK UNBOUND:                 0.000
REMARK SMILES C=C1CCC[C@@]2(C)CC(=O)C(=C(C)C)C[C@@H]12
REMARK SMILES IDX 13 1 12 2 11 3 15 4 16 5 2 6 1 7 3 8 4 9 5 10 6 11 8 12 9 13
REMARK SMILES IDX 10 14 7 15 14 16
REMARK H PARENT
REMARK Flexibility Score: inf
ROOT
ATOM      1  C   UNL     1      15.133 -17.888 -17.866  1.00  0.00     0.039 C 
ATOM      2  C   UNL     1      15.790 -17.534 -19.181  1.00  0.00    -0.070 C 
ATOM      3  C   UNL     1      15.094 -17.554 -20.353  1.00  0.00    -0.006 C 
ATOM      4  C   UNL     1      15.728 -17.167 -21.674  1.00  0.00     0.047 C 
ATOM      5  C   UNL     1      14.746 -16.461 -22.645  1.00  0.00     0.025 C 
ATOM      6  C   UNL     1      15.411 -16.341 -24.007  1.00  0.00    -0.073 C 
ATOM      7  C   UNL     1      16.009 -15.199 -24.377  1.00  0.00     0.008 C 
ATOM      8  C   UNL     1      15.524 -17.579 -24.873  1.00  0.00     0.031 C 
ATOM      9  C   UNL     1      14.196 -18.346 -24.939  1.00  0.00     0.005 C 
ATOM     10  C   UNL     1      13.544 -18.527 -23.556  1.00  0.00     0.008 C 
ATOM     11  C   UNL     1      13.369 -17.183 -22.789  1.00  0.00    -0.018 C 
ATOM     12  C   UNL     1      12.748 -17.444 -21.391  1.00  0.00     0.088 C 
ATOM     13  C   UNL     1      13.713 -18.082 -20.444  1.00  0.00     0.159 C 
ATOM     14  O   UNL     1      13.337 -19.059 -19.741  1.00  0.00    -0.295 OA
ATOM     15  C   UNL     1      12.377 -16.266 -23.555  1.00  0.00     0.012 C 
ATOM     16  C   UNL     1      17.243 -17.117 -19.137  1.00  0.00     0.039 C 
ENDROOT
TORSDOF 0
ENDMDL
MODEL 5
REMARK VINA RESULT:    -5.580      6.417      8.634
REMARK INTER + INTRA:          -5.580
REMARK INTER:                  -5.580
REMARK INTRA:                   0.000
REMARK UNBOUND:                 0.000
REMARK SMILES C=C1CCC[C@@]2(C)CC(=O)C(=C(C)C)C[C@@H]12
REMARK SMILES IDX 13 1 12 2 11 3 15 4 16 5 2 6 1 7 3 8 4 9 5 10 6 11 8 12 9 13
REMARK SMILES IDX 10 14 7 15 14 16
REMARK H PARENT
REMARK Flexibility Score: inf
ROOT
ATOM      1  C   UNL     1      19.125 -25.956 -23.451  1.00  0.00     0.039 C 
ATOM      2  C   UNL     1      17.981 -24.979 -23.306  1.00  0.00    -0.070 C 
ATOM      3  C   UNL     1      17.928 -23.830 -24.037  1.00  0.00    -0.006 C 
ATOM      4  C   UNL     1      16.771 -22.857 -23.929  1.00  0.00     0.047 C 
ATOM      5  C   UNL     1      16.432 -22.153 -25.269  1.00  0.00     0.025 C 
ATOM      6  C   UNL     1      15.435 -21.038 -24.993  1.00  0.00    -0.073 C 
ATOM      7  C   UNL     1      14.123 -21.231 -25.195  1.00  0.00     0.008 C 
ATOM      8  C   UNL     1      15.929 -19.764 -24.340  1.00  0.00     0.031 C 
ATOM      9  C   UNL     1      17.211 -19.246 -25.007  1.00  0.00     0.005 C 
ATOM     10  C   UNL     1      18.253 -20.356 -25.236  1.00  0.00     0.008 C 
ATOM     11  C   UNL     1      17.678 -21.576 -26.014  1.00  0.00    -0.018 C 
ATOM     12  C   UNL     1      18.767 -22.671 -26.170  1.00  0.00     0.088 C 
ATOM     13  C   UNL     1      19.056 -23.380 -24.885  1.00  0.00     0.159 C 
ATOM     14  O   UNL     1      20.254 -23.581 -24.545  1.00  0.00    -0.295 OA
ATOM     15  C   UNL     1      17.273 -21.142 -27.448  1.00  0.00     0.012 C 
ATOM     16  C   UNL     1      16.874 -25.349 -22.345  1.00  0.00     0.039 C 
ENDROOT
TORSDOF 0
ENDMDL
MODEL 6
REMARK VINA RESULT:    -5.558      2.070      3.491
REMARK INTER + INTRA:          -5.558
REMARK INTER:                  -5.558
REMARK INTRA:                   0.000
REMARK UNBOUND:                 0.000
REMARK SMILES C=C1CCC[C@@]2(C)CC(=O)C(=C(C)C)C[C@@H]12
REMARK SMILES IDX 13 1 12 2 11 3 15 4 16 5 2 6 1 7 3 8 4 9 5 10 6 11 8 12 9 13
REMARK SMILES IDX 10 14 7 15 14 16
REMARK H PARENT
REMARK Flexibility Score: inf
ROOT
ATOM      1  C   UNL     1      10.812 -17.312 -25.746  1.00  0.00     0.039 C 
ATOM      2  C   UNL     1      10.992 -17.695 -24.295  1.00  0.00    -0.070 C 
ATOM      3  C   UNL     1      12.232 -17.841 -23.746  1.00  0.00    -0.006 C 
ATOM      4  C   UNL     1      12.430 -18.190 -22.285  1.00  0.00     0.047 C 
ATOM      5  C   UNL     1      13.689 -17.534 -21.661  1.00  0.00     0.025 C 
ATOM      6  C   UNL     1      13.922 -18.138 -20.285  1.00  0.00    -0.073 C 
ATOM      7  C   UNL     1      13.503 -17.503 -19.180  1.00  0.00     0.008 C 
ATOM      8  C   UNL     1      14.491 -19.539 -20.192  1.00  0.00     0.031 C 
ATOM      9  C   UNL     1      15.701 -19.721 -21.119  1.00  0.00     0.005 C 
ATOM     10  C   UNL     1      15.455 -19.167 -22.534  1.00  0.00     0.008 C 
ATOM     11  C   UNL     1      14.978 -17.683 -22.530  1.00  0.00    -0.018 C 
ATOM     12  C   UNL     1      14.708 -17.206 -23.981  1.00  0.00     0.088 C 
ATOM     13  C   UNL     1      13.467 -17.805 -24.562  1.00  0.00     0.159 C 
ATOM     14  O   UNL     1      13.494 -18.270 -25.733  1.00  0.00    -0.295 OA
ATOM     15  C   UNL     1      16.100 -16.773 -21.960  1.00  0.00     0.012 C 
ATOM     16  C   UNL     1       9.741 -17.871 -23.466  1.00  0.00     0.039 C 
ENDROOT
TORSDOF 0
ENDMDL
MODEL 7
REMARK VINA RESULT:    -5.557      5.791      7.770
REMARK INTER + INTRA:          -5.557
REMARK INTER:                  -5.557
REMARK INTRA:                   0.000
REMARK UNBOUND:                 0.000
REMARK SMILES C=C1CCC[C@@]2(C)CC(=O)C(=C(C)C)C[C@@H]12
REMARK SMILES IDX 13 1 12 2 11 3 15 4 16 5 2 6 1 7 3 8 4 9 5 10 6 11 8 12 9 13
REMARK SMILES IDX 10 14 7 15 14 16
REMARK H PARENT
REMARK Flexibility Score: inf
ROOT
ATOM      1  C   UNL     1      19.339 -25.517 -23.117  1.00  0.00     0.039 C 
ATOM      2  C   UNL     1      19.032 -24.338 -24.012  1.00  0.00    -0.070 C 
ATOM      3  C   UNL     1      17.849 -23.664 -23.922  1.00  0.00    -0.006 C 
ATOM      4  C   UNL     1      17.540 -22.460 -24.787  1.00  0.00     0.047 C 
ATOM      5  C   UNL     1      16.674 -21.392 -24.069  1.00  0.00     0.025 C 
ATOM      6  C   UNL     1      16.227 -20.360 -25.091  1.00  0.00    -0.073 C 
ATOM      7  C   UNL     1      16.884 -19.198 -25.221  1.00  0.00     0.008 C 
ATOM      8  C   UNL     1      15.128 -20.730 -26.067  1.00  0.00     0.031 C 
ATOM      9  C   UNL     1      13.942 -21.397 -25.356  1.00  0.00     0.005 C 
ATOM     10  C   UNL     1      14.380 -22.487 -24.361  1.00  0.00     0.008 C 
ATOM     11  C   UNL     1      15.430 -21.979 -23.328  1.00  0.00    -0.018 C 
ATOM     12  C   UNL     1      15.858 -23.137 -22.389  1.00  0.00     0.088 C 
ATOM     13  C   UNL     1      16.732 -24.139 -23.074  1.00  0.00     0.159 C 
ATOM     14  O   UNL     1      16.502 -25.369 -22.919  1.00  0.00    -0.295 OA
ATOM     15  C   UNL     1      14.794 -20.885 -22.429  1.00  0.00     0.012 C 
ATOM     16  C   UNL     1      20.106 -23.911 -24.986  1.00  0.00     0.039 C 
ENDROOT
TORSDOF 0
ENDMDL
MODEL 8
REMARK VINA RESULT:    -5.526     11.306     12.940
REMARK INTER + INTRA:          -5.526
REMARK INTER:                  -5.526
REMARK INTRA:                   0.000
REMARK UNBOUND:                 0.000
REMARK SMILES C=C1CCC[C@@]2(C)CC(=O)C(=C(C)C)C[C@@H]12
REMARK SMILES IDX 13 1 12 2 11 3 15 4 16 5 2 6 1 7 3 8 4 9 5 10 6 11 8 12 9 13
REMARK SMILES IDX 10 14 7 15 14 16
REMARK H PARENT
REMARK Flexibility Score: inf
ROOT
ATOM      1  C   UNL     1       9.251  -6.730 -25.623  1.00  0.00     0.039 C 
ATOM      2  C   UNL     1       8.559  -7.571 -26.670  1.00  0.00    -0.070 C 
ATOM      3  C   UNL     1       7.610  -8.491 -26.332  1.00  0.00    -0.006 C 
ATOM      4  C   UNL     1       6.882  -9.318 -27.372  1.00  0.00     0.047 C 
ATOM      5  C   UNL     1       5.410  -9.625 -26.993  1.00  0.00     0.025 C 
ATOM      6  C   UNL     1       4.859 -10.649 -27.974  1.00  0.00    -0.073 C 
ATOM      7  C   UNL     1       4.116 -10.260 -29.021  1.00  0.00     0.008 C 
ATOM      8  C   UNL     1       5.294 -12.094 -27.839  1.00  0.00     0.031 C 
ATOM      9  C   UNL     1       5.209 -12.577 -26.385  1.00  0.00     0.005 C 
ATOM     10  C   UNL     1       5.819 -11.575 -25.388  1.00  0.00     0.008 C 
ATOM     11  C   UNL     1       5.226 -10.141 -25.530  1.00  0.00    -0.018 C 
ATOM     12  C   UNL     1       5.916  -9.177 -24.529  1.00  0.00     0.088 C 
ATOM     13  C   UNL     1       7.320  -8.846 -24.924  1.00  0.00     0.159 C 
ATOM     14  O   UNL     1       8.231  -8.876 -24.053  1.00  0.00    -0.295 OA
ATOM     15  C   UNL     1       3.717 -10.158 -25.169  1.00  0.00     0.012 C 
ATOM     16  C   UNL     1       8.933  -7.324 -28.113  1.00  0.00     0.039 C 
ENDROOT
TORSDOF 0
ENDMDL
MODEL 9
REMARK VINA RESULT:    -5.504      6.350      8.554
REMARK INTER + INTRA:          -5.504
REMARK INTER:                  -5.504
REMARK INTRA:                   0.000
REMARK UNBOUND:                 0.000
REMARK SMILES C=C1CCC[C@@]2(C)CC(=O)C(=C(C)C)C[C@@H]12
REMARK SMILES IDX 13 1 12 2 11 3 15 4 16 5 2 6 1 7 3 8 4 9 5 10 6 11 8 12 9 13
REMARK SMILES IDX 10 14 7 15 14 16
REMARK H PARENT
REMARK Flexibility Score: inf
ROOT
ATOM      1  C   UNL     1      17.239 -25.360 -22.341  1.00  0.00     0.039 C 
ATOM      2  C   UNL     1      18.028 -24.888 -23.540  1.00  0.00    -0.070 C 
ATOM      3  C   UNL     1      17.742 -23.708 -24.161  1.00  0.00    -0.006 C 
ATOM      4  C   UNL     1      18.545 -23.203 -25.343  1.00  0.00     0.047 C 
ATOM      5  C   UNL     1      18.681 -21.659 -25.380  1.00  0.00     0.025 C 
ATOM      6  C   UNL     1      19.285 -21.256 -26.716  1.00  0.00    -0.073 C 
ATOM      7  C   UNL     1      20.598 -20.999 -26.822  1.00  0.00     0.008 C 
ATOM      8  C   UNL     1      18.413 -21.304 -27.954  1.00  0.00     0.031 C 
ATOM      9  C   UNL     1      17.049 -20.644 -27.710  1.00  0.00     0.005 C 
ATOM     10  C   UNL     1      16.399 -21.091 -26.388  1.00  0.00     0.008 C 
ATOM     11  C   UNL     1      17.335 -20.899 -25.157  1.00  0.00    -0.018 C 
ATOM     12  C   UNL     1      16.635 -21.410 -23.870  1.00  0.00     0.088 C 
ATOM     13  C   UNL     1      16.549 -22.902 -23.816  1.00  0.00     0.159 C 
ATOM     14  O   UNL     1      15.463 -23.448 -23.480  1.00  0.00    -0.295 OA
ATOM     15  C   UNL     1      17.618 -19.388 -24.943  1.00  0.00     0.012 C 
ATOM     16  C   UNL     1      19.174 -25.760 -24.001  1.00  0.00     0.039 C 
ENDROOT
TORSDOF 0
ENDMDL
