MODEL 1
REMARK VINA RESULT:    -4.498      0.000      0.000
REMARK INTER + INTRA:          -5.245
REMARK INTER:                  -5.024
REMARK INTRA:                  -0.220
REMARK UNBOUND:                -0.220
REMARK SMILES CC(C)c1ccc(C(=O)[O-])cc1
REMARK SMILES IDX 7 1 6 2 11 3 5 4 12 5 4 6 8 7 9 8 10 9 2 10 1 11 3 12
REMARK H PARENT
REMARK Flexibility Score: inf
ROOT
ATOM      1  C   UNL     1      58.524  26.584  50.192  1.00  0.00    -0.003 A 
ATOM      2  C   UNL     1      57.571  25.556  50.292  1.00  0.00     0.010 A 
ATOM      3  C   UNL     1      58.098  27.919  50.295  1.00  0.00     0.010 A 
ATOM      4  C   UNL     1      56.221  25.857  50.491  1.00  0.00     0.004 A 
ATOM      5  C   UNL     1      56.748  28.220  50.494  1.00  0.00     0.004 A 
ATOM      6  C   UNL     1      55.793  27.194  50.593  1.00  0.00    -0.045 A 
ENDROOT
BRANCH   1   7
ATOM      7  C   UNL     1      59.955  26.271  49.982  1.00  0.00     0.071 C 
ATOM      8  O   UNL     1      60.753  27.160  49.581  1.00  0.00    -0.545 OA
ATOM      9  O   UNL     1      60.439  24.992  50.228  1.00  0.00    -0.545 OA
ENDBRANCH   1   7
BRANCH   6  10
ATOM     10  C   UNL     1      54.331  27.535  50.809  1.00  0.00     0.013 C 
ATOM     11  C   UNL     1      54.069  29.026  50.564  1.00  0.00     0.012 C 
ATOM     12  C   UNL     1      53.425  26.665  49.931  1.00  0.00     0.012 C 
ENDBRANCH   6  10
TORSDOF 2
ENDMDL
MODEL 2
REMARK VINA RESULT:    -4.486      0.050      1.398
REMARK INTER + INTRA:          -5.231
REMARK INTER:                  -5.012
REMARK INTRA:                  -0.220
REMARK UNBOUND:                -0.220
REMARK SMILES CC(C)c1ccc(C(=O)[O-])cc1
REMARK SMILES IDX 7 1 6 2 11 3 5 4 12 5 4 6 8 7 9 8 10 9 2 10 1 11 3 12
REMARK H PARENT
REMARK Flexibility Score: inf
ROOT
ATOM      1  C   UNL     1      58.493  26.577  50.197  1.00  0.00    -0.003 A 
ATOM      2  C   UNL     1      58.081  27.917  50.301  1.00  0.00     0.010 A 
ATOM      3  C   UNL     1      57.529  25.560  50.306  1.00  0.00     0.010 A 
ATOM      4  C   UNL     1      56.736  28.232  50.510  1.00  0.00     0.004 A 
ATOM      5  C   UNL     1      56.185  25.875  50.515  1.00  0.00     0.004 A 
ATOM      6  C   UNL     1      55.771  27.213  50.620  1.00  0.00    -0.045 A 
ENDROOT
BRANCH   1   7
ATOM      7  C   UNL     1      59.915  26.238  49.975  1.00  0.00     0.071 C 
ATOM      8  O   UNL     1      60.728  27.116  49.578  1.00  0.00    -0.545 OA
ATOM      9  O   UNL     1      60.376  24.947  50.202  1.00  0.00    -0.545 OA
ENDBRANCH   1   7
BRANCH   6  10
ATOM     10  C   UNL     1      54.307  27.541  50.847  1.00  0.00     0.013 C 
ATOM     11  C   UNL     1      54.037  29.037  50.643  1.00  0.00     0.012 C 
ATOM     12  C   UNL     1      53.404  26.690  49.945  1.00  0.00     0.012 C 
ENDBRANCH   6  10
TORSDOF 2
ENDMDL
MODEL 3
REMARK VINA RESULT:    -4.277     12.593     13.433
REMARK INTER + INTRA:          -4.998
REMARK INTER:                  -4.778
REMARK INTRA:                  -0.220
REMARK UNBOUND:                -0.220
REMARK SMILES CC(C)c1ccc(C(=O)[O-])cc1
REMARK SMILES IDX 7 1 6 2 11 3 5 4 12 5 4 6 8 7 9 8 10 9 2 10 1 11 3 12
REMARK H PARENT
REMARK Flexibility Score: inf
ROOT
ATOM      1  C   UNL     1      63.132  30.852  61.042  1.00  0.00    -0.003 A 
ATOM      2  C   UNL     1      64.092  31.876  60.969  1.00  0.00     0.010 A 
ATOM      3  C   UNL     1      61.775  31.181  60.884  1.00  0.00     0.010 A 
ATOM      4  C   UNL     1      63.703  33.198  60.744  1.00  0.00     0.004 A 
ATOM      5  C   UNL     1      61.386  32.504  60.659  1.00  0.00     0.004 A 
ATOM      6  C   UNL     1      62.344  33.529  60.587  1.00  0.00    -0.045 A 
ENDROOT
BRANCH   1   7
ATOM      7  C   UNL     1      63.538  29.449  61.279  1.00  0.00     0.071 C 
ATOM      8  O   UNL     1      62.686  28.584  61.617  1.00  0.00    -0.545 OA
ATOM      9  O   UNL     1      64.866  29.065  61.129  1.00  0.00    -0.545 OA
ENDBRANCH   1   7
BRANCH   6  10
ATOM     10  C   UNL     1      61.908  34.960  60.343  1.00  0.00     0.013 C 
ATOM     11  C   UNL     1      60.387  35.105  60.471  1.00  0.00     0.012 C 
ATOM     12  C   UNL     1      62.635  35.929  61.284  1.00  0.00     0.012 C 
ENDBRANCH   6  10
TORSDOF 2
ENDMDL
MODEL 4
REMARK VINA RESULT:    -4.274     12.579     13.349
REMARK INTER + INTRA:          -4.995
REMARK INTER:                  -4.775
REMARK INTRA:                  -0.220
REMARK UNBOUND:                -0.220
REMARK SMILES CC(C)c1ccc(C(=O)[O-])cc1
REMARK SMILES IDX 7 1 6 2 11 3 5 4 12 5 4 6 8 7 9 8 10 9 2 10 1 11 3 12
REMARK H PARENT
REMARK Flexibility Score: inf
ROOT
ATOM      1  C   UNL     1      63.046  30.864  61.021  1.00  0.00    -0.003 A 
ATOM      2  C   UNL     1      61.686  31.204  60.913  1.00  0.00     0.010 A 
ATOM      3  C   UNL     1      64.011  31.879  60.901  1.00  0.00     0.010 A 
ATOM      4  C   UNL     1      61.301  32.529  60.691  1.00  0.00     0.004 A 
ATOM      5  C   UNL     1      63.626  33.203  60.679  1.00  0.00     0.004 A 
ATOM      6  C   UNL     1      62.268  33.545  60.571  1.00  0.00    -0.045 A 
ENDROOT
BRANCH   1   7
ATOM      7  C   UNL     1      63.459  29.464  61.257  1.00  0.00     0.071 C 
ATOM      8  O   UNL     1      64.669  29.128  61.157  1.00  0.00    -0.545 OA
ATOM      9  O   UNL     1      62.517  28.499  61.593  1.00  0.00    -0.545 OA
ENDBRANCH   1   7
BRANCH   6  10
ATOM     10  C   UNL     1      61.864  34.987  60.330  1.00  0.00     0.013 C 
ATOM     11  C   UNL     1      60.346  35.165  60.459  1.00  0.00     0.012 C 
ATOM     12  C   UNL     1      62.613  35.936  61.274  1.00  0.00     0.012 C 
ENDBRANCH   6  10
TORSDOF 2
ENDMDL
MODEL 5
REMARK VINA RESULT:    -4.192      3.421      4.863
REMARK INTER + INTRA:          -4.903
REMARK INTER:                  -4.703
REMARK INTRA:                  -0.200
REMARK UNBOUND:                -0.220
REMARK SMILES CC(C)c1ccc(C(=O)[O-])cc1
REMARK SMILES IDX 7 1 6 2 11 3 5 4 12 5 4 6 8 7 9 8 10 9 2 10 1 11 3 12
REMARK H PARENT
REMARK Flexibility Score: inf
ROOT
ATOM      1  C   UNL     1      54.696  26.094  50.307  1.00  0.00    -0.003 A 
ATOM      2  C   UNL     1      55.980  25.526  50.358  1.00  0.00     0.010 A 
ATOM      3  C   UNL     1      54.566  27.489  50.413  1.00  0.00     0.010 A 
ATOM      4  C   UNL     1      57.109  26.335  50.511  1.00  0.00     0.004 A 
ATOM      5  C   UNL     1      55.694  28.298  50.567  1.00  0.00     0.004 A 
ATOM      6  C   UNL     1      56.979  27.732  50.619  1.00  0.00    -0.045 A 
ENDROOT
BRANCH   1   7
ATOM      7  C   UNL     1      53.498  25.242  50.143  1.00  0.00     0.071 C 
ATOM      8  O   UNL     1      53.025  24.607  51.124  1.00  0.00    -0.545 OA
ATOM      9  O   UNL     1      52.875  25.132  48.906  1.00  0.00    -0.545 OA
ENDBRANCH   1   7
BRANCH   6  10
ATOM     10  C   UNL     1      58.196  28.622  50.786  1.00  0.00     0.013 C 
ATOM     11  C   UNL     1      59.113  28.102  51.899  1.00  0.00     0.012 C 
ATOM     12  C   UNL     1      58.961  28.767  49.464  1.00  0.00     0.012 C 
ENDBRANCH   6  10
TORSDOF 2
ENDMDL
MODEL 6
REMARK VINA RESULT:    -4.012      3.288      5.275
REMARK INTER + INTRA:          -4.701
REMARK INTER:                  -4.486
REMARK INTRA:                  -0.215
REMARK UNBOUND:                -0.220
REMARK SMILES CC(C)c1ccc(C(=O)[O-])cc1
REMARK SMILES IDX 7 1 6 2 11 3 5 4 12 5 4 6 8 7 9 8 10 9 2 10 1 11 3 12
REMARK H PARENT
REMARK Flexibility Score: inf
ROOT
ATOM      1  C   UNL     1      55.140  27.117  50.496  1.00  0.00    -0.003 A 
ATOM      2  C   UNL     1      56.018  28.196  50.694  1.00  0.00     0.010 A 
ATOM      3  C   UNL     1      55.674  25.828  50.328  1.00  0.00     0.010 A 
ATOM      4  C   UNL     1      57.400  27.991  50.723  1.00  0.00     0.004 A 
ATOM      5  C   UNL     1      57.056  25.623  50.357  1.00  0.00     0.004 A 
ATOM      6  C   UNL     1      57.935  26.700  50.554  1.00  0.00    -0.045 A 
ENDROOT
BRANCH   1   7
ATOM      7  C   UNL     1      53.676  27.329  50.465  1.00  0.00     0.071 C 
ATOM      8  O   UNL     1      53.137  28.184  51.217  1.00  0.00    -0.545 OA
ATOM      9  O   UNL     1      52.875  26.588  49.604  1.00  0.00    -0.545 OA
ENDBRANCH   1   7
BRANCH   6  10
ATOM     10  C   UNL     1      59.433  26.463  50.584  1.00  0.00     0.013 C 
ATOM     11  C   UNL     1      59.764  24.985  50.342  1.00  0.00     0.012 C 
ATOM     12  C   UNL     1      60.156  27.362  49.574  1.00  0.00     0.012 C 
ENDBRANCH   6  10
TORSDOF 2
ENDMDL
MODEL 7
REMARK VINA RESULT:    -3.957      2.926      4.963
REMARK INTER + INTRA:          -4.641
REMARK INTER:                  -4.426
REMARK INTRA:                  -0.215
REMARK UNBOUND:                -0.220
REMARK SMILES CC(C)c1ccc(C(=O)[O-])cc1
REMARK SMILES IDX 7 1 6 2 11 3 5 4 12 5 4 6 8 7 9 8 10 9 2 10 1 11 3 12
REMARK H PARENT
REMARK Flexibility Score: inf
ROOT
ATOM      1  C   UNL     1      56.251  27.495  50.556  1.00  0.00    -0.003 A 
ATOM      2  C   UNL     1      56.350  26.093  50.599  1.00  0.00     0.010 A 
ATOM      3  C   UNL     1      57.412  28.250  50.316  1.00  0.00     0.010 A 
ATOM      4  C   UNL     1      57.582  25.462  50.406  1.00  0.00     0.004 A 
ATOM      5  C   UNL     1      58.643  27.619  50.124  1.00  0.00     0.004 A 
ATOM      6  C   UNL     1      58.744  26.219  50.167  1.00  0.00    -0.045 A 
ENDROOT
BRANCH   1   7
ATOM      7  C   UNL     1      54.950  28.168  50.758  1.00  0.00     0.071 C 
ATOM      8  O   UNL     1      54.823  29.068  51.630  1.00  0.00    -0.545 OA
ATOM      9  O   UNL     1      53.848  27.817  49.987  1.00  0.00    -0.545 OA
ENDBRANCH   1   7
BRANCH   6  10
ATOM     10  C   UNL     1      60.087  25.547  49.956  1.00  0.00     0.013 C 
ATOM     11  C   UNL     1      61.227  26.396  50.531  1.00  0.00     0.012 C 
ATOM     12  C   UNL     1      60.099  24.134  50.551  1.00  0.00     0.012 C 
ENDBRANCH   6  10
TORSDOF 2
ENDMDL
MODEL 8
REMARK VINA RESULT:    -3.918      1.146      1.852
REMARK INTER + INTRA:          -4.596
REMARK INTER:                  -4.386
REMARK INTRA:                  -0.210
REMARK UNBOUND:                -0.220
REMARK SMILES CC(C)c1ccc(C(=O)[O-])cc1
REMARK SMILES IDX 7 1 6 2 11 3 5 4 12 5 4 6 8 7 9 8 10 9 2 10 1 11 3 12
REMARK H PARENT
REMARK Flexibility Score: inf
ROOT
ATOM      1  C   UNL     1      58.520  27.136  50.327  1.00  0.00    -0.003 A 
ATOM      2  C   UNL     1      58.063  25.809  50.248  1.00  0.00     0.010 A 
ATOM      3  C   UNL     1      57.581  28.168  50.487  1.00  0.00     0.010 A 
ATOM      4  C   UNL     1      56.698  25.522  50.327  1.00  0.00     0.004 A 
ATOM      5  C   UNL     1      56.216  27.882  50.567  1.00  0.00     0.004 A 
ATOM      6  C   UNL     1      55.757  26.556  50.487  1.00  0.00    -0.045 A 
ENDROOT
BRANCH   1   7
ATOM      7  C   UNL     1      59.964  27.445  50.245  1.00  0.00     0.071 C 
ATOM      8  O   UNL     1      60.799  26.538  49.980  1.00  0.00    -0.545 OA
ATOM      9  O   UNL     1      60.421  28.740  50.457  1.00  0.00    -0.545 OA
ENDBRANCH   1   7
BRANCH   6  10
ATOM     10  C   UNL     1      54.273  26.259  50.574  1.00  0.00     0.013 C 
ATOM     11  C   UNL     1      53.876  25.134  49.611  1.00  0.00     0.012 C 
ATOM     12  C   UNL     1      53.859  25.924  52.013  1.00  0.00     0.012 C 
ENDBRANCH   6  10
TORSDOF 2
ENDMDL
MODEL 9
REMARK VINA RESULT:    -3.791     12.676     13.762
REMARK INTER + INTRA:          -4.455
REMARK INTER:                  -4.236
REMARK INTRA:                  -0.219
REMARK UNBOUND:                -0.220
REMARK SMILES CC(C)c1ccc(C(=O)[O-])cc1
REMARK SMILES IDX 7 1 6 2 11 3 5 4 12 5 4 6 8 7 9 8 10 9 2 10 1 11 3 12
REMARK H PARENT
REMARK Flexibility Score: inf
ROOT
ATOM      1  C   UNL     1      61.319  33.694  60.524  1.00  0.00    -0.003 A 
ATOM      2  C   UNL     1      62.705  33.928  60.557  1.00  0.00     0.010 A 
ATOM      3  C   UNL     1      60.849  32.381  60.691  1.00  0.00     0.010 A 
ATOM      4  C   UNL     1      63.599  32.873  60.754  1.00  0.00     0.004 A 
ATOM      5  C   UNL     1      61.742  31.325  60.888  1.00  0.00     0.004 A 
ATOM      6  C   UNL     1      63.128  31.557  60.921  1.00  0.00    -0.045 A 
ENDROOT
BRANCH   1   7
ATOM      7  C   UNL     1      60.369  34.808  60.317  1.00  0.00     0.071 C 
ATOM      8  O   UNL     1      59.187  34.580  59.944  1.00  0.00    -0.545 OA
ATOM      9  O   UNL     1      60.766  36.122  60.533  1.00  0.00    -0.545 OA
ENDBRANCH   1   7
BRANCH   6  10
ATOM     10  C   UNL     1      64.087  30.402  61.135  1.00  0.00     0.013 C 
ATOM     11  C   UNL     1      63.350  29.057  61.097  1.00  0.00     0.012 C 
ATOM     12  C   UNL     1      65.229  30.434  60.112  1.00  0.00     0.012 C 
ENDBRANCH   6  10
TORSDOF 2
ENDMDL
