MODEL 1
REMARK VINA RESULT:    -4.693      0.000      0.000
REMARK INTER + INTRA:         -10.387
REMARK INTER:                  -8.808
REMARK INTRA:                  -1.579
REMARK UNBOUND:                -1.579
REMARK SMILES O=C([O-])CCCCCCCCCCCCCCC(=O)[O-]
REMARK SMILES IDX 10 1 9 2 8 3 7 4 6 5 5 6 4 7 2 8 1 9 3 10 11 11 12 12 13 13
REMARK SMILES IDX 14 14 15 15 16 16 17 17 18 18 19 19 20 20
REMARK H PARENT
REMARK Flexibility Score: inf
ROOT
ATOM      1  C   UNL     1     -26.194 -14.917  17.389  1.00  0.00     0.000 C 
ENDROOT
BRANCH   1   2
ATOM      2  C   UNL     1     -27.588 -15.476  17.712  1.00  0.00     0.000 C 
BRANCH   2   3
ATOM      3  C   UNL     1     -27.900 -16.773  16.947  1.00  0.00     0.000 C 
BRANCH   3   4
ATOM      4  C   UNL     1     -29.025 -16.591  15.913  1.00  0.00     0.000 C 
BRANCH   4   5
ATOM      5  C   UNL     1     -29.910 -17.842  15.778  1.00  0.00     0.000 C 
BRANCH   5   6
ATOM      6  C   UNL     1     -29.880 -18.442  14.365  1.00  0.00     0.006 C 
BRANCH   6   7
ATOM      7  C   UNL     1     -29.795 -17.341  13.304  1.00  0.00     0.053 C 
BRANCH   7   8
ATOM      8  C   UNL     1     -28.659 -17.603  12.366  1.00  0.00     0.041 C 
ATOM      9  O   UNL     1     -28.070 -18.715  12.380  1.00  0.00    -0.550 OA
ATOM     10  O   UNL     1     -28.282 -16.635  11.442  1.00  0.00    -0.550 OA
ENDBRANCH   7   8
ENDBRANCH   6   7
ENDBRANCH   5   6
ENDBRANCH   4   5
ENDBRANCH   3   4
ENDBRANCH   2   3
ENDBRANCH   1   2
BRANCH   1  11
ATOM     11  C   UNL     1     -25.962 -13.577  18.099  1.00  0.00     0.000 C 
BRANCH  11  12
ATOM     12  C   UNL     1     -25.497 -12.501  17.104  1.00  0.00     0.000 C 
BRANCH  12  13
ATOM     13  C   UNL     1     -26.610 -11.503  16.745  1.00  0.00     0.000 C 
BRANCH  13  14
ATOM     14  C   UNL     1     -27.698 -11.415  17.829  1.00  0.00     0.000 C 
BRANCH  14  15
ATOM     15  C   UNL     1     -29.114 -11.318  17.237  1.00  0.00     0.000 C 
BRANCH  15  16
ATOM     16  C   UNL     1     -29.938 -12.599  17.456  1.00  0.00     0.006 C 
BRANCH  16  17
ATOM     17  C   UNL     1     -30.310 -13.281  16.132  1.00  0.00     0.053 C 
BRANCH  17  18
ATOM     18  C   UNL     1     -31.637 -13.969  16.215  1.00  0.00     0.041 C 
ATOM     19  O   UNL     1     -31.990 -14.777  15.314  1.00  0.00    -0.550 OA
ATOM     20  O   UNL     1     -32.500 -13.695  17.269  1.00  0.00    -0.550 OA
ENDBRANCH  17  18
ENDBRANCH  16  17
ENDBRANCH  15  16
ENDBRANCH  14  15
ENDBRANCH  13  14
ENDBRANCH  12  13
ENDBRANCH  11  12
ENDBRANCH   1  11
TORSDOF 15
ENDMDL
MODEL 2
REMARK VINA RESULT:    -4.650      1.047      5.751
REMARK INTER + INTRA:         -10.307
REMARK INTER:                  -8.767
REMARK INTRA:                  -1.541
REMARK UNBOUND:                -1.579
REMARK SMILES O=C([O-])CCCCCCCCCCCCCCC(=O)[O-]
REMARK SMILES IDX 10 1 9 2 8 3 7 4 6 5 5 6 4 7 2 8 1 9 3 10 11 11 12 12 13 13
REMARK SMILES IDX 14 14 15 15 16 16 17 17 18 18 19 19 20 20
REMARK H PARENT
REMARK Flexibility Score: inf
ROOT
ATOM      1  C   UNL     1     -26.595 -13.865  18.119  1.00  0.00     0.000 C 
ENDROOT
BRANCH   1   2
ATOM      2  C   UNL     1     -25.998 -12.506  17.722  1.00  0.00     0.000 C 
BRANCH   2   3
ATOM      3  C   UNL     1     -26.873 -11.745  16.713  1.00  0.00     0.000 C 
BRANCH   3   4
ATOM      4  C   UNL     1     -27.731 -10.656  17.379  1.00  0.00     0.000 C 
BRANCH   4   5
ATOM      5  C   UNL     1     -29.189 -11.098  17.585  1.00  0.00     0.000 C 
BRANCH   5   6
ATOM      6  C   UNL     1     -29.622 -12.199  16.606  1.00  0.00     0.006 C 
BRANCH   6   7
ATOM      7  C   UNL     1     -30.406 -13.297  17.328  1.00  0.00     0.053 C 
BRANCH   7   8
ATOM      8  C   UNL     1     -31.394 -13.933  16.401  1.00  0.00     0.041 C 
ATOM      9  O   UNL     1     -32.625 -13.705  16.534  1.00  0.00    -0.550 OA
ATOM     10  O   UNL     1     -30.951 -14.737  15.358  1.00  0.00    -0.550 OA
ENDBRANCH   7   8
ENDBRANCH   6   7
ENDBRANCH   5   6
ENDBRANCH   4   5
ENDBRANCH   3   4
ENDBRANCH   2   3
ENDBRANCH   1   2
BRANCH   1  11
ATOM     11  C   UNL     1     -25.863 -15.013  17.413  1.00  0.00     0.000 C 
BRANCH  11  12
ATOM     12  C   UNL     1     -26.646 -16.329  17.547  1.00  0.00     0.000 C 
BRANCH  12  13
ATOM     13  C   UNL     1     -28.163 -16.136  17.392  1.00  0.00     0.000 C 
BRANCH  13  14
ATOM     14  C   UNL     1     -28.819 -17.248  16.555  1.00  0.00     0.000 C 
BRANCH  14  15
ATOM     15  C   UNL     1     -27.816 -17.958  15.630  1.00  0.00     0.000 C 
BRANCH  15  16
ATOM     16  C   UNL     1     -28.503 -18.858  14.588  1.00  0.00     0.006 C 
BRANCH  16  17
ATOM     17  C   UNL     1     -28.024 -18.561  13.161  1.00  0.00     0.053 C 
BRANCH  17  18
ATOM     18  C   UNL     1     -28.866 -17.516  12.497  1.00  0.00     0.041 C 
ATOM     19  O   UNL     1     -30.072 -17.368  12.831  1.00  0.00    -0.550 OA
ATOM     20  O   UNL     1     -28.331 -16.729  11.485  1.00  0.00    -0.550 OA
ENDBRANCH  17  18
ENDBRANCH  16  17
ENDBRANCH  15  16
ENDBRANCH  14  15
ENDBRANCH  13  14
ENDBRANCH  12  13
ENDBRANCH  11  12
ENDBRANCH   1  11
TORSDOF 15
ENDMDL
MODEL 3
REMARK VINA RESULT:    -4.636      1.319      5.095
REMARK INTER + INTRA:         -10.281
REMARK INTER:                  -8.387
REMARK INTRA:                  -1.893
REMARK UNBOUND:                -1.579
REMARK SMILES O=C([O-])CCCCCCCCCCCCCCC(=O)[O-]
REMARK SMILES IDX 10 1 9 2 8 3 7 4 6 5 5 6 4 7 2 8 1 9 3 10 11 11 12 12 13 13
REMARK SMILES IDX 14 14 15 15 16 16 17 17 18 18 19 19 20 20
REMARK H PARENT
REMARK Flexibility Score: inf
ROOT
ATOM      1  C   UNL     1     -26.930 -11.743  16.638  1.00  0.00     0.000 C 
ENDROOT
BRANCH   1   2
ATOM      2  C   UNL     1     -27.649 -10.661  17.459  1.00  0.00     0.000 C 
BRANCH   2   3
ATOM      3  C   UNL     1     -29.178 -10.816  17.437  1.00  0.00     0.000 C 
BRANCH   3   4
ATOM      4  C   UNL     1     -29.631 -12.098  16.717  1.00  0.00     0.000 C 
BRANCH   4   5
ATOM      5  C   UNL     1     -30.317 -13.096  17.665  1.00  0.00     0.000 C 
BRANCH   5   6
ATOM      6  C   UNL     1     -30.150 -14.555  17.215  1.00  0.00     0.006 C 
BRANCH   6   7
ATOM      7  C   UNL     1     -30.211 -14.668  15.689  1.00  0.00     0.053 C 
BRANCH   7   8
ATOM      8  C   UNL     1     -31.538 -15.208  15.256  1.00  0.00     0.041 C 
ATOM      9  O   UNL     1     -31.642 -16.407  14.885  1.00  0.00    -0.550 OA
ATOM     10  O   UNL     1     -32.668 -14.403  15.310  1.00  0.00    -0.550 OA
ENDBRANCH   7   8
ENDBRANCH   6   7
ENDBRANCH   5   6
ENDBRANCH   4   5
ENDBRANCH   3   4
ENDBRANCH   2   3
ENDBRANCH   1   2
BRANCH   1  11
ATOM     11  C   UNL     1     -25.905 -12.493  17.497  1.00  0.00     0.000 C 
BRANCH  11  12
ATOM     12  C   UNL     1     -26.530 -13.750  18.125  1.00  0.00     0.000 C 
BRANCH  12  13
ATOM     13  C   UNL     1     -25.893 -15.051  17.610  1.00  0.00     0.000 C 
BRANCH  13  14
ATOM     14  C   UNL     1     -26.919 -16.184  17.439  1.00  0.00     0.000 C 
BRANCH  14  15
ATOM     15  C   UNL     1     -26.256 -17.543  17.161  1.00  0.00     0.000 C 
BRANCH  15  16
ATOM     16  C   UNL     1     -26.660 -18.134  15.799  1.00  0.00     0.006 C 
BRANCH  16  17
ATOM     17  C   UNL     1     -28.095 -17.757  15.407  1.00  0.00     0.053 C 
BRANCH  17  18
ATOM     18  C   UNL     1     -28.405 -18.141  13.994  1.00  0.00     0.041 C 
ATOM     19  O   UNL     1     -28.913 -17.300  13.205  1.00  0.00    -0.550 OA
ATOM     20  O   UNL     1     -28.165 -19.437  13.555  1.00  0.00    -0.550 OA
ENDBRANCH  17  18
ENDBRANCH  16  17
ENDBRANCH  15  16
ENDBRANCH  14  15
ENDBRANCH  13  14
ENDBRANCH  12  13
ENDBRANCH  11  12
ENDBRANCH   1  11
TORSDOF 15
ENDMDL
MODEL 4
REMARK VINA RESULT:    -4.589      1.160      1.834
REMARK INTER + INTRA:         -10.193
REMARK INTER:                  -8.766
REMARK INTRA:                  -1.427
REMARK UNBOUND:                -1.579
REMARK SMILES O=C([O-])CCCCCCCCCCCCCCC(=O)[O-]
REMARK SMILES IDX 10 1 9 2 8 3 7 4 6 5 5 6 4 7 2 8 1 9 3 10 11 11 12 12 13 13
REMARK SMILES IDX 14 14 15 15 16 16 17 17 18 18 19 19 20 20
REMARK H PARENT
REMARK Flexibility Score: inf
ROOT
ATOM      1  C   UNL     1     -25.431 -13.358  17.306  1.00  0.00     0.000 C 
ENDROOT
BRANCH   1   2
ATOM      2  C   UNL     1     -26.577 -14.196  17.893  1.00  0.00     0.000 C 
BRANCH   2   3
ATOM      3  C   UNL     1     -26.422 -15.699  17.608  1.00  0.00     0.000 C 
BRANCH   3   4
ATOM      4  C   UNL     1     -27.679 -16.310  16.965  1.00  0.00     0.000 C 
BRANCH   4   5
ATOM      5  C   UNL     1     -27.389 -17.640  16.250  1.00  0.00     0.000 C 
BRANCH   5   6
ATOM      6  C   UNL     1     -28.578 -18.139  15.416  1.00  0.00     0.006 C 
BRANCH   6   7
ATOM      7  C   UNL     1     -28.205 -18.236  13.934  1.00  0.00     0.053 C 
BRANCH   7   8
ATOM      8  C   UNL     1     -28.977 -17.236  13.133  1.00  0.00     0.041 C 
ATOM      9  O   UNL     1     -29.985 -16.668  13.629  1.00  0.00    -0.550 OA
ATOM     10  O   UNL     1     -28.553 -16.893  11.854  1.00  0.00    -0.550 OA
ENDBRANCH   7   8
ENDBRANCH   6   7
ENDBRANCH   5   6
ENDBRANCH   4   5
ENDBRANCH   3   4
ENDBRANCH   2   3
ENDBRANCH   1   2
BRANCH   1  11
ATOM     11  C   UNL     1     -25.741 -11.859  17.405  1.00  0.00     0.000 C 
BRANCH  11  12
ATOM     12  C   UNL     1     -27.013 -11.509  16.618  1.00  0.00     0.000 C 
BRANCH  12  13
ATOM     13  C   UNL     1     -27.952 -10.569  17.392  1.00  0.00     0.000 C 
BRANCH  13  14
ATOM     14  C   UNL     1     -29.349 -11.176  17.611  1.00  0.00     0.000 C 
BRANCH  14  15
ATOM     15  C   UNL     1     -29.656 -12.316  16.626  1.00  0.00     0.000 C 
BRANCH  15  16
ATOM     16  C   UNL     1     -30.080 -13.615  17.334  1.00  0.00     0.006 C 
BRANCH  16  17
ATOM     17  C   UNL     1     -31.553 -13.583  17.768  1.00  0.00     0.053 C 
BRANCH  17  18
ATOM     18  C   UNL     1     -32.470 -13.982  16.653  1.00  0.00     0.041 C 
ATOM     19  O   UNL     1     -33.681 -13.637  16.676  1.00  0.00    -0.550 OA
ATOM     20  O   UNL     1     -31.995 -14.762  15.606  1.00  0.00    -0.550 OA
ENDBRANCH  17  18
ENDBRANCH  16  17
ENDBRANCH  15  16
ENDBRANCH  14  15
ENDBRANCH  13  14
ENDBRANCH  12  13
ENDBRANCH  11  12
ENDBRANCH   1  11
TORSDOF 15
ENDMDL
MODEL 5
REMARK VINA RESULT:    -4.571      1.494      5.170
REMARK INTER + INTRA:         -10.159
REMARK INTER:                  -8.586
REMARK INTRA:                  -1.572
REMARK UNBOUND:                -1.579
REMARK SMILES O=C([O-])CCCCCCCCCCCCCCC(=O)[O-]
REMARK SMILES IDX 10 1 9 2 8 3 7 4 6 5 5 6 4 7 2 8 1 9 3 10 11 11 12 12 13 13
REMARK SMILES IDX 14 14 15 15 16 16 17 17 18 18 19 19 20 20
REMARK H PARENT
REMARK Flexibility Score: inf
ROOT
ATOM      1  C   UNL     1     -26.947 -11.754  16.636  1.00  0.00     0.000 C 
ENDROOT
BRANCH   1   2
ATOM      2  C   UNL     1     -27.723 -10.645  17.362  1.00  0.00     0.000 C 
BRANCH   2   3
ATOM      3  C   UNL     1     -29.177 -11.041  17.670  1.00  0.00     0.000 C 
BRANCH   3   4
ATOM      4  C   UNL     1     -29.615 -12.309  16.916  1.00  0.00     0.000 C 
BRANCH   4   5
ATOM      5  C   UNL     1     -30.696 -13.100  17.670  1.00  0.00     0.000 C 
BRANCH   5   6
ATOM      6  C   UNL     1     -31.801 -13.629  16.744  1.00  0.00     0.006 C 
BRANCH   6   7
ATOM      7  C   UNL     1     -33.075 -13.941  17.534  1.00  0.00     0.053 C 
BRANCH   7   8
ATOM      8  C   UNL     1     -34.191 -14.305  16.606  1.00  0.00     0.041 C 
ATOM      9  O   UNL     1     -33.988 -14.367  15.365  1.00  0.00    -0.550 OA
ATOM     10  O   UNL     1     -35.443 -14.624  17.116  1.00  0.00    -0.550 OA
ENDBRANCH   7   8
ENDBRANCH   6   7
ENDBRANCH   5   6
ENDBRANCH   4   5
ENDBRANCH   3   4
ENDBRANCH   2   3
ENDBRANCH   1   2
BRANCH   1  11
ATOM     11  C   UNL     1     -25.546 -11.926  17.237  1.00  0.00     0.000 C 
BRANCH  11  12
ATOM     12  C   UNL     1     -25.456 -13.222  18.058  1.00  0.00     0.000 C 
BRANCH  12  13
ATOM     13  C   UNL     1     -26.616 -14.189  17.771  1.00  0.00     0.000 C 
BRANCH  13  14
ATOM     14  C   UNL     1     -26.162 -15.659  17.717  1.00  0.00     0.000 C 
BRANCH  14  15
ATOM     15  C   UNL     1     -27.140 -16.549  16.933  1.00  0.00     0.000 C 
BRANCH  15  16
ATOM     16  C   UNL     1     -28.491 -15.860  16.669  1.00  0.00     0.006 C 
BRANCH  16  17
ATOM     17  C   UNL     1     -29.512 -16.812  16.032  1.00  0.00     0.053 C 
BRANCH  17  18
ATOM     18  C   UNL     1     -29.751 -16.487  14.590  1.00  0.00     0.041 C 
ATOM     19  O   UNL     1     -29.145 -17.125  13.687  1.00  0.00    -0.550 OA
ATOM     20  O   UNL     1     -30.616 -15.457  14.242  1.00  0.00    -0.550 OA
ENDBRANCH  17  18
ENDBRANCH  16  17
ENDBRANCH  15  16
ENDBRANCH  14  15
ENDBRANCH  13  14
ENDBRANCH  12  13
ENDBRANCH  11  12
ENDBRANCH   1  11
TORSDOF 15
ENDMDL
MODEL 6
REMARK VINA RESULT:    -4.485      1.203      6.364
REMARK INTER + INTRA:          -9.998
REMARK INTER:                  -8.627
REMARK INTRA:                  -1.370
REMARK UNBOUND:                -1.579
REMARK SMILES O=C([O-])CCCCCCCCCCCCCCC(=O)[O-]
REMARK SMILES IDX 10 1 9 2 8 3 7 4 6 5 5 6 4 7 2 8 1 9 3 10 11 11 12 12 13 13
REMARK SMILES IDX 14 14 15 15 16 16 17 17 18 18 19 19 20 20
REMARK H PARENT
REMARK Flexibility Score: inf
ROOT
ATOM      1  C   UNL     1     -27.007 -16.230  17.651  1.00  0.00     0.000 C 
ENDROOT
BRANCH   1   2
ATOM      2  C   UNL     1     -25.868 -15.227  17.416  1.00  0.00     0.000 C 
BRANCH   2   3
ATOM      3  C   UNL     1     -26.179 -13.832  17.984  1.00  0.00     0.000 C 
BRANCH   3   4
ATOM      4  C   UNL     1     -25.668 -12.699  17.078  1.00  0.00     0.000 C 
BRANCH   4   5
ATOM      5  C   UNL     1     -26.732 -11.617  16.829  1.00  0.00     0.000 C 
BRANCH   5   6
ATOM      6  C   UNL     1     -27.797 -11.565  17.934  1.00  0.00     0.006 C 
BRANCH   6   7
ATOM      7  C   UNL     1     -29.163 -11.178  17.360  1.00  0.00     0.053 C 
BRANCH   7   8
ATOM      8  C   UNL     1     -29.973 -12.401  17.067  1.00  0.00     0.041 C 
ATOM      9  O   UNL     1     -30.776 -12.850  17.927  1.00  0.00    -0.550 OA
ATOM     10  O   UNL     1     -29.879 -13.017  15.825  1.00  0.00    -0.550 OA
ENDBRANCH   7   8
ENDBRANCH   6   7
ENDBRANCH   5   6
ENDBRANCH   4   5
ENDBRANCH   3   4
ENDBRANCH   2   3
ENDBRANCH   1   2
BRANCH   1  11
ATOM     11  C   UNL     1     -28.375 -15.548  17.521  1.00  0.00     0.000 C 
BRANCH  11  12
ATOM     12  C   UNL     1     -29.505 -16.588  17.467  1.00  0.00     0.000 C 
BRANCH  12  13
ATOM     13  C   UNL     1     -28.984 -18.022  17.273  1.00  0.00     0.000 C 
BRANCH  13  14
ATOM     14  C   UNL     1     -29.943 -18.893  16.442  1.00  0.00     0.000 C 
BRANCH  14  15
ATOM     15  C   UNL     1     -30.325 -18.237  15.105  1.00  0.00     0.000 C 
BRANCH  15  16
ATOM     16  C   UNL     1     -29.219 -18.365  14.042  1.00  0.00     0.006 C 
BRANCH  16  17
ATOM     17  C   UNL     1     -29.424 -17.392  12.874  1.00  0.00     0.053 C 
BRANCH  17  18
ATOM     18  C   UNL     1     -28.302 -17.466  11.885  1.00  0.00     0.041 C 
ATOM     19  O   UNL     1     -28.400 -16.887  10.770  1.00  0.00    -0.550 OA
ATOM     20  O   UNL     1     -27.161 -18.201  12.181  1.00  0.00    -0.550 OA
ENDBRANCH  17  18
ENDBRANCH  16  17
ENDBRANCH  15  16
ENDBRANCH  14  15
ENDBRANCH  13  14
ENDBRANCH  12  13
ENDBRANCH  11  12
ENDBRANCH   1  11
TORSDOF 15
ENDMDL
MODEL 7
REMARK VINA RESULT:    -4.459      1.280      2.299
REMARK INTER + INTRA:          -9.948
REMARK INTER:                  -8.553
REMARK INTRA:                  -1.395
REMARK UNBOUND:                -1.579
REMARK SMILES O=C([O-])CCCCCCCCCCCCCCC(=O)[O-]
REMARK SMILES IDX 10 1 9 2 8 3 7 4 6 5 5 6 4 7 2 8 1 9 3 10 11 11 12 12 13 13
REMARK SMILES IDX 14 14 15 15 16 16 17 17 18 18 19 19 20 20
REMARK H PARENT
REMARK Flexibility Score: inf
ROOT
ATOM      1  C   UNL     1     -28.051 -15.495  17.351  1.00  0.00     0.000 C 
ENDROOT
BRANCH   1   2
ATOM      2  C   UNL     1     -29.211 -16.411  17.771  1.00  0.00     0.000 C 
BRANCH   2   3
ATOM      3  C   UNL     1     -30.152 -16.752  16.604  1.00  0.00     0.000 C 
BRANCH   3   4
ATOM      4  C   UNL     1     -29.401 -16.923  15.272  1.00  0.00     0.000 C 
BRANCH   4   5
ATOM      5  C   UNL     1     -30.262 -16.543  14.056  1.00  0.00     0.000 C 
BRANCH   5   6
ATOM      6  C   UNL     1     -29.991 -17.433  12.834  1.00  0.00     0.006 C 
BRANCH   6   7
ATOM      7  C   UNL     1     -28.636 -17.100  12.204  1.00  0.00     0.053 C 
BRANCH   7   8
ATOM      8  C   UNL     1     -27.798 -18.334  12.082  1.00  0.00     0.041 C 
ATOM      9  O   UNL     1     -27.518 -18.800  10.946  1.00  0.00    -0.550 OA
ATOM     10  O   UNL     1     -27.284 -18.941  13.221  1.00  0.00    -0.550 OA
ENDBRANCH   7   8
ENDBRANCH   6   7
ENDBRANCH   5   6
ENDBRANCH   4   5
ENDBRANCH   3   4
ENDBRANCH   2   3
ENDBRANCH   1   2
BRANCH   1  11
ATOM     11  C   UNL     1     -26.726 -15.976  17.955  1.00  0.00     0.000 C 
BRANCH  11  12
ATOM     12  C   UNL     1     -25.585 -15.001  17.622  1.00  0.00     0.000 C 
BRANCH  12  13
ATOM     13  C   UNL     1     -25.877 -13.564  18.083  1.00  0.00     0.000 C 
BRANCH  13  14
ATOM     14  C   UNL     1     -25.580 -12.521  16.992  1.00  0.00     0.000 C 
BRANCH  14  15
ATOM     15  C   UNL     1     -26.751 -11.549  16.773  1.00  0.00     0.000 C 
BRANCH  15  16
ATOM     16  C   UNL     1     -27.853 -11.695  17.838  1.00  0.00     0.006 C 
BRANCH  16  17
ATOM     17  C   UNL     1     -29.238 -11.323  17.293  1.00  0.00     0.053 C 
BRANCH  17  18
ATOM     18  C   UNL     1     -30.084 -12.534  17.048  1.00  0.00     0.041 C 
ATOM     19  O   UNL     1     -30.871 -12.949  17.939  1.00  0.00    -0.550 OA
ATOM     20  O   UNL     1     -29.978 -13.226  15.847  1.00  0.00    -0.550 OA
ENDBRANCH  17  18
ENDBRANCH  16  17
ENDBRANCH  15  16
ENDBRANCH  14  15
ENDBRANCH  13  14
ENDBRANCH  12  13
ENDBRANCH  11  12
ENDBRANCH   1  11
TORSDOF 15
ENDMDL
MODEL 8
REMARK VINA RESULT:    -4.435      2.601      5.422
REMARK INTER + INTRA:          -9.903
REMARK INTER:                  -8.378
REMARK INTRA:                  -1.525
REMARK UNBOUND:                -1.579
REMARK SMILES O=C([O-])CCCCCCCCCCCCCCC(=O)[O-]
REMARK SMILES IDX 10 1 9 2 8 3 7 4 6 5 5 6 4 7 2 8 1 9 3 10 11 11 12 12 13 13
REMARK SMILES IDX 14 14 15 15 16 16 17 17 18 18 19 19 20 20
REMARK H PARENT
REMARK Flexibility Score: inf
ROOT
ATOM      1  C   UNL     1     -29.557 -12.166  16.741  1.00  0.00     0.000 C 
ENDROOT
BRANCH   1   2
ATOM      2  C   UNL     1     -30.437 -13.018  17.668  1.00  0.00     0.000 C 
BRANCH   2   3
ATOM      3  C   UNL     1     -30.521 -14.488  17.222  1.00  0.00     0.000 C 
BRANCH   3   4
ATOM      4  C   UNL     1     -30.703 -14.633  15.701  1.00  0.00     0.000 C 
BRANCH   4   5
ATOM      5  C   UNL     1     -31.842 -15.598  15.333  1.00  0.00     0.000 C 
BRANCH   5   6
ATOM      6  C   UNL     1     -33.208 -15.133  15.856  1.00  0.00     0.006 C 
BRANCH   6   7
ATOM      7  C   UNL     1     -33.488 -13.685  15.444  1.00  0.00     0.053 C 
BRANCH   7   8
ATOM      8  C   UNL     1     -34.834 -13.252  15.932  1.00  0.00     0.041 C 
ATOM      9  O   UNL     1     -35.717 -12.883  15.113  1.00  0.00    -0.550 OA
ATOM     10  O   UNL     1     -35.131 -13.302  17.289  1.00  0.00    -0.550 OA
ENDBRANCH   7   8
ENDBRANCH   6   7
ENDBRANCH   5   6
ENDBRANCH   4   5
ENDBRANCH   3   4
ENDBRANCH   2   3
ENDBRANCH   1   2
BRANCH   1  11
ATOM     11  C   UNL     1     -29.111 -10.876  17.442  1.00  0.00     0.000 C 
BRANCH  11  12
ATOM     12  C   UNL     1     -27.604 -10.906  17.740  1.00  0.00     0.000 C 
BRANCH  12  13
ATOM     13  C   UNL     1     -26.792 -11.589  16.627  1.00  0.00     0.000 C 
BRANCH  13  14
ATOM     14  C   UNL     1     -25.701 -12.524  17.180  1.00  0.00     0.000 C 
BRANCH  14  15
ATOM     15  C   UNL     1     -26.268 -13.597  18.124  1.00  0.00     0.000 C 
BRANCH  15  16
ATOM     16  C   UNL     1     -26.850 -14.805  17.368  1.00  0.00     0.006 C 
BRANCH  16  17
ATOM     17  C   UNL     1     -26.015 -16.076  17.578  1.00  0.00     0.053 C 
BRANCH  17  18
ATOM     18  C   UNL     1     -26.663 -17.276  16.960  1.00  0.00     0.041 C 
ATOM     19  O   UNL     1     -26.116 -18.407  17.047  1.00  0.00    -0.550 OA
ATOM     20  O   UNL     1     -27.854 -17.139  16.257  1.00  0.00    -0.550 OA
ENDBRANCH  17  18
ENDBRANCH  16  17
ENDBRANCH  15  16
ENDBRANCH  14  15
ENDBRANCH  13  14
ENDBRANCH  12  13
ENDBRANCH  11  12
ENDBRANCH   1  11
TORSDOF 15
ENDMDL
MODEL 9
REMARK VINA RESULT:    -4.398      1.798      5.162
REMARK INTER + INTRA:          -9.834
REMARK INTER:                  -8.063
REMARK INTRA:                  -1.771
REMARK UNBOUND:                -1.579
REMARK SMILES O=C([O-])CCCCCCCCCCCCCCC(=O)[O-]
REMARK SMILES IDX 10 1 9 2 8 3 7 4 6 5 5 6 4 7 2 8 1 9 3 10 11 11 12 12 13 13
REMARK SMILES IDX 14 14 15 15 16 16 17 17 18 18 19 19 20 20
REMARK H PARENT
REMARK Flexibility Score: inf
ROOT
ATOM      1  C   UNL     1     -25.834 -12.627  17.429  1.00  0.00     0.000 C 
ENDROOT
BRANCH   1   2
ATOM      2  C   UNL     1     -26.808 -11.763  16.615  1.00  0.00     0.000 C 
BRANCH   2   3
ATOM      3  C   UNL     1     -27.567 -10.745  17.482  1.00  0.00     0.000 C 
BRANCH   3   4
ATOM      4  C   UNL     1     -29.073 -11.047  17.565  1.00  0.00     0.000 C 
BRANCH   4   5
ATOM      5  C   UNL     1     -29.501 -12.180  16.618  1.00  0.00     0.000 C 
BRANCH   5   6
ATOM      6  C   UNL     1     -30.283 -13.290  17.334  1.00  0.00     0.006 C 
BRANCH   6   7
ATOM      7  C   UNL     1     -29.987 -14.658  16.712  1.00  0.00     0.053 C 
BRANCH   7   8
ATOM      8  C   UNL     1     -30.824 -14.870  15.490  1.00  0.00     0.041 C 
ATOM      9  O   UNL     1     -30.285 -15.209  14.404  1.00  0.00    -0.550 OA
ATOM     10  O   UNL     1     -32.206 -14.741  15.563  1.00  0.00    -0.550 OA
ENDBRANCH   7   8
ENDBRANCH   6   7
ENDBRANCH   5   6
ENDBRANCH   4   5
ENDBRANCH   3   4
ENDBRANCH   2   3
ENDBRANCH   1   2
BRANCH   1  11
ATOM     11  C   UNL     1     -26.570 -13.783  18.118  1.00  0.00     0.000 C 
BRANCH  11  12
ATOM     12  C   UNL     1     -26.230 -15.126  17.452  1.00  0.00     0.000 C 
BRANCH  12  13
ATOM     13  C   UNL     1     -26.930 -16.318  18.125  1.00  0.00     0.000 C 
BRANCH  13  14
ATOM     14  C   UNL     1     -26.864 -17.599  17.276  1.00  0.00     0.000 C 
BRANCH  14  15
ATOM     15  C   UNL     1     -27.736 -17.513  16.012  1.00  0.00     0.000 C 
BRANCH  15  16
ATOM     16  C   UNL     1     -28.554 -18.794  15.766  1.00  0.00     0.006 C 
BRANCH  16  17
ATOM     17  C   UNL     1     -29.724 -18.557  14.801  1.00  0.00     0.053 C 
BRANCH  17  18
ATOM     18  C   UNL     1     -31.024 -19.023  15.379  1.00  0.00     0.041 C 
ATOM     19  O   UNL     1     -31.842 -18.189  15.852  1.00  0.00    -0.550 OA
ATOM     20  O   UNL     1     -31.319 -20.380  15.427  1.00  0.00    -0.550 OA
ENDBRANCH  17  18
ENDBRANCH  16  17
ENDBRANCH  15  16
ENDBRANCH  14  15
ENDBRANCH  13  14
ENDBRANCH  12  13
ENDBRANCH  11  12
ENDBRANCH   1  11
TORSDOF 15
ENDMDL
