MODEL 1
REMARK VINA RESULT:    -3.242      0.000      0.000
REMARK INTER + INTRA:          -4.155
REMARK INTER:                  -4.000
REMARK INTRA:                  -0.155
REMARK UNBOUND:                -0.155
REMARK SMILES CCCCCC(=O)[O-]
REMARK SMILES IDX 4 1 5 2 6 3 7 4 8 5 3 6 2 7 1 8
REMARK H PARENT
REMARK Flexibility Score: inf
ROOT
ATOM      1  C   UNL     1     121.194  72.674   2.865  1.00  0.00     0.006 C 
ENDROOT
BRANCH   1   2
ATOM      2  C   UNL     1     120.066  72.459   3.880  1.00  0.00     0.053 C 
BRANCH   2   3
ATOM      3  C   UNL     1     120.474  71.456   4.912  1.00  0.00     0.041 C 
ATOM      4  O   UNL     1     121.393  70.631   4.665  1.00  0.00    -0.550 OA
ATOM      5  O   UNL     1     119.875  71.465   6.165  1.00  0.00    -0.550 OA
ENDBRANCH   2   3
ENDBRANCH   1   2
BRANCH   1   6
ATOM      6  C   UNL     1     120.669  72.548   1.427  1.00  0.00     0.000 C 
BRANCH   6   7
ATOM      7  C   UNL     1     120.145  71.138   1.111  1.00  0.00    -0.003 C 
ATOM      8  C   UNL     1     121.065  70.363   0.168  1.00  0.00     0.004 C 
ENDBRANCH   6   7
ENDBRANCH   1   6
TORSDOF 4
ENDMDL
MODEL 2
REMARK VINA RESULT:    -3.150      3.159      4.957
REMARK INTER + INTRA:          -4.042
REMARK INTER:                  -3.966
REMARK INTRA:                  -0.077
REMARK UNBOUND:                -0.155
REMARK SMILES CCCCCC(=O)[O-]
REMARK SMILES IDX 4 1 5 2 6 3 7 4 8 5 3 6 2 7 1 8
REMARK H PARENT
REMARK Flexibility Score: inf
ROOT
ATOM      1  C   UNL     1     121.245  70.202  -0.029  1.00  0.00     0.006 C 
ENDROOT
BRANCH   1   2
ATOM      2  C   UNL     1     120.439  69.158  -0.808  1.00  0.00     0.053 C 
BRANCH   2   3
ATOM      3  C   UNL     1     120.464  67.841  -0.099  1.00  0.00     0.041 C 
ATOM      4  O   UNL     1     120.146  67.770   1.118  1.00  0.00    -0.550 OA
ATOM      5  O   UNL     1     120.791  66.683  -0.794  1.00  0.00    -0.550 OA
ENDBRANCH   2   3
ENDBRANCH   1   2
BRANCH   1   6
ATOM      6  C   UNL     1     120.317  71.240   0.621  1.00  0.00     0.000 C 
BRANCH   6   7
ATOM      7  C   UNL     1     120.893  71.812   1.926  1.00  0.00    -0.003 C 
ATOM      8  C   UNL     1     120.791  73.335   1.999  1.00  0.00     0.004 C 
ENDBRANCH   6   7
ENDBRANCH   1   6
TORSDOF 4
ENDMDL
MODEL 3
REMARK VINA RESULT:    -3.057      1.609      2.522
REMARK INTER + INTRA:          -3.928
REMARK INTER:                  -3.843
REMARK INTRA:                  -0.084
REMARK UNBOUND:                -0.155
REMARK SMILES CCCCCC(=O)[O-]
REMARK SMILES IDX 4 1 5 2 6 3 7 4 8 5 3 6 2 7 1 8
REMARK H PARENT
REMARK Flexibility Score: inf
ROOT
ATOM      1  C   UNL     1     120.671  71.246   0.820  1.00  0.00     0.006 C 
ENDROOT
BRANCH   1   2
ATOM      2  C   UNL     1     120.081  70.960   2.205  1.00  0.00     0.053 C 
BRANCH   2   3
ATOM      3  C   UNL     1     120.930  71.574   3.273  1.00  0.00     0.041 C 
ATOM      4  O   UNL     1     121.297  72.775   3.178  1.00  0.00    -0.550 OA
ATOM      5  O   UNL     1     121.273  70.836   4.398  1.00  0.00    -0.550 OA
ENDBRANCH   2   3
ENDBRANCH   1   2
BRANCH   1   6
ATOM      6  C   UNL     1     120.270  70.155  -0.184  1.00  0.00     0.000 C 
BRANCH   6   7
ATOM      7  C   UNL     1     121.320  69.039  -0.295  1.00  0.00    -0.003 C 
ATOM      8  C   UNL     1     120.696  67.657  -0.484  1.00  0.00     0.004 C 
ENDBRANCH   6   7
ENDBRANCH   1   6
TORSDOF 4
ENDMDL
MODEL 4
REMARK VINA RESULT:    -3.001      3.170      4.651
REMARK INTER + INTRA:          -3.857
REMARK INTER:                  -3.758
REMARK INTRA:                  -0.099
REMARK UNBOUND:                -0.155
REMARK SMILES CCCCCC(=O)[O-]
REMARK SMILES IDX 4 1 5 2 6 3 7 4 8 5 3 6 2 7 1 8
REMARK H PARENT
REMARK Flexibility Score: inf
ROOT
ATOM      1  C   UNL     1     120.996  71.495   1.056  1.00  0.00     0.006 C 
ENDROOT
BRANCH   1   2
ATOM      2  C   UNL     1     120.029  70.678   0.193  1.00  0.00     0.053 C 
BRANCH   2   3
ATOM      3  C   UNL     1     120.777  69.668  -0.619  1.00  0.00     0.041 C 
ATOM      4  O   UNL     1     121.761  69.058  -0.122  1.00  0.00    -0.550 OA
ATOM      5  O   UNL     1     120.358  69.363  -1.908  1.00  0.00    -0.550 OA
ENDBRANCH   2   3
ENDBRANCH   1   2
BRANCH   1   6
ATOM      6  C   UNL     1     120.370  72.838   1.460  1.00  0.00     0.000 C 
BRANCH   6   7
ATOM      7  C   UNL     1     120.306  73.025   2.984  1.00  0.00    -0.003 C 
ATOM      8  C   UNL     1     120.940  71.864   3.749  1.00  0.00     0.004 C 
ENDBRANCH   6   7
ENDBRANCH   1   6
TORSDOF 4
ENDMDL
MODEL 5
REMARK VINA RESULT:    -2.772      1.744      2.396
REMARK INTER + INTRA:          -3.575
REMARK INTER:                  -3.499
REMARK INTRA:                  -0.077
REMARK UNBOUND:                -0.155
REMARK SMILES CCCCCC(=O)[O-]
REMARK SMILES IDX 4 1 5 2 6 3 7 4 8 5 3 6 2 7 1 8
REMARK H PARENT
REMARK Flexibility Score: inf
ROOT
ATOM      1  C   UNL     1     120.231  72.328   4.318  1.00  0.00     0.006 C 
ENDROOT
BRANCH   1   2
ATOM      2  C   UNL     1     120.272  71.238   5.393  1.00  0.00     0.053 C 
BRANCH   2   3
ATOM      3  C   UNL     1     120.323  71.850   6.758  1.00  0.00     0.041 C 
ATOM      4  O   UNL     1     120.627  71.146   7.757  1.00  0.00    -0.550 OA
ATOM      5  O   UNL     1     120.086  73.209   6.920  1.00  0.00    -0.550 OA
ENDBRANCH   2   3
ENDBRANCH   1   2
BRANCH   1   6
ATOM      6  C   UNL     1     121.310  72.087   3.251  1.00  0.00     0.000 C 
BRANCH   6   7
ATOM      7  C   UNL     1     120.812  72.390   1.829  1.00  0.00    -0.003 C 
ATOM      8  C   UNL     1     120.245  73.801   1.689  1.00  0.00     0.004 C 
ENDBRANCH   6   7
ENDBRANCH   1   6
TORSDOF 4
ENDMDL
MODEL 6
REMARK VINA RESULT:    -2.723      3.077      4.524
REMARK INTER + INTRA:          -3.515
REMARK INTER:                  -3.461
REMARK INTRA:                  -0.054
REMARK UNBOUND:                -0.155
REMARK SMILES CCCCCC(=O)[O-]
REMARK SMILES IDX 4 1 5 2 6 3 7 4 8 5 3 6 2 7 1 8
REMARK H PARENT
REMARK Flexibility Score: inf
ROOT
ATOM      1  C   UNL     1     120.857  69.109   0.077  1.00  0.00     0.006 C 
ENDROOT
BRANCH   1   2
ATOM      2  C   UNL     1     120.157  70.458  -0.112  1.00  0.00     0.053 C 
BRANCH   2   3
ATOM      3  C   UNL     1     120.498  71.387   1.010  1.00  0.00     0.041 C 
ATOM      4  O   UNL     1     121.375  71.065   1.855  1.00  0.00    -0.550 OA
ATOM      5  O   UNL     1     119.884  72.630   1.095  1.00  0.00    -0.550 OA
ENDBRANCH   2   3
ENDBRANCH   1   2
BRANCH   1   6
ATOM      6  C   UNL     1     120.011  67.965  -0.504  1.00  0.00     0.000 C 
BRANCH   6   7
ATOM      7  C   UNL     1     120.793  66.647  -0.609  1.00  0.00    -0.003 C 
ATOM      8  C   UNL     1     120.193  65.534   0.249  1.00  0.00     0.004 C 
ENDBRANCH   6   7
ENDBRANCH   1   6
TORSDOF 4
ENDMDL
MODEL 7
REMARK VINA RESULT:    -2.708      2.685      3.899
REMARK INTER + INTRA:          -3.496
REMARK INTER:                  -3.443
REMARK INTRA:                  -0.053
REMARK UNBOUND:                -0.155
REMARK SMILES CCCCCC(=O)[O-]
REMARK SMILES IDX 4 1 5 2 6 3 7 4 8 5 3 6 2 7 1 8
REMARK H PARENT
REMARK Flexibility Score: inf
ROOT
ATOM      1  C   UNL     1     119.933  72.492   6.422  1.00  0.00     0.006 C 
ENDROOT
BRANCH   1   2
ATOM      2  C   UNL     1     120.718  71.740   7.502  1.00  0.00     0.053 C 
BRANCH   2   3
ATOM      3  C   UNL     1     120.646  72.471   8.805  1.00  0.00     0.041 C 
ATOM      4  O   UNL     1     120.755  73.726   8.835  1.00  0.00    -0.550 OA
ATOM      5  O   UNL     1     120.409  71.773   9.982  1.00  0.00    -0.550 OA
ENDBRANCH   2   3
ENDBRANCH   1   2
BRANCH   1   6
ATOM      6  C   UNL     1     120.086  71.807   5.055  1.00  0.00     0.000 C 
BRANCH   6   7
ATOM      7  C   UNL     1     120.249  72.812   3.905  1.00  0.00    -0.003 C 
ATOM      8  C   UNL     1     121.033  72.240   2.725  1.00  0.00     0.004 C 
ENDBRANCH   6   7
ENDBRANCH   1   6
TORSDOF 4
ENDMDL
MODEL 8
REMARK VINA RESULT:    -2.657      3.238      5.798
REMARK INTER + INTRA:          -3.434
REMARK INTER:                  -3.316
REMARK INTRA:                  -0.118
REMARK UNBOUND:                -0.155
REMARK SMILES CCCCCC(=O)[O-]
REMARK SMILES IDX 4 1 5 2 6 3 7 4 8 5 3 6 2 7 1 8
REMARK H PARENT
REMARK Flexibility Score: inf
ROOT
ATOM      1  C   UNL     1     120.980  71.562   7.772  1.00  0.00     0.006 C 
ENDROOT
BRANCH   1   2
ATOM      2  C   UNL     1     120.083  70.990   6.669  1.00  0.00     0.053 C 
BRANCH   2   3
ATOM      3  C   UNL     1     120.561  71.435   5.322  1.00  0.00     0.041 C 
ATOM      4  O   UNL     1     121.366  70.720   4.668  1.00  0.00    -0.550 OA
ATOM      5  O   UNL     1     120.079  72.613   4.768  1.00  0.00    -0.550 OA
ENDBRANCH   2   3
ENDBRANCH   1   2
BRANCH   1   6
ATOM      6  C   UNL     1     120.458  72.924   8.252  1.00  0.00     0.000 C 
BRANCH   6   7
ATOM      7  C   UNL     1     120.088  72.923   9.743  1.00  0.00    -0.003 C 
ATOM      8  C   UNL     1     119.985  71.514  10.326  1.00  0.00     0.004 C 
ENDBRANCH   6   7
ENDBRANCH   1   6
TORSDOF 4
ENDMDL
