MODEL 1
REMARK VINA RESULT:     1.078      0.000      0.000
REMARK INTER + INTRA:           1.809
REMARK INTER:                   1.298
REMARK INTRA:                   0.511
REMARK UNBOUND:                 0.511
REMARK SMILES O=c1c(O)c(-c2ccc(O)c(O)c2)oc2cc(O)cc(O)c12
REMARK SMILES IDX 5 1 3 2 2 3 1 4 22 5 20 6 19 7 17 8 16 9 15 10 14 11 6 12
REMARK SMILES IDX 7 13 8 14 9 15 13 16 11 17 10 18 12 20 4 22 21 24 18 26
REMARK H PARENT 10 19 12 21 4 23 21 25 18 27
REMARK Flexibility Score: inf
ROOT
ATOM      1  C   UNL     1     -10.662  -3.422  11.144  1.00  0.00     0.180 A 
ATOM      2  C   UNL     1     -10.304  -2.813  12.360  1.00  0.00     0.208 A 
ATOM      3  C   UNL     1     -10.218  -3.603  13.518  1.00  0.00     0.238 A 
ATOM      4  O   UNL     1      -9.844  -3.062  14.592  1.00  0.00    -0.285 OA
ATOM      5  C   UNL     1     -10.508  -4.986  13.449  1.00  0.00     0.111 A 
ATOM      6  C   UNL     1     -10.491  -5.874  14.567  1.00  0.00     0.134 A 
ATOM      7  C   UNL     1     -10.666  -7.247  14.361  1.00  0.00     0.093 A 
ATOM      8  C   UNL     1     -10.921  -7.758  13.086  1.00  0.00     0.123 A 
ATOM      9  C   UNL     1     -10.998  -6.892  11.998  1.00  0.00     0.094 A 
ATOM     10  C   UNL     1     -10.792  -5.522  12.166  1.00  0.00     0.146 A 
ATOM     11  O   UNL     1     -10.863  -4.733  11.099  1.00  0.00    -0.452 OA
ENDROOT
BRANCH   1  12
ATOM     12  C   UNL     1     -10.797  -2.651   9.887  1.00  0.00     0.025 A 
ATOM     13  C   UNL     1     -10.758  -1.250   9.929  1.00  0.00     0.016 A 
ATOM     14  C   UNL     1     -10.863  -0.502   8.752  1.00  0.00     0.051 A 
ATOM     15  C   UNL     1     -10.993  -1.145   7.517  1.00  0.00     0.157 A 
ATOM     16  C   UNL     1     -10.907  -3.296   8.641  1.00  0.00     0.062 A 
ATOM     17  C   UNL     1     -11.011  -2.548   7.459  1.00  0.00     0.158 A 
BRANCH  15  18
ATOM     18  O   UNL     1     -11.098  -0.374   6.360  1.00  0.00    -0.504 OA
ATOM     19  H   UNL     1     -11.937  -0.367   5.791  1.00  0.00     0.293 HD
ENDBRANCH  15  18
BRANCH  17  20
ATOM     20  O   UNL     1     -11.125  -3.194   6.229  1.00  0.00    -0.504 OA
ATOM     21  H   UNL     1     -10.599  -4.036   6.021  1.00  0.00     0.293 HD
ENDBRANCH  17  20
ENDBRANCH   1  12
BRANCH   2  22
ATOM     22  O   UNL     1     -10.001  -1.449  12.400  1.00  0.00    -0.502 OA
ATOM     23  H   UNL     1      -9.118  -1.078  12.072  1.00  0.00     0.293 HD
ENDBRANCH   2  22
BRANCH   6  24
ATOM     24  O   UNL     1     -10.338  -5.456  15.893  1.00  0.00    -0.507 OA
ATOM     25  H   UNL     1      -9.974  -6.029  16.638  1.00  0.00     0.293 HD
ENDBRANCH   6  24
BRANCH   8  26
ATOM     26  O   UNL     1     -11.110  -9.125  12.892  1.00  0.00    -0.508 OA
ATOM     27  H   UNL     1     -10.346  -9.784  12.984  1.00  0.00     0.293 HD
ENDBRANCH   8  26
TORSDOF 6
ENDMDL
MODEL 2
REMARK VINA RESULT:     1.187     10.280     11.479
REMARK INTER + INTRA:           1.941
REMARK INTER:                   2.262
REMARK INTRA:                  -0.321
REMARK UNBOUND:                 0.511
REMARK SMILES O=c1c(O)c(-c2ccc(O)c(O)c2)oc2cc(O)cc(O)c12
REMARK SMILES IDX 5 1 3 2 2 3 1 4 22 5 20 6 19 7 17 8 16 9 15 10 14 11 6 12
REMARK SMILES IDX 7 13 8 14 9 15 13 16 11 17 10 18 12 20 4 22 21 24 18 26
REMARK H PARENT 10 19 12 21 4 23 21 25 18 27
REMARK Flexibility Score: inf
ROOT
ATOM      1  C   UNL     1      -7.634  -3.626  22.034  1.00  0.00     0.180 A 
ATOM      2  C   UNL     1      -8.046  -3.594  23.377  1.00  0.00     0.208 A 
ATOM      3  C   UNL     1      -8.731  -4.699  23.907  1.00  0.00     0.238 A 
ATOM      4  O   UNL     1      -9.049  -4.686  25.125  1.00  0.00    -0.285 OA
ATOM      5  C   UNL     1      -9.009  -5.815  23.083  1.00  0.00     0.111 A 
ATOM      6  C   UNL     1      -9.731  -6.973  23.503  1.00  0.00     0.134 A 
ATOM      7  C   UNL     1      -9.833  -8.073  22.642  1.00  0.00     0.093 A 
ATOM      8  C   UNL     1      -9.297  -8.032  21.353  1.00  0.00     0.123 A 
ATOM      9  C   UNL     1      -8.643  -6.884  20.913  1.00  0.00     0.094 A 
ATOM     10  C   UNL     1      -8.491  -5.784  21.761  1.00  0.00     0.146 A 
ATOM     11  O   UNL     1      -7.851  -4.714  21.305  1.00  0.00    -0.452 OA
ENDROOT
BRANCH   1  12
ATOM     12  C   UNL     1      -6.930  -2.489  21.398  1.00  0.00     0.025 A 
ATOM     13  C   UNL     1      -7.674  -1.489  20.753  1.00  0.00     0.016 A 
ATOM     14  C   UNL     1      -7.032  -0.396  20.165  1.00  0.00     0.051 A 
ATOM     15  C   UNL     1      -5.640  -0.279  20.225  1.00  0.00     0.157 A 
ATOM     16  C   UNL     1      -5.531  -2.358  21.475  1.00  0.00     0.062 A 
ATOM     17  C   UNL     1      -4.884  -1.261  20.886  1.00  0.00     0.158 A 
BRANCH  15  18
ATOM     18  O   UNL     1      -5.026   0.821  19.626  1.00  0.00    -0.504 OA
ATOM     19  H   UNL     1      -5.324   1.771  19.811  1.00  0.00     0.293 HD
ENDBRANCH  15  18
BRANCH  17  20
ATOM     20  O   UNL     1      -3.498  -1.142  20.962  1.00  0.00    -0.504 OA
ATOM     21  H   UNL     1      -2.917  -1.902  21.299  1.00  0.00     0.293 HD
ENDBRANCH  17  20
ENDBRANCH   1  12
BRANCH   2  22
ATOM     22  O   UNL     1      -7.742  -2.490  24.180  1.00  0.00    -0.502 OA
ATOM     23  H   UNL     1      -7.477  -2.581  25.153  1.00  0.00     0.293 HD
ENDBRANCH   2  22
BRANCH   6  24
ATOM     24  O   UNL     1     -10.384  -7.080  24.734  1.00  0.00    -0.507 OA
ATOM     25  H   UNL     1     -10.912  -6.341  25.171  1.00  0.00     0.293 HD
ENDBRANCH   6  24
BRANCH   8  26
ATOM     26  O   UNL     1      -9.418  -9.125  20.497  1.00  0.00    -0.508 OA
ATOM     27  H   UNL     1      -8.898  -9.179  19.629  1.00  0.00     0.293 HD
ENDBRANCH   8  26
TORSDOF 6
ENDMDL
MODEL 3
REMARK VINA RESULT:     1.667     10.736     14.406
REMARK INTER + INTRA:           2.519
REMARK INTER:                   2.325
REMARK INTRA:                   0.194
REMARK UNBOUND:                 0.511
REMARK SMILES O=c1c(O)c(-c2ccc(O)c(O)c2)oc2cc(O)cc(O)c12
REMARK SMILES IDX 5 1 3 2 2 3 1 4 22 5 20 6 19 7 17 8 16 9 15 10 14 11 6 12
REMARK SMILES IDX 7 13 8 14 9 15 13 16 11 17 10 18 12 20 4 22 21 24 18 26
REMARK H PARENT 10 19 12 21 4 23 21 25 18 27
REMARK Flexibility Score: inf
ROOT
ATOM      1  C   UNL     1      -3.484   5.076   5.413  1.00  0.00     0.180 A 
ATOM      2  C   UNL     1      -3.607   6.467   5.245  1.00  0.00     0.208 A 
ATOM      3  C   UNL     1      -2.446   7.239   5.079  1.00  0.00     0.238 A 
ATOM      4  O   UNL     1      -2.566   8.475   4.875  1.00  0.00    -0.285 OA
ATOM      5  C   UNL     1      -1.177   6.613   5.098  1.00  0.00     0.111 A 
ATOM      6  C   UNL     1       0.068   7.303   4.978  1.00  0.00     0.134 A 
ATOM      7  C   UNL     1       1.257   6.569   4.878  1.00  0.00     0.093 A 
ATOM      8  C   UNL     1       1.252   5.174   4.959  1.00  0.00     0.123 A 
ATOM      9  C   UNL     1       0.048   4.497   5.136  1.00  0.00     0.094 A 
ATOM     10  C   UNL     1      -1.158   5.198   5.202  1.00  0.00     0.146 A 
ATOM     11  O   UNL     1      -2.284   4.512   5.360  1.00  0.00    -0.452 OA
ENDROOT
BRANCH   1  12
ATOM     12  C   UNL     1      -4.659   4.200   5.619  1.00  0.00     0.025 A 
ATOM     13  C   UNL     1      -5.829   4.430   4.879  1.00  0.00     0.016 A 
ATOM     14  C   UNL     1      -6.944   3.602   5.042  1.00  0.00     0.051 A 
ATOM     15  C   UNL     1      -6.901   2.527   5.934  1.00  0.00     0.157 A 
ATOM     16  C   UNL     1      -4.611   3.105   6.500  1.00  0.00     0.062 A 
ATOM     17  C   UNL     1      -5.728   2.272   6.664  1.00  0.00     0.158 A 
BRANCH  15  18
ATOM     18  O   UNL     1      -8.029   1.720   6.078  1.00  0.00    -0.504 OA
ATOM     19  H   UNL     1      -8.550   1.374   5.280  1.00  0.00     0.293 HD
ENDBRANCH  15  18
BRANCH  17  20
ATOM     20  O   UNL     1      -5.674   1.192   7.543  1.00  0.00    -0.504 OA
ATOM     21  H   UNL     1      -5.088   0.386   7.358  1.00  0.00     0.293 HD
ENDBRANCH  17  20
ENDBRANCH   1  12
BRANCH   2  22
ATOM     22  O   UNL     1      -4.872   7.061   5.208  1.00  0.00    -0.502 OA
ATOM     23  H   UNL     1      -5.373   7.219   4.343  1.00  0.00     0.293 HD
ENDBRANCH   2  22
BRANCH   6  24
ATOM     24  O   UNL     1       0.192   8.695   4.982  1.00  0.00    -0.507 OA
ATOM     25  H   UNL     1       0.468   9.245   5.780  1.00  0.00     0.293 HD
ENDBRANCH   6  24
BRANCH   8  26
ATOM     26  O   UNL     1       2.441   4.453   4.876  1.00  0.00    -0.508 OA
ATOM     27  H   UNL     1       3.335   4.877   5.096  1.00  0.00     0.293 HD
ENDBRANCH   8  26
TORSDOF 6
ENDMDL
MODEL 4
REMARK VINA RESULT:     2.100      1.396      3.106
REMARK INTER + INTRA:           3.040
REMARK INTER:                   2.621
REMARK INTRA:                   0.419
REMARK UNBOUND:                 0.511
REMARK SMILES O=c1c(O)c(-c2ccc(O)c(O)c2)oc2cc(O)cc(O)c12
REMARK SMILES IDX 5 1 3 2 2 3 1 4 22 5 20 6 19 7 17 8 16 9 15 10 14 11 6 12
REMARK SMILES IDX 7 13 8 14 9 15 13 16 11 17 10 18 12 20 4 22 21 24 18 26
REMARK H PARENT 10 19 12 21 4 23 21 25 18 27
REMARK Flexibility Score: inf
ROOT
ATOM      1  C   UNL     1     -10.282  -3.310  11.365  1.00  0.00     0.180 A 
ATOM      2  C   UNL     1     -10.569  -4.686  11.410  1.00  0.00     0.208 A 
ATOM      3  C   UNL     1     -10.324  -5.395  12.596  1.00  0.00     0.238 A 
ATOM      4  O   UNL     1     -10.633  -6.615  12.647  1.00  0.00    -0.285 OA
ATOM      5  C   UNL     1      -9.781  -4.724  13.718  1.00  0.00     0.111 A 
ATOM      6  C   UNL     1      -9.456  -5.352  14.958  1.00  0.00     0.134 A 
ATOM      7  C   UNL     1      -9.047  -4.567  16.043  1.00  0.00     0.093 A 
ATOM      8  C   UNL     1      -8.889  -3.185  15.914  1.00  0.00     0.123 A 
ATOM      9  C   UNL     1      -9.147  -2.572  14.690  1.00  0.00     0.094 A 
ATOM     10  C   UNL     1      -9.592  -3.323  13.600  1.00  0.00     0.146 A 
ATOM     11  O   UNL     1      -9.836  -2.697  12.455  1.00  0.00    -0.452 OA
ENDROOT
BRANCH   1  12
ATOM     12  C   UNL     1     -10.490  -2.501  10.143  1.00  0.00     0.025 A 
ATOM     13  C   UNL     1     -10.399  -1.103  10.217  1.00  0.00     0.016 A 
ATOM     14  C   UNL     1     -10.571  -0.320   9.072  1.00  0.00     0.051 A 
ATOM     15  C   UNL     1     -10.820  -0.923   7.836  1.00  0.00     0.157 A 
ATOM     16  C   UNL     1     -10.721  -3.106   8.894  1.00  0.00     0.062 A 
ATOM     17  C   UNL     1     -10.892  -2.323   7.743  1.00  0.00     0.158 A 
BRANCH  15  18
ATOM     18  O   UNL     1     -10.990  -0.117   6.710  1.00  0.00    -0.504 OA
ATOM     19  H   UNL     1     -10.621   0.825   6.662  1.00  0.00     0.293 HD
ENDBRANCH  15  18
BRANCH  17  20
ATOM     20  O   UNL     1     -11.125  -2.930   6.511  1.00  0.00    -0.504 OA
ATOM     21  H   UNL     1     -11.869  -3.608   6.385  1.00  0.00     0.293 HD
ENDBRANCH  17  20
ENDBRANCH   1  12
BRANCH   2  22
ATOM     22  O   UNL     1     -11.125  -5.324  10.297  1.00  0.00    -0.502 OA
ATOM     23  H   UNL     1     -11.243  -6.329  10.248  1.00  0.00     0.293 HD
ENDBRANCH   2  22
BRANCH   6  24
ATOM     24  O   UNL     1      -9.490  -6.735  15.166  1.00  0.00    -0.507 OA
ATOM     25  H   UNL     1     -10.253  -7.232  15.598  1.00  0.00     0.293 HD
ENDBRANCH   6  24
BRANCH   8  26
ATOM     26  O   UNL     1      -8.466  -2.413  16.994  1.00  0.00    -0.508 OA
ATOM     27  H   UNL     1      -9.100  -2.152  17.739  1.00  0.00     0.293 HD
ENDBRANCH   8  26
TORSDOF 6
ENDMDL
MODEL 5
REMARK VINA RESULT:     2.606      3.697      9.351
REMARK INTER + INTRA:           3.650
REMARK INTER:                   3.732
REMARK INTRA:                  -0.082
REMARK UNBOUND:                 0.511
REMARK SMILES O=c1c(O)c(-c2ccc(O)c(O)c2)oc2cc(O)cc(O)c12
REMARK SMILES IDX 5 1 3 2 2 3 1 4 22 5 20 6 19 7 17 8 16 9 15 10 14 11 6 12
REMARK SMILES IDX 7 13 8 14 9 15 13 16 11 17 10 18 12 20 4 22 21 24 18 26
REMARK H PARENT 10 19 12 21 4 23 21 25 18 27
REMARK Flexibility Score: inf
ROOT
ATOM      1  C   UNL     1     -10.288  -6.962  16.834  1.00  0.00     0.180 A 
ATOM      2  C   UNL     1     -10.005  -7.772  15.720  1.00  0.00     0.208 A 
ATOM      3  C   UNL     1     -10.049  -7.205  14.436  1.00  0.00     0.238 A 
ATOM      4  O   UNL     1      -9.741  -7.922  13.448  1.00  0.00    -0.285 OA
ATOM      5  C   UNL     1     -10.390  -5.840  14.281  1.00  0.00     0.111 A 
ATOM      6  C   UNL     1     -10.503  -5.172  13.024  1.00  0.00     0.134 A 
ATOM      7  C   UNL     1     -10.718  -3.788  12.995  1.00  0.00     0.093 A 
ATOM      8  C   UNL     1     -10.889  -3.060  14.176  1.00  0.00     0.123 A 
ATOM      9  C   UNL     1     -10.839  -3.715  15.404  1.00  0.00     0.094 A 
ATOM     10  C   UNL     1     -10.590  -5.087  15.467  1.00  0.00     0.146 A 
ATOM     11  O   UNL     1     -10.540  -5.670  16.660  1.00  0.00    -0.452 OA
ENDROOT
BRANCH   1  12
ATOM     12  C   UNL     1     -10.287  -7.493  18.215  1.00  0.00     0.025 A 
ATOM     13  C   UNL     1     -11.124  -8.571  18.541  1.00  0.00     0.016 A 
ATOM     14  C   UNL     1     -11.124  -9.102  19.834  1.00  0.00     0.051 A 
ATOM     15  C   UNL     1     -10.278  -8.575  20.814  1.00  0.00     0.157 A 
ATOM     16  C   UNL     1      -9.421  -6.978  19.197  1.00  0.00     0.062 A 
ATOM     17  C   UNL     1      -9.418  -7.511  20.495  1.00  0.00     0.158 A 
BRANCH  15  18
ATOM     18  O   UNL     1     -10.301  -9.124  22.096  1.00  0.00    -0.504 OA
ATOM     19  H   UNL     1      -9.466  -9.482  22.544  1.00  0.00     0.293 HD
ENDBRANCH  15  18
BRANCH  17  20
ATOM     20  O   UNL     1      -8.561  -6.991  21.464  1.00  0.00    -0.504 OA
ATOM     21  H   UNL     1      -7.731  -7.491  21.761  1.00  0.00     0.293 HD
ENDBRANCH  17  20
ENDBRANCH   1  12
BRANCH   2  22
ATOM     22  O   UNL     1      -9.649  -9.112  15.898  1.00  0.00    -0.502 OA
ATOM     23  H   UNL     1      -9.758  -9.806  15.168  1.00  0.00     0.293 HD
ENDBRANCH   2  22
BRANCH   6  24
ATOM     24  O   UNL     1     -10.441  -5.820  11.787  1.00  0.00    -0.507 OA
ATOM     25  H   UNL     1      -9.650  -6.350  11.455  1.00  0.00     0.293 HD
ENDBRANCH   6  24
BRANCH   8  26
ATOM     26  O   UNL     1     -11.119  -1.687  14.137  1.00  0.00    -0.508 OA
ATOM     27  H   UNL     1     -11.764  -1.276  13.473  1.00  0.00     0.293 HD
ENDBRANCH   8  26
TORSDOF 6
ENDMDL
