MODEL 1
REMARK VINA RESULT:    -5.644      0.000      0.000
REMARK INTER + INTRA:          -6.416
REMARK INTER:                  -6.304
REMARK INTRA:                  -0.112
REMARK UNBOUND:                -0.112
REMARK SMILES COc1cc2ccc(=O)oc2cc1OC
REMARK SMILES IDX 3 1 13 2 12 3 11 4 5 5 4 6 6 7 7 8 8 9 9 10 10 11 2 12 1 13
REMARK SMILES IDX 14 14 15 15
REMARK H PARENT
REMARK Flexibility Score: inf
ROOT
ATOM      1  C   UNL     1       7.501  -1.145   0.435  1.00  0.00     0.161 A 
ATOM      2  C   UNL     1       6.631  -2.238   0.278  1.00  0.00     0.164 A 
ATOM      3  C   UNL     1       6.791  -3.381   1.087  1.00  0.00     0.098 A 
ATOM      4  C   UNL     1       7.808  -3.434   2.043  1.00  0.00     0.142 A 
ATOM      5  C   UNL     1       8.681  -2.338   2.200  1.00  0.00     0.022 A 
ATOM      6  C   UNL     1       8.527  -1.200   1.399  1.00  0.00     0.062 A 
ATOM      7  C   UNL     1       9.690  -2.422   3.165  1.00  0.00     0.019 A 
ATOM      8  C   UNL     1       9.803  -3.577   3.938  1.00  0.00     0.094 A 
ATOM      9  C   UNL     1       8.900  -4.625   3.728  1.00  0.00     0.336 A 
ATOM     10  O   UNL     1       8.986  -5.676   4.415  1.00  0.00    -0.246 OA
ATOM     11  O   UNL     1       7.951  -4.518   2.802  1.00  0.00    -0.423 OA
ENDROOT
BRANCH   1  12
ATOM     12  O   UNL     1       7.312  -0.023  -0.389  1.00  0.00    -0.493 OA
ATOM     13  C   UNL     1       7.787   1.286  -0.091  1.00  0.00     0.278 C 
ENDBRANCH   1  12
BRANCH   2  14
ATOM     14  O   UNL     1       5.619  -2.150  -0.692  1.00  0.00    -0.493 OA
ATOM     15  C   UNL     1       4.240  -2.402  -0.446  1.00  0.00     0.278 C 
ENDBRANCH   2  14
TORSDOF 2
ENDMDL
MODEL 2
REMARK VINA RESULT:    -5.549      1.505      5.639
REMARK INTER + INTRA:          -6.310
REMARK INTER:                  -6.230
REMARK INTRA:                  -0.080
REMARK UNBOUND:                -0.112
REMARK SMILES COc1cc2ccc(=O)oc2cc1OC
REMARK SMILES IDX 3 1 13 2 12 3 11 4 5 5 4 6 6 7 7 8 8 9 9 10 10 11 2 12 1 13
REMARK SMILES IDX 14 14 15 15
REMARK H PARENT
REMARK Flexibility Score: inf
ROOT
ATOM      1  C   UNL     1       8.600  -3.833   3.010  1.00  0.00     0.161 A 
ATOM      2  C   UNL     1       9.266  -2.694   3.493  1.00  0.00     0.164 A 
ATOM      3  C   UNL     1       9.122  -1.463   2.824  1.00  0.00     0.098 A 
ATOM      4  C   UNL     1       8.320  -1.366   1.685  1.00  0.00     0.142 A 
ATOM      5  C   UNL     1       7.651  -2.508   1.199  1.00  0.00     0.022 A 
ATOM      6  C   UNL     1       7.792  -3.735   1.860  1.00  0.00     0.062 A 
ATOM      7  C   UNL     1       6.856  -2.380   0.056  1.00  0.00     0.019 A 
ATOM      8  C   UNL     1       6.748  -1.137  -0.567  1.00  0.00     0.094 A 
ATOM      9  C   UNL     1       7.440  -0.047  -0.029  1.00  0.00     0.336 A 
ATOM     10  O   UNL     1       7.356   1.083  -0.575  1.00  0.00    -0.246 OA
ATOM     11  O   UNL     1       8.190  -0.198   1.060  1.00  0.00    -0.423 OA
ENDROOT
BRANCH   1  12
ATOM     12  O   UNL     1       8.767  -5.044   3.701  1.00  0.00    -0.493 OA
ATOM     13  C   UNL     1       9.840  -5.955   3.486  1.00  0.00     0.278 C 
ENDBRANCH   1  12
BRANCH   2  14
ATOM     14  O   UNL     1      10.064  -2.827   4.642  1.00  0.00    -0.493 OA
ATOM     15  C   UNL     1       9.735  -2.292   5.919  1.00  0.00     0.278 C 
ENDBRANCH   2  14
TORSDOF 2
ENDMDL
MODEL 3
REMARK VINA RESULT:    -5.545      1.519      2.856
REMARK INTER + INTRA:          -6.305
REMARK INTER:                  -6.187
REMARK INTRA:                  -0.119
REMARK UNBOUND:                -0.112
REMARK SMILES COc1cc2ccc(=O)oc2cc1OC
REMARK SMILES IDX 3 1 13 2 12 3 11 4 5 5 4 6 6 7 7 8 8 9 9 10 10 11 2 12 1 13
REMARK SMILES IDX 14 14 15 15
REMARK H PARENT
REMARK Flexibility Score: inf
ROOT
ATOM      1  C   UNL     1       7.405  -1.474  -0.345  1.00  0.00     0.161 A 
ATOM      2  C   UNL     1       8.361  -0.545   0.100  1.00  0.00     0.164 A 
ATOM      3  C   UNL     1       9.084  -0.798   1.283  1.00  0.00     0.098 A 
ATOM      4  C   UNL     1       8.858  -1.967   2.014  1.00  0.00     0.142 A 
ATOM      5  C   UNL     1       7.900  -2.899   1.567  1.00  0.00     0.022 A 
ATOM      6  C   UNL     1       7.177  -2.652   0.393  1.00  0.00     0.062 A 
ATOM      7  C   UNL     1       7.696  -4.059   2.322  1.00  0.00     0.019 A 
ATOM      8  C   UNL     1       8.439  -4.259   3.484  1.00  0.00     0.094 A 
ATOM      9  C   UNL     1       9.374  -3.292   3.866  1.00  0.00     0.336 A 
ATOM     10  O   UNL     1      10.055  -3.453   4.911  1.00  0.00    -0.246 OA
ATOM     11  O   UNL     1       9.547  -2.197   3.129  1.00  0.00    -0.423 OA
ENDROOT
BRANCH   1  12
ATOM     12  O   UNL     1       6.702  -1.189  -1.527  1.00  0.00    -0.493 OA
ATOM     13  C   UNL     1       7.038  -1.706  -2.810  1.00  0.00     0.278 C 
ENDBRANCH   1  12
BRANCH   2  14
ATOM     14  O   UNL     1       8.563   0.618  -0.660  1.00  0.00    -0.493 OA
ATOM     15  C   UNL     1       7.912   1.862  -0.422  1.00  0.00     0.278 C 
ENDBRANCH   2  14
TORSDOF 2
ENDMDL
MODEL 4
REMARK VINA RESULT:    -5.523      4.399      6.143
REMARK INTER + INTRA:          -6.281
REMARK INTER:                  -6.161
REMARK INTRA:                  -0.120
REMARK UNBOUND:                -0.112
REMARK SMILES COc1cc2ccc(=O)oc2cc1OC
REMARK SMILES IDX 3 1 13 2 12 3 11 4 5 5 4 6 6 7 7 8 8 9 9 10 10 11 2 12 1 13
REMARK SMILES IDX 14 14 15 15
REMARK H PARENT
REMARK Flexibility Score: inf
ROOT
ATOM      1  C   UNL     1       8.223  -0.726  -5.350  1.00  0.00     0.161 A 
ATOM      2  C   UNL     1       7.492  -1.832  -4.882  1.00  0.00     0.164 A 
ATOM      3  C   UNL     1       7.100  -1.889  -3.530  1.00  0.00     0.098 A 
ATOM      4  C   UNL     1       7.433  -0.855  -2.652  1.00  0.00     0.142 A 
ATOM      5  C   UNL     1       8.165   0.255  -3.121  1.00  0.00     0.022 A 
ATOM      6  C   UNL     1       8.558   0.316  -4.464  1.00  0.00     0.062 A 
ATOM      7  C   UNL     1       8.483   1.274  -2.218  1.00  0.00     0.019 A 
ATOM      8  C   UNL     1       8.070   1.166  -0.891  1.00  0.00     0.094 A 
ATOM      9  C   UNL     1       7.345   0.037  -0.496  1.00  0.00     0.336 A 
ATOM     10  O   UNL     1       6.963  -0.079   0.697  1.00  0.00    -0.246 OA
ATOM     11  O   UNL     1       7.057  -0.918  -1.377  1.00  0.00    -0.423 OA
ENDROOT
BRANCH   1  12
ATOM     12  O   UNL     1       8.597  -0.703  -6.704  1.00  0.00    -0.493 OA
ATOM     13  C   UNL     1       9.883  -1.069  -7.192  1.00  0.00     0.278 C 
ENDBRANCH   1  12
BRANCH   2  14
ATOM     14  O   UNL     1       7.175  -2.854  -5.791  1.00  0.00    -0.493 OA
ATOM     15  C   UNL     1       5.923  -3.531  -5.841  1.00  0.00     0.278 C 
ENDBRANCH   2  14
TORSDOF 2
ENDMDL
MODEL 5
REMARK VINA RESULT:    -5.512      1.981      2.419
REMARK INTER + INTRA:          -6.268
REMARK INTER:                  -6.115
REMARK INTRA:                  -0.153
REMARK UNBOUND:                -0.112
REMARK SMILES COc1cc2ccc(=O)oc2cc1OC
REMARK SMILES IDX 3 1 13 2 12 3 11 4 5 5 4 6 6 7 7 8 8 9 9 10 10 11 2 12 1 13
REMARK SMILES IDX 14 14 15 15
REMARK H PARENT
REMARK Flexibility Score: inf
ROOT
ATOM      1  C   UNL     1       7.887   0.130  -1.165  1.00  0.00     0.161 A 
ATOM      2  C   UNL     1       7.326  -1.068  -1.636  1.00  0.00     0.164 A 
ATOM      3  C   UNL     1       7.381  -2.228  -0.838  1.00  0.00     0.098 A 
ATOM      4  C   UNL     1       7.989  -2.193   0.419  1.00  0.00     0.142 A 
ATOM      5  C   UNL     1       8.552  -0.990   0.892  1.00  0.00     0.022 A 
ATOM      6  C   UNL     1       8.501   0.165   0.102  1.00  0.00     0.062 A 
ATOM      7  C   UNL     1       9.155  -0.988   2.154  1.00  0.00     0.019 A 
ATOM      8  C   UNL     1       9.182  -2.164   2.903  1.00  0.00     0.094 A 
ATOM      9  C   UNL     1       8.602  -3.320   2.370  1.00  0.00     0.336 A 
ATOM     10  O   UNL     1       8.616  -4.391   3.029  1.00  0.00    -0.246 OA
ATOM     11  O   UNL     1       8.036  -3.294   1.165  1.00  0.00    -0.423 OA
ENDROOT
BRANCH   1  12
ATOM     12  O   UNL     1       7.814   1.267  -1.988  1.00  0.00    -0.493 OA
ATOM     13  C   UNL     1       8.854   1.703  -2.856  1.00  0.00     0.278 C 
ENDBRANCH   1  12
BRANCH   2  14
ATOM     14  O   UNL     1       6.721  -1.068  -2.904  1.00  0.00    -0.493 OA
ATOM     15  C   UNL     1       7.223  -1.766  -4.039  1.00  0.00     0.278 C 
ENDBRANCH   2  14
TORSDOF 2
ENDMDL
MODEL 6
REMARK VINA RESULT:    -5.470      3.324      6.040
REMARK INTER + INTRA:          -6.221
REMARK INTER:                  -6.074
REMARK INTRA:                  -0.148
REMARK UNBOUND:                -0.112
REMARK SMILES COc1cc2ccc(=O)oc2cc1OC
REMARK SMILES IDX 3 1 13 2 12 3 11 4 5 5 4 6 6 7 7 8 8 9 9 10 10 11 2 12 1 13
REMARK SMILES IDX 14 14 15 15
REMARK H PARENT
REMARK Flexibility Score: inf
ROOT
ATOM      1  C   UNL     1       7.795   0.038  -0.373  1.00  0.00     0.161 A 
ATOM      2  C   UNL     1       7.184  -1.223  -0.486  1.00  0.00     0.164 A 
ATOM      3  C   UNL     1       7.072  -1.834  -1.750  1.00  0.00     0.098 A 
ATOM      4  C   UNL     1       7.564  -1.197  -2.891  1.00  0.00     0.142 A 
ATOM      5  C   UNL     1       8.178   0.068  -2.778  1.00  0.00     0.022 A 
ATOM      6  C   UNL     1       8.291   0.680  -1.524  1.00  0.00     0.062 A 
ATOM      7  C   UNL     1       8.661   0.681  -3.938  1.00  0.00     0.019 A 
ATOM      8  C   UNL     1       8.524   0.030  -5.164  1.00  0.00     0.094 A 
ATOM      9  C   UNL     1       7.905  -1.223  -5.201  1.00  0.00     0.336 A 
ATOM     10  O   UNL     1       7.771  -1.827  -6.297  1.00  0.00    -0.246 OA
ATOM     11  O   UNL     1       7.454  -1.783  -4.081  1.00  0.00    -0.423 OA
ENDROOT
BRANCH   1  12
ATOM     12  O   UNL     1       7.889   0.618   0.903  1.00  0.00    -0.493 OA
ATOM     13  C   UNL     1       9.022   0.508   1.758  1.00  0.00     0.278 C 
ENDBRANCH   1  12
BRANCH   2  14
ATOM     14  O   UNL     1       6.700  -1.836   0.681  1.00  0.00    -0.493 OA
ATOM     15  C   UNL     1       7.228  -3.032   1.244  1.00  0.00     0.278 C 
ENDBRANCH   2  14
TORSDOF 2
ENDMDL
MODEL 7
REMARK VINA RESULT:    -5.464     10.810     12.906
REMARK INTER + INTRA:          -6.215
REMARK INTER:                  -6.097
REMARK INTRA:                  -0.118
REMARK UNBOUND:                -0.112
REMARK SMILES COc1cc2ccc(=O)oc2cc1OC
REMARK SMILES IDX 3 1 13 2 12 3 11 4 5 5 4 6 6 7 7 8 8 9 9 10 10 11 2 12 1 13
REMARK SMILES IDX 14 14 15 15
REMARK H PARENT
REMARK Flexibility Score: inf
ROOT
ATOM      1  C   UNL     1      -5.045  -2.100   6.131  1.00  0.00     0.161 A 
ATOM      2  C   UNL     1      -3.910  -2.800   5.688  1.00  0.00     0.164 A 
ATOM      3  C   UNL     1      -2.741  -2.091   5.347  1.00  0.00     0.098 A 
ATOM      4  C   UNL     1      -2.703  -0.699   5.446  1.00  0.00     0.142 A 
ATOM      5  C   UNL     1      -3.842   0.004   5.891  1.00  0.00     0.022 A 
ATOM      6  C   UNL     1      -5.007  -0.695   6.231  1.00  0.00     0.062 A 
ATOM      7  C   UNL     1      -3.773   1.398   5.980  1.00  0.00     0.019 A 
ATOM      8  C   UNL     1      -2.591   2.048   5.629  1.00  0.00     0.094 A 
ATOM      9  C   UNL     1      -1.500   1.287   5.197  1.00  0.00     0.336 A 
ATOM     10  O   UNL     1      -0.424   1.855   4.875  1.00  0.00    -0.246 OA
ATOM     11  O   UNL     1      -1.594  -0.039   5.121  1.00  0.00    -0.423 OA
ENDROOT
BRANCH   1  12
ATOM     12  O   UNL     1      -6.193  -2.839   6.463  1.00  0.00    -0.493 OA
ATOM     13  C   UNL     1      -7.449  -2.719   5.803  1.00  0.00     0.278 C 
ENDBRANCH   1  12
BRANCH   2  14
ATOM     14  O   UNL     1      -3.983  -4.200   5.601  1.00  0.00    -0.493 OA
ATOM     15  C   UNL     1      -3.229  -4.992   4.690  1.00  0.00     0.278 C 
ENDBRANCH   2  14
TORSDOF 2
ENDMDL
MODEL 8
REMARK VINA RESULT:    -5.417      3.448      6.617
REMARK INTER + INTRA:          -6.162
REMARK INTER:                  -6.033
REMARK INTRA:                  -0.129
REMARK UNBOUND:                -0.112
REMARK SMILES COc1cc2ccc(=O)oc2cc1OC
REMARK SMILES IDX 3 1 13 2 12 3 11 4 5 5 4 6 6 7 7 8 8 9 9 10 10 11 2 12 1 13
REMARK SMILES IDX 14 14 15 15
REMARK H PARENT
REMARK Flexibility Score: inf
ROOT
ATOM      1  C   UNL     1       7.111  -1.321  -0.523  1.00  0.00     0.161 A 
ATOM      2  C   UNL     1       7.711  -0.051  -0.585  1.00  0.00     0.164 A 
ATOM      3  C   UNL     1       8.144   0.459  -1.825  1.00  0.00     0.098 A 
ATOM      4  C   UNL     1       7.980  -0.289  -2.993  1.00  0.00     0.142 A 
ATOM      5  C   UNL     1       7.378  -1.563  -2.932  1.00  0.00     0.022 A 
ATOM      6  C   UNL     1       6.947  -2.075  -1.702  1.00  0.00     0.062 A 
ATOM      7  C   UNL     1       7.229  -2.287  -4.119  1.00  0.00     0.019 A 
ATOM      8  C   UNL     1       7.676  -1.735  -5.319  1.00  0.00     0.094 A 
ATOM      9  C   UNL     1       8.262  -0.465  -5.304  1.00  0.00     0.336 A 
ATOM     10  O   UNL     1       8.672   0.051  -6.376  1.00  0.00    -0.246 OA
ATOM     11  O   UNL     1       8.392   0.202  -4.160  1.00  0.00    -0.423 OA
ENDROOT
BRANCH   1  12
ATOM     12  O   UNL     1       6.692  -1.798   0.730  1.00  0.00    -0.493 OA
ATOM     13  C   UNL     1       7.265  -2.914   1.401  1.00  0.00     0.278 C 
ENDBRANCH   1  12
BRANCH   2  14
ATOM     14  O   UNL     1       7.859   0.674   0.609  1.00  0.00    -0.493 OA
ATOM     15  C   UNL     1       8.993   0.596   1.466  1.00  0.00     0.278 C 
ENDBRANCH   2  14
TORSDOF 2
ENDMDL
MODEL 9
REMARK VINA RESULT:    -5.292      4.147      6.346
REMARK INTER + INTRA:          -6.023
REMARK INTER:                  -5.959
REMARK INTRA:                  -0.063
REMARK UNBOUND:                -0.112
REMARK SMILES COc1cc2ccc(=O)oc2cc1OC
REMARK SMILES IDX 3 1 13 2 12 3 11 4 5 5 4 6 6 7 7 8 8 9 9 10 10 11 2 12 1 13
REMARK SMILES IDX 14 14 15 15
REMARK H PARENT
REMARK Flexibility Score: inf
ROOT
ATOM      1  C   UNL     1       7.374  -1.734  -4.657  1.00  0.00     0.161 A 
ATOM      2  C   UNL     1       8.174  -0.592  -4.834  1.00  0.00     0.164 A 
ATOM      3  C   UNL     1       8.435   0.255  -3.740  1.00  0.00     0.098 A 
ATOM      4  C   UNL     1       7.904  -0.032  -2.480  1.00  0.00     0.142 A 
ATOM      5  C   UNL     1       7.102  -1.178  -2.302  1.00  0.00     0.022 A 
ATOM      6  C   UNL     1       6.839  -2.023  -3.386  1.00  0.00     0.062 A 
ATOM      7  C   UNL     1       6.585  -1.438  -1.028  1.00  0.00     0.019 A 
ATOM      8  C   UNL     1       6.875  -0.565   0.020  1.00  0.00     0.094 A 
ATOM      9  C   UNL     1       7.679   0.551  -0.230  1.00  0.00     0.336 A 
ATOM     10  O   UNL     1       7.952   1.351   0.702  1.00  0.00    -0.246 OA
ATOM     11  O   UNL     1       8.157   0.775  -1.452  1.00  0.00    -0.423 OA
ENDROOT
BRANCH   1  12
ATOM     12  O   UNL     1       7.134  -2.556  -5.771  1.00  0.00    -0.493 OA
ATOM     13  C   UNL     1       6.133  -3.567  -5.827  1.00  0.00     0.278 C 
ENDBRANCH   1  12
BRANCH   2  14
ATOM     14  O   UNL     1       8.691  -0.334  -6.114  1.00  0.00    -0.493 OA
ATOM     15  C   UNL     1       9.914  -0.866  -6.614  1.00  0.00     0.278 C 
ENDBRANCH   2  14
TORSDOF 2
ENDMDL
