MODEL 1
REMARK VINA RESULT:    -6.156      0.000      0.000
REMARK INTER + INTRA:          -9.346
REMARK INTER:                  -8.135
REMARK INTRA:                  -1.211
REMARK UNBOUND:                -1.211
REMARK SMILES CC[C@@H](C=C[C@@H](C)[C@@H]1CC[C@@H]2[C@H]3CC=C4C[C@@H](O)CC[C@]4(C)[C@H]3CC[C@@]21C)C(C)C
REMARK SMILES IDX 6 1 7 2 5 3 4 4 3 5 2 6 1 7 28 8 29 9 30 10 8 11 9 12 26 13
REMARK SMILES IDX 10 14 11 15 25 16 27 17 12 18 24 19 23 20 13 21 21 22 14 23
REMARK SMILES IDX 15 24 20 25 22 26 16 27 19 28 17 29 18 30
REMARK H PARENT 18 31
REMARK Flexibility Score: inf
ROOT
ATOM      1  C   UNL     1      -6.170  39.554  22.234  1.00  0.00     0.012 C 
ATOM      2  C   UNL     1      -7.482  38.926  22.742  1.00  0.00     0.012 C 
ENDROOT
BRANCH   1   3
ATOM      3  C   UNL     1      -5.891  40.886  22.916  1.00  0.00    -0.028 C 
ATOM      4  C   UNL     1      -5.223  41.125  24.066  1.00  0.00    -0.027 C 
BRANCH   4   5
ATOM      5  C   UNL     1      -4.507  40.115  24.946  1.00  0.00     0.014 C 
BRANCH   5   6
ATOM      6  C   UNL     1      -4.668  40.574  26.419  1.00  0.00     0.004 C 
ATOM      7  C   UNL     1      -3.704  39.902  27.397  1.00  0.00     0.004 C 
ENDBRANCH   5   6
BRANCH   5   8
ATOM      8  C   UNL     1      -3.038  39.945  24.437  1.00  0.00    -0.011 C 
ATOM      9  C   UNL     1      -2.769  38.600  23.742  1.00  0.00     0.008 C 
ATOM     10  C   UNL     1      -2.566  41.114  23.557  1.00  0.00     0.008 C 
ENDBRANCH   5   8
ENDBRANCH   4   5
ENDBRANCH   1   3
BRANCH   1  11
ATOM     11  C   UNL     1      -6.074  39.614  20.671  1.00  0.00     0.002 C 
ATOM     12  C   UNL     1      -6.823  38.472  19.998  1.00  0.00     0.005 C 
ATOM     13  C   UNL     1      -4.645  39.601  20.004  1.00  0.00    -0.026 C 
ATOM     14  C   UNL     1      -6.328  38.493  18.570  1.00  0.00     0.005 C 
ATOM     15  C   UNL     1      -4.824  38.799  18.660  1.00  0.00    -0.001 C 
ATOM     16  C   UNL     1      -3.557  38.941  20.900  1.00  0.00     0.007 C 
ATOM     17  C   UNL     1      -4.233  41.066  19.685  1.00  0.00     0.012 C 
ATOM     18  C   UNL     1      -3.988  37.474  18.554  1.00  0.00     0.000 C 
ATOM     19  C   UNL     1      -2.272  38.657  20.121  1.00  0.00     0.005 C 
ATOM     20  C   UNL     1      -2.492  37.621  18.991  1.00  0.00     0.003 C 
ATOM     21  C   UNL     1      -4.156  36.809  17.155  1.00  0.00     0.031 C 
ATOM     22  C   UNL     1      -1.462  37.734  17.805  1.00  0.00    -0.008 C 
ATOM     23  C   UNL     1      -2.938  36.096  16.638  1.00  0.00    -0.027 C 
ATOM     24  C   UNL     1      -1.687  36.536  16.876  1.00  0.00    -0.065 C 
ATOM     25  C   UNL     1      -0.015  37.700  18.397  1.00  0.00     0.014 C 
ATOM     26  C   UNL     1      -1.647  39.032  16.980  1.00  0.00     0.016 C 
ATOM     27  C   UNL     1      -0.558  35.983  16.027  1.00  0.00     0.063 C 
ATOM     28  C   UNL     1       1.068  37.332  17.379  1.00  0.00     0.033 C 
ATOM     29  C   UNL     1       0.775  35.956  16.775  1.00  0.00     0.118 C 
BRANCH  29  30
ATOM     30  O   UNL     1       1.796  35.600  15.880  1.00  0.00    -0.393 OA
ATOM     31  H   UNL     1       1.757  36.248  15.128  1.00  0.00     0.210 HD
ENDBRANCH  29  30
ENDBRANCH   1  11
TORSDOF 6
ENDMDL
MODEL 2
REMARK VINA RESULT:    -4.711      2.928      7.993
REMARK INTER + INTRA:          -7.437
REMARK INTER:                  -5.978
REMARK INTRA:                  -1.459
REMARK UNBOUND:                -1.211
REMARK SMILES CC[C@@H](C=C[C@@H](C)[C@@H]1CC[C@@H]2[C@H]3CC=C4C[C@@H](O)CC[C@]4(C)[C@H]3CC[C@@]21C)C(C)C
REMARK SMILES IDX 6 1 7 2 5 3 4 4 3 5 2 6 1 7 28 8 29 9 30 10 8 11 9 12 26 13
REMARK SMILES IDX 10 14 11 15 25 16 27 17 12 18 24 19 23 20 13 21 21 22 14 23
REMARK SMILES IDX 15 24 20 25 22 26 16 27 19 28 17 29 18 30
REMARK H PARENT 18 31
REMARK Flexibility Score: inf
ROOT
ATOM      1  C   UNL     1      -0.997  39.525  17.012  1.00  0.00     0.012 C 
ATOM      2  C   UNL     1      -1.161  41.005  16.617  1.00  0.00     0.012 C 
ENDROOT
BRANCH   1   3
ATOM      3  C   UNL     1      -0.391  38.711  15.876  1.00  0.00    -0.028 C 
ATOM      4  C   UNL     1      -0.007  37.416  15.875  1.00  0.00    -0.027 C 
BRANCH   4   5
ATOM      5  C   UNL     1      -0.149  36.408  17.002  1.00  0.00     0.014 C 
BRANCH   5   6
ATOM      6  C   UNL     1       1.271  36.096  17.541  1.00  0.00     0.004 C 
ATOM      7  C   UNL     1       2.401  36.785  16.775  1.00  0.00     0.004 C 
ENDBRANCH   5   6
BRANCH   5   8
ATOM      8  C   UNL     1      -0.972  35.180  16.488  1.00  0.00    -0.011 C 
ATOM      9  C   UNL     1      -0.779  33.904  17.324  1.00  0.00     0.008 C 
ATOM     10  C   UNL     1      -2.467  35.490  16.308  1.00  0.00     0.008 C 
ENDBRANCH   5   8
ENDBRANCH   4   5
ENDBRANCH   1   3
BRANCH   1  11
ATOM     11  C   UNL     1      -2.298  38.894  17.615  1.00  0.00     0.002 C 
ATOM     12  C   UNL     1      -3.549  39.679  17.247  1.00  0.00     0.005 C 
ATOM     13  C   UNL     1      -2.390  38.707  19.178  1.00  0.00    -0.026 C 
ATOM     14  C   UNL     1      -4.610  39.148  18.183  1.00  0.00     0.005 C 
ATOM     15  C   UNL     1      -3.904  38.949  19.535  1.00  0.00    -0.001 C 
ATOM     16  C   UNL     1      -1.474  39.689  19.967  1.00  0.00     0.007 C 
ATOM     17  C   UNL     1      -1.999  37.244  19.527  1.00  0.00     0.012 C 
ATOM     18  C   UNL     1      -4.184  40.168  20.484  1.00  0.00     0.000 C 
ATOM     19  C   UNL     1      -1.810  39.709  21.458  1.00  0.00     0.005 C 
ATOM     20  C   UNL     1      -3.237  40.245  21.728  1.00  0.00     0.003 C 
ATOM     21  C   UNL     1      -5.694  40.262  20.855  1.00  0.00     0.031 C 
ATOM     22  C   UNL     1      -3.872  39.736  23.077  1.00  0.00    -0.008 C 
ATOM     23  C   UNL     1      -5.980  40.774  22.240  1.00  0.00    -0.027 C 
ATOM     24  C   UNL     1      -5.185  40.496  23.291  1.00  0.00    -0.065 C 
ATOM     25  C   UNL     1      -2.872  40.036  24.242  1.00  0.00     0.014 C 
ATOM     26  C   UNL     1      -4.186  38.219  23.050  1.00  0.00     0.016 C 
ATOM     27  C   UNL     1      -5.731  40.734  24.686  1.00  0.00     0.063 C 
ATOM     28  C   UNL     1      -3.514  40.038  25.631  1.00  0.00     0.033 C 
ATOM     29  C   UNL     1      -4.633  41.081  25.691  1.00  0.00     0.118 C 
BRANCH  29  30
ATOM     30  O   UNL     1      -5.186  41.115  26.981  1.00  0.00    -0.393 OA
ATOM     31  H   UNL     1      -4.477  41.454  27.588  1.00  0.00     0.210 HD
ENDBRANCH  29  30
ENDBRANCH   1  11
TORSDOF 6
ENDMDL
MODEL 3
REMARK VINA RESULT:    -4.651      3.240      8.479
REMARK INTER + INTRA:          -7.357
REMARK INTER:                  -5.856
REMARK INTRA:                  -1.501
REMARK UNBOUND:                -1.211
REMARK SMILES CC[C@@H](C=C[C@@H](C)[C@@H]1CC[C@@H]2[C@H]3CC=C4C[C@@H](O)CC[C@]4(C)[C@H]3CC[C@@]21C)C(C)C
REMARK SMILES IDX 6 1 7 2 5 3 4 4 3 5 2 6 1 7 28 8 29 9 30 10 8 11 9 12 26 13
REMARK SMILES IDX 10 14 11 15 25 16 27 17 12 18 24 19 23 20 13 21 21 22 14 23
REMARK SMILES IDX 15 24 20 25 22 26 16 27 19 28 17 29 18 30
REMARK H PARENT 18 31
REMARK Flexibility Score: inf
ROOT
ATOM      1  C   UNL     1       0.347  36.079  16.853  1.00  0.00     0.012 C 
ATOM      2  C   UNL     1       1.787  36.591  17.044  1.00  0.00     0.012 C 
ENDROOT
BRANCH   1   3
ATOM      3  C   UNL     1       0.297  34.913  15.875  1.00  0.00    -0.028 C 
ATOM      4  C   UNL     1       0.340  33.588  16.136  1.00  0.00    -0.027 C 
BRANCH   4   5
ATOM      5  C   UNL     1       0.379  32.913  17.496  1.00  0.00     0.014 C 
BRANCH   5   6
ATOM      6  C   UNL     1       1.190  31.599  17.349  1.00  0.00     0.004 C 
ATOM      7  C   UNL     1       1.167  30.999  15.944  1.00  0.00     0.004 C 
ENDBRANCH   5   6
BRANCH   5   8
ATOM      8  C   UNL     1      -1.083  32.761  18.032  1.00  0.00    -0.011 C 
ATOM      9  C   UNL     1      -2.167  33.117  17.001  1.00  0.00     0.008 C 
ATOM     10  C   UNL     1      -1.357  31.380  18.650  1.00  0.00     0.008 C 
ENDBRANCH   5   8
ENDBRANCH   4   5
ENDBRANCH   1   3
BRANCH   1  11
ATOM     11  C   UNL     1      -0.680  37.218  16.529  1.00  0.00     0.002 C 
ATOM     12  C   UNL     1      -0.152  38.598  16.894  1.00  0.00     0.005 C 
ATOM     13  C   UNL     1      -2.111  37.151  17.188  1.00  0.00    -0.026 C 
ATOM     14  C   UNL     1      -1.374  39.486  16.850  1.00  0.00     0.005 C 
ATOM     15  C   UNL     1      -2.514  38.650  17.454  1.00  0.00    -0.001 C 
ATOM     16  C   UNL     1      -2.138  36.330  18.511  1.00  0.00     0.007 C 
ATOM     17  C   UNL     1      -3.098  36.519  16.169  1.00  0.00     0.012 C 
ATOM     18  C   UNL     1      -2.732  39.029  18.962  1.00  0.00     0.000 C 
ATOM     19  C   UNL     1      -3.438  36.540  19.286  1.00  0.00     0.005 C 
ATOM     20  C   UNL     1      -3.604  38.005  19.763  1.00  0.00     0.003 C 
ATOM     21  C   UNL     1      -3.222  40.500  19.111  1.00  0.00     0.031 C 
ATOM     22  C   UNL     1      -5.099  38.442  19.991  1.00  0.00    -0.008 C 
ATOM     23  C   UNL     1      -4.172  40.743  20.251  1.00  0.00    -0.027 C 
ATOM     24  C   UNL     1      -5.085  39.832  20.637  1.00  0.00    -0.065 C 
ATOM     25  C   UNL     1      -5.782  37.405  20.943  1.00  0.00     0.014 C 
ATOM     26  C   UNL     1      -5.902  38.527  18.669  1.00  0.00     0.016 C 
ATOM     27  C   UNL     1      -6.224  40.290  21.529  1.00  0.00     0.063 C 
ATOM     28  C   UNL     1      -7.051  37.924  21.625  1.00  0.00     0.033 C 
ATOM     29  C   UNL     1      -6.733  39.177  22.444  1.00  0.00     0.118 C 
BRANCH  29  30
ATOM     30  O   UNL     1      -7.888  39.620  23.108  1.00  0.00    -0.393 OA
ATOM     31  H   UNL     1      -8.595  39.715  22.418  1.00  0.00     0.210 HD
ENDBRANCH  29  30
ENDBRANCH   1  11
TORSDOF 6
ENDMDL
MODEL 4
REMARK VINA RESULT:    -4.129      1.990      4.421
REMARK INTER + INTRA:          -6.667
REMARK INTER:                  -6.010
REMARK INTRA:                  -0.657
REMARK UNBOUND:                -1.211
REMARK SMILES CC[C@@H](C=C[C@@H](C)[C@@H]1CC[C@@H]2[C@H]3CC=C4C[C@@H](O)CC[C@]4(C)[C@H]3CC[C@@]21C)C(C)C
REMARK SMILES IDX 6 1 7 2 5 3 4 4 3 5 2 6 1 7 28 8 29 9 30 10 8 11 9 12 26 13
REMARK SMILES IDX 10 14 11 15 25 16 27 17 12 18 24 19 23 20 13 21 21 22 14 23
REMARK SMILES IDX 15 24 20 25 22 26 16 27 19 28 17 29 18 30
REMARK H PARENT 18 31
REMARK Flexibility Score: inf
ROOT
ATOM      1  C   UNL     1      -3.901  39.963  26.052  1.00  0.00     0.012 C 
ATOM      2  C   UNL     1      -5.146  39.678  26.913  1.00  0.00     0.012 C 
ENDROOT
BRANCH   1   3
ATOM      3  C   UNL     1      -2.800  40.625  26.869  1.00  0.00    -0.028 C 
ATOM      4  C   UNL     1      -2.578  40.560  28.200  1.00  0.00    -0.027 C 
BRANCH   4   5
ATOM      5  C   UNL     1      -3.339  39.739  29.226  1.00  0.00     0.014 C 
BRANCH   5   6
ATOM      6  C   UNL     1      -3.837  40.706  30.331  1.00  0.00     0.004 C 
ATOM      7  C   UNL     1      -5.358  40.839  30.413  1.00  0.00     0.004 C 
ENDBRANCH   5   6
BRANCH   5   8
ATOM      8  C   UNL     1      -2.435  38.556  29.706  1.00  0.00    -0.011 C 
ATOM      9  C   UNL     1      -1.889  38.726  31.133  1.00  0.00     0.008 C 
ATOM     10  C   UNL     1      -3.104  37.181  29.542  1.00  0.00     0.008 C 
ENDBRANCH   5   8
ENDBRANCH   4   5
ENDBRANCH   1   3
BRANCH   1  11
ATOM     11  C   UNL     1      -4.228  40.709  24.713  1.00  0.00     0.002 C 
ATOM     12  C   UNL     1      -5.715  40.695  24.389  1.00  0.00     0.005 C 
ATOM     13  C   UNL     1      -3.526  40.221  23.388  1.00  0.00    -0.026 C 
ATOM     14  C   UNL     1      -5.784  41.125  22.942  1.00  0.00     0.005 C 
ATOM     15  C   UNL     1      -4.593  40.439  22.251  1.00  0.00    -0.001 C 
ATOM     16  C   UNL     1      -3.077  38.732  23.446  1.00  0.00     0.007 C 
ATOM     17  C   UNL     1      -2.289  41.123  23.121  1.00  0.00     0.012 C 
ATOM     18  C   UNL     1      -5.064  39.135  21.515  1.00  0.00     0.000 C 
ATOM     19  C   UNL     1      -2.695  38.198  22.066  1.00  0.00     0.005 C 
ATOM     20  C   UNL     1      -3.899  38.179  21.092  1.00  0.00     0.003 C 
ATOM     21  C   UNL     1      -6.041  39.465  20.346  1.00  0.00     0.031 C 
ATOM     22  C   UNL     1      -3.499  38.252  19.571  1.00  0.00    -0.008 C 
ATOM     23  C   UNL     1      -5.940  38.555  19.154  1.00  0.00    -0.027 C 
ATOM     24  C   UNL     1      -4.770  38.030  18.743  1.00  0.00    -0.065 C 
ATOM     25  C   UNL     1      -2.453  37.127  19.277  1.00  0.00     0.014 C 
ATOM     26  C   UNL     1      -2.897  39.625  19.181  1.00  0.00     0.016 C 
ATOM     27  C   UNL     1      -4.699  37.437  17.348  1.00  0.00     0.063 C 
ATOM     28  C   UNL     1      -2.324  36.766  17.794  1.00  0.00     0.033 C 
ATOM     29  C   UNL     1      -3.677  36.306  17.246  1.00  0.00     0.118 C 
BRANCH  29  30
ATOM     30  O   UNL     1      -3.544  35.929  15.900  1.00  0.00    -0.393 OA
ATOM     31  H   UNL     1      -2.653  35.499  15.810  1.00  0.00     0.210 HD
ENDBRANCH  29  30
ENDBRANCH   1  11
TORSDOF 6
ENDMDL
MODEL 5
REMARK VINA RESULT:    -3.822      2.805      7.883
REMARK INTER + INTRA:          -6.262
REMARK INTER:                  -5.966
REMARK INTRA:                  -0.296
REMARK UNBOUND:                -1.211
REMARK SMILES CC[C@@H](C=C[C@@H](C)[C@@H]1CC[C@@H]2[C@H]3CC=C4C[C@@H](O)CC[C@]4(C)[C@H]3CC[C@@]21C)C(C)C
REMARK SMILES IDX 6 1 7 2 5 3 4 4 3 5 2 6 1 7 28 8 29 9 30 10 8 11 9 12 26 13
REMARK SMILES IDX 10 14 11 15 25 16 27 17 12 18 24 19 23 20 13 21 21 22 14 23
REMARK SMILES IDX 15 24 20 25 22 26 16 27 19 28 17 29 18 30
REMARK H PARENT 18 31
REMARK Flexibility Score: inf
ROOT
ATOM      1  C   UNL     1      -3.405  36.890  16.701  1.00  0.00     0.012 C 
ATOM      2  C   UNL     1      -4.709  36.186  16.282  1.00  0.00     0.012 C 
ENDROOT
BRANCH   1   3
ATOM      3  C   UNL     1      -2.589  36.028  17.655  1.00  0.00    -0.028 C 
ATOM      4  C   UNL     1      -1.485  35.294  17.398  1.00  0.00    -0.027 C 
BRANCH   4   5
ATOM      5  C   UNL     1      -0.722  35.197  16.088  1.00  0.00     0.014 C 
BRANCH   5   6
ATOM      6  C   UNL     1      -0.221  33.737  15.939  1.00  0.00     0.004 C 
ATOM      7  C   UNL     1      -0.631  32.810  17.084  1.00  0.00     0.004 C 
ENDBRANCH   5   6
BRANCH   5   8
ATOM      8  C   UNL     1       0.380  36.307  16.056  1.00  0.00    -0.011 C 
ATOM      9  C   UNL     1       0.329  37.273  17.251  1.00  0.00     0.008 C 
ATOM     10  C   UNL     1       1.798  35.742  15.875  1.00  0.00     0.008 C 
ENDBRANCH   5   8
ENDBRANCH   4   5
ENDBRANCH   1   3
BRANCH   1  11
ATOM     11  C   UNL     1      -3.625  38.356  17.209  1.00  0.00     0.002 C 
ATOM     12  C   UNL     1      -2.337  39.168  17.215  1.00  0.00     0.005 C 
ATOM     13  C   UNL     1      -4.240  38.572  18.644  1.00  0.00    -0.026 C 
ATOM     14  C   UNL     1      -2.671  40.386  18.046  1.00  0.00     0.005 C 
ATOM     15  C   UNL     1      -3.545  39.871  19.201  1.00  0.00    -0.001 C 
ATOM     16  C   UNL     1      -4.001  37.366  19.600  1.00  0.00     0.007 C 
ATOM     17  C   UNL     1      -5.767  38.820  18.498  1.00  0.00     0.012 C 
ATOM     18  C   UNL     1      -2.679  39.666  20.494  1.00  0.00     0.000 C 
ATOM     19  C   UNL     1      -4.319  37.718  21.053  1.00  0.00     0.005 C 
ATOM     20  C   UNL     1      -3.377  38.815  21.607  1.00  0.00     0.003 C 
ATOM     21  C   UNL     1      -2.118  41.022  21.020  1.00  0.00     0.031 C 
ATOM     22  C   UNL     1      -3.989  39.649  22.795  1.00  0.00    -0.008 C 
ATOM     23  C   UNL     1      -1.997  41.125  22.515  1.00  0.00    -0.027 C 
ATOM     24  C   UNL     1      -2.881  40.549  23.353  1.00  0.00    -0.065 C 
ATOM     25  C   UNL     1      -4.490  38.656  23.895  1.00  0.00     0.014 C 
ATOM     26  C   UNL     1      -5.166  40.549  22.344  1.00  0.00     0.016 C 
ATOM     27  C   UNL     1      -2.897  41.002  24.801  1.00  0.00     0.063 C 
ATOM     28  C   UNL     1      -4.670  39.292  25.276  1.00  0.00     0.033 C 
ATOM     29  C   UNL     1      -3.346  39.894  25.753  1.00  0.00     0.118 C 
BRANCH  29  30
ATOM     30  O   UNL     1      -3.502  40.432  27.041  1.00  0.00    -0.393 OA
ATOM     31  H   UNL     1      -3.700  41.398  26.925  1.00  0.00     0.210 HD
ENDBRANCH  29  30
ENDBRANCH   1  11
TORSDOF 6
ENDMDL
MODEL 6
REMARK VINA RESULT:    -3.480      1.369      2.303
REMARK INTER + INTRA:          -5.810
REMARK INTER:                  -5.999
REMARK INTRA:                   0.189
REMARK UNBOUND:                -1.211
REMARK SMILES CC[C@@H](C=C[C@@H](C)[C@@H]1CC[C@@H]2[C@H]3CC=C4C[C@@H](O)CC[C@]4(C)[C@H]3CC[C@@]21C)C(C)C
REMARK SMILES IDX 6 1 7 2 5 3 4 4 3 5 2 6 1 7 28 8 29 9 30 10 8 11 9 12 26 13
REMARK SMILES IDX 10 14 11 15 25 16 27 17 12 18 24 19 23 20 13 21 21 22 14 23
REMARK SMILES IDX 15 24 20 25 22 26 16 27 19 28 17 29 18 30
REMARK H PARENT 18 31
REMARK Flexibility Score: inf
ROOT
ATOM      1  C   UNL     1      -5.968  39.390  23.524  1.00  0.00     0.012 C 
ATOM      2  C   UNL     1      -6.001  40.888  23.882  1.00  0.00     0.012 C 
ENDROOT
BRANCH   1   3
ATOM      3  C   UNL     1      -4.742  38.705  24.114  1.00  0.00    -0.028 C 
ATOM      4  C   UNL     1      -3.832  39.199  24.982  1.00  0.00    -0.027 C 
BRANCH   4   5
ATOM      5  C   UNL     1      -3.840  40.560  25.655  1.00  0.00     0.014 C 
BRANCH   5   6
ATOM      6  C   UNL     1      -2.397  41.125  25.597  1.00  0.00     0.004 C 
ATOM      7  C   UNL     1      -1.776  41.125  24.199  1.00  0.00     0.004 C 
ENDBRANCH   5   6
BRANCH   5   8
ATOM      8  C   UNL     1      -4.464  40.420  27.083  1.00  0.00    -0.011 C 
ATOM      9  C   UNL     1      -3.523  40.847  28.221  1.00  0.00     0.008 C 
ATOM     10  C   UNL     1      -5.827  41.120  27.215  1.00  0.00     0.008 C 
ENDBRANCH   5   8
ENDBRANCH   4   5
ENDBRANCH   1   3
BRANCH   1  11
ATOM     11  C   UNL     1      -6.171  39.111  21.995  1.00  0.00     0.002 C 
ATOM     12  C   UNL     1      -6.337  37.628  21.693  1.00  0.00     0.005 C 
ATOM     13  C   UNL     1      -5.063  39.602  20.987  1.00  0.00    -0.026 C 
ATOM     14  C   UNL     1      -6.161  37.533  20.195  1.00  0.00     0.005 C 
ATOM     15  C   UNL     1      -5.027  38.513  19.850  1.00  0.00    -0.001 C 
ATOM     16  C   UNL     1      -3.661  39.759  21.645  1.00  0.00     0.007 C 
ATOM     17  C   UNL     1      -5.507  40.966  20.388  1.00  0.00     0.012 C 
ATOM     18  C   UNL     1      -3.666  37.745  19.700  1.00  0.00     0.000 C 
ATOM     19  C   UNL     1      -2.556  39.925  20.602  1.00  0.00     0.005 C 
ATOM     20  C   UNL     1      -2.402  38.668  19.711  1.00  0.00     0.003 C 
ATOM     21  C   UNL     1      -3.699  36.764  18.491  1.00  0.00     0.031 C 
ATOM     22  C   UNL     1      -1.780  38.957  18.293  1.00  0.00    -0.008 C 
ATOM     23  C   UNL     1      -2.390  36.596  17.769  1.00  0.00    -0.027 C 
ATOM     24  C   UNL     1      -1.516  37.609  17.615  1.00  0.00    -0.065 C 
ATOM     25  C   UNL     1      -0.441  39.742  18.487  1.00  0.00     0.014 C 
ATOM     26  C   UNL     1      -2.728  39.781  17.385  1.00  0.00     0.016 C 
ATOM     27  C   UNL     1      -0.417  37.456  16.580  1.00  0.00     0.063 C 
ATOM     28  C   UNL     1       0.497  39.685  17.278  1.00  0.00     0.033 C 
ATOM     29  C   UNL     1       0.847  38.231  16.952  1.00  0.00     0.118 C 
BRANCH  29  30
ATOM     30  O   UNL     1       1.746  38.186  15.875  1.00  0.00    -0.393 OA
ATOM     31  H   UNL     1       1.638  39.037  15.375  1.00  0.00     0.210 HD
ENDBRANCH  29  30
ENDBRANCH   1  11
TORSDOF 6
ENDMDL
MODEL 7
REMARK VINA RESULT:    -3.248      2.821      6.210
REMARK INTER + INTRA:          -5.503
REMARK INTER:                  -4.564
REMARK INTRA:                  -0.940
REMARK UNBOUND:                -1.211
REMARK SMILES CC[C@@H](C=C[C@@H](C)[C@@H]1CC[C@@H]2[C@H]3CC=C4C[C@@H](O)CC[C@]4(C)[C@H]3CC[C@@]21C)C(C)C
REMARK SMILES IDX 6 1 7 2 5 3 4 4 3 5 2 6 1 7 28 8 29 9 30 10 8 11 9 12 26 13
REMARK SMILES IDX 10 14 11 15 25 16 27 17 12 18 24 19 23 20 13 21 21 22 14 23
REMARK SMILES IDX 15 24 20 25 22 26 16 27 19 28 17 29 18 30
REMARK H PARENT 18 31
REMARK Flexibility Score: inf
ROOT
ATOM      1  C   UNL     1      -3.011  39.446  27.522  1.00  0.00     0.012 C 
ATOM      2  C   UNL     1      -3.926  38.301  27.996  1.00  0.00     0.012 C 
ENDROOT
BRANCH   1   3
ATOM      3  C   UNL     1      -2.358  40.160  28.698  1.00  0.00    -0.028 C 
ATOM      4  C   UNL     1      -2.835  40.339  29.949  1.00  0.00    -0.027 C 
BRANCH   4   5
ATOM      5  C   UNL     1      -4.132  39.805  30.530  1.00  0.00     0.014 C 
BRANCH   5   6
ATOM      6  C   UNL     1      -5.085  41.009  30.750  1.00  0.00     0.004 C 
ATOM      7  C   UNL     1      -6.381  40.942  29.943  1.00  0.00     0.004 C 
ENDBRANCH   5   6
BRANCH   5   8
ATOM      8  C   UNL     1      -3.809  38.947  31.798  1.00  0.00    -0.011 C 
ATOM      9  C   UNL     1      -4.982  38.823  32.785  1.00  0.00     0.008 C 
ATOM     10  C   UNL     1      -3.239  37.560  31.457  1.00  0.00     0.008 C 
ENDBRANCH   5   8
ENDBRANCH   4   5
ENDBRANCH   1   3
BRANCH   1  11
ATOM     11  C   UNL     1      -3.704  40.415  26.504  1.00  0.00     0.002 C 
ATOM     12  C   UNL     1      -5.217  40.446  26.668  1.00  0.00     0.005 C 
ATOM     13  C   UNL     1      -3.475  40.176  24.962  1.00  0.00    -0.026 C 
ATOM     14  C   UNL     1      -5.713  41.125  25.413  1.00  0.00     0.005 C 
ATOM     15  C   UNL     1      -4.833  40.583  24.275  1.00  0.00    -0.001 C 
ATOM     16  C   UNL     1      -3.103  38.704  24.619  1.00  0.00     0.007 C 
ATOM     17  C   UNL     1      -2.342  41.122  24.476  1.00  0.00     0.012 C 
ATOM     18  C   UNL     1      -5.572  39.426  23.514  1.00  0.00     0.000 C 
ATOM     19  C   UNL     1      -3.197  38.426  23.119  1.00  0.00     0.005 C 
ATOM     20  C   UNL     1      -4.645  38.569  22.588  1.00  0.00     0.003 C 
ATOM     21  C   UNL     1      -6.848  39.949  22.789  1.00  0.00     0.031 C 
ATOM     22  C   UNL     1      -4.737  38.914  21.054  1.00  0.00    -0.008 C 
ATOM     23  C   UNL     1      -7.168  39.266  21.488  1.00  0.00    -0.027 C 
ATOM     24  C   UNL     1      -6.212  38.832  20.646  1.00  0.00    -0.065 C 
ATOM     25  C   UNL     1      -3.891  37.868  20.257  1.00  0.00     0.014 C 
ATOM     26  C   UNL     1      -4.222  40.340  20.734  1.00  0.00     0.016 C 
ATOM     27  C   UNL     1      -6.610  38.496  19.220  1.00  0.00     0.063 C 
ATOM     28  C   UNL     1      -4.249  37.777  18.771  1.00  0.00     0.033 C 
ATOM     29  C   UNL     1      -5.726  37.410  18.608  1.00  0.00     0.118 C 
BRANCH  29  30
ATOM     30  O   UNL     1      -6.038  37.278  17.246  1.00  0.00    -0.393 OA
ATOM     31  H   UNL     1      -5.512  37.969  16.764  1.00  0.00     0.210 HD
ENDBRANCH  29  30
ENDBRANCH   1  11
TORSDOF 6
ENDMDL
