MODEL 1
REMARK VINA RESULT:    -3.800      0.000      0.000
REMARK INTER + INTRA:          -5.382
REMARK INTER:                  -5.133
REMARK INTRA:                  -0.248
REMARK UNBOUND:                -0.248
REMARK SMILES CCCCCCCC(=O)[O-]
REMARK SMILES IDX 5 1 6 2 7 3 8 4 9 5 10 6 4 7 3 8 2 9 1 10
REMARK H PARENT
REMARK Flexibility Score: inf
ROOT
ATOM      1  C   UNL     1       4.328  44.250  11.788  1.00  0.00     0.000 C 
ENDROOT
BRANCH   1   2
ATOM      2  C   UNL     1       5.670  44.906  12.160  1.00  0.00     0.006 C 
BRANCH   2   3
ATOM      3  C   UNL     1       6.892  44.283  11.465  1.00  0.00     0.053 C 
BRANCH   3   4
ATOM      4  C   UNL     1       7.191  42.908  11.980  1.00  0.00     0.041 C 
ATOM      5  O   UNL     1       7.648  42.028  11.204  1.00  0.00    -0.550 OA
ATOM      6  O   UNL     1       6.933  42.591  13.307  1.00  0.00    -0.550 OA
ENDBRANCH   3   4
ENDBRANCH   2   3
ENDBRANCH   1   2
BRANCH   1   7
ATOM      7  C   UNL     1       3.957  44.445  10.311  1.00  0.00     0.000 C 
BRANCH   7   8
ATOM      8  C   UNL     1       2.862  43.456   9.885  1.00  0.00    -0.000 C 
BRANCH   8   9
ATOM      9  C   UNL     1       1.802  43.242  10.976  1.00  0.00    -0.003 C 
ATOM     10  C   UNL     1       0.569  42.496  10.467  1.00  0.00     0.004 C 
ENDBRANCH   8   9
ENDBRANCH   7   8
ENDBRANCH   1   7
TORSDOF 6
ENDMDL
MODEL 2
REMARK VINA RESULT:    -3.699      0.824      1.574
REMARK INTER + INTRA:          -5.244
REMARK INTER:                  -4.923
REMARK INTRA:                  -0.321
REMARK UNBOUND:                -0.248
REMARK SMILES CCCCCCCC(=O)[O-]
REMARK SMILES IDX 5 1 6 2 7 3 8 4 9 5 10 6 4 7 3 8 2 9 1 10
REMARK H PARENT
REMARK Flexibility Score: inf
ROOT
ATOM      1  C   UNL     1       5.610  45.104  10.145  1.00  0.00     0.000 C 
ENDROOT
BRANCH   1   2
ATOM      2  C   UNL     1       6.291  45.002  11.522  1.00  0.00     0.006 C 
BRANCH   2   3
ATOM      3  C   UNL     1       7.593  44.184  11.524  1.00  0.00     0.053 C 
BRANCH   3   4
ATOM      4  C   UNL     1       7.365  42.768  11.956  1.00  0.00     0.041 C 
ATOM      5  O   UNL     1       7.104  42.507  13.160  1.00  0.00    -0.550 OA
ATOM      6  O   UNL     1       7.474  41.734  11.034  1.00  0.00    -0.550 OA
ENDBRANCH   3   4
ENDBRANCH   2   3
ENDBRANCH   1   2
BRANCH   1   7
ATOM      7  C   UNL     1       4.112  44.769  10.194  1.00  0.00     0.000 C 
BRANCH   7   8
ATOM      8  C   UNL     1       3.685  44.371  11.615  1.00  0.00    -0.000 C 
BRANCH   8   9
ATOM      9  C   UNL     1       2.331  43.647  11.644  1.00  0.00    -0.003 C 
ATOM     10  C   UNL     1       1.973  43.004  10.305  1.00  0.00     0.004 C 
ENDBRANCH   8   9
ENDBRANCH   7   8
ENDBRANCH   1   7
TORSDOF 6
ENDMDL
MODEL 3
REMARK VINA RESULT:    -3.595      2.905      5.186
REMARK INTER + INTRA:          -5.105
REMARK INTER:                  -4.871
REMARK INTRA:                  -0.233
REMARK UNBOUND:                -0.248
REMARK SMILES CCCCCCCC(=O)[O-]
REMARK SMILES IDX 5 1 6 2 7 3 8 4 9 5 10 6 4 7 3 8 2 9 1 10
REMARK H PARENT
REMARK Flexibility Score: inf
ROOT
ATOM      1  C   UNL     1       5.285  44.108  10.301  1.00  0.00     0.000 C 
ENDROOT
BRANCH   1   2
ATOM      2  C   UNL     1       3.783  44.441  10.372  1.00  0.00     0.006 C 
BRANCH   2   3
ATOM      3  C   UNL     1       2.858  43.275   9.988  1.00  0.00     0.053 C 
BRANCH   3   4
ATOM      4  C   UNL     1       1.666  43.183  10.891  1.00  0.00     0.041 C 
ATOM      5  O   UNL     1       1.687  43.732  12.024  1.00  0.00    -0.550 OA
ATOM      6  O   UNL     1       0.546  42.463  10.494  1.00  0.00    -0.550 OA
ENDBRANCH   3   4
ENDBRANCH   2   3
ENDBRANCH   1   2
BRANCH   1   7
ATOM      7  C   UNL     1       6.121  44.901  11.316  1.00  0.00     0.000 C 
BRANCH   7   8
ATOM      8  C   UNL     1       7.583  44.430  11.311  1.00  0.00    -0.000 C 
BRANCH   8   9
ATOM      9  C   UNL     1       7.710  42.899  11.277  1.00  0.00    -0.003 C 
ATOM     10  C   UNL     1       7.544  42.260  12.655  1.00  0.00     0.004 C 
ENDBRANCH   8   9
ENDBRANCH   7   8
ENDBRANCH   1   7
TORSDOF 6
ENDMDL
MODEL 4
REMARK VINA RESULT:    -2.812      2.610      4.733
REMARK INTER + INTRA:          -4.047
REMARK INTER:                  -3.753
REMARK INTRA:                  -0.295
REMARK UNBOUND:                -0.248
REMARK SMILES CCCCCCCC(=O)[O-]
REMARK SMILES IDX 5 1 6 2 7 3 8 4 9 5 10 6 4 7 3 8 2 9 1 10
REMARK H PARENT
REMARK Flexibility Score: inf
ROOT
ATOM      1  C   UNL     1       5.361  43.357  12.982  1.00  0.00     0.000 C 
ENDROOT
BRANCH   1   2
ATOM      2  C   UNL     1       4.938  44.605  12.185  1.00  0.00     0.006 C 
BRANCH   2   3
ATOM      3  C   UNL     1       4.301  44.299  10.819  1.00  0.00     0.053 C 
BRANCH   3   4
ATOM      4  C   UNL     1       2.981  43.605  10.959  1.00  0.00     0.041 C 
ATOM      5  O   UNL     1       2.625  42.746  10.110  1.00  0.00    -0.550 OA
ATOM      6  O   UNL     1       2.130  43.932  12.008  1.00  0.00    -0.550 OA
ENDBRANCH   3   4
ENDBRANCH   2   3
ENDBRANCH   1   2
BRANCH   1   7
ATOM      7  C   UNL     1       6.856  43.039  12.843  1.00  0.00     0.000 C 
BRANCH   7   8
ATOM      8  C   UNL     1       7.215  42.712  11.386  1.00  0.00    -0.000 C 
BRANCH   8   9
ATOM      9  C   UNL     1       8.361  43.583  10.850  1.00  0.00    -0.003 C 
ATOM     10  C   UNL     1       7.882  44.658   9.875  1.00  0.00     0.004 C 
ENDBRANCH   8   9
ENDBRANCH   7   8
ENDBRANCH   1   7
TORSDOF 6
ENDMDL
MODEL 5
REMARK VINA RESULT:    -2.027      3.255      5.403
REMARK INTER + INTRA:          -2.987
REMARK INTER:                  -2.789
REMARK INTRA:                  -0.198
REMARK UNBOUND:                -0.248
REMARK SMILES CCCCCCCC(=O)[O-]
REMARK SMILES IDX 5 1 6 2 7 3 8 4 9 5 10 6 4 7 3 8 2 9 1 10
REMARK H PARENT
REMARK Flexibility Score: inf
ROOT
ATOM      1  C   UNL     1       4.560  44.776  11.101  1.00  0.00     0.000 C 
ENDROOT
BRANCH   1   2
ATOM      2  C   UNL     1       3.049  44.574  11.316  1.00  0.00     0.006 C 
BRANCH   2   3
ATOM      3  C   UNL     1       2.486  43.290  10.686  1.00  0.00     0.053 C 
BRANCH   3   4
ATOM      4  C   UNL     1       1.069  43.035  11.101  1.00  0.00     0.041 C 
ATOM      5  O   UNL     1       0.325  42.304  10.395  1.00  0.00    -0.550 OA
ATOM      6  O   UNL     1       0.562  43.633  12.247  1.00  0.00    -0.550 OA
ENDBRANCH   3   4
ENDBRANCH   2   3
ENDBRANCH   1   2
BRANCH   1   7
ATOM      7  C   UNL     1       5.412  44.129  12.203  1.00  0.00     0.000 C 
BRANCH   7   8
ATOM      8  C   UNL     1       6.829  43.824  11.693  1.00  0.00    -0.000 C 
BRANCH   8   9
ATOM      9  C   UNL     1       7.463  45.016  10.961  1.00  0.00    -0.003 C 
ATOM     10  C   UNL     1       8.453  44.587   9.879  1.00  0.00     0.004 C 
ENDBRANCH   8   9
ENDBRANCH   7   8
ENDBRANCH   1   7
TORSDOF 6
ENDMDL
MODEL 6
REMARK VINA RESULT:    -1.223      1.969      2.835
REMARK INTER + INTRA:          -1.900
REMARK INTER:                  -1.587
REMARK INTRA:                  -0.313
REMARK UNBOUND:                -0.248
REMARK SMILES CCCCCCCC(=O)[O-]
REMARK SMILES IDX 5 1 6 2 7 3 8 4 9 5 10 6 4 7 3 8 2 9 1 10
REMARK H PARENT
REMARK Flexibility Score: inf
ROOT
ATOM      1  C   UNL     1       7.297  43.002  10.317  1.00  0.00     0.000 C 
ENDROOT
BRANCH   1   2
ATOM      2  C   UNL     1       7.611  43.475  11.748  1.00  0.00     0.006 C 
BRANCH   2   3
ATOM      3  C   UNL     1       7.260  42.455  12.843  1.00  0.00     0.053 C 
BRANCH   3   4
ATOM      4  C   UNL     1       6.084  42.892  13.661  1.00  0.00     0.041 C 
ATOM      5  O   UNL     1       5.728  42.221  14.665  1.00  0.00    -0.550 OA
ATOM      6  O   UNL     1       5.362  44.021  13.295  1.00  0.00    -0.550 OA
ENDBRANCH   3   4
ENDBRANCH   2   3
ENDBRANCH   1   2
BRANCH   1   7
ATOM      7  C   UNL     1       5.837  43.254   9.912  1.00  0.00     0.000 C 
BRANCH   7   8
ATOM      8  C   UNL     1       5.530  44.758   9.875  1.00  0.00    -0.000 C 
BRANCH   8   9
ATOM      9  C   UNL     1       4.191  45.105  10.543  1.00  0.00    -0.003 C 
ATOM     10  C   UNL     1       3.127  44.029  10.330  1.00  0.00     0.004 C 
ENDBRANCH   8   9
ENDBRANCH   7   8
ENDBRANCH   1   7
TORSDOF 6
ENDMDL
MODEL 7
REMARK VINA RESULT:    -0.896     22.966     24.368
REMARK INTER + INTRA:          -1.459
REMARK INTER:                  -2.613
REMARK INTRA:                   1.154
REMARK UNBOUND:                -0.248
REMARK SMILES CCCCCCCC(=O)[O-]
REMARK SMILES IDX 5 1 6 2 7 3 8 4 9 5 10 6 4 7 3 8 2 9 1 10
REMARK H PARENT
REMARK Flexibility Score: inf
ROOT
ATOM      1  C   UNL     1       6.855  28.841  30.119  1.00  0.00     0.000 C 
ENDROOT
BRANCH   1   2
ATOM      2  C   UNL     1       6.171  30.219  30.051  1.00  0.00     0.006 C 
BRANCH   2   3
ATOM      3  C   UNL     1       4.782  30.204  29.393  1.00  0.00     0.053 C 
BRANCH   3   4
ATOM      4  C   UNL     1       4.177  28.833  29.389  1.00  0.00     0.041 C 
ATOM      5  O   UNL     1       4.786  27.872  29.927  1.00  0.00    -0.550 OA
ATOM      6  O   UNL     1       2.957  28.613  28.762  1.00  0.00    -0.550 OA
ENDBRANCH   3   4
ENDBRANCH   2   3
ENDBRANCH   1   2
BRANCH   1   7
ATOM      7  C   UNL     1       8.388  28.935  30.125  1.00  0.00     0.000 C 
BRANCH   7   8
ATOM      8  C   UNL     1       9.023  27.540  30.040  1.00  0.00    -0.000 C 
BRANCH   8   9
ATOM      9  C   UNL     1       7.988  26.433  29.788  1.00  0.00    -0.003 C 
ATOM     10  C   UNL     1       8.525  25.037  30.101  1.00  0.00     0.004 C 
ENDBRANCH   8   9
ENDBRANCH   7   8
ENDBRANCH   1   7
TORSDOF 6
ENDMDL
