MODEL 1
REMARK VINA RESULT:    -3.605      0.000      0.000
REMARK INTER + INTRA:          -4.660
REMARK INTER:                  -4.448
REMARK INTRA:                  -0.212
REMARK UNBOUND:                -0.212
REMARK SMILES CCCCCC(=O)[O-]
REMARK SMILES IDX 4 1 5 2 6 3 7 4 8 5 3 6 2 7 1 8
REMARK H PARENT
REMARK Flexibility Score: inf
ROOT
ATOM      1  C   UNL     1      14.538 -30.095  23.066  1.00  0.00     0.006 C 
ENDROOT
BRANCH   1   2
ATOM      2  C   UNL     1      14.586 -30.426  21.565  1.00  0.00     0.053 C 
BRANCH   2   3
ATOM      3  C   UNL     1      13.530 -31.414  21.175  1.00  0.00     0.041 C 
ATOM      4  O   UNL     1      12.313 -31.089  21.212  1.00  0.00    -0.550 OA
ATOM      5  O   UNL     1      13.891 -32.683  20.741  1.00  0.00    -0.550 OA
ENDBRANCH   2   3
ENDBRANCH   1   2
BRANCH   1   6
ATOM      6  C   UNL     1      13.870 -28.748  23.395  1.00  0.00     0.000 C 
BRANCH   6   7
ATOM      7  C   UNL     1      12.562 -28.909  24.183  1.00  0.00    -0.003 C 
ATOM      8  C   UNL     1      11.369 -28.401  23.378  1.00  0.00     0.004 C 
ENDBRANCH   6   7
ENDBRANCH   1   6
TORSDOF 4
ENDMDL
MODEL 2
REMARK VINA RESULT:    -3.585      1.364      1.628
REMARK INTER + INTRA:          -4.635
REMARK INTER:                  -4.506
REMARK INTRA:                  -0.129
REMARK UNBOUND:                -0.212
REMARK SMILES CCCCCC(=O)[O-]
REMARK SMILES IDX 4 1 5 2 6 3 7 4 8 5 3 6 2 7 1 8
REMARK H PARENT
REMARK Flexibility Score: inf
ROOT
ATOM      1  C   UNL     1      12.873 -30.872  22.401  1.00  0.00     0.006 C 
ENDROOT
BRANCH   1   2
ATOM      2  C   UNL     1      13.866 -31.119  21.253  1.00  0.00     0.053 C 
BRANCH   2   3
ATOM      3  C   UNL     1      14.142 -32.578  21.056  1.00  0.00     0.041 C 
ATOM      4  O   UNL     1      14.588 -33.273  22.007  1.00  0.00    -0.550 OA
ATOM      5  O   UNL     1      13.879 -33.176  19.830  1.00  0.00    -0.550 OA
ENDBRANCH   2   3
ENDBRANCH   1   2
BRANCH   1   6
ATOM      6  C   UNL     1      13.516 -30.315  23.684  1.00  0.00     0.000 C 
BRANCH   6   7
ATOM      7  C   UNL     1      12.760 -29.105  24.251  1.00  0.00    -0.003 C 
ATOM      8  C   UNL     1      11.666 -28.642  23.293  1.00  0.00     0.004 C 
ENDBRANCH   6   7
ENDBRANCH   1   6
TORSDOF 4
ENDMDL
MODEL 3
REMARK VINA RESULT:    -3.527      1.300      1.554
REMARK INTER + INTRA:          -4.563
REMARK INTER:                  -4.434
REMARK INTRA:                  -0.129
REMARK UNBOUND:                -0.212
REMARK SMILES CCCCCC(=O)[O-]
REMARK SMILES IDX 4 1 5 2 6 3 7 4 8 5 3 6 2 7 1 8
REMARK H PARENT
REMARK Flexibility Score: inf
ROOT
ATOM      1  C   UNL     1      13.839 -30.389  22.303  1.00  0.00     0.006 C 
ENDROOT
BRANCH   1   2
ATOM      2  C   UNL     1      13.100 -31.297  21.306  1.00  0.00     0.053 C 
BRANCH   2   3
ATOM      3  C   UNL     1      13.900 -32.516  20.959  1.00  0.00     0.041 C 
ATOM      4  O   UNL     1      13.841 -33.004  19.800  1.00  0.00    -0.550 OA
ATOM      5  O   UNL     1      14.733 -33.094  21.909  1.00  0.00    -0.550 OA
ENDBRANCH   2   3
ENDBRANCH   1   2
BRANCH   1   6
ATOM      6  C   UNL     1      13.271 -30.428  23.734  1.00  0.00     0.000 C 
BRANCH   6   7
ATOM      7  C   UNL     1      12.845 -29.044  24.243  1.00  0.00    -0.003 C 
ATOM      8  C   UNL     1      11.623 -28.531  23.486  1.00  0.00     0.004 C 
ENDBRANCH   6   7
ENDBRANCH   1   6
TORSDOF 4
ENDMDL
MODEL 4
REMARK VINA RESULT:    -3.417      9.459     10.384
REMARK INTER + INTRA:          -4.428
REMARK INTER:                  -4.269
REMARK INTRA:                  -0.160
REMARK UNBOUND:                -0.212
REMARK SMILES CCCCCC(=O)[O-]
REMARK SMILES IDX 4 1 5 2 6 3 7 4 8 5 3 6 2 7 1 8
REMARK H PARENT
REMARK Flexibility Score: inf
ROOT
ATOM      1  C   UNL     1      20.842 -25.572  20.140  1.00  0.00     0.006 C 
ENDROOT
BRANCH   1   2
ATOM      2  C   UNL     1      22.222 -25.243  20.733  1.00  0.00     0.053 C 
BRANCH   2   3
ATOM      3  C   UNL     1      23.275 -25.132  19.673  1.00  0.00     0.041 C 
ATOM      4  O   UNL     1      23.526 -26.112  18.923  1.00  0.00    -0.550 OA
ATOM      5  O   UNL     1      23.957 -23.935  19.494  1.00  0.00    -0.550 OA
ENDBRANCH   2   3
ENDBRANCH   1   2
BRANCH   1   6
ATOM      6  C   UNL     1      20.262 -26.922  20.599  1.00  0.00     0.000 C 
BRANCH   6   7
ATOM      7  C   UNL     1      21.312 -27.828  21.257  1.00  0.00    -0.003 C 
ATOM      8  C   UNL     1      20.949 -29.301  21.092  1.00  0.00     0.004 C 
ENDBRANCH   6   7
ENDBRANCH   1   6
TORSDOF 4
ENDMDL
MODEL 5
REMARK VINA RESULT:    -3.417      2.374      4.011
REMARK INTER + INTRA:          -4.428
REMARK INTER:                  -4.247
REMARK INTRA:                  -0.182
REMARK UNBOUND:                -0.212
REMARK SMILES CCCCCC(=O)[O-]
REMARK SMILES IDX 4 1 5 2 6 3 7 4 8 5 3 6 2 7 1 8
REMARK H PARENT
REMARK Flexibility Score: inf
ROOT
ATOM      1  C   UNL     1      14.549 -30.224  23.145  1.00  0.00     0.006 C 
ENDROOT
BRANCH   1   2
ATOM      2  C   UNL     1      13.227 -30.086  23.919  1.00  0.00     0.053 C 
BRANCH   2   3
ATOM      3  C   UNL     1      12.665 -28.701  23.824  1.00  0.00     0.041 C 
ATOM      4  O   UNL     1      13.314 -27.721  24.277  1.00  0.00    -0.550 OA
ATOM      5  O   UNL     1      11.438 -28.489  23.208  1.00  0.00    -0.550 OA
ENDBRANCH   2   3
ENDBRANCH   1   2
BRANCH   1   6
ATOM      6  C   UNL     1      14.379 -30.336  21.619  1.00  0.00     0.000 C 
BRANCH   6   7
ATOM      7  C   UNL     1      13.403 -31.448  21.209  1.00  0.00    -0.003 C 
ATOM      8  C   UNL     1      14.143 -32.749  20.914  1.00  0.00     0.004 C 
ENDBRANCH   6   7
ENDBRANCH   1   6
TORSDOF 4
ENDMDL
MODEL 6
REMARK VINA RESULT:    -3.402      1.795      2.098
REMARK INTER + INTRA:          -4.409
REMARK INTER:                  -4.338
REMARK INTRA:                  -0.070
REMARK UNBOUND:                -0.212
REMARK SMILES CCCCCC(=O)[O-]
REMARK SMILES IDX 4 1 5 2 6 3 7 4 8 5 3 6 2 7 1 8
REMARK H PARENT
REMARK Flexibility Score: inf
ROOT
ATOM      1  C   UNL     1      13.510 -31.471  23.827  1.00  0.00     0.006 C 
ENDROOT
BRANCH   1   2
ATOM      2  C   UNL     1      14.761 -32.363  23.767  1.00  0.00     0.053 C 
BRANCH   2   3
ATOM      3  C   UNL     1      14.821 -33.157  22.498  1.00  0.00     0.041 C 
ATOM      4  O   UNL     1      14.174 -32.783  21.484  1.00  0.00    -0.550 OA
ATOM      5  O   UNL     1      15.616 -34.295  22.426  1.00  0.00    -0.550 OA
ENDBRANCH   2   3
ENDBRANCH   1   2
BRANCH   1   6
ATOM      6  C   UNL     1      13.784 -29.978  23.568  1.00  0.00     0.000 C 
BRANCH   6   7
ATOM      7  C   UNL     1      12.809 -29.056  24.312  1.00  0.00    -0.003 C 
ATOM      8  C   UNL     1      11.673 -28.605  23.400  1.00  0.00     0.004 C 
ENDBRANCH   6   7
ENDBRANCH   1   6
TORSDOF 4
ENDMDL
MODEL 7
REMARK VINA RESULT:    -3.385     10.172     10.931
REMARK INTER + INTRA:          -4.388
REMARK INTER:                  -4.217
REMARK INTRA:                  -0.171
REMARK UNBOUND:                -0.212
REMARK SMILES CCCCCC(=O)[O-]
REMARK SMILES IDX 4 1 5 2 6 3 7 4 8 5 3 6 2 7 1 8
REMARK H PARENT
REMARK Flexibility Score: inf
ROOT
ATOM      1  C   UNL     1      23.311 -26.760  20.123  1.00  0.00     0.006 C 
ENDROOT
BRANCH   1   2
ATOM      2  C   UNL     1      22.950 -25.377  19.555  1.00  0.00     0.053 C 
BRANCH   2   3
ATOM      3  C   UNL     1      23.590 -24.268  20.333  1.00  0.00     0.041 C 
ATOM      4  O   UNL     1      23.222 -24.028  21.514  1.00  0.00    -0.550 OA
ATOM      5  O   UNL     1      24.613 -23.520  19.766  1.00  0.00    -0.550 OA
ENDBRANCH   2   3
ENDBRANCH   1   2
BRANCH   1   6
ATOM      6  C   UNL     1      22.148 -27.472  20.839  1.00  0.00     0.000 C 
BRANCH   6   7
ATOM      7  C   UNL     1      20.822 -26.707  20.725  1.00  0.00    -0.003 C 
ATOM      8  C   UNL     1      19.637 -27.666  20.669  1.00  0.00     0.004 C 
ENDBRANCH   6   7
ENDBRANCH   1   6
TORSDOF 4
ENDMDL
MODEL 8
REMARK VINA RESULT:    -3.269      1.615      2.009
REMARK INTER + INTRA:          -4.245
REMARK INTER:                  -4.130
REMARK INTRA:                  -0.114
REMARK UNBOUND:                -0.212
REMARK SMILES CCCCCC(=O)[O-]
REMARK SMILES IDX 4 1 5 2 6 3 7 4 8 5 3 6 2 7 1 8
REMARK H PARENT
REMARK Flexibility Score: inf
ROOT
ATOM      1  C   UNL     1      14.716 -29.642  23.123  1.00  0.00     0.006 C 
ENDROOT
BRANCH   1   2
ATOM      2  C   UNL     1      14.787 -30.204  21.693  1.00  0.00     0.053 C 
BRANCH   2   3
ATOM      3  C   UNL     1      15.763 -31.335  21.584  1.00  0.00     0.041 C 
ATOM      4  O   UNL     1      15.389 -32.519  21.802  1.00  0.00    -0.550 OA
ATOM      5  O   UNL     1      17.078 -31.086  21.213  1.00  0.00    -0.550 OA
ENDBRANCH   2   3
ENDBRANCH   1   2
BRANCH   1   6
ATOM      6  C   UNL     1      13.409 -29.970  23.867  1.00  0.00     0.000 C 
BRANCH   6   7
ATOM      7  C   UNL     1      12.638 -28.714  24.297  1.00  0.00    -0.003 C 
ATOM      8  C   UNL     1      11.448 -28.458  23.377  1.00  0.00     0.004 C 
ENDBRANCH   6   7
ENDBRANCH   1   6
TORSDOF 4
ENDMDL
MODEL 9
REMARK VINA RESULT:    -3.236      2.043      3.331
REMARK INTER + INTRA:          -4.204
REMARK INTER:                  -3.965
REMARK INTRA:                  -0.239
REMARK UNBOUND:                -0.212
REMARK SMILES CCCCCC(=O)[O-]
REMARK SMILES IDX 4 1 5 2 6 3 7 4 8 5 3 6 2 7 1 8
REMARK H PARENT
REMARK Flexibility Score: inf
ROOT
ATOM      1  C   UNL     1      14.019 -30.834  23.884  1.00  0.00     0.006 C 
ENDROOT
BRANCH   1   2
ATOM      2  C   UNL     1      14.136 -30.459  22.398  1.00  0.00     0.053 C 
BRANCH   2   3
ATOM      3  C   UNL     1      13.031 -31.056  21.581  1.00  0.00     0.041 C 
ATOM      4  O   UNL     1      11.837 -30.709  21.780  1.00  0.00    -0.550 OA
ATOM      5  O   UNL     1      13.324 -31.973  20.579  1.00  0.00    -0.550 OA
ENDBRANCH   2   3
ENDBRANCH   1   2
BRANCH   1   6
ATOM      6  C   UNL     1      13.879 -32.345  24.146  1.00  0.00     0.000 C 
BRANCH   6   7
ATOM      7  C   UNL     1      15.220 -33.089  24.072  1.00  0.00    -0.003 C 
ATOM      8  C   UNL     1      15.334 -33.891  22.780  1.00  0.00     0.004 C 
ENDBRANCH   6   7
ENDBRANCH   1   6
TORSDOF 4
ENDMDL
