MODEL 1
REMARK VINA RESULT:    -6.573      0.000      0.000
REMARK INTER + INTRA:         -11.323
REMARK INTER:                  -9.648
REMARK INTRA:                  -1.675
REMARK UNBOUND:                -1.675
REMARK SMILES O=c1c(O[C@H]2O[C@@H](CO)[C@H](O)[C@H](O)[C@@H]2O)c(-c2ccc(O)c(O)c2)oc2cc(O)cc(O)c12
REMARK SMILES IDX 4 1 3 2 16 3 25 4 2 5 26 6 1 7 33 8 27 9 31 10 28 11 30 12
REMARK SMILES IDX 17 13 18 14 19 15 20 16 24 17 22 18 21 19 23 21 32 23 29 25
REMARK SMILES IDX 5 27 14 28 6 29 12 30 7 31 10 32 15 33 13 35 8 37 9 38 11 40
REMARK H PARENT 21 20 23 22 32 24 29 26 15 34 13 36 9 39 11 41
REMARK Flexibility Score: inf
ROOT
ATOM      1  O   UNL     1       9.693 -14.246  12.421  1.00  0.00    -0.454 OA
ENDROOT
BRANCH   1   2
ATOM      2  C   UNL     1       9.871 -15.632  12.367  1.00  0.00     0.214 A 
ATOM      3  C   UNL     1       8.948 -16.450  11.701  1.00  0.00     0.180 A 
ATOM      4  O   UNL     1       9.145 -17.761  11.629  1.00  0.00    -0.452 OA
ATOM      5  C   UNL     1      10.983 -16.222  12.975  1.00  0.00     0.239 A 
ATOM      6  C   UNL     1      10.193 -18.365  12.178  1.00  0.00     0.146 A 
ATOM      7  O   UNL     1      11.808 -15.492  13.590  1.00  0.00    -0.285 OA
ATOM      8  C   UNL     1      11.168 -17.617  12.883  1.00  0.00     0.111 A 
ATOM      9  C   UNL     1      10.318 -19.753  12.059  1.00  0.00     0.094 A 
ATOM     10  C   UNL     1      12.274 -18.291  13.451  1.00  0.00     0.134 A 
ATOM     11  C   UNL     1      11.405 -20.414  12.634  1.00  0.00     0.123 A 
ATOM     12  C   UNL     1      12.380 -19.684  13.324  1.00  0.00     0.093 A 
BRANCH   3  13
ATOM     13  C   UNL     1       7.736 -15.883  11.099  1.00  0.00     0.025 A 
ATOM     14  C   UNL     1       6.487 -16.144  11.674  1.00  0.00     0.016 A 
ATOM     15  C   UNL     1       5.326 -15.631  11.087  1.00  0.00     0.051 A 
ATOM     16  C   UNL     1       5.405 -14.852   9.927  1.00  0.00     0.157 A 
ATOM     17  C   UNL     1       7.821 -15.111   9.932  1.00  0.00     0.062 A 
ATOM     18  C   UNL     1       6.658 -14.588   9.345  1.00  0.00     0.158 A 
BRANCH  16  19
ATOM     19  O   UNL     1       4.231 -14.349   9.368  1.00  0.00    -0.504 OA
ATOM     20  H   UNL     1       4.238 -13.735   8.563  1.00  0.00     0.293 HD
ENDBRANCH  16  19
BRANCH  18  21
ATOM     21  O   UNL     1       6.745 -13.803   8.198  1.00  0.00    -0.504 OA
ATOM     22  H   UNL     1       7.444 -13.075   8.108  1.00  0.00     0.293 HD
ENDBRANCH  18  21
ENDBRANCH   3  13
BRANCH  10  23
ATOM     23  O   UNL     1      13.270 -17.590  14.135  1.00  0.00    -0.507 OA
ATOM     24  H   UNL     1      14.234 -17.903  14.141  1.00  0.00     0.293 HD
ENDBRANCH  10  23
BRANCH  11  25
ATOM     25  O   UNL     1      11.507 -21.800  12.514  1.00  0.00    -0.508 OA
ATOM     26  H   UNL     1      12.397 -22.275  12.609  1.00  0.00     0.293 HD
ENDBRANCH  11  25
ENDBRANCH   1   2
BRANCH   1  27
ATOM     27  C   UNL     1       8.982 -13.614  13.486  1.00  0.00     0.339 C 
ATOM     28  C   UNL     1       7.723 -12.909  12.956  1.00  0.00     0.214 C 
ATOM     29  O   UNL     1       9.834 -12.759  14.236  1.00  0.00    -0.332 OA
ATOM     30  C   UNL     1       8.116 -11.689  12.122  1.00  0.00     0.180 C 
ATOM     31  C   UNL     1      10.212 -11.548  13.585  1.00  0.00     0.179 C 
ATOM     32  C   UNL     1       9.043 -10.765  12.929  1.00  0.00     0.177 C 
BRANCH  28  33
ATOM     33  O   UNL     1       6.908 -12.524  14.035  1.00  0.00    -0.384 OA
ATOM     34  H   UNL     1       6.022 -12.277  13.654  1.00  0.00     0.211 HD
ENDBRANCH  28  33
BRANCH  30  35
ATOM     35  O   UNL     1       6.960 -11.000  11.723  1.00  0.00    -0.387 OA
ATOM     36  H   UNL     1       7.262 -10.193  11.227  1.00  0.00     0.211 HD
ENDBRANCH  30  35
BRANCH  31  37
ATOM     37  C   UNL     1      11.454 -11.709  12.688  1.00  0.00     0.191 C 
BRANCH  37  38
ATOM     38  O   UNL     1      12.241 -12.802  13.063  1.00  0.00    -0.394 OA
ATOM     39  H   UNL     1      13.183 -12.492  13.024  1.00  0.00     0.210 HD
ENDBRANCH  37  38
ENDBRANCH  31  37
BRANCH  32  40
ATOM     40  O   UNL     1       8.293 -10.106  13.922  1.00  0.00    -0.387 OA
ATOM     41  H   UNL     1       8.728  -9.228  14.078  1.00  0.00     0.211 HD
ENDBRANCH  32  40
ENDBRANCH   1  27
TORSDOF 12
ENDMDL
MODEL 2
REMARK VINA RESULT:    -6.244      5.588      8.282
REMARK INTER + INTRA:         -10.839
REMARK INTER:                  -9.141
REMARK INTRA:                  -1.699
REMARK UNBOUND:                -1.675
REMARK SMILES O=c1c(O[C@H]2O[C@@H](CO)[C@H](O)[C@H](O)[C@@H]2O)c(-c2ccc(O)c(O)c2)oc2cc(O)cc(O)c12
REMARK SMILES IDX 4 1 3 2 16 3 25 4 2 5 26 6 1 7 33 8 27 9 31 10 28 11 30 12
REMARK SMILES IDX 17 13 18 14 19 15 20 16 24 17 22 18 21 19 23 21 32 23 29 25
REMARK SMILES IDX 5 27 14 28 6 29 12 30 7 31 10 32 15 33 13 35 8 37 9 38 11 40
REMARK H PARENT 21 20 23 22 32 24 29 26 15 34 13 36 9 39 11 41
REMARK Flexibility Score: inf
ROOT
ATOM      1  O   UNL     1       3.855 -16.679  10.311  1.00  0.00    -0.454 OA
ENDROOT
BRANCH   1   2
ATOM      2  C   UNL     1       4.337 -16.046   9.161  1.00  0.00     0.214 A 
ATOM      3  C   UNL     1       3.462 -15.400   8.276  1.00  0.00     0.180 A 
ATOM      4  O   UNL     1       3.935 -14.775   7.204  1.00  0.00    -0.452 OA
ATOM      5  C   UNL     1       5.706 -16.044   8.881  1.00  0.00     0.239 A 
ATOM      6  C   UNL     1       5.228 -14.734   6.903  1.00  0.00     0.146 A 
ATOM      7  O   UNL     1       6.496 -16.638   9.664  1.00  0.00    -0.285 OA
ATOM      8  C   UNL     1       6.181 -15.372   7.734  1.00  0.00     0.111 A 
ATOM      9  C   UNL     1       5.638 -14.058   5.750  1.00  0.00     0.094 A 
ATOM     10  C   UNL     1       7.551 -15.305   7.389  1.00  0.00     0.134 A 
ATOM     11  C   UNL     1       6.990 -14.006   5.406  1.00  0.00     0.123 A 
ATOM     12  C   UNL     1       7.942 -14.626   6.226  1.00  0.00     0.093 A 
BRANCH   3  13
ATOM     13  C   UNL     1       2.012 -15.426   8.498  1.00  0.00     0.025 A 
ATOM     14  C   UNL     1       1.439 -14.577   9.452  1.00  0.00     0.016 A 
ATOM     15  C   UNL     1       0.062 -14.619   9.688  1.00  0.00     0.051 A 
ATOM     16  C   UNL     1      -0.752 -15.504   8.971  1.00  0.00     0.157 A 
ATOM     17  C   UNL     1       1.203 -16.320   7.783  1.00  0.00     0.062 A 
ATOM     18  C   UNL     1      -0.180 -16.359   8.012  1.00  0.00     0.158 A 
BRANCH  16  19
ATOM     19  O   UNL     1      -2.123 -15.519   9.224  1.00  0.00    -0.504 OA
ATOM     20  H   UNL     1      -2.738 -14.780   8.909  1.00  0.00     0.293 HD
ENDBRANCH  16  19
BRANCH  18  21
ATOM     21  O   UNL     1      -0.987 -17.233   7.286  1.00  0.00    -0.504 OA
ATOM     22  H   UNL     1      -1.858 -17.585   7.664  1.00  0.00     0.293 HD
ENDBRANCH  18  21
ENDBRANCH   3  13
BRANCH  10  23
ATOM     23  O   UNL     1       8.526 -15.901   8.191  1.00  0.00    -0.507 OA
ATOM     24  H   UNL     1       9.405 -16.230   7.807  1.00  0.00     0.293 HD
ENDBRANCH  10  23
BRANCH  11  25
ATOM     25  O   UNL     1       7.378 -13.337   4.246  1.00  0.00    -0.508 OA
ATOM     26  H   UNL     1       7.996 -12.535   4.279  1.00  0.00     0.293 HD
ENDBRANCH  11  25
ENDBRANCH   1   2
BRANCH   1  27
ATOM     27  C   UNL     1       3.493 -18.060  10.321  1.00  0.00     0.339 C 
ATOM     28  C   UNL     1       2.007 -18.229  10.677  1.00  0.00     0.214 C 
ATOM     29  O   UNL     1       4.362 -18.813  11.156  1.00  0.00    -0.332 OA
ATOM     30  C   UNL     1       1.775 -17.870  12.145  1.00  0.00     0.180 C 
ATOM     31  C   UNL     1       4.189 -18.615  12.557  1.00  0.00     0.179 C 
ATOM     32  C   UNL     1       2.719 -18.679  13.050  1.00  0.00     0.177 C 
BRANCH  28  33
ATOM     33  O   UNL     1       1.609 -19.554  10.428  1.00  0.00    -0.384 OA
ATOM     34  H   UNL     1       1.376 -19.956  11.308  1.00  0.00     0.211 HD
ENDBRANCH  28  33
BRANCH  30  35
ATOM     35  O   UNL     1       0.435 -18.118  12.484  1.00  0.00    -0.387 OA
ATOM     36  H   UNL     1       0.303 -17.778  13.409  1.00  0.00     0.211 HD
ENDBRANCH  30  35
BRANCH  31  37
ATOM     37  C   UNL     1       4.991 -17.417  13.099  1.00  0.00     0.191 C 
BRANCH  37  38
ATOM     38  O   UNL     1       6.155 -17.181  12.363  1.00  0.00    -0.394 OA
ATOM     39  H   UNL     1       6.911 -17.285  12.997  1.00  0.00     0.210 HD
ENDBRANCH  37  38
ENDBRANCH  31  37
BRANCH  32  40
ATOM     40  O   UNL     1       2.287 -20.019  13.092  1.00  0.00    -0.387 OA
ATOM     41  H   UNL     1       1.338 -20.026  12.801  1.00  0.00     0.211 HD
ENDBRANCH  32  40
ENDBRANCH   1  27
TORSDOF 12
ENDMDL
MODEL 3
REMARK VINA RESULT:    -6.233      3.398      5.988
REMARK INTER + INTRA:         -10.824
REMARK INTER:                  -9.670
REMARK INTRA:                  -1.154
REMARK UNBOUND:                -1.675
REMARK SMILES O=c1c(O[C@H]2O[C@@H](CO)[C@H](O)[C@H](O)[C@@H]2O)c(-c2ccc(O)c(O)c2)oc2cc(O)cc(O)c12
REMARK SMILES IDX 4 1 3 2 16 3 25 4 2 5 26 6 1 7 33 8 27 9 31 10 28 11 30 12
REMARK SMILES IDX 17 13 18 14 19 15 20 16 24 17 22 18 21 19 23 21 32 23 29 25
REMARK SMILES IDX 5 27 14 28 6 29 12 30 7 31 10 32 15 33 13 35 8 37 9 38 11 40
REMARK H PARENT 21 20 23 22 32 24 29 26 15 34 13 36 9 39 11 41
REMARK Flexibility Score: inf
ROOT
ATOM      1  O   UNL     1       7.641 -16.187   8.268  1.00  0.00    -0.454 OA
ENDROOT
BRANCH   1   2
ATOM      2  C   UNL     1       8.993 -16.426   8.537  1.00  0.00     0.214 A 
ATOM      3  C   UNL     1       9.423 -16.741   9.834  1.00  0.00     0.180 A 
ATOM      4  O   UNL     1      10.704 -16.997  10.071  1.00  0.00    -0.452 OA
ATOM      5  C   UNL     1       9.936 -16.362   7.508  1.00  0.00     0.239 A 
ATOM      6  C   UNL     1      11.635 -16.962   9.124  1.00  0.00     0.146 A 
ATOM      7  O   UNL     1       9.557 -16.063   6.343  1.00  0.00    -0.285 OA
ATOM      8  C   UNL     1      11.291 -16.639   7.788  1.00  0.00     0.111 A 
ATOM      9  C   UNL     1      12.962 -17.239   9.463  1.00  0.00     0.094 A 
ATOM     10  C   UNL     1      12.306 -16.615   6.803  1.00  0.00     0.134 A 
ATOM     11  C   UNL     1      13.962 -17.201   8.489  1.00  0.00     0.123 A 
ATOM     12  C   UNL     1      13.632 -16.893   7.164  1.00  0.00     0.093 A 
BRANCH   3  13
ATOM     13  C   UNL     1       8.478 -16.763  10.956  1.00  0.00     0.025 A 
ATOM     14  C   UNL     1       7.606 -17.847  11.110  1.00  0.00     0.016 A 
ATOM     15  C   UNL     1       6.684 -17.859  12.160  1.00  0.00     0.051 A 
ATOM     16  C   UNL     1       6.629 -16.793  13.065  1.00  0.00     0.157 A 
ATOM     17  C   UNL     1       8.421 -15.688  11.854  1.00  0.00     0.062 A 
ATOM     18  C   UNL     1       7.502 -15.701  12.914  1.00  0.00     0.158 A 
BRANCH  16  19
ATOM     19  O   UNL     1       5.702 -16.835  14.106  1.00  0.00    -0.504 OA
ATOM     20  H   UNL     1       5.982 -16.943  15.073  1.00  0.00     0.293 HD
ENDBRANCH  16  19
BRANCH  18  21
ATOM     21  O   UNL     1       7.461 -14.642  13.819  1.00  0.00    -0.504 OA
ATOM     22  H   UNL     1       6.596 -14.157  14.024  1.00  0.00     0.293 HD
ENDBRANCH  18  21
ENDBRANCH   3  13
BRANCH  10  23
ATOM     23  O   UNL     1      12.008 -16.323   5.469  1.00  0.00    -0.507 OA
ATOM     24  H   UNL     1      11.837 -17.055   4.790  1.00  0.00     0.293 HD
ENDBRANCH  10  23
BRANCH  11  25
ATOM     25  O   UNL     1      15.282 -17.470   8.849  1.00  0.00    -0.508 OA
ATOM     26  H   UNL     1      16.040 -16.854   8.580  1.00  0.00     0.293 HD
ENDBRANCH  11  25
ENDBRANCH   1   2
BRANCH   1  27
ATOM     27  C   UNL     1       6.974 -15.011   8.727  1.00  0.00     0.339 C 
ATOM     28  C   UNL     1       5.628 -15.368   9.375  1.00  0.00     0.214 C 
ATOM     29  O   UNL     1       6.862 -14.047   7.688  1.00  0.00    -0.332 OA
ATOM     30  C   UNL     1       4.642 -15.849   8.310  1.00  0.00     0.180 C 
ATOM     31  C   UNL     1       5.915 -14.354   6.668  1.00  0.00     0.179 C 
ATOM     32  C   UNL     1       4.524 -14.810   7.182  1.00  0.00     0.177 C 
BRANCH  28  33
ATOM     33  O   UNL     1       5.114 -14.245  10.046  1.00  0.00    -0.384 OA
ATOM     34  H   UNL     1       5.302 -13.454   9.472  1.00  0.00     0.211 HD
ENDBRANCH  28  33
BRANCH  30  35
ATOM     35  O   UNL     1       3.388 -16.082   8.898  1.00  0.00    -0.387 OA
ATOM     36  H   UNL     1       3.437 -16.971   9.340  1.00  0.00     0.211 HD
ENDBRANCH  30  35
BRANCH  31  37
ATOM     37  C   UNL     1       6.501 -15.235   5.548  1.00  0.00     0.191 C 
BRANCH  37  38
ATOM     38  O   UNL     1       7.368 -14.524   4.713  1.00  0.00    -0.394 OA
ATOM     39  H   UNL     1       7.018 -14.635   3.791  1.00  0.00     0.210 HD
ENDBRANCH  37  38
ENDBRANCH  31  37
BRANCH  32  40
ATOM     40  O   UNL     1       3.799 -13.698   7.650  1.00  0.00    -0.387 OA
ATOM     41  H   UNL     1       3.983 -13.620   8.622  1.00  0.00     0.211 HD
ENDBRANCH  32  40
ENDBRANCH   1  27
TORSDOF 12
ENDMDL
MODEL 4
REMARK VINA RESULT:    -6.146      2.515      6.502
REMARK INTER + INTRA:         -10.695
REMARK INTER:                  -9.303
REMARK INTRA:                  -1.392
REMARK UNBOUND:                -1.675
REMARK SMILES O=c1c(O[C@H]2O[C@@H](CO)[C@H](O)[C@H](O)[C@@H]2O)c(-c2ccc(O)c(O)c2)oc2cc(O)cc(O)c12
REMARK SMILES IDX 4 1 3 2 16 3 25 4 2 5 26 6 1 7 33 8 27 9 31 10 28 11 30 12
REMARK SMILES IDX 17 13 18 14 19 15 20 16 24 17 22 18 21 19 23 21 32 23 29 25
REMARK SMILES IDX 5 27 14 28 6 29 12 30 7 31 10 32 15 33 13 35 8 37 9 38 11 40
REMARK H PARENT 21 20 23 22 32 24 29 26 15 34 13 36 9 39 11 41
REMARK Flexibility Score: inf
ROOT
ATOM      1  O   UNL     1       8.285 -16.098  13.589  1.00  0.00    -0.454 OA
ENDROOT
BRANCH   1   2
ATOM      2  C   UNL     1       7.361 -15.790  12.585  1.00  0.00     0.214 A 
ATOM      3  C   UNL     1       7.412 -14.560  11.914  1.00  0.00     0.180 A 
ATOM      4  O   UNL     1       6.549 -14.293  10.941  1.00  0.00    -0.452 OA
ATOM      5  C   UNL     1       6.375 -16.715  12.231  1.00  0.00     0.239 A 
ATOM      6  C   UNL     1       5.603 -15.144  10.559  1.00  0.00     0.146 A 
ATOM      7  O   UNL     1       6.315 -17.816  12.842  1.00  0.00    -0.285 OA
ATOM      8  C   UNL     1       5.471 -16.404  11.192  1.00  0.00     0.111 A 
ATOM      9  C   UNL     1       4.733 -14.778   9.529  1.00  0.00     0.094 A 
ATOM     10  C   UNL     1       4.457 -17.290  10.759  1.00  0.00     0.134 A 
ATOM     11  C   UNL     1       3.725 -15.650   9.113  1.00  0.00     0.123 A 
ATOM     12  C   UNL     1       3.591 -16.903   9.726  1.00  0.00     0.093 A 
BRANCH   3  13
ATOM     13  C   UNL     1       8.392 -13.536  12.292  1.00  0.00     0.025 A 
ATOM     14  C   UNL     1       7.952 -12.290  12.756  1.00  0.00     0.016 A 
ATOM     15  C   UNL     1       8.881 -11.300  13.089  1.00  0.00     0.051 A 
ATOM     16  C   UNL     1      10.253 -11.548  12.964  1.00  0.00     0.157 A 
ATOM     17  C   UNL     1       9.764 -13.786  12.156  1.00  0.00     0.062 A 
ATOM     18  C   UNL     1      10.699 -12.797  12.497  1.00  0.00     0.158 A 
BRANCH  16  19
ATOM     19  O   UNL     1      11.157 -10.543  13.309  1.00  0.00    -0.504 OA
ATOM     20  H   UNL     1      11.667 -10.015  12.612  1.00  0.00     0.293 HD
ENDBRANCH  16  19
BRANCH  18  21
ATOM     21  O   UNL     1      12.064 -13.055  12.383  1.00  0.00    -0.504 OA
ATOM     22  H   UNL     1      12.744 -12.304  12.382  1.00  0.00     0.293 HD
ENDBRANCH  18  21
ENDBRANCH   3  13
BRANCH  10  23
ATOM     23  O   UNL     1       4.305 -18.551  11.340  1.00  0.00    -0.507 OA
ATOM     24  H   UNL     1       3.667 -19.240  10.959  1.00  0.00     0.293 HD
ENDBRANCH  10  23
BRANCH  11  25
ATOM     25  O   UNL     1       2.859 -15.262   8.092  1.00  0.00    -0.508 OA
ATOM     26  H   UNL     1       2.443 -14.339   8.073  1.00  0.00     0.293 HD
ENDBRANCH  11  25
ENDBRANCH   1   2
BRANCH   1  27
ATOM     27  C   UNL     1       8.104 -15.674  14.941  1.00  0.00     0.339 C 
ATOM     28  C   UNL     1       9.257 -14.759  15.382  1.00  0.00     0.214 C 
ATOM     29  O   UNL     1       7.904 -16.785  15.805  1.00  0.00    -0.332 OA
ATOM     30  C   UNL     1      10.548 -15.567  15.515  1.00  0.00     0.180 C 
ATOM     31  C   UNL     1       9.061 -17.577  16.061  1.00  0.00     0.179 C 
ATOM     32  C   UNL     1      10.332 -16.773  16.444  1.00  0.00     0.177 C 
BRANCH  28  33
ATOM     33  O   UNL     1       8.933 -14.148  16.606  1.00  0.00    -0.384 OA
ATOM     34  H   UNL     1       7.993 -13.831  16.532  1.00  0.00     0.211 HD
ENDBRANCH  28  33
BRANCH  30  35
ATOM     35  O   UNL     1      11.572 -14.742  16.009  1.00  0.00    -0.387 OA
ATOM     36  H   UNL     1      11.163 -14.159  16.702  1.00  0.00     0.211 HD
ENDBRANCH  30  35
BRANCH  31  37
ATOM     37  C   UNL     1       9.292 -18.668  14.999  1.00  0.00     0.191 C 
BRANCH  37  38
ATOM     38  O   UNL     1       8.098 -19.103  14.417  1.00  0.00    -0.394 OA
ATOM     39  H   UNL     1       8.067 -18.698  13.511  1.00  0.00     0.210 HD
ENDBRANCH  37  38
ENDBRANCH  31  37
BRANCH  32  40
ATOM     40  O   UNL     1      10.231 -16.322  17.774  1.00  0.00    -0.387 OA
ATOM     41  H   UNL     1       9.328 -15.921  17.876  1.00  0.00     0.211 HD
ENDBRANCH  32  40
ENDBRANCH   1  27
TORSDOF 12
ENDMDL
MODEL 5
REMARK VINA RESULT:    -6.110      2.763      5.649
REMARK INTER + INTRA:         -10.643
REMARK INTER:                  -9.429
REMARK INTRA:                  -1.214
REMARK UNBOUND:                -1.675
REMARK SMILES O=c1c(O[C@H]2O[C@@H](CO)[C@H](O)[C@H](O)[C@@H]2O)c(-c2ccc(O)c(O)c2)oc2cc(O)cc(O)c12
REMARK SMILES IDX 4 1 3 2 16 3 25 4 2 5 26 6 1 7 33 8 27 9 31 10 28 11 30 12
REMARK SMILES IDX 17 13 18 14 19 15 20 16 24 17 22 18 21 19 23 21 32 23 29 25
REMARK SMILES IDX 5 27 14 28 6 29 12 30 7 31 10 32 15 33 13 35 8 37 9 38 11 40
REMARK H PARENT 21 20 23 22 32 24 29 26 15 34 13 36 9 39 11 41
REMARK Flexibility Score: inf
ROOT
ATOM      1  O   UNL     1       9.351 -16.910  13.787  1.00  0.00    -0.454 OA
ENDROOT
BRANCH   1   2
ATOM      2  C   UNL     1       8.959 -18.132  13.230  1.00  0.00     0.214 A 
ATOM      3  C   UNL     1       9.876 -18.929  12.528  1.00  0.00     0.180 A 
ATOM      4  O   UNL     1       9.500 -20.102  12.031  1.00  0.00    -0.452 OA
ATOM      5  C   UNL     1       7.643 -18.580  13.373  1.00  0.00     0.239 A 
ATOM      6  C   UNL     1       8.265 -20.575  12.153  1.00  0.00     0.146 A 
ATOM      7  O   UNL     1       6.811 -17.859  13.988  1.00  0.00    -0.285 OA
ATOM      8  C   UNL     1       7.272 -19.830  12.834  1.00  0.00     0.111 A 
ATOM      9  C   UNL     1       7.954 -21.818  11.593  1.00  0.00     0.094 A 
ATOM     10  C   UNL     1       5.967 -20.366  12.951  1.00  0.00     0.134 A 
ATOM     11  C   UNL     1       6.662 -22.336  11.699  1.00  0.00     0.123 A 
ATOM     12  C   UNL     1       5.675 -21.612  12.379  1.00  0.00     0.093 A 
BRANCH   3  13
ATOM     13  C   UNL     1      11.252 -18.473  12.303  1.00  0.00     0.025 A 
ATOM     14  C   UNL     1      11.654 -18.084  11.019  1.00  0.00     0.016 A 
ATOM     15  C   UNL     1      12.972 -17.678  10.793  1.00  0.00     0.051 A 
ATOM     16  C   UNL     1      13.895 -17.653  11.845  1.00  0.00     0.157 A 
ATOM     17  C   UNL     1      12.174 -18.459  13.358  1.00  0.00     0.062 A 
ATOM     18  C   UNL     1      13.496 -18.044  13.135  1.00  0.00     0.158 A 
BRANCH  16  19
ATOM     19  O   UNL     1      15.202 -17.238  11.590  1.00  0.00    -0.504 OA
ATOM     20  H   UNL     1      15.603 -17.261  10.661  1.00  0.00     0.293 HD
ENDBRANCH  16  19
BRANCH  18  21
ATOM     21  O   UNL     1      14.406 -18.009  14.190  1.00  0.00    -0.504 OA
ATOM     22  H   UNL     1      14.642 -18.845  14.711  1.00  0.00     0.293 HD
ENDBRANCH  18  21
ENDBRANCH   3  13
BRANCH  10  23
ATOM     23  O   UNL     1       4.963 -19.675  13.633  1.00  0.00    -0.507 OA
ATOM     24  H   UNL     1       5.123 -19.273  14.550  1.00  0.00     0.293 HD
ENDBRANCH  10  23
BRANCH  11  25
ATOM     25  O   UNL     1       6.369 -23.572  11.124  1.00  0.00    -0.508 OA
ATOM     26  H   UNL     1       6.702 -24.438  11.531  1.00  0.00     0.293 HD
ENDBRANCH  11  25
ENDBRANCH   1   2
BRANCH   1  27
ATOM     27  C   UNL     1       8.854 -15.663  13.303  1.00  0.00     0.339 C 
ATOM     28  C   UNL     1       9.639 -15.209  12.063  1.00  0.00     0.214 C 
ATOM     29  O   UNL     1       8.821 -14.687  14.337  1.00  0.00    -0.332 OA
ATOM     30  C   UNL     1      11.060 -14.807  12.458  1.00  0.00     0.180 C 
ATOM     31  C   UNL     1      10.090 -14.183  14.743  1.00  0.00     0.179 C 
ATOM     32  C   UNL     1      11.027 -13.757  13.581  1.00  0.00     0.177 C 
BRANCH  28  33
ATOM     33  O   UNL     1       8.976 -14.130  11.452  1.00  0.00    -0.384 OA
ATOM     34  H   UNL     1       8.245 -14.515  10.898  1.00  0.00     0.211 HD
ENDBRANCH  28  33
BRANCH  30  35
ATOM     35  O   UNL     1      11.738 -14.306  11.335  1.00  0.00    -0.387 OA
ATOM     36  H   UNL     1      12.414 -13.659  11.670  1.00  0.00     0.211 HD
ENDBRANCH  30  35
BRANCH  31  37
ATOM     37  C   UNL     1      10.767 -15.049  15.822  1.00  0.00     0.191 C 
BRANCH  37  38
ATOM     38  O   UNL     1      12.144 -14.820  15.899  1.00  0.00    -0.394 OA
ATOM     39  H   UNL     1      12.438 -15.193  16.771  1.00  0.00     0.210 HD
ENDBRANCH  37  38
ENDBRANCH  31  37
BRANCH  32  40
ATOM     40  O   UNL     1      10.602 -12.524  13.051  1.00  0.00    -0.387 OA
ATOM     41  H   UNL     1      11.269 -11.844  13.329  1.00  0.00     0.211 HD
ENDBRANCH  32  40
ENDBRANCH   1  27
TORSDOF 12
ENDMDL
MODEL 6
REMARK VINA RESULT:    -6.107      2.508      6.718
REMARK INTER + INTRA:         -10.638
REMARK INTER:                  -9.211
REMARK INTRA:                  -1.427
REMARK UNBOUND:                -1.675
REMARK SMILES O=c1c(O[C@H]2O[C@@H](CO)[C@H](O)[C@H](O)[C@@H]2O)c(-c2ccc(O)c(O)c2)oc2cc(O)cc(O)c12
REMARK SMILES IDX 4 1 3 2 16 3 25 4 2 5 26 6 1 7 33 8 27 9 31 10 28 11 30 12
REMARK SMILES IDX 17 13 18 14 19 15 20 16 24 17 22 18 21 19 23 21 32 23 29 25
REMARK SMILES IDX 5 27 14 28 6 29 12 30 7 31 10 32 15 33 13 35 8 37 9 38 11 40
REMARK H PARENT 21 20 23 22 32 24 29 26 15 34 13 36 9 39 11 41
REMARK Flexibility Score: inf
ROOT
ATOM      1  O   UNL     1       9.188 -16.079  12.080  1.00  0.00    -0.454 OA
ENDROOT
BRANCH   1   2
ATOM      2  C   UNL     1       8.987 -15.954  10.701  1.00  0.00     0.214 A 
ATOM      3  C   UNL     1       9.935 -16.442   9.790  1.00  0.00     0.180 A 
ATOM      4  O   UNL     1       9.718 -16.347   8.483  1.00  0.00    -0.452 OA
ATOM      5  C   UNL     1       7.829 -15.345  10.212  1.00  0.00     0.239 A 
ATOM      6  C   UNL     1       8.627 -15.789   7.971  1.00  0.00     0.146 A 
ATOM      7  O   UNL     1       6.981 -14.890  11.027  1.00  0.00    -0.285 OA
ATOM      8  C   UNL     1       7.624 -15.258   8.819  1.00  0.00     0.111 A 
ATOM      9  C   UNL     1       8.483 -15.726   6.582  1.00  0.00     0.094 A 
ATOM     10  C   UNL     1       6.472 -14.676   8.241  1.00  0.00     0.134 A 
ATOM     11  C   UNL     1       7.350 -15.138   6.017  1.00  0.00     0.123 A 
ATOM     12  C   UNL     1       6.348 -14.618   6.845  1.00  0.00     0.093 A 
BRANCH   3  13
ATOM     13  C   UNL     1      11.193 -17.036  10.257  1.00  0.00     0.025 A 
ATOM     14  C   UNL     1      11.181 -18.291  10.877  1.00  0.00     0.016 A 
ATOM     15  C   UNL     1      12.372 -18.848  11.351  1.00  0.00     0.051 A 
ATOM     16  C   UNL     1      13.582 -18.160  11.205  1.00  0.00     0.157 A 
ATOM     17  C   UNL     1      12.400 -16.338  10.116  1.00  0.00     0.062 A 
ATOM     18  C   UNL     1      13.598 -16.898  10.583  1.00  0.00     0.158 A 
BRANCH  16  19
ATOM     19  O   UNL     1      14.756 -18.743  11.682  1.00  0.00    -0.504 OA
ATOM     20  H   UNL     1      14.905 -19.744  11.666  1.00  0.00     0.293 HD
ENDBRANCH  16  19
BRANCH  18  21
ATOM     21  O   UNL     1      14.801 -16.213  10.423  1.00  0.00    -0.504 OA
ATOM     22  H   UNL     1      14.972 -15.330  10.889  1.00  0.00     0.293 HD
ENDBRANCH  18  21
ENDBRANCH   3  13
BRANCH  10  23
ATOM     23  O   UNL     1       5.448 -14.159   9.039  1.00  0.00    -0.507 OA
ATOM     24  H   UNL     1       4.549 -13.900   8.651  1.00  0.00     0.293 HD
ENDBRANCH  10  23
BRANCH  11  25
ATOM     25  O   UNL     1       7.230 -15.074   4.629  1.00  0.00    -0.508 OA
ATOM     26  H   UNL     1       8.001 -14.776   4.044  1.00  0.00     0.293 HD
ENDBRANCH  11  25
ENDBRANCH   1   2
BRANCH   1  27
ATOM     27  C   UNL     1       9.704 -15.007  12.870  1.00  0.00     0.339 C 
ATOM     28  C   UNL     1      11.211 -15.185  13.109  1.00  0.00     0.214 C 
ATOM     29  O   UNL     1       8.958 -14.848  14.069  1.00  0.00    -0.332 OA
ATOM     30  C   UNL     1      11.459 -16.366  14.048  1.00  0.00     0.180 C 
ATOM     31  C   UNL     1       9.161 -15.857  15.055  1.00  0.00     0.179 C 
ATOM     32  C   UNL     1      10.647 -16.200  15.344  1.00  0.00     0.177 C 
BRANCH  28  33
ATOM     33  O   UNL     1      11.746 -14.005  13.656  1.00  0.00    -0.384 OA
ATOM     34  H   UNL     1      10.987 -13.370  13.770  1.00  0.00     0.211 HD
ENDBRANCH  28  33
BRANCH  30  35
ATOM     35  O   UNL     1      12.830 -16.461  14.335  1.00  0.00    -0.387 OA
ATOM     36  H   UNL     1      12.910 -16.629  15.311  1.00  0.00     0.211 HD
ENDBRANCH  30  35
BRANCH  31  37
ATOM     37  C   UNL     1       8.251 -17.085  14.858  1.00  0.00     0.191 C 
BRANCH  37  38
ATOM     38  O   UNL     1       7.072 -16.766  14.179  1.00  0.00    -0.394 OA
ATOM     39  H   UNL     1       6.532 -16.215  14.803  1.00  0.00     0.210 HD
ENDBRANCH  37  38
ENDBRANCH  31  37
BRANCH  32  40
ATOM     40  O   UNL     1      11.228 -15.185  16.128  1.00  0.00    -0.387 OA
ATOM     41  H   UNL     1      10.532 -14.879  16.767  1.00  0.00     0.211 HD
ENDBRANCH  32  40
ENDBRANCH   1  27
TORSDOF 12
ENDMDL
MODEL 7
REMARK VINA RESULT:    -6.061      2.614      6.839
REMARK INTER + INTRA:         -10.571
REMARK INTER:                  -8.886
REMARK INTRA:                  -1.685
REMARK UNBOUND:                -1.675
REMARK SMILES O=c1c(O[C@H]2O[C@@H](CO)[C@H](O)[C@H](O)[C@@H]2O)c(-c2ccc(O)c(O)c2)oc2cc(O)cc(O)c12
REMARK SMILES IDX 4 1 3 2 16 3 25 4 2 5 26 6 1 7 33 8 27 9 31 10 28 11 30 12
REMARK SMILES IDX 17 13 18 14 19 15 20 16 24 17 22 18 21 19 23 21 32 23 29 25
REMARK SMILES IDX 5 27 14 28 6 29 12 30 7 31 10 32 15 33 13 35 8 37 9 38 11 40
REMARK H PARENT 21 20 23 22 32 24 29 26 15 34 13 36 9 39 11 41
REMARK Flexibility Score: inf
ROOT
ATOM      1  O   UNL     1       9.028 -16.789  13.008  1.00  0.00    -0.454 OA
ENDROOT
BRANCH   1   2
ATOM      2  C   UNL     1       8.842 -16.596  11.635  1.00  0.00     0.214 A 
ATOM      3  C   UNL     1       9.593 -17.323  10.700  1.00  0.00     0.180 A 
ATOM      4  O   UNL     1       9.385 -17.154   9.399  1.00  0.00    -0.452 OA
ATOM      5  C   UNL     1       7.895 -15.677  11.177  1.00  0.00     0.239 A 
ATOM      6  C   UNL     1       8.488 -16.302   8.915  1.00  0.00     0.146 A 
ATOM      7  O   UNL     1       7.229 -15.009  12.014  1.00  0.00    -0.285 OA
ATOM      8  C   UNL     1       7.696 -15.518   9.789  1.00  0.00     0.111 A 
ATOM      9  C   UNL     1       8.339 -16.183   7.530  1.00  0.00     0.094 A 
ATOM     10  C   UNL     1       6.745 -14.624   9.241  1.00  0.00     0.134 A 
ATOM     11  C   UNL     1       7.410 -15.290   6.995  1.00  0.00     0.123 A 
ATOM     12  C   UNL     1       6.614 -14.517   7.849  1.00  0.00     0.093 A 
BRANCH   3  13
ATOM     13  C   UNL     1      10.638 -18.255  11.134  1.00  0.00     0.025 A 
ATOM     14  C   UNL     1      11.983 -17.958  10.884  1.00  0.00     0.016 A 
ATOM     15  C   UNL     1      12.982 -18.857  11.268  1.00  0.00     0.051 A 
ATOM     16  C   UNL     1      12.645 -20.056  11.908  1.00  0.00     0.157 A 
ATOM     17  C   UNL     1      10.295 -19.459  11.766  1.00  0.00     0.062 A 
ATOM     18  C   UNL     1      11.295 -20.360  12.160  1.00  0.00     0.158 A 
BRANCH  16  19
ATOM     19  O   UNL     1      13.663 -20.932  12.285  1.00  0.00    -0.504 OA
ATOM     20  H   UNL     1      14.106 -21.559  11.626  1.00  0.00     0.293 HD
ENDBRANCH  16  19
BRANCH  18  21
ATOM     21  O   UNL     1      10.954 -21.545  12.808  1.00  0.00    -0.504 OA
ATOM     22  H   UNL     1      10.426 -21.541  13.673  1.00  0.00     0.293 HD
ENDBRANCH  18  21
ENDBRANCH   3  13
BRANCH  10  23
ATOM     23  O   UNL     1       5.928 -13.848  10.066  1.00  0.00    -0.507 OA
ATOM     24  H   UNL     1       4.920 -13.953  10.069  1.00  0.00     0.293 HD
ENDBRANCH  10  23
BRANCH  11  25
ATOM     25  O   UNL     1       7.284 -15.178   5.611  1.00  0.00    -0.508 OA
ATOM     26  H   UNL     1       7.493 -14.311   5.129  1.00  0.00     0.293 HD
ENDBRANCH  11  25
ENDBRANCH   1   2
BRANCH   1  27
ATOM     27  C   UNL     1       9.903 -15.965  13.778  1.00  0.00     0.339 C 
ATOM     28  C   UNL     1      11.072 -16.790  14.339  1.00  0.00     0.214 C 
ATOM     29  O   UNL     1       9.188 -15.248  14.776  1.00  0.00    -0.332 OA
ATOM     30  C   UNL     1      10.569 -17.746  15.421  1.00  0.00     0.180 C 
ATOM     31  C   UNL     1       8.728 -16.027  15.877  1.00  0.00     0.179 C 
ATOM     32  C   UNL     1       9.790 -16.974  16.498  1.00  0.00     0.177 C 
BRANCH  28  33
ATOM     33  O   UNL     1      12.050 -15.927  14.865  1.00  0.00    -0.384 OA
ATOM     34  H   UNL     1      12.093 -16.101  15.844  1.00  0.00     0.211 HD
ENDBRANCH  28  33
BRANCH  30  35
ATOM     35  O   UNL     1      11.657 -18.426  15.992  1.00  0.00    -0.387 OA
ATOM     36  H   UNL     1      11.861 -19.195  15.398  1.00  0.00     0.211 HD
ENDBRANCH  30  35
BRANCH  31  37
ATOM     37  C   UNL     1       7.360 -16.686  15.619  1.00  0.00     0.191 C 
BRANCH  37  38
ATOM     38  O   UNL     1       6.636 -16.031  14.619  1.00  0.00    -0.394 OA
ATOM     39  H   UNL     1       6.864 -15.068  14.697  1.00  0.00     0.210 HD
ENDBRANCH  37  38
ENDBRANCH  31  37
BRANCH  32  40
ATOM     40  O   UNL     1      10.693 -16.230  17.282  1.00  0.00    -0.387 OA
ATOM     41  H   UNL     1      10.612 -15.283  16.997  1.00  0.00     0.211 HD
ENDBRANCH  32  40
ENDBRANCH   1  27
TORSDOF 12
ENDMDL
MODEL 8
REMARK VINA RESULT:    -6.017      2.688      7.267
REMARK INTER + INTRA:         -10.507
REMARK INTER:                  -8.935
REMARK INTRA:                  -1.572
REMARK UNBOUND:                -1.675
REMARK SMILES O=c1c(O[C@H]2O[C@@H](CO)[C@H](O)[C@H](O)[C@@H]2O)c(-c2ccc(O)c(O)c2)oc2cc(O)cc(O)c12
REMARK SMILES IDX 4 1 3 2 16 3 25 4 2 5 26 6 1 7 33 8 27 9 31 10 28 11 30 12
REMARK SMILES IDX 17 13 18 14 19 15 20 16 24 17 22 18 21 19 23 21 32 23 29 25
REMARK SMILES IDX 5 27 14 28 6 29 12 30 7 31 10 32 15 33 13 35 8 37 9 38 11 40
REMARK H PARENT 21 20 23 22 32 24 29 26 15 34 13 36 9 39 11 41
REMARK Flexibility Score: inf
ROOT
ATOM      1  O   UNL     1      11.419 -17.294  11.661  1.00  0.00    -0.454 OA
ENDROOT
BRANCH   1   2
ATOM      2  C   UNL     1      10.259 -16.683  11.175  1.00  0.00     0.214 A 
ATOM      3  C   UNL     1       9.391 -15.999  12.039  1.00  0.00     0.180 A 
ATOM      4  O   UNL     1       8.310 -15.394  11.560  1.00  0.00    -0.452 OA
ATOM      5  C   UNL     1       9.952 -16.740   9.813  1.00  0.00     0.239 A 
ATOM      6  C   UNL     1       7.984 -15.410  10.272  1.00  0.00     0.146 A 
ATOM      7  O   UNL     1      10.721 -17.368   9.035  1.00  0.00    -0.285 OA
ATOM      8  C   UNL     1       8.797 -16.089   9.332  1.00  0.00     0.111 A 
ATOM      9  C   UNL     1       6.823 -14.752   9.856  1.00  0.00     0.094 A 
ATOM     10  C   UNL     1       8.424 -16.081   7.967  1.00  0.00     0.134 A 
ATOM     11  C   UNL     1       6.452 -14.758   8.510  1.00  0.00     0.123 A 
ATOM     12  C   UNL     1       7.254 -15.419   7.570  1.00  0.00     0.093 A 
BRANCH   3  13
ATOM     13  C   UNL     1       9.641 -15.962  13.484  1.00  0.00     0.025 A 
ATOM     14  C   UNL     1       8.703 -16.512  14.366  1.00  0.00     0.016 A 
ATOM     15  C   UNL     1       8.922 -16.452  15.745  1.00  0.00     0.051 A 
ATOM     16  C   UNL     1      10.078 -15.849  16.252  1.00  0.00     0.157 A 
ATOM     17  C   UNL     1      10.797 -15.348  13.987  1.00  0.00     0.062 A 
ATOM     18  C   UNL     1      11.023 -15.294  15.370  1.00  0.00     0.158 A 
BRANCH  16  19
ATOM     19  O   UNL     1      10.272 -15.810  17.633  1.00  0.00    -0.504 OA
ATOM     20  H   UNL     1       9.918 -15.054  18.205  1.00  0.00     0.293 HD
ENDBRANCH  16  19
BRANCH  18  21
ATOM     21  O   UNL     1      12.182 -14.704  15.868  1.00  0.00    -0.504 OA
ATOM     22  H   UNL     1      12.610 -13.910  15.407  1.00  0.00     0.293 HD
ENDBRANCH  18  21
ENDBRANCH   3  13
BRANCH  10  23
ATOM     23  O   UNL     1       9.208 -16.720   7.003  1.00  0.00    -0.507 OA
ATOM     24  H   UNL     1       8.859 -17.508   6.471  1.00  0.00     0.293 HD
ENDBRANCH  10  23
BRANCH  11  25
ATOM     25  O   UNL     1       5.285 -14.106   8.116  1.00  0.00    -0.508 OA
ATOM     26  H   UNL     1       5.228 -13.606   7.237  1.00  0.00     0.293 HD
ENDBRANCH  11  25
ENDBRANCH   1   2
BRANCH   1  27
ATOM     27  C   UNL     1      11.495 -18.702  11.887  1.00  0.00     0.339 C 
ATOM     28  C   UNL     1      11.691 -19.002  13.382  1.00  0.00     0.214 C 
ATOM     29  O   UNL     1      12.481 -19.303  11.058  1.00  0.00    -0.332 OA
ATOM     30  C   UNL     1      13.090 -18.574  13.825  1.00  0.00     0.180 C 
ATOM     31  C   UNL     1      13.833 -19.031  11.419  1.00  0.00     0.179 C 
ATOM     32  C   UNL     1      14.158 -19.217  12.925  1.00  0.00     0.177 C 
BRANCH  28  33
ATOM     33  O   UNL     1      11.503 -20.376  13.616  1.00  0.00    -0.384 OA
ATOM     34  H   UNL     1      11.176 -20.467  14.552  1.00  0.00     0.211 HD
ENDBRANCH  28  33
BRANCH  30  35
ATOM     35  O   UNL     1      13.292 -18.939  15.166  1.00  0.00    -0.387 OA
ATOM     36  H   UNL     1      14.087 -19.536  15.186  1.00  0.00     0.211 HD
ENDBRANCH  30  35
BRANCH  31  37
ATOM     37  C   UNL     1      14.368 -17.722  10.808  1.00  0.00     0.191 C 
BRANCH  37  38
ATOM     38  O   UNL     1      13.662 -17.343   9.662  1.00  0.00    -0.394 OA
ATOM     39  H   UNL     1      13.728 -16.354   9.610  1.00  0.00     0.210 HD
ENDBRANCH  37  38
ENDBRANCH  31  37
BRANCH  32  40
ATOM     40  O   UNL     1      14.255 -20.589  13.227  1.00  0.00    -0.387 OA
ATOM     41  H   UNL     1      13.966 -20.699  14.170  1.00  0.00     0.211 HD
ENDBRANCH  32  40
ENDBRANCH   1  27
TORSDOF 12
ENDMDL
MODEL 9
REMARK VINA RESULT:    -5.985      2.932      4.867
REMARK INTER + INTRA:         -10.459
REMARK INTER:                  -9.194
REMARK INTRA:                  -1.265
REMARK UNBOUND:                -1.675
REMARK SMILES O=c1c(O[C@H]2O[C@@H](CO)[C@H](O)[C@H](O)[C@@H]2O)c(-c2ccc(O)c(O)c2)oc2cc(O)cc(O)c12
REMARK SMILES IDX 4 1 3 2 16 3 25 4 2 5 26 6 1 7 33 8 27 9 31 10 28 11 30 12
REMARK SMILES IDX 17 13 18 14 19 15 20 16 24 17 22 18 21 19 23 21 32 23 29 25
REMARK SMILES IDX 5 27 14 28 6 29 12 30 7 31 10 32 15 33 13 35 8 37 9 38 11 40
REMARK H PARENT 21 20 23 22 32 24 29 26 15 34 13 36 9 39 11 41
REMARK Flexibility Score: inf
ROOT
ATOM      1  O   UNL     1      11.540 -16.860  13.098  1.00  0.00    -0.454 OA
ENDROOT
BRANCH   1   2
ATOM      2  C   UNL     1      11.753 -18.206  12.779  1.00  0.00     0.214 A 
ATOM      3  C   UNL     1      12.332 -18.571  11.555  1.00  0.00     0.180 A 
ATOM      4  O   UNL     1      12.559 -19.850  11.278  1.00  0.00    -0.452 OA
ATOM      5  C   UNL     1      11.397 -19.207  13.686  1.00  0.00     0.239 A 
ATOM      6  C   UNL     1      12.250 -20.836  12.113  1.00  0.00     0.146 A 
ATOM      7  O   UNL     1      10.860 -18.885  14.781  1.00  0.00    -0.285 OA
ATOM      8  C   UNL     1      11.649 -20.558  13.365  1.00  0.00     0.111 A 
ATOM      9  C   UNL     1      12.518 -22.156  11.737  1.00  0.00     0.094 A 
ATOM     10  C   UNL     1      11.337 -21.631  14.233  1.00  0.00     0.134 A 
ATOM     11  C   UNL     1      12.196 -23.212  12.591  1.00  0.00     0.123 A 
ATOM     12  C   UNL     1      11.610 -22.948  13.835  1.00  0.00     0.093 A 
BRANCH   3  13
ATOM     13  C   UNL     1      12.669 -17.559  10.549  1.00  0.00     0.025 A 
ATOM     14  C   UNL     1      11.814 -17.349   9.460  1.00  0.00     0.016 A 
ATOM     15  C   UNL     1      12.146 -16.407   8.483  1.00  0.00     0.051 A 
ATOM     16  C   UNL     1      13.328 -15.666   8.587  1.00  0.00     0.157 A 
ATOM     17  C   UNL     1      13.860 -16.825  10.654  1.00  0.00     0.062 A 
ATOM     18  C   UNL     1      14.191 -15.874   9.679  1.00  0.00     0.158 A 
BRANCH  16  19
ATOM     19  O   UNL     1      13.630 -14.728   7.599  1.00  0.00    -0.504 OA
ATOM     20  H   UNL     1      13.058 -13.908   7.442  1.00  0.00     0.293 HD
ENDBRANCH  16  19
BRANCH  18  21
ATOM     21  O   UNL     1      15.363 -15.129   9.795  1.00  0.00    -0.504 OA
ATOM     22  H   UNL     1      15.707 -14.563   9.029  1.00  0.00     0.293 HD
ENDBRANCH  18  21
ENDBRANCH   3  13
BRANCH  10  23
ATOM     23  O   UNL     1      10.764 -21.400  15.485  1.00  0.00    -0.507 OA
ATOM     24  H   UNL     1      10.854 -20.507  15.955  1.00  0.00     0.293 HD
ENDBRANCH  10  23
BRANCH  11  25
ATOM     25  O   UNL     1      12.461 -24.522  12.193  1.00  0.00    -0.508 OA
ATOM     26  H   UNL     1      12.184 -25.314  12.761  1.00  0.00     0.293 HD
ENDBRANCH  11  25
ENDBRANCH   1   2
BRANCH   1  27
ATOM     27  C   UNL     1      10.358 -16.166  12.701  1.00  0.00     0.339 C 
ATOM     28  C   UNL     1      10.713 -14.866  11.963  1.00  0.00     0.214 C 
ATOM     29  O   UNL     1       9.484 -15.967  13.804  1.00  0.00    -0.332 OA
ATOM     30  C   UNL     1      11.314 -13.854  12.939  1.00  0.00     0.180 C 
ATOM     31  C   UNL     1       9.907 -14.990  14.751  1.00  0.00     0.179 C 
ATOM     32  C   UNL     1      10.374 -13.643  14.138  1.00  0.00     0.177 C 
BRANCH  28  33
ATOM     33  O   UNL     1       9.560 -14.336  11.357  1.00  0.00    -0.384 OA
ATOM     34  H   UNL     1       8.790 -14.882  11.674  1.00  0.00     0.211 HD
ENDBRANCH  28  33
BRANCH  30  35
ATOM     35  O   UNL     1      11.547 -12.639  12.276  1.00  0.00    -0.387 OA
ATOM     36  H   UNL     1      11.562 -11.929  12.971  1.00  0.00     0.211 HD
ENDBRANCH  30  35
BRANCH  31  37
ATOM     37  C   UNL     1      10.851 -15.561  15.826  1.00  0.00     0.191 C 
BRANCH  37  38
ATOM     38  O   UNL     1      12.039 -14.831  15.931  1.00  0.00    -0.394 OA
ATOM     39  H   UNL     1      12.577 -15.060  15.128  1.00  0.00     0.210 HD
ENDBRANCH  37  38
ENDBRANCH  31  37
BRANCH  32  40
ATOM     40  O   UNL     1       9.256 -12.893  13.724  1.00  0.00    -0.387 OA
ATOM     41  H   UNL     1       8.991 -13.237  12.831  1.00  0.00     0.211 HD
ENDBRANCH  32  40
ENDBRANCH   1  27
TORSDOF 12
ENDMDL
