MODEL 1
REMARK VINA RESULT:    -2.830      0.000      0.000
REMARK INTER + INTRA:          -2.830
REMARK INTER:                  -2.830
REMARK INTRA:                   0.000
REMARK UNBOUND:                 0.000
REMARK SMILES CC(=O)[O-]
REMARK SMILES IDX 1 1 2 2 3 3 4 4
REMARK H PARENT
REMARK Flexibility Score: inf
ROOT
ATOM      1  C   UNL     1     114.036 176.831 115.598  1.00  0.00     0.063 C 
ATOM      2  C   UNL     1     114.465 178.223 115.283  1.00  0.00     0.038 C 
ATOM      3  O   UNL     1     113.838 178.899 114.425  1.00  0.00    -0.550 OA
ATOM      4  O   UNL     1     115.524 178.798 115.973  1.00  0.00    -0.550 OA
ENDROOT
TORSDOF 0
ENDMDL
MODEL 2
REMARK VINA RESULT:    -2.826      1.419      2.067
REMARK INTER + INTRA:          -2.826
REMARK INTER:                  -2.826
REMARK INTRA:                   0.000
REMARK UNBOUND:                 0.000
REMARK SMILES CC(=O)[O-]
REMARK SMILES IDX 1 1 2 2 3 3 4 4
REMARK H PARENT
REMARK Flexibility Score: inf
ROOT
ATOM      1  C   UNL     1     115.419 178.472 116.165  1.00  0.00     0.063 C 
ATOM      2  C   UNL     1     114.278 177.912 115.387  1.00  0.00     0.038 C 
ATOM      3  O   UNL     1     113.934 176.712 115.544  1.00  0.00    -0.550 OA
ATOM      4  O   UNL     1     113.556 178.729 114.526  1.00  0.00    -0.550 OA
ENDROOT
TORSDOF 0
ENDMDL
MODEL 3
REMARK VINA RESULT:    -2.772      1.430      2.138
REMARK INTER + INTRA:          -2.772
REMARK INTER:                  -2.772
REMARK INTRA:                   0.000
REMARK UNBOUND:                 0.000
REMARK SMILES CC(=O)[O-]
REMARK SMILES IDX 1 1 2 2 3 3 4 4
REMARK H PARENT
REMARK Flexibility Score: inf
ROOT
ATOM      1  C   UNL     1     113.657 178.948 114.538  1.00  0.00     0.063 C 
ATOM      2  C   UNL     1     114.387 178.012 115.440  1.00  0.00     0.038 C 
ATOM      3  O   UNL     1     115.371 178.419 116.111  1.00  0.00    -0.550 OA
ATOM      4  O   UNL     1     113.950 176.701 115.583  1.00  0.00    -0.550 OA
ENDROOT
TORSDOF 0
ENDMDL
MODEL 4
REMARK VINA RESULT:    -2.292     12.919     13.324
REMARK INTER + INTRA:          -2.292
REMARK INTER:                  -2.292
REMARK INTRA:                   0.000
REMARK UNBOUND:                 0.000
REMARK SMILES CC(=O)[O-]
REMARK SMILES IDX 1 1 2 2 3 3 4 4
REMARK H PARENT
REMARK Flexibility Score: inf
ROOT
ATOM      1  C   UNL     1     115.698 165.580 122.548  1.00  0.00     0.063 C 
ATOM      2  C   UNL     1     115.052 166.733 121.857  1.00  0.00     0.038 C 
ATOM      3  O   UNL     1     114.586 167.691 122.528  1.00  0.00    -0.550 OA
ATOM      4  O   UNL     1     115.011 166.778 120.470  1.00  0.00    -0.550 OA
ENDROOT
TORSDOF 0
ENDMDL
MODEL 5
REMARK VINA RESULT:    -2.289     13.654     14.141
REMARK INTER + INTRA:          -2.289
REMARK INTER:                  -2.289
REMARK INTRA:                   0.000
REMARK UNBOUND:                 0.000
REMARK SMILES CC(=O)[O-]
REMARK SMILES IDX 1 1 2 2 3 3 4 4
REMARK H PARENT
REMARK Flexibility Score: inf
ROOT
ATOM      1  C   UNL     1     114.798 167.251 121.664  1.00  0.00     0.063 C 
ATOM      2  C   UNL     1     115.158 166.329 122.779  1.00  0.00     0.038 C 
ATOM      3  O   UNL     1     114.851 166.621 123.964  1.00  0.00    -0.550 OA
ATOM      4  O   UNL     1     115.784 165.119 122.507  1.00  0.00    -0.550 OA
ENDROOT
TORSDOF 0
ENDMDL
MODEL 6
REMARK VINA RESULT:    -2.289     12.503     13.056
REMARK INTER + INTRA:          -2.289
REMARK INTER:                  -2.289
REMARK INTRA:                   0.000
REMARK UNBOUND:                 0.000
REMARK SMILES CC(=O)[O-]
REMARK SMILES IDX 1 1 2 2 3 3 4 4
REMARK H PARENT
REMARK Flexibility Score: inf
ROOT
ATOM      1  C   UNL     1     116.284 166.160 117.469  1.00  0.00     0.063 C 
ATOM      2  C   UNL     1     116.169 165.873 118.927  1.00  0.00     0.038 C 
ATOM      3  O   UNL     1     116.916 165.012 119.462  1.00  0.00    -0.550 OA
ATOM      4  O   UNL     1     115.275 166.593 119.710  1.00  0.00    -0.550 OA
ENDROOT
TORSDOF 0
ENDMDL
MODEL 7
REMARK VINA RESULT:    -2.235     14.022     14.570
REMARK INTER + INTRA:          -2.235
REMARK INTER:                  -2.235
REMARK INTRA:                   0.000
REMARK UNBOUND:                 0.000
REMARK SMILES CC(=O)[O-]
REMARK SMILES IDX 1 1 2 2 3 3 4 4
REMARK H PARENT
REMARK Flexibility Score: inf
ROOT
ATOM      1  C   UNL     1     116.604 165.375 118.773  1.00  0.00     0.063 C 
ATOM      2  C   UNL     1     117.512 164.694 119.740  1.00  0.00     0.038 C 
ATOM      3  O   UNL     1     117.536 163.437 119.807  1.00  0.00    -0.550 OA
ATOM      4  O   UNL     1     118.374 165.443 120.532  1.00  0.00    -0.550 OA
ENDROOT
TORSDOF 0
ENDMDL
MODEL 8
REMARK VINA RESULT:    -2.228     13.685     14.281
REMARK INTER + INTRA:          -2.228
REMARK INTER:                  -2.228
REMARK INTRA:                   0.000
REMARK UNBOUND:                 0.000
REMARK SMILES CC(=O)[O-]
REMARK SMILES IDX 1 1 2 2 3 3 4 4
REMARK H PARENT
REMARK Flexibility Score: inf
ROOT
ATOM      1  C   UNL     1     115.891 165.391 122.660  1.00  0.00     0.063 C 
ATOM      2  C   UNL     1     115.077 166.467 123.294  1.00  0.00     0.038 C 
ATOM      3  O   UNL     1     114.752 166.382 124.507  1.00  0.00    -0.550 OA
ATOM      4  O   UNL     1     114.720 167.592 122.562  1.00  0.00    -0.550 OA
ENDROOT
TORSDOF 0
ENDMDL
MODEL 9
REMARK VINA RESULT:    -2.211     14.326     14.532
REMARK INTER + INTRA:          -2.211
REMARK INTER:                  -2.211
REMARK INTRA:                   0.000
REMARK UNBOUND:                 0.000
REMARK SMILES CC(=O)[O-]
REMARK SMILES IDX 1 1 2 2 3 3 4 4
REMARK H PARENT
REMARK Flexibility Score: inf
ROOT
ATOM      1  C   UNL     1     117.535 163.897 119.770  1.00  0.00     0.063 C 
ATOM      2  C   UNL     1     117.686 165.120 120.611  1.00  0.00     0.038 C 
ATOM      3  O   UNL     1     116.693 165.590 121.225  1.00  0.00    -0.550 OA
ATOM      4  O   UNL     1     118.934 165.711 120.762  1.00  0.00    -0.550 OA
ENDROOT
TORSDOF 0
ENDMDL
