MODEL 1
REMARK VINA RESULT:    -6.478      0.000      0.000
REMARK INTER + INTRA:          -7.730
REMARK INTER:                  -7.614
REMARK INTRA:                  -0.116
REMARK UNBOUND:                -0.116
REMARK SMILES O=c1c(O)c(-c2ccc(O)c(O)c2)oc2cc(O)ccc12
REMARK SMILES IDX 5 1 3 2 2 3 1 4 21 5 15 6 14 7 16 8 17 9 19 10 20 11 6 12
REMARK SMILES IDX 7 13 8 14 9 15 13 16 11 17 10 18 12 20 4 22 18 24
REMARK H PARENT 10 19 12 21 4 23 18 25
REMARK Flexibility Score: inf
ROOT
ATOM      1  C   UNL     1      10.033  30.424  -1.719  1.00  0.00     0.180 A 
ATOM      2  C   UNL     1       9.390  31.406  -2.501  1.00  0.00     0.208 A 
ATOM      3  C   UNL     1       9.864  31.656  -3.797  1.00  0.00     0.235 A 
ATOM      4  O   UNL     1       9.299  32.522  -4.520  1.00  0.00    -0.285 OA
ATOM      5  C   UNL     1      10.975  30.943  -4.276  1.00  0.00     0.069 A 
ATOM      6  C   UNL     1      11.578  29.994  -3.422  1.00  0.00     0.142 A 
ATOM      7  O   UNL     1      11.092  29.780  -2.205  1.00  0.00    -0.452 OA
ATOM      8  C   UNL     1      12.693  29.269  -3.859  1.00  0.00     0.094 A 
ATOM      9  C   UNL     1      13.214  29.479  -5.141  1.00  0.00     0.119 A 
ATOM     10  C   UNL     1      12.616  30.420  -5.991  1.00  0.00     0.047 A 
ATOM     11  C   UNL     1      11.502  31.150  -5.563  1.00  0.00     0.020 A 
ENDROOT
BRANCH   1  12
ATOM     12  C   UNL     1       9.581  30.089  -0.349  1.00  0.00     0.025 A 
ATOM     13  C   UNL     1       9.563  31.053   0.672  1.00  0.00     0.016 A 
ATOM     14  C   UNL     1       9.109  30.720   1.952  1.00  0.00     0.051 A 
ATOM     15  C   UNL     1       8.656  29.423   2.225  1.00  0.00     0.157 A 
ATOM     16  C   UNL     1       9.107  28.795  -0.076  1.00  0.00     0.062 A 
ATOM     17  C   UNL     1       8.652  28.457   1.204  1.00  0.00     0.158 A 
BRANCH  15  18
ATOM     18  O   UNL     1       8.206  29.092   3.503  1.00  0.00    -0.504 OA
ATOM     19  H   UNL     1       7.806  29.787   4.120  1.00  0.00     0.293 HD
ENDBRANCH  15  18
BRANCH  17  20
ATOM     20  O   UNL     1       8.200  27.159   1.441  1.00  0.00    -0.504 OA
ATOM     21  H   UNL     1       8.798  26.444   1.837  1.00  0.00     0.293 HD
ENDBRANCH  17  20
ENDBRANCH   1  12
BRANCH   2  22
ATOM     22  O   UNL     1       8.318  32.134  -1.980  1.00  0.00    -0.502 OA
ATOM     23  H   UNL     1       7.389  31.740  -1.888  1.00  0.00     0.293 HD
ENDBRANCH   2  22
BRANCH   9  24
ATOM     24  O   UNL     1      14.324  28.749  -5.558  1.00  0.00    -0.508 OA
ATOM     25  H   UNL     1      15.162  29.207  -5.897  1.00  0.00     0.293 HD
ENDBRANCH   9  24
TORSDOF 5
ENDMDL
MODEL 2
REMARK VINA RESULT:    -6.423      3.714      6.959
REMARK INTER + INTRA:          -7.665
REMARK INTER:                  -7.373
REMARK INTRA:                  -0.292
REMARK UNBOUND:                -0.116
REMARK SMILES O=c1c(O)c(-c2ccc(O)c(O)c2)oc2cc(O)ccc12
REMARK SMILES IDX 5 1 3 2 2 3 1 4 21 5 15 6 14 7 16 8 17 9 19 10 20 11 6 12
REMARK SMILES IDX 7 13 8 14 9 15 13 16 11 17 10 18 12 20 4 22 18 24
REMARK H PARENT 10 19 12 21 4 23 18 25
REMARK Flexibility Score: inf
ROOT
ATOM      1  C   UNL     1       9.316  30.393   4.341  1.00  0.00     0.180 A 
ATOM      2  C   UNL     1       9.004  29.017   4.332  1.00  0.00     0.208 A 
ATOM      3  C   UNL     1       8.903  28.354   3.100  1.00  0.00     0.235 A 
ATOM      4  O   UNL     1       8.635  27.122   3.066  1.00  0.00    -0.285 OA
ATOM      5  C   UNL     1       9.093  29.076   1.910  1.00  0.00     0.069 A 
ATOM      6  C   UNL     1       9.378  30.455   2.003  1.00  0.00     0.142 A 
ATOM      7  O   UNL     1       9.475  31.043   3.189  1.00  0.00    -0.452 OA
ATOM      8  C   UNL     1       9.565  31.210   0.839  1.00  0.00     0.094 A 
ATOM      9  C   UNL     1       9.471  30.604  -0.418  1.00  0.00     0.119 A 
ATOM     10  C   UNL     1       9.189  29.234  -0.514  1.00  0.00     0.047 A 
ATOM     11  C   UNL     1       9.000  28.472   0.643  1.00  0.00     0.020 A 
ENDROOT
BRANCH   1  12
ATOM     12  C   UNL     1       9.459  31.159   5.600  1.00  0.00     0.025 A 
ATOM     13  C   UNL     1       8.401  31.926   6.114  1.00  0.00     0.016 A 
ATOM     14  C   UNL     1       8.551  32.622   7.317  1.00  0.00     0.051 A 
ATOM     15  C   UNL     1       9.755  32.551   8.029  1.00  0.00     0.157 A 
ATOM     16  C   UNL     1      10.657  31.074   6.327  1.00  0.00     0.062 A 
ATOM     17  C   UNL     1      10.813  31.770   7.532  1.00  0.00     0.158 A 
BRANCH  15  18
ATOM     18  O   UNL     1       9.903  33.248   9.227  1.00  0.00    -0.504 OA
ATOM     19  H   UNL     1       9.127  33.376   9.865  1.00  0.00     0.293 HD
ENDBRANCH  15  18
BRANCH  17  20
ATOM     20  O   UNL     1      12.021  31.672   8.221  1.00  0.00    -0.504 OA
ATOM     21  H   UNL     1      12.780  31.084   7.896  1.00  0.00     0.293 HD
ENDBRANCH  17  20
ENDBRANCH   1  12
BRANCH   2  22
ATOM     22  O   UNL     1       8.772  28.337   5.530  1.00  0.00    -0.502 OA
ATOM     23  H   UNL     1       9.184  27.433   5.728  1.00  0.00     0.293 HD
ENDBRANCH   2  22
BRANCH   9  24
ATOM     24  O   UNL     1       9.660  31.372  -1.565  1.00  0.00    -0.508 OA
ATOM     25  H   UNL     1       8.900  31.554  -2.211  1.00  0.00     0.293 HD
ENDBRANCH   9  24
TORSDOF 5
ENDMDL
MODEL 3
REMARK VINA RESULT:    -6.372      2.483      4.196
REMARK INTER + INTRA:          -7.605
REMARK INTER:                  -7.479
REMARK INTRA:                  -0.126
REMARK UNBOUND:                -0.116
REMARK SMILES O=c1c(O)c(-c2ccc(O)c(O)c2)oc2cc(O)ccc12
REMARK SMILES IDX 5 1 3 2 2 3 1 4 21 5 15 6 14 7 16 8 17 9 19 10 20 11 6 12
REMARK SMILES IDX 7 13 8 14 9 15 13 16 11 17 10 18 12 20 4 22 18 24
REMARK H PARENT 10 19 12 21 4 23 18 25
REMARK Flexibility Score: inf
ROOT
ATOM      1  C   UNL     1      11.675  29.669  -5.154  1.00  0.00     0.180 A 
ATOM      2  C   UNL     1      10.827  29.881  -6.262  1.00  0.00     0.208 A 
ATOM      3  C   UNL     1      11.381  29.864  -7.551  1.00  0.00     0.235 A 
ATOM      4  O   UNL     1      10.642  30.041  -8.558  1.00  0.00    -0.285 OA
ATOM      5  C   UNL     1      12.761  29.658  -7.706  1.00  0.00     0.069 A 
ATOM      6  C   UNL     1      13.545  29.478  -6.547  1.00  0.00     0.142 A 
ATOM      7  O   UNL     1      12.980  29.491  -5.345  1.00  0.00    -0.452 OA
ATOM      8  C   UNL     1      14.926  29.279  -6.659  1.00  0.00     0.094 A 
ATOM      9  C   UNL     1      15.535  29.257  -7.919  1.00  0.00     0.119 A 
ATOM     10  C   UNL     1      14.759  29.435  -9.073  1.00  0.00     0.047 A 
ATOM     11  C   UNL     1      13.379  29.635  -8.970  1.00  0.00     0.020 A 
ENDROOT
BRANCH   1  12
ATOM     12  C   UNL     1      11.164  29.653  -3.764  1.00  0.00     0.025 A 
ATOM     13  C   UNL     1      10.180  28.736  -3.357  1.00  0.00     0.016 A 
ATOM     14  C   UNL     1       9.731  28.724  -2.033  1.00  0.00     0.051 A 
ATOM     15  C   UNL     1      10.265  29.617  -1.097  1.00  0.00     0.157 A 
ATOM     16  C   UNL     1      11.712  30.533  -2.817  1.00  0.00     0.062 A 
ATOM     17  C   UNL     1      11.264  30.525  -1.491  1.00  0.00     0.158 A 
BRANCH  15  18
ATOM     18  O   UNL     1       9.813  29.605   0.222  1.00  0.00    -0.504 OA
ATOM     19  H   UNL     1      10.319  29.117   0.951  1.00  0.00     0.293 HD
ENDBRANCH  15  18
BRANCH  17  20
ATOM     20  O   UNL     1      11.823  31.422  -0.581  1.00  0.00    -0.504 OA
ATOM     21  H   UNL     1      12.812  31.421  -0.363  1.00  0.00     0.293 HD
ENDBRANCH  17  20
ENDBRANCH   1  12
BRANCH   2  22
ATOM     22  O   UNL     1       9.466  30.133  -6.073  1.00  0.00    -0.502 OA
ATOM     23  H   UNL     1       8.746  29.592  -6.537  1.00  0.00     0.293 HD
ENDBRANCH   2  22
BRANCH   9  24
ATOM     24  O   UNL     1      16.911  29.058  -8.012  1.00  0.00    -0.508 OA
ATOM     25  H   UNL     1      17.317  28.510  -8.762  1.00  0.00     0.293 HD
ENDBRANCH   9  24
TORSDOF 5
ENDMDL
MODEL 4
REMARK VINA RESULT:    -6.312      1.933      7.287
REMARK INTER + INTRA:          -7.534
REMARK INTER:                  -7.415
REMARK INTRA:                  -0.119
REMARK UNBOUND:                -0.116
REMARK SMILES O=c1c(O)c(-c2ccc(O)c(O)c2)oc2cc(O)ccc12
REMARK SMILES IDX 5 1 3 2 2 3 1 4 21 5 15 6 14 7 16 8 17 9 19 10 20 11 6 12
REMARK SMILES IDX 7 13 8 14 9 15 13 16 11 17 10 18 12 20 4 22 18 24
REMARK H PARENT 10 19 12 21 4 23 18 25
REMARK Flexibility Score: inf
ROOT
ATOM      1  C   UNL     1      11.625  30.128  -5.087  1.00  0.00     0.180 A 
ATOM      2  C   UNL     1      10.804  31.272  -5.012  1.00  0.00     0.208 A 
ATOM      3  C   UNL     1      10.003  31.457  -3.875  1.00  0.00     0.235 A 
ATOM      4  O   UNL     1       9.268  32.477  -3.779  1.00  0.00    -0.285 OA
ATOM      5  C   UNL     1      10.024  30.494  -2.853  1.00  0.00     0.069 A 
ATOM      6  C   UNL     1      10.855  29.365  -3.014  1.00  0.00     0.142 A 
ATOM      7  O   UNL     1      11.604  29.232  -4.102  1.00  0.00    -0.452 OA
ATOM      8  C   UNL     1      10.896  28.378  -2.022  1.00  0.00     0.094 A 
ATOM      9  C   UNL     1      10.116  28.507  -0.867  1.00  0.00     0.119 A 
ATOM     10  C   UNL     1       9.290  29.627  -0.704  1.00  0.00     0.047 A 
ATOM     11  C   UNL     1       9.242  30.618  -1.690  1.00  0.00     0.020 A 
ENDROOT
BRANCH   1  12
ATOM     12  C   UNL     1      12.512  29.871  -6.245  1.00  0.00     0.025 A 
ATOM     13  C   UNL     1      11.995  29.715  -7.542  1.00  0.00     0.016 A 
ATOM     14  C   UNL     1      12.854  29.497  -8.624  1.00  0.00     0.051 A 
ATOM     15  C   UNL     1      14.239  29.444  -8.427  1.00  0.00     0.157 A 
ATOM     16  C   UNL     1      13.903  29.837  -6.055  1.00  0.00     0.062 A 
ATOM     17  C   UNL     1      14.766  29.618  -7.136  1.00  0.00     0.158 A 
BRANCH  15  18
ATOM     18  O   UNL     1      15.093  29.224  -9.507  1.00  0.00    -0.504 OA
ATOM     19  H   UNL     1      14.893  29.600 -10.426  1.00  0.00     0.293 HD
ENDBRANCH  15  18
BRANCH  17  20
ATOM     20  O   UNL     1      16.142  29.579  -6.907  1.00  0.00    -0.504 OA
ATOM     21  H   UNL     1      16.629  30.326  -6.428  1.00  0.00     0.293 HD
ENDBRANCH  17  20
ENDBRANCH   1  12
BRANCH   2  22
ATOM     22  O   UNL     1      10.768  32.187  -6.067  1.00  0.00    -0.502 OA
ATOM     23  H   UNL     1      10.096  32.944  -6.104  1.00  0.00     0.293 HD
ENDBRANCH   2  22
BRANCH   9  24
ATOM     24  O   UNL     1      10.169  27.515   0.110  1.00  0.00    -0.508 OA
ATOM     25  H   UNL     1       9.782  26.592  -0.051  1.00  0.00     0.293 HD
ENDBRANCH   9  24
TORSDOF 5
ENDMDL
MODEL 5
REMARK VINA RESULT:    -6.213      2.006      3.105
REMARK INTER + INTRA:          -7.419
REMARK INTER:                  -7.097
REMARK INTRA:                  -0.322
REMARK UNBOUND:                -0.116
REMARK SMILES O=c1c(O)c(-c2ccc(O)c(O)c2)oc2cc(O)ccc12
REMARK SMILES IDX 5 1 3 2 2 3 1 4 21 5 15 6 14 7 16 8 17 9 19 10 20 11 6 12
REMARK SMILES IDX 7 13 8 14 9 15 13 16 11 17 10 18 12 20 4 22 18 24
REMARK H PARENT 10 19 12 21 4 23 18 25
REMARK Flexibility Score: inf
ROOT
ATOM      1  C   UNL     1      11.012  29.523  -4.096  1.00  0.00     0.180 A 
ATOM      2  C   UNL     1      10.121  29.792  -5.156  1.00  0.00     0.208 A 
ATOM      3  C   UNL     1      10.635  29.934  -6.453  1.00  0.00     0.235 A 
ATOM      4  O   UNL     1       9.858  30.164  -7.419  1.00  0.00    -0.285 OA
ATOM      5  C   UNL     1      12.020  29.825  -6.662  1.00  0.00     0.069 A 
ATOM      6  C   UNL     1      12.848  29.579  -5.546  1.00  0.00     0.142 A 
ATOM      7  O   UNL     1      12.320  29.442  -4.335  1.00  0.00    -0.452 OA
ATOM      8  C   UNL     1      14.233  29.474  -5.712  1.00  0.00     0.094 A 
ATOM      9  C   UNL     1      14.804  29.611  -6.982  1.00  0.00     0.119 A 
ATOM     10  C   UNL     1      13.985  29.854  -8.093  1.00  0.00     0.047 A 
ATOM     11  C   UNL     1      12.599  29.961  -7.937  1.00  0.00     0.020 A 
ENDROOT
BRANCH   1  12
ATOM     12  C   UNL     1      10.546  29.342  -2.702  1.00  0.00     0.025 A 
ATOM     13  C   UNL     1      10.129  28.088  -2.227  1.00  0.00     0.016 A 
ATOM     14  C   UNL     1       9.715  27.935  -0.901  1.00  0.00     0.051 A 
ATOM     15  C   UNL     1       9.724  29.031  -0.028  1.00  0.00     0.157 A 
ATOM     16  C   UNL     1      10.573  30.433  -1.818  1.00  0.00     0.062 A 
ATOM     17  C   UNL     1      10.159  30.285  -0.489  1.00  0.00     0.158 A 
BRANCH  15  18
ATOM     18  O   UNL     1       9.309  28.877   1.294  1.00  0.00    -0.504 OA
ATOM     19  H   UNL     1       9.820  29.293   2.063  1.00  0.00     0.293 HD
ENDBRANCH  15  18
BRANCH  17  20
ATOM     20  O   UNL     1      10.187  31.394   0.357  1.00  0.00    -0.504 OA
ATOM     21  H   UNL     1       9.372  31.975   0.511  1.00  0.00     0.293 HD
ENDBRANCH  17  20
ENDBRANCH   1  12
BRANCH   2  22
ATOM     22  O   UNL     1       8.754  29.943  -4.909  1.00  0.00    -0.502 OA
ATOM     23  H   UNL     1       8.287  30.839  -4.983  1.00  0.00     0.293 HD
ENDBRANCH   2  22
BRANCH   9  24
ATOM     24  O   UNL     1      16.185  29.503  -7.129  1.00  0.00    -0.508 OA
ATOM     25  H   UNL     1      16.652  28.604  -7.099  1.00  0.00     0.293 HD
ENDBRANCH   9  24
TORSDOF 5
ENDMDL
MODEL 6
REMARK VINA RESULT:    -6.178      1.760      7.111
REMARK INTER + INTRA:          -7.378
REMARK INTER:                  -7.069
REMARK INTRA:                  -0.309
REMARK UNBOUND:                -0.116
REMARK SMILES O=c1c(O)c(-c2ccc(O)c(O)c2)oc2cc(O)ccc12
REMARK SMILES IDX 5 1 3 2 2 3 1 4 21 5 15 6 14 7 16 8 17 9 19 10 20 11 6 12
REMARK SMILES IDX 7 13 8 14 9 15 13 16 11 17 10 18 12 20 4 22 18 24
REMARK H PARENT 10 19 12 21 4 23 18 25
REMARK Flexibility Score: inf
ROOT
ATOM      1  C   UNL     1      10.099  29.749  -1.130  1.00  0.00     0.180 A 
ATOM      2  C   UNL     1       9.882  28.395  -0.802  1.00  0.00     0.208 A 
ATOM      3  C   UNL     1       9.264  28.084   0.419  1.00  0.00     0.235 A 
ATOM      4  O   UNL     1       9.050  26.881   0.730  1.00  0.00    -0.285 OA
ATOM      5  C   UNL     1       8.896  29.123   1.289  1.00  0.00     0.069 A 
ATOM      6  C   UNL     1       9.168  30.451   0.899  1.00  0.00     0.142 A 
ATOM      7  O   UNL     1       9.747  30.703  -0.270  1.00  0.00    -0.452 OA
ATOM      8  C   UNL     1       8.825  31.514   1.743  1.00  0.00     0.094 A 
ATOM      9  C   UNL     1       8.210  31.265   2.975  1.00  0.00     0.119 A 
ATOM     10  C   UNL     1       7.937  29.947   3.365  1.00  0.00     0.047 A 
ATOM     11  C   UNL     1       8.277  28.879   2.529  1.00  0.00     0.020 A 
ENDROOT
BRANCH   1  12
ATOM     12  C   UNL     1      10.728  30.159  -2.407  1.00  0.00     0.025 A 
ATOM     13  C   UNL     1       9.953  30.540  -3.515  1.00  0.00     0.016 A 
ATOM     14  C   UNL     1      10.569  30.946  -4.702  1.00  0.00     0.051 A 
ATOM     15  C   UNL     1      11.966  30.989  -4.795  1.00  0.00     0.157 A 
ATOM     16  C   UNL     1      12.127  30.223  -2.497  1.00  0.00     0.062 A 
ATOM     17  C   UNL     1      12.749  30.628  -3.685  1.00  0.00     0.158 A 
BRANCH  15  18
ATOM     18  O   UNL     1      12.578  31.392  -5.981  1.00  0.00    -0.504 OA
ATOM     19  H   UNL     1      12.159  31.204  -6.884  1.00  0.00     0.293 HD
ENDBRANCH  15  18
BRANCH  17  20
ATOM     20  O   UNL     1      14.142  30.668  -3.742  1.00  0.00    -0.504 OA
ATOM     21  H   UNL     1      14.667  31.499  -3.498  1.00  0.00     0.293 HD
ENDBRANCH  17  20
ENDBRANCH   1  12
BRANCH   2  22
ATOM     22  O   UNL     1      10.305  27.382  -1.667  1.00  0.00    -0.502 OA
ATOM     23  H   UNL     1      11.282  27.136  -1.776  1.00  0.00     0.293 HD
ENDBRANCH   2  22
BRANCH   9  24
ATOM     24  O   UNL     1       7.875  32.334   3.803  1.00  0.00    -0.508 OA
ATOM     25  H   UNL     1       8.198  32.382   4.762  1.00  0.00     0.293 HD
ENDBRANCH   9  24
TORSDOF 5
ENDMDL
MODEL 7
REMARK VINA RESULT:    -6.114      1.242      2.993
REMARK INTER + INTRA:          -7.302
REMARK INTER:                  -7.067
REMARK INTRA:                  -0.236
REMARK UNBOUND:                -0.116
REMARK SMILES O=c1c(O)c(-c2ccc(O)c(O)c2)oc2cc(O)ccc12
REMARK SMILES IDX 5 1 3 2 2 3 1 4 21 5 15 6 14 7 16 8 17 9 19 10 20 11 6 12
REMARK SMILES IDX 7 13 8 14 9 15 13 16 11 17 10 18 12 20 4 22 18 24
REMARK H PARENT 10 19 12 21 4 23 18 25
REMARK Flexibility Score: inf
ROOT
ATOM      1  C   UNL     1      10.226  30.487  -1.938  1.00  0.00     0.180 A 
ATOM      2  C   UNL     1      11.498  30.072  -2.383  1.00  0.00     0.208 A 
ATOM      3  C   UNL     1      11.934  30.472  -3.656  1.00  0.00     0.235 A 
ATOM      4  O   UNL     1      13.072  30.122  -4.073  1.00  0.00    -0.285 OA
ATOM      5  C   UNL     1      11.089  31.256  -4.459  1.00  0.00     0.069 A 
ATOM      6  C   UNL     1       9.822  31.610  -3.950  1.00  0.00     0.142 A 
ATOM      7  O   UNL     1       9.451  31.218  -2.737  1.00  0.00    -0.452 OA
ATOM      8  C   UNL     1       8.948  32.382  -4.724  1.00  0.00     0.094 A 
ATOM      9  C   UNL     1       9.326  32.807  -6.003  1.00  0.00     0.119 A 
ATOM     10  C   UNL     1      10.585  32.458  -6.510  1.00  0.00     0.047 A 
ATOM     11  C   UNL     1      11.464  31.686  -5.745  1.00  0.00     0.020 A 
ENDROOT
BRANCH   1  12
ATOM     12  C   UNL     1       9.702  30.122  -0.602  1.00  0.00     0.025 A 
ATOM     13  C   UNL     1       9.587  31.075   0.425  1.00  0.00     0.016 A 
ATOM     14  C   UNL     1       9.067  30.713   1.670  1.00  0.00     0.051 A 
ATOM     15  C   UNL     1       8.645  29.398   1.905  1.00  0.00     0.157 A 
ATOM     16  C   UNL     1       9.258  28.811  -0.369  1.00  0.00     0.062 A 
ATOM     17  C   UNL     1       8.738  28.443   0.878  1.00  0.00     0.158 A 
BRANCH  15  18
ATOM     18  O   UNL     1       8.129  29.039   3.149  1.00  0.00    -0.504 OA
ATOM     19  H   UNL     1       8.723  28.673   3.884  1.00  0.00     0.293 HD
ENDBRANCH  15  18
BRANCH  17  20
ATOM     20  O   UNL     1       8.318  27.128   1.076  1.00  0.00    -0.504 OA
ATOM     21  H   UNL     1       8.816  26.490   1.685  1.00  0.00     0.293 HD
ENDBRANCH  17  20
ENDBRANCH   1  12
BRANCH   2  22
ATOM     22  O   UNL     1      12.295  29.251  -1.581  1.00  0.00    -0.502 OA
ATOM     23  H   UNL     1      11.950  28.387  -1.181  1.00  0.00     0.293 HD
ENDBRANCH   2  22
BRANCH   9  24
ATOM     24  O   UNL     1       8.443  33.575  -6.759  1.00  0.00    -0.508 OA
ATOM     25  H   UNL     1       7.534  33.844  -6.401  1.00  0.00     0.293 HD
ENDBRANCH   9  24
TORSDOF 5
ENDMDL
MODEL 8
REMARK VINA RESULT:    -5.853      3.066      7.246
REMARK INTER + INTRA:          -6.995
REMARK INTER:                  -6.939
REMARK INTRA:                  -0.056
REMARK UNBOUND:                -0.116
REMARK SMILES O=c1c(O)c(-c2ccc(O)c(O)c2)oc2cc(O)ccc12
REMARK SMILES IDX 5 1 3 2 2 3 1 4 21 5 15 6 14 7 16 8 17 9 19 10 20 11 6 12
REMARK SMILES IDX 7 13 8 14 9 15 13 16 11 17 10 18 12 20 4 22 18 24
REMARK H PARENT 10 19 12 21 4 23 18 25
REMARK Flexibility Score: inf
ROOT
ATOM      1  C   UNL     1      10.122  32.464  -5.228  1.00  0.00     0.180 A 
ATOM      2  C   UNL     1       9.119  32.572  -4.242  1.00  0.00     0.208 A 
ATOM      3  C   UNL     1       9.147  31.694  -3.148  1.00  0.00     0.235 A 
ATOM      4  O   UNL     1       8.267  31.778  -2.249  1.00  0.00    -0.285 OA
ATOM      5  C   UNL     1      10.156  30.721  -3.071  1.00  0.00     0.069 A 
ATOM      6  C   UNL     1      11.110  30.661  -4.109  1.00  0.00     0.142 A 
ATOM      7  O   UNL     1      11.053  31.517  -5.123  1.00  0.00    -0.452 OA
ATOM      8  C   UNL     1      12.126  29.699  -4.073  1.00  0.00     0.094 A 
ATOM      9  C   UNL     1      12.202  28.794  -3.008  1.00  0.00     0.119 A 
ATOM     10  C   UNL     1      11.257  28.851  -1.975  1.00  0.00     0.047 A 
ATOM     11  C   UNL     1      10.238  29.808  -2.003  1.00  0.00     0.020 A 
ENDROOT
BRANCH   1  12
ATOM     12  C   UNL     1      10.172  33.364  -6.402  1.00  0.00     0.025 A 
ATOM     13  C   UNL     1      10.118  32.862  -7.713  1.00  0.00     0.016 A 
ATOM     14  C   UNL     1      10.142  33.733  -8.806  1.00  0.00     0.051 A 
ATOM     15  C   UNL     1      10.209  35.117  -8.605  1.00  0.00     0.157 A 
ATOM     16  C   UNL     1      10.218  34.754  -6.205  1.00  0.00     0.062 A 
ATOM     17  C   UNL     1      10.244  35.630  -7.296  1.00  0.00     0.158 A 
BRANCH  15  18
ATOM     18  O   UNL     1      10.236  35.984  -9.697  1.00  0.00    -0.504 OA
ATOM     19  H   UNL     1      11.062  36.524  -9.925  1.00  0.00     0.293 HD
ENDBRANCH  15  18
BRANCH  17  20
ATOM     20  O   UNL     1      10.303  37.004  -7.062  1.00  0.00    -0.504 OA
ATOM     21  H   UNL     1       9.859  37.674  -7.678  1.00  0.00     0.293 HD
ENDBRANCH  17  20
ENDBRANCH   1  12
BRANCH   2  22
ATOM     22  O   UNL     1       8.099  33.518  -4.373  1.00  0.00    -0.502 OA
ATOM     23  H   UNL     1       7.131  33.302  -4.168  1.00  0.00     0.293 HD
ENDBRANCH   2  22
BRANCH   9  24
ATOM     24  O   UNL     1      13.219  27.843  -2.988  1.00  0.00    -0.508 OA
ATOM     25  H   UNL     1      13.039  26.881  -2.725  1.00  0.00     0.293 HD
ENDBRANCH   9  24
TORSDOF 5
ENDMDL
MODEL 9
REMARK VINA RESULT:    -5.810      2.989      5.173
REMARK INTER + INTRA:          -6.944
REMARK INTER:                  -7.069
REMARK INTRA:                   0.124
REMARK UNBOUND:                -0.116
REMARK SMILES O=c1c(O)c(-c2ccc(O)c(O)c2)oc2cc(O)ccc12
REMARK SMILES IDX 5 1 3 2 2 3 1 4 21 5 15 6 14 7 16 8 17 9 19 10 20 11 6 12
REMARK SMILES IDX 7 13 8 14 9 15 13 16 11 17 10 18 12 20 4 22 18 24
REMARK H PARENT 10 19 12 21 4 23 18 25
REMARK Flexibility Score: inf
ROOT
ATOM      1  C   UNL     1      10.517  31.437  -5.224  1.00  0.00     0.180 A 
ATOM      2  C   UNL     1      10.874  30.802  -6.432  1.00  0.00     0.208 A 
ATOM      3  C   UNL     1      10.895  31.559  -7.613  1.00  0.00     0.235 A 
ATOM      4  O   UNL     1      11.221  31.016  -8.705  1.00  0.00    -0.285 OA
ATOM      5  C   UNL     1      10.544  32.918  -7.569  1.00  0.00     0.069 A 
ATOM      6  C   UNL     1      10.175  33.473  -6.325  1.00  0.00     0.142 A 
ATOM      7  O   UNL     1      10.177  32.725  -5.228  1.00  0.00    -0.452 OA
ATOM      8  C   UNL     1       9.809  34.821  -6.241  1.00  0.00     0.094 A 
ATOM      9  C   UNL     1       9.808  35.624  -7.388  1.00  0.00     0.119 A 
ATOM     10  C   UNL     1      10.174  35.076  -8.624  1.00  0.00     0.047 A 
ATOM     11  C   UNL     1      10.541  33.729  -8.718  1.00  0.00     0.020 A 
ENDROOT
BRANCH   1  12
ATOM     12  C   UNL     1      10.489  30.713  -3.933  1.00  0.00     0.025 A 
ATOM     13  C   UNL     1       9.411  30.846  -3.042  1.00  0.00     0.016 A 
ATOM     14  C   UNL     1       9.394  30.133  -1.840  1.00  0.00     0.051 A 
ATOM     15  C   UNL     1      10.448  29.269  -1.516  1.00  0.00     0.157 A 
ATOM     16  C   UNL     1      11.533  29.829  -3.614  1.00  0.00     0.062 A 
ATOM     17  C   UNL     1      11.522  29.114  -2.410  1.00  0.00     0.158 A 
BRANCH  15  18
ATOM     18  O   UNL     1      10.431  28.562  -0.315  1.00  0.00    -0.504 OA
ATOM     19  H   UNL     1       9.587  28.119   0.028  1.00  0.00     0.293 HD
ENDBRANCH  15  18
BRANCH  17  20
ATOM     20  O   UNL     1      12.582  28.256  -2.121  1.00  0.00    -0.504 OA
ATOM     21  H   UNL     1      13.285  28.483  -1.429  1.00  0.00     0.293 HD
ENDBRANCH  17  20
ENDBRANCH   1  12
BRANCH   2  22
ATOM     22  O   UNL     1      11.171  29.437  -6.452  1.00  0.00    -0.502 OA
ATOM     23  H   UNL     1      10.550  28.743  -6.053  1.00  0.00     0.293 HD
ENDBRANCH   2  22
BRANCH   9  24
ATOM     24  O   UNL     1       9.440  36.964  -7.286  1.00  0.00    -0.508 OA
ATOM     25  H   UNL     1       8.616  37.249  -6.770  1.00  0.00     0.293 HD
ENDBRANCH   9  24
TORSDOF 5
ENDMDL
