MODEL 1
REMARK VINA RESULT:     8.037      0.000      0.000
REMARK INTER + INTRA:           9.758
REMARK INTER:                  10.622
REMARK INTRA:                  -0.864
REMARK UNBOUND:                -0.864
REMARK SMILES CC[C@@H](C=C[C@H](C)[C@H]1CC[C@@H]2C3=CC[C@@H]4C[C@@H](O)CC[C@]4(C)[C@H]3CC[C@@]21C)C(C)C
REMARK SMILES IDX 6 1 7 2 5 3 4 4 3 5 2 6 1 7 28 8 29 9 30 10 8 11 9 12 26 13
REMARK SMILES IDX 10 14 11 15 25 16 27 17 12 18 24 19 23 20 13 21 21 22 14 23
REMARK SMILES IDX 15 24 20 25 22 26 16 27 19 28 17 29 18 30
REMARK H PARENT 18 31
REMARK Flexibility Score: inf
ROOT
ATOM      1  C   UNL     1      12.097  17.261  24.771  1.00  0.00     0.012 C 
ATOM      2  C   UNL     1      10.987  18.027  25.518  1.00  0.00     0.012 C 
ENDROOT
BRANCH   1   3
ATOM      3  C   UNL     1      12.476  17.949  23.470  1.00  0.00    -0.028 C 
ATOM      4  C   UNL     1      13.204  17.376  22.495  1.00  0.00    -0.027 C 
BRANCH   4   5
ATOM      5  C   UNL     1      13.568  18.124  21.228  1.00  0.00     0.014 C 
BRANCH   5   6
ATOM      6  C   UNL     1      12.755  17.510  20.058  1.00  0.00     0.004 C 
ATOM      7  C   UNL     1      11.264  17.844  20.088  1.00  0.00     0.004 C 
ENDBRANCH   5   6
BRANCH   5   8
ATOM      8  C   UNL     1      15.124  18.125  21.065  1.00  0.00    -0.011 C 
ATOM      9  C   UNL     1      15.619  17.103  20.029  1.00  0.00     0.008 C 
ATOM     10  C   UNL     1      15.887  17.972  22.389  1.00  0.00     0.008 C 
ENDBRANCH   5   8
ENDBRANCH   4   5
ENDBRANCH   1   3
BRANCH   1  11
ATOM     11  C   UNL     1      13.374  16.899  25.619  1.00  0.00     0.002 C 
ATOM     12  C   UNL     1      13.864  18.061  26.494  1.00  0.00     0.005 C 
ATOM     13  C   UNL     1      13.271  15.680  26.610  1.00  0.00    -0.023 C 
ATOM     14  C   UNL     1      13.364  17.796  27.909  1.00  0.00     0.009 C 
ATOM     15  C   UNL     1      12.892  16.335  27.966  1.00  0.00     0.021 C 
ATOM     16  C   UNL     1      14.648  14.913  26.678  1.00  0.00     0.008 C 
ATOM     17  C   UNL     1      12.193  14.638  26.207  1.00  0.00     0.012 C 
ATOM     18  C   UNL     1      13.458  15.625  29.184  1.00  0.00    -0.067 C 
ATOM     19  C   UNL     1      15.578  15.311  27.839  1.00  0.00     0.009 C 
ATOM     20  C   UNL     1      14.916  15.211  29.241  1.00  0.00     0.021 C 
ATOM     21  C   UNL     1      12.732  15.550  30.310  1.00  0.00    -0.027 C 
ATOM     22  C   UNL     1      15.113  13.844  30.027  1.00  0.00    -0.023 C 
ATOM     23  C   UNL     1      13.375  15.077  31.575  1.00  0.00     0.031 C 
ATOM     24  C   UNL     1      14.187  13.787  31.328  1.00  0.00     0.002 C 
ATOM     25  C   UNL     1      16.614  13.709  30.436  1.00  0.00     0.010 C 
ATOM     26  C   UNL     1      14.740  12.647  29.115  1.00  0.00     0.012 C 
ATOM     27  C   UNL     1      14.950  13.434  32.627  1.00  0.00     0.036 C 
ATOM     28  C   UNL     1      16.911  12.472  31.305  1.00  0.00     0.032 C 
ATOM     29  C   UNL     1      15.887  12.234  32.436  1.00  0.00     0.114 C 
BRANCH  29  30
ATOM     30  O   UNL     1      15.139  11.075  32.164  1.00  0.00    -0.393 OA
ATOM     31  H   UNL     1      15.497  10.356  32.748  1.00  0.00     0.210 HD
ENDBRANCH  29  30
ENDBRANCH   1  11
TORSDOF 6
ENDMDL
