MODEL 1
REMARK VINA RESULT:    -2.843      0.000      0.000
REMARK INTER + INTRA:          -3.077
REMARK INTER:                  -3.508
REMARK INTRA:                   0.432
REMARK UNBOUND:                 0.432
REMARK SMILES O=c1c(O)c(-c2cc(O)c(O)c(O)c2)oc2cc(O)cc(O)c12
REMARK SMILES IDX 5 1 3 2 2 3 1 4 23 5 21 6 20 7 18 8 17 9 16 10 15 11 6 12
REMARK SMILES IDX 7 13 8 14 14 15 10 16 12 17 9 18 11 20 13 22 4 24 22 26
REMARK SMILES IDX 19 28
REMARK H PARENT 9 19 11 21 13 23 4 25 22 27 19 29
REMARK Flexibility Score: inf
ROOT
ATOM      1  C   UNL     1      45.839  37.059  37.992  1.00  0.00     0.180 A 
ATOM      2  C   UNL     1      46.367  37.039  39.297  1.00  0.00     0.208 A 
ATOM      3  C   UNL     1      47.760  37.061  39.465  1.00  0.00     0.238 A 
ATOM      4  O   UNL     1      48.244  37.055  40.630  1.00  0.00    -0.285 OA
ATOM      5  C   UNL     1      48.598  37.083  38.332  1.00  0.00     0.111 A 
ATOM      6  C   UNL     1      50.012  37.101  38.415  1.00  0.00     0.134 A 
ATOM      7  C   UNL     1      50.778  37.113  37.240  1.00  0.00     0.093 A 
ATOM      8  C   UNL     1      50.161  37.105  35.987  1.00  0.00     0.123 A 
ATOM      9  C   UNL     1      48.765  37.087  35.899  1.00  0.00     0.094 A 
ATOM     10  C   UNL     1      47.983  37.077  37.059  1.00  0.00     0.146 A 
ATOM     11  O   UNL     1      46.661  37.065  36.947  1.00  0.00    -0.452 OA
ENDROOT
BRANCH   1  12
ATOM     12  C   UNL     1      44.381  37.058  37.733  1.00  0.00     0.029 A 
ATOM     13  C   UNL     1      43.915  37.087  36.411  1.00  0.00     0.062 A 
ATOM     14  C   UNL     1      42.544  37.107  36.130  1.00  0.00     0.162 A 
ATOM     15  C   UNL     1      43.452  37.085  38.785  1.00  0.00     0.062 A 
ATOM     16  C   UNL     1      41.613  37.111  37.195  1.00  0.00     0.200 A 
ATOM     17  C   UNL     1      42.077  37.105  38.518  1.00  0.00     0.162 A 
BRANCH  14  18
ATOM     18  O   UNL     1      42.155  37.124  34.789  1.00  0.00    -0.504 OA
ATOM     19  H   UNL     1      41.247  37.424  34.466  1.00  0.00     0.293 HD
ENDBRANCH  14  18
BRANCH  16  20
ATOM     20  O   UNL     1      40.231  37.125  36.984  1.00  0.00    -0.502 OA
ATOM     21  H   UNL     1      39.790  37.474  36.146  1.00  0.00     0.293 HD
ENDBRANCH  16  20
BRANCH  17  22
ATOM     22  O   UNL     1      41.160  37.125  39.568  1.00  0.00    -0.504 OA
ATOM     23  H   UNL     1      40.161  37.124  39.401  1.00  0.00     0.293 HD
ENDBRANCH  17  22
ENDBRANCH   1  12
BRANCH   2  24
ATOM     24  O   UNL     1      45.514  36.969  40.402  1.00  0.00    -0.502 OA
ATOM     25  H   UNL     1      45.099  37.793  40.820  1.00  0.00     0.293 HD
ENDBRANCH   2  24
BRANCH   6  26
ATOM     26  O   UNL     1      50.659  37.108  39.652  1.00  0.00    -0.507 OA
ATOM     27  H   UNL     1      50.528  36.364  40.326  1.00  0.00     0.293 HD
ENDBRANCH   6  26
BRANCH   8  28
ATOM     28  O   UNL     1      50.944  37.115  34.835  1.00  0.00    -0.508 OA
ATOM     29  H   UNL     1      51.536  36.330  34.590  1.00  0.00     0.293 HD
ENDBRANCH   8  28
TORSDOF 7
ENDMDL
MODEL 2
REMARK VINA RESULT:    -1.602     21.288     22.753
REMARK INTER + INTRA:          -1.545
REMARK INTER:                  -1.182
REMARK INTRA:                  -0.363
REMARK UNBOUND:                 0.432
REMARK SMILES O=c1c(O)c(-c2cc(O)c(O)c(O)c2)oc2cc(O)cc(O)c12
REMARK SMILES IDX 5 1 3 2 2 3 1 4 23 5 21 6 20 7 18 8 17 9 16 10 15 11 6 12
REMARK SMILES IDX 7 13 8 14 14 15 10 16 12 17 9 18 11 20 13 22 4 24 22 26
REMARK SMILES IDX 19 28
REMARK H PARENT 9 19 11 21 13 23 4 25 22 27 19 29
REMARK Flexibility Score: inf
ROOT
ATOM      1  C   UNL     1      47.011  20.666  22.182  1.00  0.00     0.180 A 
ATOM      2  C   UNL     1      48.363  20.322  21.993  1.00  0.00     0.208 A 
ATOM      3  C   UNL     1      49.273  21.327  21.629  1.00  0.00     0.238 A 
ATOM      4  O   UNL     1      50.490  21.033  21.469  1.00  0.00    -0.285 OA
ATOM      5  C   UNL     1      48.816  22.647  21.443  1.00  0.00     0.111 A 
ATOM      6  C   UNL     1      49.668  23.716  21.072  1.00  0.00     0.134 A 
ATOM      7  C   UNL     1      49.134  25.002  20.897  1.00  0.00     0.093 A 
ATOM      8  C   UNL     1      47.771  25.239  21.082  1.00  0.00     0.123 A 
ATOM      9  C   UNL     1      46.924  24.187  21.449  1.00  0.00     0.094 A 
ATOM     10  C   UNL     1      47.437  22.898  21.630  1.00  0.00     0.146 A 
ATOM     11  O   UNL     1      46.613  21.919  21.982  1.00  0.00    -0.452 OA
ENDROOT
BRANCH   1  12
ATOM     12  C   UNL     1      45.994  19.668  22.584  1.00  0.00     0.029 A 
ATOM     13  C   UNL     1      45.179  19.081  21.607  1.00  0.00     0.062 A 
ATOM     14  C   UNL     1      44.194  18.148  21.954  1.00  0.00     0.162 A 
ATOM     15  C   UNL     1      45.789  19.336  23.933  1.00  0.00     0.062 A 
ATOM     16  C   UNL     1      44.008  17.802  23.313  1.00  0.00     0.200 A 
ATOM     17  C   UNL     1      44.807  18.405  24.295  1.00  0.00     0.162 A 
BRANCH  14  18
ATOM     18  O   UNL     1      43.429  17.597  20.924  1.00  0.00    -0.504 OA
ATOM     19  H   UNL     1      43.678  17.641  19.947  1.00  0.00     0.293 HD
ENDBRANCH  14  18
BRANCH  16  20
ATOM     20  O   UNL     1      43.048  16.875  23.727  1.00  0.00    -0.502 OA
ATOM     21  H   UNL     1      42.052  17.010  23.630  1.00  0.00     0.293 HD
ENDBRANCH  16  20
BRANCH  17  22
ATOM     22  O   UNL     1      44.614  18.076  25.635  1.00  0.00    -0.504 OA
ATOM     23  H   UNL     1      45.306  18.298  26.342  1.00  0.00     0.293 HD
ENDBRANCH  17  22
ENDBRANCH   1  12
BRANCH   2  24
ATOM     24  O   UNL     1      48.781  18.997  22.137  1.00  0.00    -0.502 OA
ATOM     25  H   UNL     1      48.518  18.428  22.934  1.00  0.00     0.293 HD
ENDBRANCH   2  24
BRANCH   6  26
ATOM     26  O   UNL     1      51.035  23.512  20.878  1.00  0.00    -0.507 OA
ATOM     27  H   UNL     1      51.701  24.274  20.936  1.00  0.00     0.293 HD
ENDBRANCH   6  26
BRANCH   8  28
ATOM     28  O   UNL     1      47.266  26.525  20.900  1.00  0.00    -0.508 OA
ATOM     29  H   UNL     1      46.301  26.682  20.636  1.00  0.00     0.293 HD
ENDBRANCH   8  28
TORSDOF 7
ENDMDL
MODEL 3
REMARK VINA RESULT:    -1.588     14.296     18.388
REMARK INTER + INTRA:          -1.528
REMARK INTER:                  -1.642
REMARK INTRA:                   0.114
REMARK UNBOUND:                 0.432
REMARK SMILES O=c1c(O)c(-c2cc(O)c(O)c(O)c2)oc2cc(O)cc(O)c12
REMARK SMILES IDX 5 1 3 2 2 3 1 4 23 5 21 6 20 7 18 8 17 9 16 10 15 11 6 12
REMARK SMILES IDX 7 13 8 14 14 15 10 16 12 17 9 18 11 20 13 22 4 24 22 26
REMARK SMILES IDX 19 28
REMARK H PARENT 9 19 11 21 13 23 4 25 22 27 19 29
REMARK Flexibility Score: inf
ROOT
ATOM      1  C   UNL     1      32.000  33.632  28.003  1.00  0.00     0.180 A 
ATOM      2  C   UNL     1      31.520  32.340  27.713  1.00  0.00     0.208 A 
ATOM      3  C   UNL     1      31.294  31.985  26.374  1.00  0.00     0.238 A 
ATOM      4  O   UNL     1      30.875  30.826  26.103  1.00  0.00    -0.285 OA
ATOM      5  C   UNL     1      31.533  32.927  25.354  1.00  0.00     0.111 A 
ATOM      6  C   UNL     1      31.326  32.650  23.981  1.00  0.00     0.134 A 
ATOM      7  C   UNL     1      31.578  33.646  23.025  1.00  0.00     0.093 A 
ATOM      8  C   UNL     1      32.028  34.909  23.413  1.00  0.00     0.123 A 
ATOM      9  C   UNL     1      32.235  35.189  24.768  1.00  0.00     0.094 A 
ATOM     10  C   UNL     1      31.991  34.209  25.736  1.00  0.00     0.146 A 
ATOM     11  O   UNL     1      32.199  34.499  27.015  1.00  0.00    -0.452 OA
ENDROOT
BRANCH   1  12
ATOM     12  C   UNL     1      32.281  34.075  29.387  1.00  0.00     0.029 A 
ATOM     13  C   UNL     1      33.448  34.804  29.655  1.00  0.00     0.062 A 
ATOM     14  C   UNL     1      33.755  35.222  30.956  1.00  0.00     0.162 A 
ATOM     15  C   UNL     1      31.432  33.732  30.451  1.00  0.00     0.062 A 
ATOM     16  C   UNL     1      32.883  34.892  32.019  1.00  0.00     0.200 A 
ATOM     17  C   UNL     1      31.727  34.142  31.757  1.00  0.00     0.162 A 
BRANCH  14  18
ATOM     18  O   UNL     1      34.928  35.955  31.143  1.00  0.00    -0.504 OA
ATOM     19  H   UNL     1      35.276  36.247  32.044  1.00  0.00     0.293 HD
ENDBRANCH  14  18
BRANCH  16  20
ATOM     20  O   UNL     1      33.126  35.282  33.339  1.00  0.00    -0.502 OA
ATOM     21  H   UNL     1      32.521  35.061  34.115  1.00  0.00     0.293 HD
ENDBRANCH  16  20
BRANCH  17  22
ATOM     22  O   UNL     1      30.875  33.803  32.807  1.00  0.00    -0.504 OA
ATOM     23  H   UNL     1      31.233  33.494  33.703  1.00  0.00     0.293 HD
ENDBRANCH  17  22
ENDBRANCH   1  12
BRANCH   2  24
ATOM     24  O   UNL     1      31.246  31.441  28.748  1.00  0.00    -0.502 OA
ATOM     25  H   UNL     1      31.432  30.448  28.667  1.00  0.00     0.293 HD
ENDBRANCH   2  24
BRANCH   6  26
ATOM     26  O   UNL     1      30.875  31.398  23.560  1.00  0.00    -0.507 OA
ATOM     27  H   UNL     1      30.641  31.214  22.591  1.00  0.00     0.293 HD
ENDBRANCH   6  26
BRANCH   8  28
ATOM     28  O   UNL     1      32.269  35.880  22.444  1.00  0.00    -0.508 OA
ATOM     29  H   UNL     1      32.717  36.759  22.675  1.00  0.00     0.293 HD
ENDBRANCH   8  28
TORSDOF 7
ENDMDL
MODEL 4
REMARK VINA RESULT:    -1.533      6.699      8.271
REMARK INTER + INTRA:          -1.459
REMARK INTER:                  -1.891
REMARK INTRA:                   0.432
REMARK UNBOUND:                 0.432
REMARK SMILES O=c1c(O)c(-c2cc(O)c(O)c(O)c2)oc2cc(O)cc(O)c12
REMARK SMILES IDX 5 1 3 2 2 3 1 4 23 5 21 6 20 7 18 8 17 9 16 10 15 11 6 12
REMARK SMILES IDX 7 13 8 14 14 15 10 16 12 17 9 18 11 20 13 22 4 24 22 26
REMARK SMILES IDX 19 28
REMARK H PARENT 9 19 11 21 13 23 4 25 22 27 19 29
REMARK Flexibility Score: inf
ROOT
ATOM      1  C   UNL     1      48.009  31.177  41.045  1.00  0.00     0.180 A 
ATOM      2  C   UNL     1      49.400  31.396  41.013  1.00  0.00     0.208 A 
ATOM      3  C   UNL     1      49.879  32.716  41.032  1.00  0.00     0.238 A 
ATOM      4  O   UNL     1      51.123  32.924  41.016  1.00  0.00    -0.285 OA
ATOM      5  C   UNL     1      48.964  33.788  41.062  1.00  0.00     0.111 A 
ATOM      6  C   UNL     1      49.364  35.146  41.078  1.00  0.00     0.134 A 
ATOM      7  C   UNL     1      48.392  36.158  41.098  1.00  0.00     0.093 A 
ATOM      8  C   UNL     1      47.033  35.840  41.101  1.00  0.00     0.123 A 
ATOM      9  C   UNL     1      46.631  34.499  41.086  1.00  0.00     0.094 A 
ATOM     10  C   UNL     1      47.585  33.476  41.067  1.00  0.00     0.146 A 
ATOM     11  O   UNL     1      47.177  32.213  41.057  1.00  0.00    -0.452 OA
ENDROOT
BRANCH   1  12
ATOM     12  C   UNL     1      47.428  29.815  41.047  1.00  0.00     0.029 A 
ATOM     13  C   UNL     1      46.035  29.659  41.079  1.00  0.00     0.062 A 
ATOM     14  C   UNL     1      45.451  28.387  41.103  1.00  0.00     0.162 A 
ATOM     15  C   UNL     1      48.243  28.673  41.075  1.00  0.00     0.062 A 
ATOM     16  C   UNL     1      46.279  27.240  41.107  1.00  0.00     0.200 A 
ATOM     17  C   UNL     1      47.673  27.393  41.099  1.00  0.00     0.162 A 
BRANCH  14  18
ATOM     18  O   UNL     1      44.057  28.311  41.122  1.00  0.00    -0.504 OA
ATOM     19  H   UNL     1      43.453  28.859  40.528  1.00  0.00     0.293 HD
ENDBRANCH  14  18
BRANCH  16  20
ATOM     20  O   UNL     1      45.762  25.942  41.125  1.00  0.00    -0.502 OA
ATOM     21  H   UNL     1      46.052  25.225  41.774  1.00  0.00     0.293 HD
ENDBRANCH  16  20
BRANCH  17  22
ATOM     22  O   UNL     1      48.489  26.263  41.119  1.00  0.00    -0.504 OA
ATOM     23  H   UNL     1      48.105  25.329  41.034  1.00  0.00     0.293 HD
ENDBRANCH  17  22
ENDBRANCH   1  12
BRANCH   2  24
ATOM     24  O   UNL     1      50.283  30.317  40.935  1.00  0.00    -0.502 OA
ATOM     25  H   UNL     1      50.417  29.668  41.702  1.00  0.00     0.293 HD
ENDBRANCH   2  24
BRANCH   6  26
ATOM     26  O   UNL     1      50.715  35.498  41.074  1.00  0.00    -0.507 OA
ATOM     27  H   UNL     1      51.098  36.135  40.386  1.00  0.00     0.293 HD
ENDBRANCH   6  26
BRANCH   8  28
ATOM     28  O   UNL     1      46.087  36.863  41.120  1.00  0.00    -0.508 OA
ATOM     29  H   UNL     1      45.387  36.923  41.850  1.00  0.00     0.293 HD
ENDBRANCH   8  28
TORSDOF 7
ENDMDL
