MODEL 1
REMARK VINA RESULT:    -6.143      0.000      0.000
REMARK INTER + INTRA:          -6.143
REMARK INTER:                  -6.143
REMARK INTRA:                   0.000
REMARK UNBOUND:                 0.000
REMARK SMILES O=c1ccc2ccccc2o1
REMARK SMILES IDX 7 1 8 2 9 3 10 4 5 5 6 6 4 7 3 8 2 9 1 10 11 11
REMARK H PARENT
REMARK Flexibility Score: inf
ROOT
ATOM      1  C   UNL     1      58.434  -2.679   6.363  1.00  0.00     0.001 A 
ATOM      2  C   UNL     1      57.275  -2.867   7.123  1.00  0.00     0.004 A 
ATOM      3  C   UNL     1      56.041  -3.051   6.492  1.00  0.00     0.048 A 
ATOM      4  C   UNL     1      55.961  -3.049   5.095  1.00  0.00     0.138 A 
ATOM      5  C   UNL     1      57.131  -2.860   4.326  1.00  0.00     0.018 A 
ATOM      6  C   UNL     1      58.365  -2.675   4.966  1.00  0.00     0.012 A 
ATOM      7  C   UNL     1      57.021  -2.863   2.933  1.00  0.00     0.019 A 
ATOM      8  C   UNL     1      55.770  -3.051   2.346  1.00  0.00     0.094 A 
ATOM      9  C   UNL     1      54.654  -3.232   3.170  1.00  0.00     0.336 A 
ATOM     10  O   UNL     1      53.516  -3.402   2.659  1.00  0.00    -0.246 OA
ATOM     11  O   UNL     1      54.786  -3.225   4.494  1.00  0.00    -0.423 OA
ENDROOT
TORSDOF 0
ENDMDL
MODEL 2
REMARK VINA RESULT:    -6.060      2.299      4.382
REMARK INTER + INTRA:          -6.060
REMARK INTER:                  -6.060
REMARK INTRA:                   0.000
REMARK UNBOUND:                 0.000
REMARK SMILES O=c1ccc2ccccc2o1
REMARK SMILES IDX 7 1 8 2 9 3 10 4 5 5 6 6 4 7 3 8 2 9 1 10 11 11
REMARK H PARENT
REMARK Flexibility Score: inf
ROOT
ATOM      1  C   UNL     1      54.623  -3.134   4.125  1.00  0.00     0.001 A 
ATOM      2  C   UNL     1      55.345  -3.168   2.928  1.00  0.00     0.004 A 
ATOM      3  C   UNL     1      56.716  -2.892   2.924  1.00  0.00     0.048 A 
ATOM      4  C   UNL     1      57.372  -2.582   4.120  1.00  0.00     0.138 A 
ATOM      5  C   UNL     1      56.643  -2.548   5.330  1.00  0.00     0.018 A 
ATOM      6  C   UNL     1      55.269  -2.825   5.327  1.00  0.00     0.012 A 
ATOM      7  C   UNL     1      57.325  -2.235   6.510  1.00  0.00     0.019 A 
ATOM      8  C   UNL     1      58.693  -1.968   6.460  1.00  0.00     0.094 A 
ATOM      9  C   UNL     1      59.350  -2.020   5.225  1.00  0.00     0.336 A 
ATOM     10  O   UNL     1      60.584  -1.781   5.159  1.00  0.00    -0.246 OA
ATOM     11  O   UNL     1      58.677  -2.321   4.117  1.00  0.00    -0.423 OA
ENDROOT
TORSDOF 0
ENDMDL
MODEL 3
REMARK VINA RESULT:    -5.834      1.315      2.533
REMARK INTER + INTRA:          -5.834
REMARK INTER:                  -5.834
REMARK INTRA:                   0.000
REMARK UNBOUND:                 0.000
REMARK SMILES O=c1ccc2ccccc2o1
REMARK SMILES IDX 7 1 8 2 9 3 10 4 5 5 6 6 4 7 3 8 2 9 1 10 11 11
REMARK H PARENT
REMARK Flexibility Score: inf
ROOT
ATOM      1  C   UNL     1      59.713  -1.675   5.254  1.00  0.00     0.001 A 
ATOM      2  C   UNL     1      59.765  -2.109   3.925  1.00  0.00     0.004 A 
ATOM      3  C   UNL     1      58.615  -2.599   3.298  1.00  0.00     0.048 A 
ATOM      4  C   UNL     1      57.405  -2.656   3.999  1.00  0.00     0.138 A 
ATOM      5  C   UNL     1      57.351  -2.217   5.341  1.00  0.00     0.018 A 
ATOM      6  C   UNL     1      58.508  -1.727   5.963  1.00  0.00     0.012 A 
ATOM      7  C   UNL     1      56.129  -2.286   6.016  1.00  0.00     0.019 A 
ATOM      8  C   UNL     1      55.007  -2.781   5.352  1.00  0.00     0.094 A 
ATOM      9  C   UNL     1      55.135  -3.198   4.022  1.00  0.00     0.336 A 
ATOM     10  O   UNL     1      54.134  -3.648   3.406  1.00  0.00    -0.246 OA
ATOM     11  O   UNL     1      56.310  -3.122   3.402  1.00  0.00    -0.423 OA
ENDROOT
TORSDOF 0
ENDMDL
MODEL 4
REMARK VINA RESULT:    -5.813      2.529      3.913
REMARK INTER + INTRA:          -5.813
REMARK INTER:                  -5.813
REMARK INTRA:                   0.000
REMARK UNBOUND:                 0.000
REMARK SMILES O=c1ccc2ccccc2o1
REMARK SMILES IDX 7 1 8 2 9 3 10 4 5 5 6 6 4 7 3 8 2 9 1 10 11 11
REMARK H PARENT
REMARK Flexibility Score: inf
ROOT
ATOM      1  C   UNL     1      55.511  -2.528   6.002  1.00  0.00     0.001 A 
ATOM      2  C   UNL     1      55.205  -2.937   4.700  1.00  0.00     0.004 A 
ATOM      3  C   UNL     1      56.192  -2.935   3.709  1.00  0.00     0.048 A 
ATOM      4  C   UNL     1      57.493  -2.524   4.018  1.00  0.00     0.138 A 
ATOM      5  C   UNL     1      57.805  -2.112   5.334  1.00  0.00     0.018 A 
ATOM      6  C   UNL     1      56.809  -2.115   6.321  1.00  0.00     0.012 A 
ATOM      7  C   UNL     1      59.113  -1.706   5.613  1.00  0.00     0.019 A 
ATOM      8  C   UNL     1      60.066  -1.721   4.596  1.00  0.00     0.094 A 
ATOM      9  C   UNL     1      59.686  -2.142   3.316  1.00  0.00     0.336 A 
ATOM     10  O   UNL     1      60.532  -2.162   2.384  1.00  0.00    -0.246 OA
ATOM     11  O   UNL     1      58.434  -2.523   3.076  1.00  0.00    -0.423 OA
ENDROOT
TORSDOF 0
ENDMDL
MODEL 5
REMARK VINA RESULT:    -5.690      1.899      2.865
REMARK INTER + INTRA:          -5.690
REMARK INTER:                  -5.690
REMARK INTRA:                   0.000
REMARK UNBOUND:                 0.000
REMARK SMILES O=c1ccc2ccccc2o1
REMARK SMILES IDX 7 1 8 2 9 3 10 4 5 5 6 6 4 7 3 8 2 9 1 10 11 11
REMARK H PARENT
REMARK Flexibility Score: inf
ROOT
ATOM      1  C   UNL     1      59.928  -2.066   3.511  1.00  0.00     0.001 A 
ATOM      2  C   UNL     1      60.135  -1.600   4.813  1.00  0.00     0.004 A 
ATOM      3  C   UNL     1      59.093  -1.627   5.746  1.00  0.00     0.048 A 
ATOM      4  C   UNL     1      57.838  -2.124   5.379  1.00  0.00     0.138 A 
ATOM      5  C   UNL     1      57.628  -2.596   4.064  1.00  0.00     0.018 A 
ATOM      6  C   UNL     1      58.676  -2.565   3.134  1.00  0.00     0.012 A 
ATOM      7  C   UNL     1      56.363  -3.086   3.726  1.00  0.00     0.019 A 
ATOM      8  C   UNL     1      55.353  -3.096   4.688  1.00  0.00     0.094 A 
ATOM      9  C   UNL     1      55.633  -2.613   5.971  1.00  0.00     0.336 A 
ATOM     10  O   UNL     1      54.736  -2.612   6.853  1.00  0.00    -0.246 OA
ATOM     11  O   UNL     1      56.846  -2.151   6.267  1.00  0.00    -0.423 OA
ENDROOT
TORSDOF 0
ENDMDL
MODEL 6
REMARK VINA RESULT:    -5.672      1.231      3.363
REMARK INTER + INTRA:          -5.672
REMARK INTER:                  -5.672
REMARK INTRA:                   0.000
REMARK UNBOUND:                 0.000
REMARK SMILES O=c1ccc2ccccc2o1
REMARK SMILES IDX 7 1 8 2 9 3 10 4 5 5 6 6 4 7 3 8 2 9 1 10 11 11
REMARK H PARENT
REMARK Flexibility Score: inf
ROOT
ATOM      1  C   UNL     1      58.124  -2.971   2.570  1.00  0.00     0.001 A 
ATOM      2  C   UNL     1      56.800  -2.938   2.120  1.00  0.00     0.004 A 
ATOM      3  C   UNL     1      55.744  -2.916   3.036  1.00  0.00     0.048 A 
ATOM      4  C   UNL     1      56.009  -2.926   4.410  1.00  0.00     0.138 A 
ATOM      5  C   UNL     1      57.346  -2.959   4.867  1.00  0.00     0.018 A 
ATOM      6  C   UNL     1      58.399  -2.982   3.942  1.00  0.00     0.012 A 
ATOM      7  C   UNL     1      57.579  -2.969   6.245  1.00  0.00     0.019 A 
ATOM      8  C   UNL     1      56.496  -2.945   7.123  1.00  0.00     0.094 A 
ATOM      9  C   UNL     1      55.199  -2.913   6.599  1.00  0.00     0.336 A 
ATOM     10  O   UNL     1      54.208  -2.892   7.375  1.00  0.00    -0.246 OA
ATOM     11  O   UNL     1      55.004  -2.904   5.283  1.00  0.00    -0.423 OA
ENDROOT
TORSDOF 0
ENDMDL
MODEL 7
REMARK VINA RESULT:    -5.620      2.811      4.007
REMARK INTER + INTRA:          -5.620
REMARK INTER:                  -5.620
REMARK INTRA:                   0.000
REMARK UNBOUND:                 0.000
REMARK SMILES O=c1ccc2ccccc2o1
REMARK SMILES IDX 7 1 8 2 9 3 10 4 5 5 6 6 4 7 3 8 2 9 1 10 11 11
REMARK H PARENT
REMARK Flexibility Score: inf
ROOT
ATOM      1  C   UNL     1      55.361  -2.960   4.831  1.00  0.00     0.001 A 
ATOM      2  C   UNL     1      55.746  -2.419   6.062  1.00  0.00     0.004 A 
ATOM      3  C   UNL     1      57.056  -1.969   6.255  1.00  0.00     0.048 A 
ATOM      4  C   UNL     1      57.988  -2.057   5.216  1.00  0.00     0.138 A 
ATOM      5  C   UNL     1      57.600  -2.603   3.971  1.00  0.00     0.018 A 
ATOM      6  C   UNL     1      56.285  -3.053   3.785  1.00  0.00     0.012 A 
ATOM      7  C   UNL     1      58.553  -2.679   2.951  1.00  0.00     0.019 A 
ATOM      8  C   UNL     1      59.847  -2.218   3.187  1.00  0.00     0.094 A 
ATOM      9  C   UNL     1      60.160  -1.689   4.445  1.00  0.00     0.336 A 
ATOM     10  O   UNL     1      61.323  -1.268   4.678  1.00  0.00    -0.246 OA
ATOM     11  O   UNL     1      59.235  -1.628   5.399  1.00  0.00    -0.423 OA
ENDROOT
TORSDOF 0
ENDMDL
MODEL 8
REMARK VINA RESULT:    -5.539      1.480      2.265
REMARK INTER + INTRA:          -5.539
REMARK INTER:                  -5.539
REMARK INTRA:                   0.000
REMARK UNBOUND:                 0.000
REMARK SMILES O=c1ccc2ccccc2o1
REMARK SMILES IDX 7 1 8 2 9 3 10 4 5 5 6 6 4 7 3 8 2 9 1 10 11 11
REMARK H PARENT
REMARK Flexibility Score: inf
ROOT
ATOM      1  C   UNL     1      57.735  -2.585   7.194  1.00  0.00     0.001 A 
ATOM      2  C   UNL     1      58.904  -2.475   6.434  1.00  0.00     0.004 A 
ATOM      3  C   UNL     1      58.849  -2.566   5.039  1.00  0.00     0.048 A 
ATOM      4  C   UNL     1      57.622  -2.766   4.398  1.00  0.00     0.138 A 
ATOM      5  C   UNL     1      56.440  -2.877   5.166  1.00  0.00     0.018 A 
ATOM      6  C   UNL     1      56.503  -2.786   6.563  1.00  0.00     0.012 A 
ATOM      7  C   UNL     1      55.228  -3.077   4.498  1.00  0.00     0.019 A 
ATOM      8  C   UNL     1      55.220  -3.161   3.106  1.00  0.00     0.094 A 
ATOM      9  C   UNL     1      56.429  -3.042   2.411  1.00  0.00     0.336 A 
ATOM     10  O   UNL     1      56.442  -3.115   1.155  1.00  0.00    -0.246 OA
ATOM     11  O   UNL     1      57.569  -2.852   3.071  1.00  0.00    -0.423 OA
ENDROOT
TORSDOF 0
ENDMDL
MODEL 9
REMARK VINA RESULT:    -5.504      2.149      2.976
REMARK INTER + INTRA:          -5.504
REMARK INTER:                  -5.504
REMARK INTRA:                   0.000
REMARK UNBOUND:                 0.000
REMARK SMILES O=c1ccc2ccccc2o1
REMARK SMILES IDX 7 1 8 2 9 3 10 4 5 5 6 6 4 7 3 8 2 9 1 10 11 11
REMARK H PARENT
REMARK Flexibility Score: inf
ROOT
ATOM      1  C   UNL     1      55.370  -2.885   6.689  1.00  0.00     0.001 A 
ATOM      2  C   UNL     1      56.665  -2.884   7.218  1.00  0.00     0.004 A 
ATOM      3  C   UNL     1      57.774  -2.881   6.366  1.00  0.00     0.048 A 
ATOM      4  C   UNL     1      57.593  -2.878   4.979  1.00  0.00     0.138 A 
ATOM      5  C   UNL     1      56.285  -2.879   4.444  1.00  0.00     0.018 A 
ATOM      6  C   UNL     1      55.177  -2.883   5.303  1.00  0.00     0.012 A 
ATOM      7  C   UNL     1      56.134  -2.877   3.054  1.00  0.00     0.019 A 
ATOM      8  C   UNL     1      57.268  -2.874   2.242  1.00  0.00     0.094 A 
ATOM      9  C   UNL     1      58.532  -2.873   2.843  1.00  0.00     0.336 A 
ATOM     10  O   UNL     1      59.568  -2.870   2.127  1.00  0.00    -0.246 OA
ATOM     11  O   UNL     1      58.648  -2.875   4.168  1.00  0.00    -0.423 OA
ENDROOT
TORSDOF 0
ENDMDL
