MODEL 1
REMARK VINA RESULT:    -3.998      0.000      0.000
REMARK INTER + INTRA:          -5.534
REMARK INTER:                  -5.634
REMARK INTRA:                   0.100
REMARK UNBOUND:                 0.100
REMARK SMILES CC1=CCC(=C(C)C)C(=O)CC(C)=CCC1
REMARK SMILES IDX 12 1 14 2 13 3 15 4 16 5 2 6 1 7 3 8 11 10 9 11 10 12 5 13
REMARK SMILES IDX 6 14 7 15 8 16 4 17
REMARK H PARENT
REMARK Flexibility Score: 60.00
ROOT
ATOM      1  C   UNL     1       6.178   3.168 105.759  1.00  0.00    -0.070 C 
ATOM      2  C   UNL     1       7.140   2.714 106.594  1.00  0.00    -0.027 C 
ATOM      3  C   UNL     1       6.518   4.315 104.841  1.00  0.00     0.039 C 
ENDROOT
BRANCH   2   4
ATOM      4  C   UNL     1       6.932   1.681 107.672  1.00  0.00     0.032 C 
BRANCH   4   5
ATOM      5  C   UNL     1       7.074   2.335 109.051  1.00  0.00     0.034 C 
BRANCH   5   6
ATOM      6  C   UNL     1       5.747   2.453 109.775  1.00  0.00    -0.077 C 
ATOM      7  C   UNL     1       5.397   1.420 110.817  1.00  0.00     0.039 C 
ATOM      8  C   UNL     1       4.881   3.482 109.592  1.00  0.00    -0.023 CG0
ATOM      9  G   UNL     1       4.981   4.600 108.571  1.00  0.00     0.000 G0
ENDBRANCH   5   6
ENDBRANCH   4   5
ENDBRANCH   2   4
BRANCH   1  10
ATOM     10  C   UNL     1       4.788   2.570 105.685  1.00  0.00     0.111 C 
BRANCH  10  11
ATOM     11  C   UNL     1       3.871   3.146 106.737  1.00  0.00     0.163 C 
ATOM     12  O   UNL     1       2.913   2.422 107.124  1.00  0.00    -0.294 OA
BRANCH  11  13
ATOM     13  C   UNL     1       4.052   4.504 107.350  1.00  0.00    -0.002 C 
ATOM     14  C   UNL     1       3.307   5.568 106.917  1.00  0.00    -0.069 C 
ATOM     15  C   UNL     1       3.290   6.888 107.655  1.00  0.00     0.039 C 
ATOM     16  C   UNL     1       2.497   5.498 105.642  1.00  0.00     0.039 C 
BRANCH  13  17
ATOM     17  C   UNL     1       4.950   4.618 108.578  1.00  0.00     0.066 CG0
ATOM     18  G   UNL     1       4.873   3.481 109.580  1.00  0.00     0.000 G0
ENDBRANCH  13  17
ENDBRANCH  11  13
ENDBRANCH  10  11
ENDBRANCH   1  10
TORSDOF 0
ENDMDL
MODEL 2
REMARK VINA RESULT:    -3.962      2.116      3.806
REMARK INTER + INTRA:          -5.484
REMARK INTER:                  -5.706
REMARK INTRA:                   0.222
REMARK UNBOUND:                 0.100
REMARK SMILES CC1=CCC(=C(C)C)C(=O)CC(C)=CCC1
REMARK SMILES IDX 12 1 14 2 13 3 15 4 16 5 2 6 1 7 3 8 11 10 9 11 10 12 5 13
REMARK SMILES IDX 6 14 7 15 8 16 4 17
REMARK H PARENT
REMARK Flexibility Score: 60.00
ROOT
ATOM      1  C   UNL     1       3.498   5.552 107.648  1.00  0.00    -0.070 C 
ATOM      2  C   UNL     1       4.252   5.190 108.711  1.00  0.00    -0.027 C 
ATOM      3  C   UNL     1       3.021   6.980 107.571  1.00  0.00     0.039 C 
ENDROOT
BRANCH   2   4
ATOM      4  C   UNL     1       4.688   3.780 109.021  1.00  0.00     0.032 C 
BRANCH   4   5
ATOM      5  C   UNL     1       6.140   3.575 108.575  1.00  0.00     0.034 C 
BRANCH   5   6
ATOM      6  C   UNL     1       6.287   2.434 107.588  1.00  0.00    -0.077 C 
ATOM      7  C   UNL     1       6.413   1.029 108.121  1.00  0.00     0.039 C 
ATOM      8  C   UNL     1       6.239   2.596 106.241  1.00  0.00    -0.023 CG0
ATOM      9  G   UNL     1       6.175   3.902 105.471  1.00  0.00     0.000 G0
ENDBRANCH   5   6
ENDBRANCH   4   5
ENDBRANCH   2   4
BRANCH   1  10
ATOM     10  C   UNL     1       3.127   4.604 106.526  1.00  0.00     0.111 C 
BRANCH  10  11
ATOM     11  C   UNL     1       3.821   4.962 105.234  1.00  0.00     0.163 C 
ATOM     12  O   UNL     1       3.448   6.019 104.655  1.00  0.00    -0.294 OA
BRANCH  11  13
ATOM     13  C   UNL     1       4.927   4.148 104.626  1.00  0.00    -0.002 C 
ATOM     14  C   UNL     1       4.877   3.781 103.308  1.00  0.00    -0.069 C 
ATOM     15  C   UNL     1       6.066   3.168 102.602  1.00  0.00     0.039 C 
ATOM     16  C   UNL     1       3.610   3.923 102.496  1.00  0.00     0.039 C 
BRANCH  13  17
ATOM     17  C   UNL     1       6.176   3.905 105.467  1.00  0.00     0.066 CG0
ATOM     18  G   UNL     1       6.233   2.595 106.231  1.00  0.00     0.000 G0
ENDBRANCH  13  17
ENDBRANCH  11  13
ENDBRANCH  10  11
ENDBRANCH   1  10
TORSDOF 0
ENDMDL
MODEL 3
REMARK VINA RESULT:    -3.952      2.184      5.288
REMARK INTER + INTRA:          -5.469
REMARK INTER:                  -5.331
REMARK INTRA:                  -0.138
REMARK UNBOUND:                 0.100
REMARK SMILES CC1=CCC(=C(C)C)C(=O)CC(C)=CCC1
REMARK SMILES IDX 12 1 14 2 13 3 15 4 16 5 2 6 1 7 3 8 11 10 9 11 10 12 5 13
REMARK SMILES IDX 6 14 7 15 8 16 4 17
REMARK H PARENT
REMARK Flexibility Score: 60.00
ROOT
ATOM      1  C   UNL     1       4.629   4.731 108.690  1.00  0.00    -0.070 C 
ATOM      2  C   UNL     1       3.545   5.382 108.209  1.00  0.00    -0.027 C 
ATOM      3  C   UNL     1       4.643   4.361 110.152  1.00  0.00     0.039 C 
ENDROOT
BRANCH   2   4
ATOM      4  C   UNL     1       3.428   5.954 106.819  1.00  0.00     0.032 C 
BRANCH   4   5
ATOM      5  C   UNL     1       2.726   4.947 105.900  1.00  0.00     0.034 C 
BRANCH   5   6
ATOM      6  C   UNL     1       3.400   4.830 104.548  1.00  0.00    -0.077 C 
ATOM      7  C   UNL     1       3.198   5.935 103.542  1.00  0.00     0.039 C 
ATOM      8  C   UNL     1       4.239   3.818 104.212  1.00  0.00    -0.023 CG0
ATOM      9  G   UNL     1       4.554   2.574 105.023  1.00  0.00     0.000 G0
ENDBRANCH   5   6
ENDBRANCH   4   5
ENDBRANCH   2   4
BRANCH   1  10
ATOM     10  C   UNL     1       5.816   4.340 107.833  1.00  0.00     0.111 C 
BRANCH  10  11
ATOM     11  C   UNL     1       5.694   2.927 107.315  1.00  0.00     0.163 C 
ATOM     12  O   UNL     1       5.464   2.022 108.162  1.00  0.00    -0.294 OA
BRANCH  11  13
ATOM     13  C   UNL     1       5.811   2.557 105.864  1.00  0.00    -0.002 C 
ATOM     14  C   UNL     1       6.991   2.076 105.362  1.00  0.00    -0.069 C 
ATOM     15  C   UNL     1       7.086   1.478 103.976  1.00  0.00     0.039 C 
ATOM     16  C   UNL     1       8.278   2.163 106.149  1.00  0.00     0.039 C 
BRANCH  13  17
ATOM     17  C   UNL     1       4.539   2.562 105.023  1.00  0.00     0.066 CG0
ATOM     18  G   UNL     1       4.257   3.825 104.230  1.00  0.00     0.000 G0
ENDBRANCH  13  17
ENDBRANCH  11  13
ENDBRANCH  10  11
ENDBRANCH   1  10
TORSDOF 0
ENDMDL
MODEL 4
REMARK VINA RESULT:    -3.936      2.354      4.868
REMARK INTER + INTRA:          -5.447
REMARK INTER:                  -5.431
REMARK INTRA:                  -0.016
REMARK UNBOUND:                 0.100
REMARK SMILES CC1=CCC(=C(C)C)C(=O)CC(C)=CCC1
REMARK SMILES IDX 12 1 14 2 13 3 15 4 16 5 2 6 1 7 3 8 11 10 9 11 10 12 5 13
REMARK SMILES IDX 6 14 7 15 8 16 4 17
REMARK H PARENT
REMARK Flexibility Score: 60.00
ROOT
ATOM      1  C   UNL     1       5.403   2.890 109.385  1.00  0.00    -0.070 C 
ATOM      2  C   UNL     1       5.164   4.201 109.148  1.00  0.00    -0.027 C 
ATOM      3  C   UNL     1       5.397   2.416 110.817  1.00  0.00     0.039 C 
ENDROOT
BRANCH   2   4
ATOM      4  C   UNL     1       5.277   4.870 107.802  1.00  0.00     0.032 C 
BRANCH   4   5
ATOM      5  C   UNL     1       3.879   5.088 107.211  1.00  0.00     0.034 C 
BRANCH   5   6
ATOM      6  C   UNL     1       3.761   4.565 105.793  1.00  0.00    -0.077 C 
ATOM      7  C   UNL     1       4.214   5.448 104.657  1.00  0.00     0.039 C 
ATOM      8  C   UNL     1       3.338   3.312 105.488  1.00  0.00    -0.023 CG0
ATOM      9  G   UNL     1       2.782   2.269 106.439  1.00  0.00     0.000 G0
ENDBRANCH   5   6
ENDBRANCH   4   5
ENDBRANCH   2   4
BRANCH   1  10
ATOM     10  C   UNL     1       5.656   1.877 108.288  1.00  0.00     0.111 C 
BRANCH  10  11
ATOM     11  C   UNL     1       4.439   1.026 108.016  1.00  0.00     0.163 C 
ATOM     12  O   UNL     1       4.041   0.277 108.950  1.00  0.00    -0.294 OA
BRANCH  11  13
ATOM     13  C   UNL     1       3.681   1.043 106.721  1.00  0.00    -0.002 C 
ATOM     14  C   UNL     1       3.669  -0.058 105.907  1.00  0.00    -0.069 C 
ATOM     15  C   UNL     1       2.740  -0.167 104.719  1.00  0.00     0.039 C 
ATOM     16  C   UNL     1       4.626  -1.209 106.122  1.00  0.00     0.039 C 
BRANCH  13  17
ATOM     17  C   UNL     1       2.787   2.245 106.434  1.00  0.00     0.066 CG0
ATOM     18  G   UNL     1       3.343   3.291 105.486  1.00  0.00     0.000 G0
ENDBRANCH  13  17
ENDBRANCH  11  13
ENDBRANCH  10  11
ENDBRANCH   1  10
TORSDOF 0
ENDMDL
MODEL 5
REMARK VINA RESULT:    -3.928      1.789      4.542
REMARK INTER + INTRA:          -5.435
REMARK INTER:                  -5.728
REMARK INTRA:                   0.293
REMARK UNBOUND:                 0.100
REMARK SMILES CC1=CCC(=C(C)C)C(=O)CC(C)=CCC1
REMARK SMILES IDX 12 1 14 2 13 3 15 4 16 5 2 6 1 7 3 8 11 10 9 11 10 12 5 13
REMARK SMILES IDX 6 14 7 15 8 16 4 17
REMARK H PARENT
REMARK Flexibility Score: 60.00
ROOT
ATOM      1  C   UNL     1       4.020   0.890 107.185  1.00  0.00    -0.070 C 
ATOM      2  C   UNL     1       3.323   1.812 106.480  1.00  0.00    -0.027 C 
ATOM      3  C   UNL     1       4.487  -0.348 106.464  1.00  0.00     0.039 C 
ENDROOT
BRANCH   2   4
ATOM      4  C   UNL     1       2.658   3.029 107.070  1.00  0.00     0.032 C 
BRANCH   4   5
ATOM      5  C   UNL     1       3.158   4.291 106.359  1.00  0.00     0.034 C 
BRANCH   5   6
ATOM      6  C   UNL     1       4.068   5.128 107.237  1.00  0.00    -0.077 C 
ATOM      7  C   UNL     1       3.495   6.347 107.916  1.00  0.00     0.039 C 
ATOM      8  C   UNL     1       5.357   4.802 107.508  1.00  0.00    -0.023 CG0
ATOM      9  G   UNL     1       6.167   3.669 106.907  1.00  0.00     0.000 G0
ENDBRANCH   5   6
ENDBRANCH   4   5
ENDBRANCH   2   4
BRANCH   1  10
ATOM     10  C   UNL     1       4.369   1.050 108.650  1.00  0.00     0.111 C 
BRANCH  10  11
ATOM     11  C   UNL     1       5.402   2.130 108.868  1.00  0.00     0.163 C 
ATOM     12  O   UNL     1       5.371   2.740 109.971  1.00  0.00    -0.294 OA
BRANCH  11  13
ATOM     13  C   UNL     1       6.457   2.491 107.863  1.00  0.00    -0.002 C 
ATOM     14  C   UNL     1       7.553   1.689 107.686  1.00  0.00    -0.069 C 
ATOM     15  C   UNL     1       8.513   1.888 106.535  1.00  0.00     0.039 C 
ATOM     16  C   UNL     1       7.891   0.588 108.665  1.00  0.00     0.039 C 
BRANCH  13  17
ATOM     17  C   UNL     1       6.181   3.666 106.931  1.00  0.00     0.066 CG0
ATOM     18  G   UNL     1       5.376   4.815 107.510  1.00  0.00     0.000 G0
ENDBRANCH  13  17
ENDBRANCH  11  13
ENDBRANCH  10  11
ENDBRANCH   1  10
TORSDOF 0
ENDMDL
MODEL 6
REMARK VINA RESULT:    -3.927      2.034      3.448
REMARK INTER + INTRA:          -5.434
REMARK INTER:                  -5.683
REMARK INTRA:                   0.249
REMARK UNBOUND:                 0.100
REMARK SMILES CC1=CCC(=C(C)C)C(=O)CC(C)=CCC1
REMARK SMILES IDX 12 1 14 2 13 3 15 4 16 5 2 6 1 7 3 8 11 10 9 11 10 12 5 13
REMARK SMILES IDX 6 14 7 15 8 16 4 17
REMARK H PARENT
REMARK Flexibility Score: 60.00
ROOT
ATOM      1  C   UNL     1       4.775   4.627 108.295  1.00  0.00    -0.070 C 
ATOM      2  C   UNL     1       5.021   4.085 109.510  1.00  0.00    -0.027 C 
ATOM      3  C   UNL     1       3.472   5.358 108.095  1.00  0.00     0.039 C 
ENDROOT
BRANCH   2   4
ATOM      4  C   UNL     1       6.197   3.201 109.840  1.00  0.00     0.032 C 
BRANCH   4   5
ATOM      5  C   UNL     1       5.711   1.775 110.122  1.00  0.00     0.034 C 
BRANCH   5   6
ATOM      6  C   UNL     1       6.218   0.778 109.098  1.00  0.00    -0.077 C 
ATOM      7  C   UNL     1       7.460  -0.018 109.418  1.00  0.00     0.039 C 
ATOM      8  C   UNL     1       5.576   0.504 107.935  1.00  0.00    -0.023 CG0
ATOM      9  G   UNL     1       4.354   1.204 107.370  1.00  0.00     0.000 G0
ENDBRANCH   5   6
ENDBRANCH   4   5
ENDBRANCH   2   4
BRANCH   1  10
ATOM     10  C   UNL     1       5.749   4.552 107.136  1.00  0.00     0.111 C 
BRANCH  10  11
ATOM     11  C   UNL     1       5.802   3.170 106.533  1.00  0.00     0.163 C 
ATOM     12  O   UNL     1       6.935   2.736 106.189  1.00  0.00    -0.294 OA
BRANCH  11  13
ATOM     13  C   UNL     1       4.597   2.294 106.346  1.00  0.00    -0.002 C 
ATOM     14  C   UNL     1       3.843   2.382 105.206  1.00  0.00    -0.069 C 
ATOM     15  C   UNL     1       2.770   1.369 104.875  1.00  0.00     0.039 C 
ATOM     16  C   UNL     1       4.008   3.530 104.237  1.00  0.00     0.039 C 
BRANCH  13  17
ATOM     17  C   UNL     1       4.352   1.191 107.371  1.00  0.00     0.066 CG0
ATOM     18  G   UNL     1       5.583   0.516 107.946  1.00  0.00     0.000 G0
ENDBRANCH  13  17
ENDBRANCH  11  13
ENDBRANCH  10  11
ENDBRANCH   1  10
TORSDOF 0
ENDMDL
MODEL 7
REMARK VINA RESULT:    -3.921      2.056      3.829
REMARK INTER + INTRA:          -5.426
REMARK INTER:                  -5.282
REMARK INTRA:                  -0.144
REMARK UNBOUND:                 0.100
REMARK SMILES CC1=CCC(=C(C)C)C(=O)CC(C)=CCC1
REMARK SMILES IDX 12 1 14 2 13 3 15 4 16 5 2 6 1 7 3 8 11 10 9 11 10 12 5 13
REMARK SMILES IDX 6 14 7 15 8 16 4 17
REMARK H PARENT
REMARK Flexibility Score: 60.00
ROOT
ATOM      1  C   UNL     1       3.478   4.928 106.279  1.00  0.00    -0.070 C 
ATOM      2  C   UNL     1       4.130   5.386 107.373  1.00  0.00    -0.027 C 
ATOM      3  C   UNL     1       3.273   5.877 105.126  1.00  0.00     0.039 C 
ENDROOT
BRANCH   2   4
ATOM      4  C   UNL     1       4.291   4.624 108.664  1.00  0.00     0.032 C 
BRANCH   4   5
ATOM      5  C   UNL     1       5.640   3.895 108.672  1.00  0.00     0.034 C 
BRANCH   5   6
ATOM      6  C   UNL     1       5.528   2.476 109.192  1.00  0.00    -0.077 C 
ATOM      7  C   UNL     1       5.365   2.262 110.677  1.00  0.00     0.039 C 
ATOM      8  C   UNL     1       5.491   1.382 108.390  1.00  0.00    -0.023 CG0
ATOM      9  G   UNL     1       5.691   1.336 106.886  1.00  0.00     0.000 G0
ENDBRANCH   5   6
ENDBRANCH   4   5
ENDBRANCH   2   4
BRANCH   1  10
ATOM     10  C   UNL     1       2.964   3.509 106.148  1.00  0.00     0.111 C 
BRANCH  10  11
ATOM     11  C   UNL     1       3.955   2.614 105.443  1.00  0.00     0.163 C 
ATOM     12  O   UNL     1       4.397   3.009 104.330  1.00  0.00    -0.294 OA
BRANCH  11  13
ATOM     13  C   UNL     1       4.448   1.310 106.003  1.00  0.00    -0.002 C 
ATOM     14  C   UNL     1       3.882   0.127 105.612  1.00  0.00    -0.069 C 
ATOM     15  C   UNL     1       4.493  -1.210 105.967  1.00  0.00     0.039 C 
ATOM     16  C   UNL     1       2.580   0.091 104.843  1.00  0.00     0.039 C 
BRANCH  13  17
ATOM     17  C   UNL     1       5.704   1.336 106.868  1.00  0.00     0.066 CG0
ATOM     18  G   UNL     1       5.490   1.387 108.370  1.00  0.00     0.000 G0
ENDBRANCH  13  17
ENDBRANCH  11  13
ENDBRANCH  10  11
ENDBRANCH   1  10
TORSDOF 0
ENDMDL
MODEL 8
REMARK VINA RESULT:    -3.886      2.378      4.059
REMARK INTER + INTRA:          -5.377
REMARK INTER:                  -5.291
REMARK INTRA:                  -0.086
REMARK UNBOUND:                 0.100
REMARK SMILES CC1=CCC(=C(C)C)C(=O)CC(C)=CCC1
REMARK SMILES IDX 12 1 14 2 13 3 15 4 16 5 2 6 1 7 3 8 11 10 9 11 10 12 5 13
REMARK SMILES IDX 6 14 7 15 8 16 4 17
REMARK H PARENT
REMARK Flexibility Score: 60.00
ROOT
ATOM      1  C   UNL     1       6.098   2.848 108.915  1.00  0.00    -0.070 C 
ATOM      2  C   UNL     1       7.243   2.127 108.913  1.00  0.00    -0.027 C 
ATOM      3  C   UNL     1       5.711   3.560 110.186  1.00  0.00     0.039 C 
ENDROOT
BRANCH   2   4
ATOM      4  C   UNL     1       7.703   1.238 107.785  1.00  0.00     0.032 C 
BRANCH   4   5
ATOM      5  C   UNL     1       8.727   1.984 106.921  1.00  0.00     0.034 C 
BRANCH   5   6
ATOM      6  C   UNL     1       8.427   1.869 105.440  1.00  0.00    -0.077 C 
ATOM      7  C   UNL     1       8.804   0.596 104.723  1.00  0.00     0.039 C 
ATOM      8  C   UNL     1       7.768   2.820 104.731  1.00  0.00    -0.023 CG0
ATOM      9  G   UNL     1       7.340   4.195 105.209  1.00  0.00     0.000 G0
ENDBRANCH   5   6
ENDBRANCH   4   5
ENDBRANCH   2   4
BRANCH   1  10
ATOM     10  C   UNL     1       5.201   2.990 107.703  1.00  0.00     0.111 C 
BRANCH  10  11
ATOM     11  C   UNL     1       5.443   4.290 106.973  1.00  0.00     0.163 C 
ATOM     12  O   UNL     1       5.305   5.355 107.635  1.00  0.00    -0.294 OA
BRANCH  11  13
ATOM     13  C   UNL     1       5.851   4.373 105.531  1.00  0.00    -0.002 C 
ATOM     14  C   UNL     1       4.949   4.751 104.573  1.00  0.00    -0.069 C 
ATOM     15  C   UNL     1       5.371   5.071 103.157  1.00  0.00     0.039 C 
ATOM     16  C   UNL     1       3.467   4.818 104.867  1.00  0.00     0.039 C 
BRANCH  13  17
ATOM     17  C   UNL     1       7.330   4.205 105.199  1.00  0.00     0.066 CG0
ATOM     18  G   UNL     1       7.770   2.826 104.743  1.00  0.00     0.000 G0
ENDBRANCH  13  17
ENDBRANCH  11  13
ENDBRANCH  10  11
ENDBRANCH   1  10
TORSDOF 0
ENDMDL
MODEL 9
REMARK VINA RESULT:    -3.811      1.949      4.335
REMARK INTER + INTRA:          -5.270
REMARK INTER:                  -5.581
REMARK INTRA:                   0.310
REMARK UNBOUND:                 0.100
REMARK SMILES CC1=CCC(=C(C)C)C(=O)CC(C)=CCC1
REMARK SMILES IDX 12 1 14 2 13 3 15 4 16 5 2 6 1 7 3 8 11 10 9 11 10 12 5 13
REMARK SMILES IDX 6 14 7 15 8 16 4 17
REMARK H PARENT
REMARK Flexibility Score: 60.00
ROOT
ATOM      1  C   UNL     1       4.823   4.306 104.098  1.00  0.00    -0.070 C 
ATOM      2  C   UNL     1       3.643   4.404 104.752  1.00  0.00    -0.027 C 
ATOM      3  C   UNL     1       5.148   5.349 103.059  1.00  0.00     0.039 C 
ENDROOT
BRANCH   2   4
ATOM      4  C   UNL     1       3.095   3.375 105.707  1.00  0.00     0.032 C 
BRANCH   4   5
ATOM      5  C   UNL     1       2.752   4.039 107.046  1.00  0.00     0.034 C 
BRANCH   5   6
ATOM      6  C   UNL     1       3.869   4.928 107.554  1.00  0.00    -0.077 C 
ATOM      7  C   UNL     1       3.595   6.401 107.736  1.00  0.00     0.039 C 
ATOM      8  C   UNL     1       5.088   4.464 107.928  1.00  0.00    -0.023 CG0
ATOM      9  G   UNL     1       5.617   3.048 107.788  1.00  0.00     0.000 G0
ENDBRANCH   5   6
ENDBRANCH   4   5
ENDBRANCH   2   4
BRANCH   1  10
ATOM     10  C   UNL     1       5.839   3.215 104.371  1.00  0.00     0.111 C 
BRANCH  10  11
ATOM     11  C   UNL     1       6.751   3.571 105.520  1.00  0.00     0.163 C 
ATOM     12  O   UNL     1       7.510   4.565 105.365  1.00  0.00    -0.294 OA
BRANCH  11  13
ATOM     13  C   UNL     1       6.782   2.824 106.823  1.00  0.00    -0.002 C 
ATOM     14  C   UNL     1       7.888   2.103 107.186  1.00  0.00    -0.069 C 
ATOM     15  C   UNL     1       8.053   1.534 108.577  1.00  0.00     0.039 C 
ATOM     16  C   UNL     1       8.987   1.793 106.195  1.00  0.00     0.039 C 
BRANCH  13  17
ATOM     17  C   UNL     1       5.629   3.043 107.797  1.00  0.00     0.066 CG0
ATOM     18  G   UNL     1       5.101   4.461 107.913  1.00  0.00     0.000 G0
ENDBRANCH  13  17
ENDBRANCH  11  13
ENDBRANCH  10  11
ENDBRANCH   1  10
TORSDOF 0
ENDMDL
