MODEL 1
REMARK VINA RESULT:    -5.283      0.000      0.000
REMARK INTER + INTRA:          -5.437
REMARK INTER:                  -5.437
REMARK INTRA:                   0.000
REMARK UNBOUND:                 0.000
REMARK SMILES Nc1ncnc2nc[nH]c12
REMARK SMILES IDX 8 1 7 2 6 3 5 4 4 5 3 6 2 7 10 8 9 9 1 11
REMARK H PARENT 9 10 1 12 1 13
REMARK Flexibility Score: inf
ROOT
ATOM      1  C   UNL     1      24.440 -39.126   2.186  1.00  0.00     0.199 A 
ATOM      2  N   UNL     1      23.879 -38.519   1.105  1.00  0.00    -0.217 NA
ATOM      3  C   UNL     1      24.378 -39.235   0.084  1.00  0.00     0.182 A 
ATOM      4  N   UNL     1      24.132 -39.043  -1.234  1.00  0.00    -0.215 NA
ATOM      5  C   UNL     1      24.737 -39.878  -2.131  1.00  0.00     0.226 A 
ATOM      6  N   UNL     1      25.569 -40.880  -1.699  1.00  0.00    -0.217 NA
ATOM      7  C   UNL     1      25.818 -41.076  -0.370  1.00  0.00     0.152 A 
ATOM      8  C   UNL     1      25.195 -40.216   0.532  1.00  0.00     0.127 A 
ATOM      9  N   UNL     1      25.250 -40.168   1.868  1.00  0.00    -0.340 N 
ATOM     10  H   UNL     1      25.785 -40.780   2.523  1.00  0.00     0.168 HD
ENDROOT
BRANCH   7  11
ATOM     11  N   UNL     1      26.686 -42.125   0.058  1.00  0.00    -0.382 N 
ATOM     12  H   UNL     1      26.703 -43.049  -0.426  1.00  0.00     0.158 HD
ATOM     13  H   UNL     1      27.322 -41.977   0.873  1.00  0.00     0.158 HD
ENDBRANCH   7  11
TORSDOF 1
ENDMDL
MODEL 2
REMARK VINA RESULT:    -5.261      2.182      3.489
REMARK INTER + INTRA:          -5.415
REMARK INTER:                  -5.415
REMARK INTRA:                   0.000
REMARK UNBOUND:                 0.000
REMARK SMILES Nc1ncnc2nc[nH]c12
REMARK SMILES IDX 8 1 7 2 6 3 5 4 4 5 3 6 2 7 10 8 9 9 1 11
REMARK H PARENT 9 10 1 12 1 13
REMARK Flexibility Score: inf
ROOT
ATOM      1  C   UNL     1      29.195 -41.115   1.650  1.00  0.00     0.199 A 
ATOM      2  N   UNL     1      28.575 -40.169   2.406  1.00  0.00    -0.217 NA
ATOM      3  C   UNL     1      27.375 -40.067   1.809  1.00  0.00     0.182 A 
ATOM      4  N   UNL     1      26.359 -39.250   2.174  1.00  0.00    -0.215 NA
ATOM      5  C   UNL     1      25.206 -39.287   1.439  1.00  0.00     0.226 A 
ATOM      6  N   UNL     1      25.093 -40.132   0.364  1.00  0.00    -0.217 NA
ATOM      7  C   UNL     1      26.117 -40.958  -0.005  1.00  0.00     0.152 A 
ATOM      8  C   UNL     1      27.284 -40.908   0.753  1.00  0.00     0.127 A 
ATOM      9  N   UNL     1      28.431 -41.587   0.632  1.00  0.00    -0.340 N 
ATOM     10  H   UNL     1      28.690 -42.311  -0.075  1.00  0.00     0.168 HD
ENDROOT
BRANCH   7  11
ATOM     11  N   UNL     1      25.976 -41.830  -1.126  1.00  0.00    -0.382 N 
ATOM     12  H   UNL     1      25.532 -41.508  -2.014  1.00  0.00     0.158 HD
ATOM     13  H   UNL     1      26.321 -42.815  -1.068  1.00  0.00     0.158 HD
ENDBRANCH   7  11
TORSDOF 1
ENDMDL
MODEL 3
REMARK VINA RESULT:    -5.243      1.144      2.951
REMARK INTER + INTRA:          -5.396
REMARK INTER:                  -5.396
REMARK INTRA:                   0.000
REMARK UNBOUND:                 0.000
REMARK SMILES Nc1ncnc2nc[nH]c12
REMARK SMILES IDX 8 1 7 2 6 3 5 4 4 5 3 6 2 7 10 8 9 9 1 11
REMARK H PARENT 9 10 1 12 1 13
REMARK Flexibility Score: inf
ROOT
ATOM      1  C   UNL     1      25.464 -41.342  -2.284  1.00  0.00     0.199 A 
ATOM      2  N   UNL     1      24.648 -40.253  -2.268  1.00  0.00    -0.217 NA
ATOM      3  C   UNL     1      24.700 -39.876  -0.980  1.00  0.00     0.182 A 
ATOM      4  N   UNL     1      24.055 -38.825  -0.420  1.00  0.00    -0.215 NA
ATOM      5  C   UNL     1      24.231 -38.598   0.917  1.00  0.00     0.226 A 
ATOM      6  N   UNL     1      25.041 -39.417   1.661  1.00  0.00    -0.217 NA
ATOM      7  C   UNL     1      25.693 -40.478   1.098  1.00  0.00     0.152 A 
ATOM      8  C   UNL     1      25.503 -40.696  -0.264  1.00  0.00     0.127 A 
ATOM      9  N   UNL     1      26.002 -41.638  -1.073  1.00  0.00    -0.340 N 
ATOM     10  H   UNL     1      26.651 -42.422  -0.841  1.00  0.00     0.168 HD
ENDROOT
BRANCH   7  11
ATOM     11  N   UNL     1      26.532 -41.317   1.892  1.00  0.00    -0.382 N 
ATOM     12  H   UNL     1      26.132 -41.994   2.578  1.00  0.00     0.158 HD
ATOM     13  H   UNL     1      27.570 -41.260   1.794  1.00  0.00     0.158 HD
ENDBRANCH   7  11
TORSDOF 1
ENDMDL
MODEL 4
REMARK VINA RESULT:    -5.014      2.033      3.313
REMARK INTER + INTRA:          -5.161
REMARK INTER:                  -5.161
REMARK INTRA:                   0.000
REMARK UNBOUND:                 0.000
REMARK SMILES Nc1ncnc2nc[nH]c12
REMARK SMILES IDX 8 1 7 2 6 3 5 4 4 5 3 6 2 7 10 8 9 9 1 11
REMARK H PARENT 9 10 1 12 1 13
REMARK Flexibility Score: inf
ROOT
ATOM      1  C   UNL     1      28.172 -39.713   2.822  1.00  0.00     0.199 A 
ATOM      2  N   UNL     1      28.310 -40.556   1.762  1.00  0.00    -0.217 NA
ATOM      3  C   UNL     1      27.140 -40.403   1.120  1.00  0.00     0.182 A 
ATOM      4  N   UNL     1      26.756 -41.026  -0.019  1.00  0.00    -0.215 NA
ATOM      5  C   UNL     1      25.519 -40.739  -0.526  1.00  0.00     0.226 A 
ATOM      6  N   UNL     1      24.697 -39.843   0.109  1.00  0.00    -0.217 NA
ATOM      7  C   UNL     1      25.083 -39.212   1.258  1.00  0.00     0.152 A 
ATOM      8  C   UNL     1      26.346 -39.515   1.762  1.00  0.00     0.127 A 
ATOM      9  N   UNL     1      26.981 -39.062   2.849  1.00  0.00    -0.340 N 
ATOM     10  H   UNL     1      26.651 -38.371   3.558  1.00  0.00     0.168 HD
ENDROOT
BRANCH   7  11
ATOM     11  N   UNL     1      24.212 -38.282   1.902  1.00  0.00    -0.382 N 
ATOM     12  H   UNL     1      23.189 -38.465   1.988  1.00  0.00     0.158 HD
ATOM     13  H   UNL     1      24.596 -37.394   2.297  1.00  0.00     0.158 HD
ENDBRANCH   7  11
TORSDOF 1
ENDMDL
MODEL 5
REMARK VINA RESULT:    -4.851      4.039      4.923
REMARK INTER + INTRA:          -4.993
REMARK INTER:                  -4.993
REMARK INTRA:                   0.000
REMARK UNBOUND:                 0.000
REMARK SMILES Nc1ncnc2nc[nH]c12
REMARK SMILES IDX 8 1 7 2 6 3 5 4 4 5 3 6 2 7 10 8 9 9 1 11
REMARK H PARENT 9 10 1 12 1 13
REMARK Flexibility Score: inf
ROOT
ATOM      1  C   UNL     1      29.960 -40.969   4.664  1.00  0.00     0.199 A 
ATOM      2  N   UNL     1      28.748 -40.356   4.741  1.00  0.00    -0.217 NA
ATOM      3  C   UNL     1      28.343 -40.360   3.460  1.00  0.00     0.182 A 
ATOM      4  N   UNL     1      27.180 -39.860   2.979  1.00  0.00    -0.215 NA
ATOM      5  C   UNL     1      26.943 -39.958   1.636  1.00  0.00     0.226 A 
ATOM      6  N   UNL     1      27.865 -40.545   0.807  1.00  0.00    -0.217 NA
ATOM      7  C   UNL     1      29.039 -41.051   1.291  1.00  0.00     0.152 A 
ATOM      8  C   UNL     1      29.265 -40.944   2.661  1.00  0.00     0.127 A 
ATOM      9  N   UNL     1      30.304 -41.341   3.405  1.00  0.00    -0.340 N 
ATOM     10  H   UNL     1      31.179 -41.823   3.101  1.00  0.00     0.168 HD
ENDROOT
BRANCH   7  11
ATOM     11  N   UNL     1      29.983 -41.660   0.410  1.00  0.00    -0.382 N 
ATOM     12  H   UNL     1      30.608 -41.087  -0.198  1.00  0.00     0.158 HD
ATOM     13  H   UNL     1      30.058 -42.701   0.364  1.00  0.00     0.158 HD
ENDBRANCH   7  11
TORSDOF 1
ENDMDL
MODEL 6
REMARK VINA RESULT:    -4.824      4.470      5.701
REMARK INTER + INTRA:          -4.965
REMARK INTER:                  -4.965
REMARK INTRA:                   0.000
REMARK UNBOUND:                 0.000
REMARK SMILES Nc1ncnc2nc[nH]c12
REMARK SMILES IDX 8 1 7 2 6 3 5 4 4 5 3 6 2 7 10 8 9 9 1 11
REMARK H PARENT 9 10 1 12 1 13
REMARK Flexibility Score: inf
ROOT
ATOM      1  C   UNL     1      29.342 -40.623   5.663  1.00  0.00     0.199 A 
ATOM      2  N   UNL     1      30.065 -41.470   4.881  1.00  0.00    -0.217 NA
ATOM      3  C   UNL     1      29.577 -41.215   3.656  1.00  0.00     0.182 A 
ATOM      4  N   UNL     1      29.960 -41.799   2.496  1.00  0.00    -0.215 NA
ATOM      5  C   UNL     1      29.344 -41.406   1.341  1.00  0.00     0.226 A 
ATOM      6  N   UNL     1      28.364 -40.446   1.367  1.00  0.00    -0.217 NA
ATOM      7  C   UNL     1      27.976 -39.855   2.536  1.00  0.00     0.152 A 
ATOM      8  C   UNL     1      28.614 -40.266   3.704  1.00  0.00     0.127 A 
ATOM      9  N   UNL     1      28.447 -39.872   4.972  1.00  0.00    -0.340 N 
ATOM     10  H   UNL     1      27.787 -39.159   5.353  1.00  0.00     0.168 HD
ENDROOT
BRANCH   7  11
ATOM     11  N   UNL     1      26.955 -38.857   2.539  1.00  0.00    -0.382 N 
ATOM     12  H   UNL     1      26.879 -38.154   1.772  1.00  0.00     0.158 HD
ATOM     13  H   UNL     1      26.265 -38.818   3.323  1.00  0.00     0.158 HD
ENDBRANCH   7  11
TORSDOF 1
ENDMDL
MODEL 7
REMARK VINA RESULT:    -4.804      2.672      3.911
REMARK INTER + INTRA:          -4.945
REMARK INTER:                  -4.945
REMARK INTRA:                   0.000
REMARK UNBOUND:                 0.000
REMARK SMILES Nc1ncnc2nc[nH]c12
REMARK SMILES IDX 8 1 7 2 6 3 5 4 4 5 3 6 2 7 10 8 9 9 1 11
REMARK H PARENT 9 10 1 12 1 13
REMARK Flexibility Score: inf
ROOT
ATOM      1  C   UNL     1      25.223 -39.157   1.364  1.00  0.00     0.199 A 
ATOM      2  N   UNL     1      25.525 -40.253   0.617  1.00  0.00    -0.217 NA
ATOM      3  C   UNL     1      26.681 -40.663   1.164  1.00  0.00     0.182 A 
ATOM      4  N   UNL     1      27.420 -41.733   0.786  1.00  0.00    -0.215 NA
ATOM      5  C   UNL     1      28.576 -41.993   1.468  1.00  0.00     0.226 A 
ATOM      6  N   UNL     1      28.969 -41.186   2.505  1.00  0.00    -0.217 NA
ATOM      7  C   UNL     1      28.225 -40.106   2.889  1.00  0.00     0.152 A 
ATOM      8  C   UNL     1      27.050 -39.855   2.185  1.00  0.00     0.127 A 
ATOM      9  N   UNL     1      26.137 -38.888   2.332  1.00  0.00    -0.340 N 
ATOM     10  H   UNL     1      26.119 -38.105   3.022  1.00  0.00     0.168 HD
ENDROOT
BRANCH   7  11
ATOM     11  N   UNL     1      28.652 -39.280   3.972  1.00  0.00    -0.382 N 
ATOM     12  H   UNL     1      28.933 -39.688   4.890  1.00  0.00     0.158 HD
ATOM     13  H   UNL     1      28.686 -38.242   3.856  1.00  0.00     0.158 HD
ENDBRANCH   7  11
TORSDOF 1
ENDMDL
MODEL 8
REMARK VINA RESULT:    -4.794      3.997      5.848
REMARK INTER + INTRA:          -4.934
REMARK INTER:                  -4.934
REMARK INTRA:                   0.000
REMARK UNBOUND:                 0.000
REMARK SMILES Nc1ncnc2nc[nH]c12
REMARK SMILES IDX 8 1 7 2 6 3 5 4 4 5 3 6 2 7 10 8 9 9 1 11
REMARK H PARENT 9 10 1 12 1 13
REMARK Flexibility Score: inf
ROOT
ATOM      1  C   UNL     1      30.825 -42.122   0.999  1.00  0.00     0.199 A 
ATOM      2  N   UNL     1      30.912 -42.025   2.353  1.00  0.00    -0.217 NA
ATOM      3  C   UNL     1      29.785 -41.363   2.666  1.00  0.00     0.182 A 
ATOM      4  N   UNL     1      29.378 -41.002   3.906  1.00  0.00    -0.215 NA
ATOM      5  C   UNL     1      28.194 -40.328   4.025  1.00  0.00     0.226 A 
ATOM      6  N   UNL     1      27.447 -40.031   2.914  1.00  0.00    -0.217 NA
ATOM      7  C   UNL     1      27.856 -40.395   1.662  1.00  0.00     0.152 A 
ATOM      8  C   UNL     1      29.064 -41.080   1.557  1.00  0.00     0.127 A 
ATOM      9  N   UNL     1      29.705 -41.554   0.482  1.00  0.00    -0.340 N 
ATOM     10  H   UNL     1      29.423 -41.505  -0.522  1.00  0.00     0.168 HD
ENDROOT
BRANCH   7  11
ATOM     11  N   UNL     1      27.062 -40.076   0.519  1.00  0.00    -0.382 N 
ATOM     12  H   UNL     1      27.476 -39.612  -0.319  1.00  0.00     0.158 HD
ATOM     13  H   UNL     1      26.043 -40.306   0.511  1.00  0.00     0.158 HD
ENDBRANCH   7  11
TORSDOF 1
ENDMDL
MODEL 9
REMARK VINA RESULT:    -4.741      4.446      5.941
REMARK INTER + INTRA:          -4.880
REMARK INTER:                  -4.880
REMARK INTRA:                   0.000
REMARK UNBOUND:                 0.000
REMARK SMILES Nc1ncnc2nc[nH]c12
REMARK SMILES IDX 8 1 7 2 6 3 5 4 4 5 3 6 2 7 10 8 9 9 1 11
REMARK H PARENT 9 10 1 12 1 13
REMARK Flexibility Score: inf
ROOT
ATOM      1  C   UNL     1      27.190 -39.762   1.713  1.00  0.00     0.199 A 
ATOM      2  N   UNL     1      28.121 -40.656   1.283  1.00  0.00    -0.217 NA
ATOM      3  C   UNL     1      28.870 -40.840   2.382  1.00  0.00     0.182 A 
ATOM      4  N   UNL     1      29.950 -41.649   2.498  1.00  0.00    -0.215 NA
ATOM      5  C   UNL     1      30.588 -41.705   3.706  1.00  0.00     0.226 A 
ATOM      6  N   UNL     1      30.139 -40.959   4.765  1.00  0.00    -0.217 NA
ATOM      7  C   UNL     1      29.049 -40.142   4.651  1.00  0.00     0.152 A 
ATOM      8  C   UNL     1      28.411 -40.096   3.414  1.00  0.00     0.127 A 
ATOM      9  N   UNL     1      27.340 -39.401   3.013  1.00  0.00    -0.340 N 
ATOM     10  H   UNL     1      26.751 -38.734   3.559  1.00  0.00     0.168 HD
ENDROOT
BRANCH   7  11
ATOM     11  N   UNL     1      28.599 -39.375   5.768  1.00  0.00    -0.382 N 
ATOM     12  H   UNL     1      27.807 -38.701   5.681  1.00  0.00     0.158 HD
ATOM     13  H   UNL     1      29.066 -39.480   6.696  1.00  0.00     0.158 HD
ENDBRANCH   7  11
TORSDOF 1
ENDMDL
