MODEL 1
REMARK VINA RESULT:    -3.648      0.000      0.000
REMARK INTER + INTRA:         -15.246
REMARK INTER:                  -9.619
REMARK INTRA:                  -5.627
REMARK UNBOUND:                -5.627
REMARK SMILES CCCCCCCCCCCCCCCCCCCCCCCCCCCCCC(=O)[O-]
REMARK SMILES IDX 16 1 17 2 18 3 19 4 20 5 21 6 22 7 23 8 24 9 25 10 26 11
REMARK SMILES IDX 27 12 28 13 29 14 30 15 31 16 32 17 15 18 14 19 13 20 12 21
REMARK SMILES IDX 11 22 10 23 9 24 8 25 7 26 6 27 5 28 4 29 3 30 2 31 1 32
REMARK H PARENT
REMARK Flexibility Score: inf
ROOT
ATOM      1  C   UNL     1     188.537 186.864 171.034  1.00  0.00     0.000 C 
ENDROOT
BRANCH   1   2
ATOM      2  C   UNL     1     189.770 186.143 170.467  1.00  0.00     0.000 C 
BRANCH   2   3
ATOM      3  C   UNL     1     189.534 184.638 170.250  1.00  0.00     0.000 C 
BRANCH   3   4
ATOM      4  C   UNL     1     190.822 183.812 170.067  1.00  0.00     0.000 C 
BRANCH   4   5
ATOM      5  C   UNL     1     192.024 184.385 170.838  1.00  0.00     0.000 C 
BRANCH   5   6
ATOM      6  C   UNL     1     192.423 183.519 172.047  1.00  0.00     0.000 C 
BRANCH   6   7
ATOM      7  C   UNL     1     192.223 184.220 173.410  1.00  0.00     0.000 C 
BRANCH   7   8
ATOM      8  C   UNL     1     190.740 184.354 173.802  1.00  0.00     0.000 C 
BRANCH   8   9
ATOM      9  C   UNL     1     190.350 185.808 174.134  1.00  0.00     0.000 C 
BRANCH   9  10
ATOM     10  C   UNL     1     191.367 186.833 173.600  1.00  0.00     0.000 C 
BRANCH  10  11
ATOM     11  C   UNL     1     192.000 187.736 174.673  1.00  0.00     0.000 C 
BRANCH  11  12
ATOM     12  C   UNL     1     191.731 187.297 176.123  1.00  0.00     0.000 C 
BRANCH  12  13
ATOM     13  C   UNL     1     191.582 188.485 177.093  1.00  0.00     0.006 C 
BRANCH  13  14
ATOM     14  C   UNL     1     190.177 188.567 177.706  1.00  0.00     0.053 C 
BRANCH  14  15
ATOM     15  C   UNL     1     190.225 188.746 179.193  1.00  0.00     0.041 C 
ATOM     16  O   UNL     1     190.820 187.903 179.916  1.00  0.00    -0.550 OA
ATOM     17  O   UNL     1     189.587 189.829 179.784  1.00  0.00    -0.550 OA
ENDBRANCH  14  15
ENDBRANCH  13  14
ENDBRANCH  12  13
ENDBRANCH  11  12
ENDBRANCH  10  11
ENDBRANCH   9  10
ENDBRANCH   8   9
ENDBRANCH   7   8
ENDBRANCH   6   7
ENDBRANCH   5   6
ENDBRANCH   4   5
ENDBRANCH   3   4
ENDBRANCH   2   3
ENDBRANCH   1   2
BRANCH   1  18
ATOM     18  C   UNL     1     188.348 188.284 170.465  1.00  0.00     0.000 C 
BRANCH  18  19
ATOM     19  C   UNL     1     186.975 188.574 169.823  1.00  0.00     0.000 C 
BRANCH  19  20
ATOM     20  C   UNL     1     185.923 187.459 169.975  1.00  0.00     0.000 C 
BRANCH  20  21
ATOM     21  C   UNL     1     185.625 186.731 168.653  1.00  0.00     0.000 C 
BRANCH  21  22
ATOM     22  C   UNL     1     186.178 185.297 168.629  1.00  0.00     0.000 C 
BRANCH  22  23
ATOM     23  C   UNL     1     187.000 184.997 167.367  1.00  0.00     0.000 C 
BRANCH  23  24
ATOM     24  C   UNL     1     187.910 186.179 167.011  1.00  0.00    -0.000 C 
BRANCH  24  25
ATOM     25  C   UNL     1     189.326 185.697 166.662  1.00  0.00    -0.000 C 
BRANCH  25  26
ATOM     26  C   UNL     1     190.410 186.711 167.054  1.00  0.00    -0.000 C 
BRANCH  26  27
ATOM     27  C   UNL     1     189.885 188.154 167.088  1.00  0.00    -0.000 C 
BRANCH  27  28
ATOM     28  C   UNL     1     190.915 189.141 167.661  1.00  0.00    -0.000 C 
BRANCH  28  29
ATOM     29  C   UNL     1     191.713 188.546 168.835  1.00  0.00    -0.000 C 
BRANCH  29  30
ATOM     30  C   UNL     1     191.787 189.493 170.047  1.00  0.00    -0.000 C 
BRANCH  30  31
ATOM     31  C   UNL     1     192.786 189.060 171.136  1.00  0.00    -0.003 C 
ATOM     32  C   UNL     1     194.060 188.443 170.561  1.00  0.00     0.004 C 
ENDBRANCH  30  31
ENDBRANCH  29  30
ENDBRANCH  28  29
ENDBRANCH  27  28
ENDBRANCH  26  27
ENDBRANCH  25  26
ENDBRANCH  24  25
ENDBRANCH  23  24
ENDBRANCH  22  23
ENDBRANCH  21  22
ENDBRANCH  20  21
ENDBRANCH  19  20
ENDBRANCH  18  19
ENDBRANCH   1  18
TORSDOF 28
ENDMDL
MODEL 2
REMARK VINA RESULT:    -3.599      1.373      3.293
REMARK INTER + INTRA:         -15.116
REMARK INTER:                  -8.932
REMARK INTRA:                  -6.184
REMARK UNBOUND:                -5.627
REMARK SMILES CCCCCCCCCCCCCCCCCCCCCCCCCCCCCC(=O)[O-]
REMARK SMILES IDX 16 1 17 2 18 3 19 4 20 5 21 6 22 7 23 8 24 9 25 10 26 11
REMARK SMILES IDX 27 12 28 13 29 14 30 15 31 16 32 17 15 18 14 19 13 20 12 21
REMARK SMILES IDX 11 22 10 23 9 24 8 25 7 26 6 27 5 28 4 29 3 30 2 31 1 32
REMARK H PARENT
REMARK Flexibility Score: inf
ROOT
ATOM      1  C   UNL     1     186.273 188.133 169.086  1.00  0.00     0.000 C 
ENDROOT
BRANCH   1   2
ATOM      2  C   UNL     1     186.816 187.896 170.504  1.00  0.00     0.000 C 
BRANCH   2   3
ATOM      3  C   UNL     1     188.344 188.062 170.593  1.00  0.00     0.000 C 
BRANCH   3   4
ATOM      4  C   UNL     1     189.064 186.926 171.346  1.00  0.00     0.000 C 
BRANCH   4   5
ATOM      5  C   UNL     1     188.117 186.084 172.219  1.00  0.00     0.000 C 
BRANCH   5   6
ATOM      6  C   UNL     1     188.826 185.458 173.434  1.00  0.00     0.000 C 
BRANCH   6   7
ATOM      7  C   UNL     1     189.746 184.268 173.075  1.00  0.00     0.000 C 
BRANCH   7   8
ATOM      8  C   UNL     1     190.926 184.108 174.051  1.00  0.00     0.000 C 
BRANCH   8   9
ATOM      9  C   UNL     1     192.281 184.013 173.323  1.00  0.00     0.000 C 
BRANCH   9  10
ATOM     10  C   UNL     1     193.129 185.289 173.474  1.00  0.00     0.000 C 
BRANCH  10  11
ATOM     11  C   UNL     1     192.644 186.491 172.644  1.00  0.00     0.000 C 
BRANCH  11  12
ATOM     12  C   UNL     1     191.969 187.607 173.461  1.00  0.00     0.000 C 
BRANCH  12  13
ATOM     13  C   UNL     1     192.421 187.630 174.934  1.00  0.00     0.006 C 
BRANCH  13  14
ATOM     14  C   UNL     1     191.264 187.356 175.904  1.00  0.00     0.053 C 
BRANCH  14  15
ATOM     15  C   UNL     1     191.451 188.063 177.212  1.00  0.00     0.041 C 
ATOM     16  O   UNL     1     191.193 189.292 177.314  1.00  0.00    -0.550 OA
ATOM     17  O   UNL     1     191.940 187.372 178.313  1.00  0.00    -0.550 OA
ENDBRANCH  14  15
ENDBRANCH  13  14
ENDBRANCH  12  13
ENDBRANCH  11  12
ENDBRANCH  10  11
ENDBRANCH   9  10
ENDBRANCH   8   9
ENDBRANCH   7   8
ENDBRANCH   6   7
ENDBRANCH   5   6
ENDBRANCH   4   5
ENDBRANCH   3   4
ENDBRANCH   2   3
ENDBRANCH   1   2
BRANCH   1  18
ATOM     18  C   UNL     1     185.319 187.021 168.606  1.00  0.00     0.000 C 
BRANCH  18  19
ATOM     19  C   UNL     1     185.710 185.581 169.003  1.00  0.00     0.000 C 
BRANCH  19  20
ATOM     20  C   UNL     1     186.630 184.846 168.010  1.00  0.00     0.000 C 
BRANCH  20  21
ATOM     21  C   UNL     1     188.124 185.011 168.342  1.00  0.00     0.000 C 
BRANCH  21  22
ATOM     22  C   UNL     1     188.968 185.380 167.111  1.00  0.00     0.000 C 
BRANCH  22  23
ATOM     23  C   UNL     1     188.573 186.733 166.503  1.00  0.00     0.000 C 
BRANCH  23  24
ATOM     24  C   UNL     1     189.789 187.659 166.387  1.00  0.00    -0.000 C 
BRANCH  24  25
ATOM     25  C   UNL     1     189.752 188.754 167.463  1.00  0.00    -0.000 C 
BRANCH  25  26
ATOM     26  C   UNL     1     191.152 189.150 167.954  1.00  0.00    -0.000 C 
BRANCH  26  27
ATOM     27  C   UNL     1     191.710 188.171 168.998  1.00  0.00    -0.000 C 
BRANCH  27  28
ATOM     28  C   UNL     1     192.938 187.402 168.485  1.00  0.00    -0.000 C 
BRANCH  28  29
ATOM     29  C   UNL     1     192.760 185.875 168.580  1.00  0.00    -0.000 C 
BRANCH  29  30
ATOM     30  C   UNL     1     191.592 185.467 169.495  1.00  0.00    -0.000 C 
BRANCH  30  31
ATOM     31  C   UNL     1     191.453 183.950 169.715  1.00  0.00    -0.003 C 
ATOM     32  C   UNL     1     192.799 183.226 169.721  1.00  0.00     0.004 C 
ENDBRANCH  30  31
ENDBRANCH  29  30
ENDBRANCH  28  29
ENDBRANCH  27  28
ENDBRANCH  26  27
ENDBRANCH  25  26
ENDBRANCH  24  25
ENDBRANCH  23  24
ENDBRANCH  22  23
ENDBRANCH  21  22
ENDBRANCH  20  21
ENDBRANCH  19  20
ENDBRANCH  18  19
ENDBRANCH   1  18
TORSDOF 28
ENDMDL
MODEL 3
REMARK VINA RESULT:    -3.578      8.622     11.759
REMARK INTER + INTRA:         -15.062
REMARK INTER:                 -11.465
REMARK INTRA:                  -3.597
REMARK UNBOUND:                -5.627
REMARK SMILES CCCCCCCCCCCCCCCCCCCCCCCCCCCCCC(=O)[O-]
REMARK SMILES IDX 16 1 17 2 18 3 19 4 20 5 21 6 22 7 23 8 24 9 25 10 26 11
REMARK SMILES IDX 27 12 28 13 29 14 30 15 31 16 32 17 15 18 14 19 13 20 12 21
REMARK SMILES IDX 11 22 10 23 9 24 8 25 7 26 6 27 5 28 4 29 3 30 2 31 1 32
REMARK H PARENT
REMARK Flexibility Score: inf
ROOT
ATOM      1  C   UNL     1     182.191 194.010 174.989  1.00  0.00     0.000 C 
ENDROOT
BRANCH   1   2
ATOM      2  C   UNL     1     182.777 195.413 174.767  1.00  0.00     0.000 C 
BRANCH   2   3
ATOM      3  C   UNL     1     182.619 196.327 175.995  1.00  0.00     0.000 C 
BRANCH   3   4
ATOM      4  C   UNL     1     181.774 197.591 175.743  1.00  0.00     0.000 C 
BRANCH   4   5
ATOM      5  C   UNL     1     180.312 197.279 175.378  1.00  0.00     0.000 C 
BRANCH   5   6
ATOM      6  C   UNL     1     179.440 196.984 176.613  1.00  0.00     0.000 C 
BRANCH   6   7
ATOM      7  C   UNL     1     179.033 195.499 176.749  1.00  0.00     0.000 C 
BRANCH   7   8
ATOM      8  C   UNL     1     179.320 194.925 178.149  1.00  0.00     0.000 C 
BRANCH   8   9
ATOM      9  C   UNL     1     180.666 194.177 178.211  1.00  0.00     0.000 C 
BRANCH   9  10
ATOM     10  C   UNL     1     181.616 194.749 179.278  1.00  0.00     0.000 C 
BRANCH  10  11
ATOM     11  C   UNL     1     183.099 194.381 179.088  1.00  0.00     0.000 C 
BRANCH  11  12
ATOM     12  C   UNL     1     184.014 194.774 180.261  1.00  0.00     0.000 C 
BRANCH  12  13
ATOM     13  C   UNL     1     184.910 193.615 180.739  1.00  0.00     0.006 C 
BRANCH  13  14
ATOM     14  C   UNL     1     184.936 193.489 182.268  1.00  0.00     0.053 C 
BRANCH  14  15
ATOM     15  C   UNL     1     185.595 192.220 182.714  1.00  0.00     0.041 C 
ATOM     16  O   UNL     1     186.496 192.246 183.595  1.00  0.00    -0.550 OA
ATOM     17  O   UNL     1     185.237 191.009 182.136  1.00  0.00    -0.550 OA
ENDBRANCH  14  15
ENDBRANCH  13  14
ENDBRANCH  12  13
ENDBRANCH  11  12
ENDBRANCH  10  11
ENDBRANCH   9  10
ENDBRANCH   8   9
ENDBRANCH   7   8
ENDBRANCH   6   7
ENDBRANCH   5   6
ENDBRANCH   4   5
ENDBRANCH   3   4
ENDBRANCH   2   3
ENDBRANCH   1   2
BRANCH   1  18
ATOM     18  C   UNL     1     181.338 193.512 173.806  1.00  0.00     0.000 C 
BRANCH  18  19
ATOM     19  C   UNL     1     179.828 193.821 173.888  1.00  0.00     0.000 C 
BRANCH  19  20
ATOM     20  C   UNL     1     179.292 194.800 172.827  1.00  0.00     0.000 C 
BRANCH  20  21
ATOM     21  C   UNL     1     180.164 194.845 171.559  1.00  0.00     0.000 C 
BRANCH  21  22
ATOM     22  C   UNL     1     179.625 193.944 170.437  1.00  0.00     0.000 C 
BRANCH  22  23
ATOM     23  C   UNL     1     180.737 193.192 169.691  1.00  0.00     0.000 C 
BRANCH  23  24
ATOM     24  C   UNL     1     181.362 192.111 170.581  1.00  0.00    -0.000 C 
BRANCH  24  25
ATOM     25  C   UNL     1     180.343 191.010 170.908  1.00  0.00    -0.000 C 
BRANCH  25  26
ATOM     26  C   UNL     1     179.844 190.275 169.655  1.00  0.00    -0.000 C 
BRANCH  26  27
ATOM     27  C   UNL     1     180.944 189.441 168.981  1.00  0.00    -0.000 C 
BRANCH  27  28
ATOM     28  C   UNL     1     181.219 188.122 169.720  1.00  0.00    -0.000 C 
BRANCH  28  29
ATOM     29  C   UNL     1     182.710 187.928 170.048  1.00  0.00    -0.000 C 
BRANCH  29  30
ATOM     30  C   UNL     1     183.599 187.915 168.792  1.00  0.00    -0.000 C 
BRANCH  30  31
ATOM     31  C   UNL     1     184.935 187.168 168.962  1.00  0.00    -0.003 C 
ATOM     32  C   UNL     1     185.933 187.927 169.834  1.00  0.00     0.004 C 
ENDBRANCH  30  31
ENDBRANCH  29  30
ENDBRANCH  28  29
ENDBRANCH  27  28
ENDBRANCH  26  27
ENDBRANCH  25  26
ENDBRANCH  24  25
ENDBRANCH  23  24
ENDBRANCH  22  23
ENDBRANCH  21  22
ENDBRANCH  20  21
ENDBRANCH  19  20
ENDBRANCH  18  19
ENDBRANCH   1  18
TORSDOF 28
ENDMDL
MODEL 4
REMARK VINA RESULT:    -3.545      8.845     12.194
REMARK INTER + INTRA:         -14.974
REMARK INTER:                 -10.963
REMARK INTRA:                  -4.011
REMARK UNBOUND:                -5.627
REMARK SMILES CCCCCCCCCCCCCCCCCCCCCCCCCCCCCC(=O)[O-]
REMARK SMILES IDX 16 1 17 2 18 3 19 4 20 5 21 6 22 7 23 8 24 9 25 10 26 11
REMARK SMILES IDX 27 12 28 13 29 14 30 15 31 16 32 17 15 18 14 19 13 20 12 21
REMARK SMILES IDX 11 22 10 23 9 24 8 25 7 26 6 27 5 28 4 29 3 30 2 31 1 32
REMARK H PARENT
REMARK Flexibility Score: inf
ROOT
ATOM      1  C   UNL     1     182.957 195.107 174.681  1.00  0.00     0.000 C 
ENDROOT
BRANCH   1   2
ATOM      2  C   UNL     1     182.386 196.510 174.420  1.00  0.00     0.000 C 
BRANCH   2   3
ATOM      3  C   UNL     1     181.863 197.189 175.699  1.00  0.00     0.000 C 
BRANCH   3   4
ATOM      4  C   UNL     1     180.369 197.564 175.653  1.00  0.00     0.000 C 
BRANCH   4   5
ATOM      5  C   UNL     1     179.439 196.391 176.006  1.00  0.00     0.000 C 
BRANCH   5   6
ATOM      6  C   UNL     1     179.349 196.138 177.522  1.00  0.00     0.000 C 
BRANCH   6   7
ATOM      7  C   UNL     1     179.543 194.656 177.919  1.00  0.00     0.000 C 
BRANCH   7   8
ATOM      8  C   UNL     1     181.020 194.222 177.908  1.00  0.00     0.000 C 
BRANCH   8   9
ATOM      9  C   UNL     1     181.905 195.132 178.781  1.00  0.00     0.000 C 
BRANCH   9  10
ATOM     10  C   UNL     1     183.400 195.024 178.428  1.00  0.00     0.000 C 
BRANCH  10  11
ATOM     11  C   UNL     1     184.351 195.011 179.639  1.00  0.00     0.000 C 
BRANCH  11  12
ATOM     12  C   UNL     1     183.674 195.298 180.991  1.00  0.00     0.000 C 
BRANCH  12  13
ATOM     13  C   UNL     1     183.783 194.120 181.978  1.00  0.00     0.006 C 
BRANCH  13  14
ATOM     14  C   UNL     1     184.415 192.877 181.337  1.00  0.00     0.053 C 
BRANCH  14  15
ATOM     15  C   UNL     1     185.698 192.492 182.010  1.00  0.00     0.041 C 
ATOM     16  O   UNL     1     185.968 192.928 183.161  1.00  0.00    -0.550 OA
ATOM     17  O   UNL     1     186.609 191.675 181.355  1.00  0.00    -0.550 OA
ENDBRANCH  14  15
ENDBRANCH  13  14
ENDBRANCH  12  13
ENDBRANCH  11  12
ENDBRANCH  10  11
ENDBRANCH   9  10
ENDBRANCH   8   9
ENDBRANCH   7   8
ENDBRANCH   6   7
ENDBRANCH   5   6
ENDBRANCH   4   5
ENDBRANCH   3   4
ENDBRANCH   2   3
ENDBRANCH   1   2
BRANCH   1  18
ATOM     18  C   UNL     1     182.247 194.001 173.875  1.00  0.00     0.000 C 
BRANCH  18  19
ATOM     19  C   UNL     1     180.869 193.556 174.410  1.00  0.00     0.000 C 
BRANCH  19  20
ATOM     20  C   UNL     1     179.727 193.551 173.378  1.00  0.00     0.000 C 
BRANCH  20  21
ATOM     21  C   UNL     1     179.594 194.886 172.624  1.00  0.00     0.000 C 
BRANCH  21  22
ATOM     22  C   UNL     1     179.653 194.714 171.098  1.00  0.00     0.000 C 
BRANCH  22  23
ATOM     23  C   UNL     1     178.938 193.444 170.614  1.00  0.00     0.000 C 
BRANCH  23  24
ATOM     24  C   UNL     1     179.623 192.869 169.369  1.00  0.00    -0.000 C 
BRANCH  24  25
ATOM     25  C   UNL     1     181.148 192.842 169.542  1.00  0.00    -0.000 C 
BRANCH  25  26
ATOM     26  C   UNL     1     181.606 191.831 170.603  1.00  0.00    -0.000 C 
BRANCH  26  27
ATOM     27  C   UNL     1     181.107 190.407 170.318  1.00  0.00    -0.000 C 
BRANCH  27  28
ATOM     28  C   UNL     1     181.630 189.857 168.982  1.00  0.00    -0.000 C 
BRANCH  28  29
ATOM     29  C   UNL     1     181.916 188.345 169.036  1.00  0.00    -0.000 C 
BRANCH  29  30
ATOM     30  C   UNL     1     180.734 187.497 168.534  1.00  0.00    -0.000 C 
BRANCH  30  31
ATOM     31  C   UNL     1     179.800 186.981 169.644  1.00  0.00    -0.003 C 
ATOM     32  C   UNL     1     180.558 186.353 170.813  1.00  0.00     0.004 C 
ENDBRANCH  30  31
ENDBRANCH  29  30
ENDBRANCH  28  29
ENDBRANCH  27  28
ENDBRANCH  26  27
ENDBRANCH  25  26
ENDBRANCH  24  25
ENDBRANCH  23  24
ENDBRANCH  22  23
ENDBRANCH  21  22
ENDBRANCH  20  21
ENDBRANCH  19  20
ENDBRANCH  18  19
ENDBRANCH   1  18
TORSDOF 28
ENDMDL
MODEL 5
REMARK VINA RESULT:    -3.529      1.622      5.035
REMARK INTER + INTRA:         -14.933
REMARK INTER:                  -9.160
REMARK INTRA:                  -5.774
REMARK UNBOUND:                -5.627
REMARK SMILES CCCCCCCCCCCCCCCCCCCCCCCCCCCCCC(=O)[O-]
REMARK SMILES IDX 16 1 17 2 18 3 19 4 20 5 21 6 22 7 23 8 24 9 25 10 26 11
REMARK SMILES IDX 27 12 28 13 29 14 30 15 31 16 32 17 15 18 14 19 13 20 12 21
REMARK SMILES IDX 11 22 10 23 9 24 8 25 7 26 6 27 5 28 4 29 3 30 2 31 1 32
REMARK H PARENT
REMARK Flexibility Score: inf
ROOT
ATOM      1  C   UNL     1     185.790 187.897 169.732  1.00  0.00     0.000 C 
ENDROOT
BRANCH   1   2
ATOM      2  C   UNL     1     185.231 186.899 168.706  1.00  0.00     0.000 C 
BRANCH   2   3
ATOM      3  C   UNL     1     186.143 186.731 167.478  1.00  0.00     0.000 C 
BRANCH   3   4
ATOM      4  C   UNL     1     186.793 185.339 167.355  1.00  0.00     0.000 C 
BRANCH   4   5
ATOM      5  C   UNL     1     188.304 185.348 167.649  1.00  0.00     0.000 C 
BRANCH   5   6
ATOM      6  C   UNL     1     188.650 184.707 169.005  1.00  0.00     0.000 C 
BRANCH   6   7
ATOM      7  C   UNL     1     190.162 184.453 169.207  1.00  0.00     0.000 C 
BRANCH   7   8
ATOM      8  C   UNL     1     190.518 184.079 170.658  1.00  0.00     0.000 C 
BRANCH   8   9
ATOM      9  C   UNL     1     189.699 184.882 171.688  1.00  0.00     0.000 C 
BRANCH   9  10
ATOM     10  C   UNL     1     190.032 184.498 173.141  1.00  0.00     0.000 C 
BRANCH  10  11
ATOM     11  C   UNL     1     190.228 185.690 174.095  1.00  0.00     0.000 C 
BRANCH  11  12
ATOM     12  C   UNL     1     190.981 186.885 173.485  1.00  0.00     0.000 C 
BRANCH  12  13
ATOM     13  C   UNL     1     191.899 187.597 174.498  1.00  0.00     0.006 C 
BRANCH  13  14
ATOM     14  C   UNL     1     191.625 187.159 175.943  1.00  0.00     0.053 C 
BRANCH  14  15
ATOM     15  C   UNL     1     191.416 188.331 176.853  1.00  0.00     0.041 C 
ATOM     16  O   UNL     1     191.945 189.444 176.589  1.00  0.00    -0.550 OA
ATOM     17  O   UNL     1     190.662 188.188 178.010  1.00  0.00    -0.550 OA
ENDBRANCH  14  15
ENDBRANCH  13  14
ENDBRANCH  12  13
ENDBRANCH  11  12
ENDBRANCH  10  11
ENDBRANCH   9  10
ENDBRANCH   8   9
ENDBRANCH   7   8
ENDBRANCH   6   7
ENDBRANCH   5   6
ENDBRANCH   4   5
ENDBRANCH   3   4
ENDBRANCH   2   3
ENDBRANCH   1   2
BRANCH   1  18
ATOM     18  C   UNL     1     186.665 187.233 170.814  1.00  0.00     0.000 C 
BRANCH  18  19
ATOM     19  C   UNL     1     188.137 187.696 170.867  1.00  0.00     0.000 C 
BRANCH  19  20
ATOM     20  C   UNL     1     188.505 188.845 169.910  1.00  0.00     0.000 C 
BRANCH  20  21
ATOM     21  C   UNL     1     189.507 188.421 168.822  1.00  0.00     0.000 C 
BRANCH  21  22
ATOM     22  C   UNL     1     190.893 189.059 169.010  1.00  0.00     0.000 C 
BRANCH  22  23
ATOM     23  C   UNL     1     191.619 188.548 170.262  1.00  0.00     0.000 C 
BRANCH  23  24
ATOM     24  C   UNL     1     192.333 187.220 169.979  1.00  0.00    -0.000 C 
BRANCH  24  25
ATOM     25  C   UNL     1     193.416 186.943 171.032  1.00  0.00    -0.000 C 
BRANCH  25  26
ATOM     26  C   UNL     1     193.902 185.487 171.013  1.00  0.00    -0.000 C 
BRANCH  26  27
ATOM     27  C   UNL     1     193.831 184.821 172.396  1.00  0.00    -0.000 C 
BRANCH  27  28
ATOM     28  C   UNL     1     193.567 183.310 172.307  1.00  0.00    -0.000 C 
BRANCH  28  29
ATOM     29  C   UNL     1     193.360 182.665 173.689  1.00  0.00    -0.000 C 
BRANCH  29  30
ATOM     30  C   UNL     1     193.352 183.695 174.833  1.00  0.00    -0.000 C 
BRANCH  30  31
ATOM     31  C   UNL     1     192.274 183.451 175.905  1.00  0.00    -0.003 C 
ATOM     32  C   UNL     1     192.817 183.568 177.329  1.00  0.00     0.004 C 
ENDBRANCH  30  31
ENDBRANCH  29  30
ENDBRANCH  28  29
ENDBRANCH  27  28
ENDBRANCH  26  27
ENDBRANCH  25  26
ENDBRANCH  24  25
ENDBRANCH  23  24
ENDBRANCH  22  23
ENDBRANCH  21  22
ENDBRANCH  20  21
ENDBRANCH  19  20
ENDBRANCH  18  19
ENDBRANCH   1  18
TORSDOF 28
ENDMDL
MODEL 6
REMARK VINA RESULT:    -3.523      1.907      4.715
REMARK INTER + INTRA:         -14.917
REMARK INTER:                  -9.877
REMARK INTRA:                  -5.041
REMARK UNBOUND:                -5.627
REMARK SMILES CCCCCCCCCCCCCCCCCCCCCCCCCCCCCC(=O)[O-]
REMARK SMILES IDX 16 1 17 2 18 3 19 4 20 5 21 6 22 7 23 8 24 9 25 10 26 11
REMARK SMILES IDX 27 12 28 13 29 14 30 15 31 16 32 17 15 18 14 19 13 20 12 21
REMARK SMILES IDX 11 22 10 23 9 24 8 25 7 26 6 27 5 28 4 29 3 30 2 31 1 32
REMARK H PARENT
REMARK Flexibility Score: inf
ROOT
ATOM      1  C   UNL     1     192.403 185.285 173.498  1.00  0.00     0.000 C 
ENDROOT
BRANCH   1   2
ATOM      2  C   UNL     1     192.563 183.938 172.775  1.00  0.00     0.000 C 
BRANCH   2   3
ATOM      3  C   UNL     1     193.565 183.001 173.473  1.00  0.00     0.000 C 
BRANCH   3   4
ATOM      4  C   UNL     1     192.950 182.124 174.581  1.00  0.00     0.000 C 
BRANCH   4   5
ATOM      5  C   UNL     1     193.666 182.268 175.935  1.00  0.00     0.000 C 
BRANCH   5   6
ATOM      6  C   UNL     1     192.711 182.672 177.073  1.00  0.00     0.000 C 
BRANCH   6   7
ATOM      7  C   UNL     1     192.750 184.180 177.413  1.00  0.00     0.000 C 
BRANCH   7   8
ATOM      8  C   UNL     1     193.968 184.900 176.806  1.00  0.00     0.000 C 
BRANCH   8   9
ATOM      9  C   UNL     1     194.492 186.032 177.712  1.00  0.00     0.000 C 
BRANCH   9  10
ATOM     10  C   UNL     1     194.674 187.362 176.958  1.00  0.00     0.000 C 
BRANCH  10  11
ATOM     11  C   UNL     1     193.560 188.397 177.196  1.00  0.00     0.000 C 
BRANCH  11  12
ATOM     12  C   UNL     1     192.264 188.141 176.407  1.00  0.00     0.000 C 
BRANCH  12  13
ATOM     13  C   UNL     1     191.003 188.193 177.291  1.00  0.00     0.006 C 
BRANCH  13  14
ATOM     14  C   UNL     1     191.267 187.691 178.717  1.00  0.00     0.053 C 
BRANCH  14  15
ATOM     15  C   UNL     1     190.721 188.628 179.751  1.00  0.00     0.041 C 
ATOM     16  O   UNL     1     191.445 189.009 180.709  1.00  0.00    -0.550 OA
ATOM     17  O   UNL     1     189.404 189.059 179.673  1.00  0.00    -0.550 OA
ENDBRANCH  14  15
ENDBRANCH  13  14
ENDBRANCH  12  13
ENDBRANCH  11  12
ENDBRANCH  10  11
ENDBRANCH   9  10
ENDBRANCH   8   9
ENDBRANCH   7   8
ENDBRANCH   6   7
ENDBRANCH   5   6
ENDBRANCH   4   5
ENDBRANCH   3   4
ENDBRANCH   2   3
ENDBRANCH   1   2
BRANCH   1  18
ATOM     18  C   UNL     1     191.092 185.392 174.301  1.00  0.00     0.000 C 
BRANCH  18  19
ATOM     19  C   UNL     1     189.947 184.462 173.847  1.00  0.00     0.000 C 
BRANCH  19  20
ATOM     20  C   UNL     1     188.641 185.169 173.437  1.00  0.00     0.000 C 
BRANCH  20  21
ATOM     21  C   UNL     1     188.809 186.066 172.199  1.00  0.00     0.000 C 
BRANCH  21  22
ATOM     22  C   UNL     1     189.504 185.344 171.033  1.00  0.00     0.000 C 
BRANCH  22  23
ATOM     23  C   UNL     1     190.115 186.313 170.012  1.00  0.00     0.000 C 
BRANCH  23  24
ATOM     24  C   UNL     1     190.109 187.751 170.546  1.00  0.00    -0.000 C 
BRANCH  24  25
ATOM     25  C   UNL     1     189.851 188.757 169.415  1.00  0.00    -0.000 C 
BRANCH  25  26
ATOM     26  C   UNL     1     188.365 188.866 169.047  1.00  0.00    -0.000 C 
BRANCH  26  27
ATOM     27  C   UNL     1     187.453 188.944 170.281  1.00  0.00    -0.000 C 
BRANCH  27  28
ATOM     28  C   UNL     1     186.290 187.942 170.217  1.00  0.00    -0.000 C 
BRANCH  28  29
ATOM     29  C   UNL     1     186.197 187.231 168.854  1.00  0.00    -0.000 C 
BRANCH  29  30
ATOM     30  C   UNL     1     186.502 185.726 168.945  1.00  0.00    -0.000 C 
BRANCH  30  31
ATOM     31  C   UNL     1     186.783 185.048 167.591  1.00  0.00    -0.003 C 
ATOM     32  C   UNL     1     188.252 185.131 167.179  1.00  0.00     0.004 C 
ENDBRANCH  30  31
ENDBRANCH  29  30
ENDBRANCH  28  29
ENDBRANCH  27  28
ENDBRANCH  26  27
ENDBRANCH  25  26
ENDBRANCH  24  25
ENDBRANCH  23  24
ENDBRANCH  22  23
ENDBRANCH  21  22
ENDBRANCH  20  21
ENDBRANCH  19  20
ENDBRANCH  18  19
ENDBRANCH   1  18
TORSDOF 28
ENDMDL
MODEL 7
REMARK VINA RESULT:    -3.516      3.349      5.344
REMARK INTER + INTRA:         -14.898
REMARK INTER:                  -9.490
REMARK INTRA:                  -5.407
REMARK UNBOUND:                -5.627
REMARK SMILES CCCCCCCCCCCCCCCCCCCCCCCCCCCCCC(=O)[O-]
REMARK SMILES IDX 16 1 17 2 18 3 19 4 20 5 21 6 22 7 23 8 24 9 25 10 26 11
REMARK SMILES IDX 27 12 28 13 29 14 30 15 31 16 32 17 15 18 14 19 13 20 12 21
REMARK SMILES IDX 11 22 10 23 9 24 8 25 7 26 6 27 5 28 4 29 3 30 2 31 1 32
REMARK H PARENT
REMARK Flexibility Score: inf
ROOT
ATOM      1  C   UNL     1     190.218 184.390 171.454  1.00  0.00     0.000 C 
ENDROOT
BRANCH   1   2
ATOM      2  C   UNL     1     189.311 184.865 172.600  1.00  0.00     0.000 C 
BRANCH   2   3
ATOM      3  C   UNL     1     189.998 185.893 173.517  1.00  0.00     0.000 C 
BRANCH   3   4
ATOM      4  C   UNL     1     191.088 186.734 172.824  1.00  0.00     0.000 C 
BRANCH   4   5
ATOM      5  C   UNL     1     192.497 186.486 173.393  1.00  0.00     0.000 C 
BRANCH   5   6
ATOM      6  C   UNL     1     193.495 186.008 172.323  1.00  0.00     0.000 C 
BRANCH   6   7
ATOM      7  C   UNL     1     194.167 184.656 172.659  1.00  0.00     0.000 C 
BRANCH   7   8
ATOM      8  C   UNL     1     193.201 183.462 172.547  1.00  0.00     0.000 C 
BRANCH   8   9
ATOM      9  C   UNL     1     193.147 182.628 173.842  1.00  0.00     0.000 C 
BRANCH   9  10
ATOM     10  C   UNL     1     191.948 182.994 174.735  1.00  0.00     0.000 C 
BRANCH  10  11
ATOM     11  C   UNL     1     192.275 183.945 175.900  1.00  0.00     0.000 C 
BRANCH  11  12
ATOM     12  C   UNL     1     193.538 183.574 176.698  1.00  0.00     0.000 C 
BRANCH  12  13
ATOM     13  C   UNL     1     193.246 182.626 177.878  1.00  0.00     0.006 C 
BRANCH  13  14
ATOM     14  C   UNL     1     194.279 181.497 177.990  1.00  0.00     0.053 C 
BRANCH  14  15
ATOM     15  C   UNL     1     194.344 180.671 176.741  1.00  0.00     0.041 C 
ATOM     16  O   UNL     1     193.401 179.889 176.447  1.00  0.00    -0.550 OA
ATOM     17  O   UNL     1     195.459 180.742 175.917  1.00  0.00    -0.550 OA
ENDBRANCH  14  15
ENDBRANCH  13  14
ENDBRANCH  12  13
ENDBRANCH  11  12
ENDBRANCH  10  11
ENDBRANCH   9  10
ENDBRANCH   8   9
ENDBRANCH   7   8
ENDBRANCH   6   7
ENDBRANCH   5   6
ENDBRANCH   4   5
ENDBRANCH   3   4
ENDBRANCH   2   3
ENDBRANCH   1   2
BRANCH   1  18
ATOM     18  C   UNL     1     189.609 184.628 170.058  1.00  0.00     0.000 C 
BRANCH  18  19
ATOM     19  C   UNL     1     190.577 185.171 168.985  1.00  0.00     0.000 C 
BRANCH  19  20
ATOM     20  C   UNL     1     191.239 186.523 169.312  1.00  0.00     0.000 C 
BRANCH  20  21
ATOM     21  C   UNL     1     191.314 187.463 168.096  1.00  0.00     0.000 C 
BRANCH  21  22
ATOM     22  C   UNL     1     190.607 186.888 166.858  1.00  0.00     0.000 C 
BRANCH  22  23
ATOM     23  C   UNL     1     189.307 187.631 166.517  1.00  0.00     0.000 C 
BRANCH  23  24
ATOM     24  C   UNL     1     188.315 186.703 165.806  1.00  0.00    -0.000 C 
BRANCH  24  25
ATOM     25  C   UNL     1     187.040 186.516 166.642  1.00  0.00    -0.000 C 
BRANCH  25  26
ATOM     26  C   UNL     1     187.023 185.184 167.405  1.00  0.00    -0.000 C 
BRANCH  26  27
ATOM     27  C   UNL     1     186.243 185.268 168.726  1.00  0.00    -0.000 C 
BRANCH  27  28
ATOM     28  C   UNL     1     185.398 186.547 168.828  1.00  0.00    -0.000 C 
BRANCH  28  29
ATOM     29  C   UNL     1     185.603 187.285 170.164  1.00  0.00    -0.000 C 
BRANCH  29  30
ATOM     30  C   UNL     1     186.990 187.030 170.779  1.00  0.00    -0.000 C 
BRANCH  30  31
ATOM     31  C   UNL     1     188.102 187.957 170.256  1.00  0.00    -0.003 C 
ATOM     32  C   UNL     1     187.641 189.405 170.099  1.00  0.00     0.004 C 
ENDBRANCH  30  31
ENDBRANCH  29  30
ENDBRANCH  28  29
ENDBRANCH  27  28
ENDBRANCH  26  27
ENDBRANCH  25  26
ENDBRANCH  24  25
ENDBRANCH  23  24
ENDBRANCH  22  23
ENDBRANCH  21  22
ENDBRANCH  20  21
ENDBRANCH  19  20
ENDBRANCH  18  19
ENDBRANCH   1  18
TORSDOF 28
ENDMDL
MODEL 8
REMARK VINA RESULT:    -3.500      2.905      6.996
REMARK INTER + INTRA:         -14.857
REMARK INTER:                  -8.000
REMARK INTRA:                  -6.857
REMARK UNBOUND:                -5.627
REMARK SMILES CCCCCCCCCCCCCCCCCCCCCCCCCCCCCC(=O)[O-]
REMARK SMILES IDX 16 1 17 2 18 3 19 4 20 5 21 6 22 7 23 8 24 9 25 10 26 11
REMARK SMILES IDX 27 12 28 13 29 14 30 15 31 16 32 17 15 18 14 19 13 20 12 21
REMARK SMILES IDX 11 22 10 23 9 24 8 25 7 26 6 27 5 28 4 29 3 30 2 31 1 32
REMARK H PARENT
REMARK Flexibility Score: inf
ROOT
ATOM      1  C   UNL     1     188.522 186.647 171.573  1.00  0.00     0.000 C 
ENDROOT
BRANCH   1   2
ATOM      2  C   UNL     1     188.533 187.955 170.767  1.00  0.00     0.000 C 
BRANCH   2   3
ATOM      3  C   UNL     1     187.141 188.341 170.236  1.00  0.00     0.000 C 
BRANCH   3   4
ATOM      4  C   UNL     1     186.015 187.368 170.638  1.00  0.00     0.000 C 
BRANCH   4   5
ATOM      5  C   UNL     1     185.069 187.023 169.474  1.00  0.00     0.000 C 
BRANCH   5   6
ATOM      6  C   UNL     1     185.821 186.560 168.213  1.00  0.00     0.000 C 
BRANCH   6   7
ATOM      7  C   UNL     1     186.380 185.122 168.313  1.00  0.00     0.000 C 
BRANCH   7   8
ATOM      8  C   UNL     1     187.795 184.987 167.722  1.00  0.00     0.000 C 
BRANCH   8   9
ATOM      9  C   UNL     1     188.217 186.234 166.921  1.00  0.00     0.000 C 
BRANCH   9  10
ATOM     10  C   UNL     1     189.515 186.870 167.451  1.00  0.00     0.000 C 
BRANCH  10  11
ATOM     11  C   UNL     1     189.601 188.398 167.285  1.00  0.00     0.000 C 
BRANCH  11  12
ATOM     12  C   UNL     1     190.949 189.015 167.698  1.00  0.00     0.000 C 
BRANCH  12  13
ATOM     13  C   UNL     1     191.580 188.318 168.918  1.00  0.00     0.006 C 
BRANCH  13  14
ATOM     14  C   UNL     1     193.073 188.640 169.067  1.00  0.00     0.053 C 
BRANCH  14  15
ATOM     15  C   UNL     1     193.355 189.423 170.314  1.00  0.00     0.041 C 
ATOM     16  O   UNL     1     192.500 190.233 170.763  1.00  0.00    -0.550 OA
ATOM     17  O   UNL     1     194.573 189.280 170.964  1.00  0.00    -0.550 OA
ENDBRANCH  14  15
ENDBRANCH  13  14
ENDBRANCH  12  13
ENDBRANCH  11  12
ENDBRANCH  10  11
ENDBRANCH   9  10
ENDBRANCH   8   9
ENDBRANCH   7   8
ENDBRANCH   6   7
ENDBRANCH   5   6
ENDBRANCH   4   5
ENDBRANCH   3   4
ENDBRANCH   2   3
ENDBRANCH   1   2
BRANCH   1  18
ATOM     18  C   UNL     1     189.283 185.499 170.880  1.00  0.00     0.000 C 
BRANCH  18  19
ATOM     19  C   UNL     1     189.733 184.341 171.797  1.00  0.00     0.000 C 
BRANCH  19  20
ATOM     20  C   UNL     1     189.649 184.621 173.309  1.00  0.00     0.000 C 
BRANCH  20  21
ATOM     21  C   UNL     1     190.953 184.284 174.054  1.00  0.00     0.000 C 
BRANCH  21  22
ATOM     22  C   UNL     1     191.549 185.497 174.786  1.00  0.00     0.000 C 
BRANCH  22  23
ATOM     23  C   UNL     1     191.117 186.835 174.169  1.00  0.00     0.000 C 
BRANCH  23  24
ATOM     24  C   UNL     1     192.045 187.235 173.016  1.00  0.00    -0.000 C 
BRANCH  24  25
ATOM     25  C   UNL     1     193.509 186.910 173.350  1.00  0.00    -0.000 C 
BRANCH  25  26
ATOM     26  C   UNL     1     194.171 186.012 172.295  1.00  0.00    -0.000 C 
BRANCH  26  27
ATOM     27  C   UNL     1     193.176 185.504 171.241  1.00  0.00    -0.000 C 
BRANCH  27  28
ATOM     28  C   UNL     1     193.241 183.980 171.057  1.00  0.00    -0.000 C 
BRANCH  28  29
ATOM     29  C   UNL     1     192.854 183.538 169.634  1.00  0.00    -0.000 C 
BRANCH  29  30
ATOM     30  C   UNL     1     192.128 184.642 168.845  1.00  0.00    -0.000 C 
BRANCH  30  31
ATOM     31  C   UNL     1     192.808 185.034 167.521  1.00  0.00    -0.003 C 
ATOM     32  C   UNL     1     194.303 185.303 167.679  1.00  0.00     0.004 C 
ENDBRANCH  30  31
ENDBRANCH  29  30
ENDBRANCH  28  29
ENDBRANCH  27  28
ENDBRANCH  26  27
ENDBRANCH  25  26
ENDBRANCH  24  25
ENDBRANCH  23  24
ENDBRANCH  22  23
ENDBRANCH  21  22
ENDBRANCH  20  21
ENDBRANCH  19  20
ENDBRANCH  18  19
ENDBRANCH   1  18
TORSDOF 28
ENDMDL
MODEL 9
REMARK VINA RESULT:    -3.500      8.201     11.161
REMARK INTER + INTRA:         -14.857
REMARK INTER:                 -11.433
REMARK INTRA:                  -3.424
REMARK UNBOUND:                -5.627
REMARK SMILES CCCCCCCCCCCCCCCCCCCCCCCCCCCCCC(=O)[O-]
REMARK SMILES IDX 16 1 17 2 18 3 19 4 20 5 21 6 22 7 23 8 24 9 25 10 26 11
REMARK SMILES IDX 27 12 28 13 29 14 30 15 31 16 32 17 15 18 14 19 13 20 12 21
REMARK SMILES IDX 11 22 10 23 9 24 8 25 7 26 6 27 5 28 4 29 3 30 2 31 1 32
REMARK H PARENT
REMARK Flexibility Score: inf
ROOT
ATOM      1  C   UNL     1     180.668 191.769 170.991  1.00  0.00     0.000 C 
ENDROOT
BRANCH   1   2
ATOM      2  C   UNL     1     180.689 193.016 171.888  1.00  0.00     0.000 C 
BRANCH   2   3
ATOM      3  C   UNL     1     179.420 193.153 172.749  1.00  0.00     0.000 C 
BRANCH   3   4
ATOM      4  C   UNL     1     178.919 194.601 172.917  1.00  0.00     0.000 C 
BRANCH   4   5
ATOM      5  C   UNL     1     179.500 195.567 171.870  1.00  0.00     0.000 C 
BRANCH   5   6
ATOM      6  C   UNL     1     180.694 196.378 172.407  1.00  0.00     0.000 C 
BRANCH   6   7
ATOM      7  C   UNL     1     180.396 197.128 173.726  1.00  0.00     0.000 C 
BRANCH   7   8
ATOM      8  C   UNL     1     181.199 196.581 174.920  1.00  0.00     0.000 C 
BRANCH   8   9
ATOM      9  C   UNL     1     182.431 195.769 174.475  1.00  0.00     0.000 C 
BRANCH   9  10
ATOM     10  C   UNL     1     182.390 194.309 174.963  1.00  0.00     0.000 C 
BRANCH  10  11
ATOM     11  C   UNL     1     181.150 193.941 175.797  1.00  0.00     0.000 C 
BRANCH  11  12
ATOM     12  C   UNL     1     181.428 193.702 177.291  1.00  0.00     0.000 C 
BRANCH  12  13
ATOM     13  C   UNL     1     181.234 194.968 178.148  1.00  0.00     0.006 C 
BRANCH  13  14
ATOM     14  C   UNL     1     180.427 194.692 179.424  1.00  0.00     0.053 C 
BRANCH  14  15
ATOM     15  C   UNL     1     181.297 194.679 180.644  1.00  0.00     0.041 C 
ATOM     16  O   UNL     1     182.518 194.383 180.552  1.00  0.00    -0.550 OA
ATOM     17  O   UNL     1     180.753 194.965 181.889  1.00  0.00    -0.550 OA
ENDBRANCH  14  15
ENDBRANCH  13  14
ENDBRANCH  12  13
ENDBRANCH  11  12
ENDBRANCH  10  11
ENDBRANCH   9  10
ENDBRANCH   8   9
ENDBRANCH   7   8
ENDBRANCH   6   7
ENDBRANCH   5   6
ENDBRANCH   4   5
ENDBRANCH   3   4
ENDBRANCH   2   3
ENDBRANCH   1   2
BRANCH   1  18
ATOM     18  C   UNL     1     179.358 191.614 170.193  1.00  0.00     0.000 C 
BRANCH  18  19
ATOM     19  C   UNL     1     179.032 192.757 169.207  1.00  0.00     0.000 C 
BRANCH  19  20
ATOM     20  C   UNL     1     179.155 192.399 167.714  1.00  0.00     0.000 C 
BRANCH  20  21
ATOM     21  C   UNL     1     180.605 192.109 167.285  1.00  0.00     0.000 C 
BRANCH  21  22
ATOM     22  C   UNL     1     180.724 190.849 166.414  1.00  0.00     0.000 C 
BRANCH  22  23
ATOM     23  C   UNL     1     179.664 189.791 166.749  1.00  0.00     0.000 C 
BRANCH  23  24
ATOM     24  C   UNL     1     180.147 188.863 167.870  1.00  0.00    -0.000 C 
BRANCH  24  25
ATOM     25  C   UNL     1     181.185 187.860 167.345  1.00  0.00    -0.000 C 
BRANCH  25  26
ATOM     26  C   UNL     1     182.558 188.025 168.013  1.00  0.00    -0.000 C 
BRANCH  26  27
ATOM     27  C   UNL     1     182.452 188.430 169.491  1.00  0.00    -0.000 C 
BRANCH  27  28
ATOM     28  C   UNL     1     183.248 187.495 170.415  1.00  0.00    -0.000 C 
BRANCH  28  29
ATOM     29  C   UNL     1     184.573 187.029 169.784  1.00  0.00    -0.000 C 
BRANCH  29  30
ATOM     30  C   UNL     1     185.808 187.618 170.489  1.00  0.00    -0.000 C 
BRANCH  30  31
ATOM     31  C   UNL     1     186.848 188.243 169.541  1.00  0.00    -0.003 C 
ATOM     32  C   UNL     1     187.499 189.499 170.118  1.00  0.00     0.004 C 
ENDBRANCH  30  31
ENDBRANCH  29  30
ENDBRANCH  28  29
ENDBRANCH  27  28
ENDBRANCH  26  27
ENDBRANCH  25  26
ENDBRANCH  24  25
ENDBRANCH  23  24
ENDBRANCH  22  23
ENDBRANCH  21  22
ENDBRANCH  20  21
ENDBRANCH  19  20
ENDBRANCH  18  19
ENDBRANCH   1  18
TORSDOF 28
ENDMDL
