MODEL 1
REMARK VINA RESULT:    -5.577      0.000      0.000
REMARK INTER + INTRA:         -12.465
REMARK INTER:                 -10.141
REMARK INTRA:                  -2.324
REMARK UNBOUND:                -2.324
REMARK SMILES CCCCCCCCCCCCCC[C@H](C)C(=O)[O-]
REMARK SMILES IDX 9 1 10 2 11 3 12 4 13 5 14 6 15 7 16 8 17 9 18 10 19 11 8 12
REMARK SMILES IDX 7 13 6 14 5 15 4 16 3 17 2 18 1 19
REMARK H PARENT
REMARK Flexibility Score: inf
ROOT
ATOM      1  C   UNL     1      18.994  -4.509  15.494  1.00  0.00     0.000 C 
ENDROOT
BRANCH   1   2
ATOM      2  C   UNL     1      17.768  -4.583  16.418  1.00  0.00     0.000 C 
BRANCH   2   3
ATOM      3  C   UNL     1      17.554  -3.293  17.221  1.00  0.00     0.000 C 
BRANCH   3   4
ATOM      4  C   UNL     1      16.066  -2.935  17.380  1.00  0.00     0.000 C 
BRANCH   4   5
ATOM      5  C   UNL     1      15.137  -3.967  16.719  1.00  0.00     0.001 C 
BRANCH   5   6
ATOM      6  C   UNL     1      13.785  -3.358  16.299  1.00  0.00     0.009 C 
BRANCH   6   7
ATOM      7  C   UNL     1      13.510  -3.416  14.780  1.00  0.00     0.032 C 
ATOM      8  C   UNL     1      14.693  -2.903  13.942  1.00  0.00     0.014 C 
BRANCH   7   9
ATOM      9  C   UNL     1      12.223  -2.717  14.424  1.00  0.00     0.044 C 
ATOM     10  O   UNL     1      11.117  -3.243  14.730  1.00  0.00    -0.550 OA
ATOM     11  O   UNL     1      12.234  -1.479  13.796  1.00  0.00    -0.550 OA
ENDBRANCH   7   9
ENDBRANCH   6   7
ENDBRANCH   5   6
ENDBRANCH   4   5
ENDBRANCH   3   4
ENDBRANCH   2   3
ENDBRANCH   1   2
BRANCH   1  12
ATOM     12  C   UNL     1      18.886  -3.391  14.444  1.00  0.00     0.000 C 
BRANCH  12  13
ATOM     13  C   UNL     1      18.100  -3.803  13.182  1.00  0.00    -0.000 C 
BRANCH  13  14
ATOM     14  C   UNL     1      18.745  -4.999  12.461  1.00  0.00    -0.000 C 
BRANCH  14  15
ATOM     15  C   UNL     1      17.710  -5.989  11.905  1.00  0.00    -0.000 C 
BRANCH  15  16
ATOM     16  C   UNL     1      16.337  -5.855  12.587  1.00  0.00    -0.000 C 
BRANCH  16  17
ATOM     17  C   UNL     1      16.050  -7.012  13.559  1.00  0.00    -0.000 C 
BRANCH  17  18
ATOM     18  C   UNL     1      14.700  -6.857  14.276  1.00  0.00    -0.003 C 
ATOM     19  C   UNL     1      14.761  -7.415  15.693  1.00  0.00     0.004 C 
ENDBRANCH  17  18
ENDBRANCH  16  17
ENDBRANCH  15  16
ENDBRANCH  14  15
ENDBRANCH  13  14
ENDBRANCH  12  13
ENDBRANCH   1  12
TORSDOF 14
ENDMDL
MODEL 2
REMARK VINA RESULT:    -5.543      2.914      5.144
REMARK INTER + INTRA:         -12.404
REMARK INTER:                 -10.042
REMARK INTRA:                  -2.362
REMARK UNBOUND:                -2.324
REMARK SMILES CCCCCCCCCCCCCC[C@H](C)C(=O)[O-]
REMARK SMILES IDX 9 1 10 2 11 3 12 4 13 5 14 6 15 7 16 8 17 9 18 10 19 11 8 12
REMARK SMILES IDX 7 13 6 14 5 15 4 16 3 17 2 18 1 19
REMARK H PARENT
REMARK Flexibility Score: inf
ROOT
ATOM      1  C   UNL     1      13.051  -2.456  13.928  1.00  0.00     0.000 C 
ENDROOT
BRANCH   1   2
ATOM      2  C   UNL     1      12.636  -3.228  15.190  1.00  0.00     0.000 C 
BRANCH   2   3
ATOM      3  C   UNL     1      13.789  -4.046  15.788  1.00  0.00     0.000 C 
BRANCH   3   4
ATOM      4  C   UNL     1      14.464  -3.338  16.975  1.00  0.00     0.000 C 
BRANCH   4   5
ATOM      5  C   UNL     1      15.976  -3.149  16.768  1.00  0.00     0.001 C 
BRANCH   5   6
ATOM      6  C   UNL     1      16.413  -3.444  15.320  1.00  0.00     0.009 C 
BRANCH   6   7
ATOM      7  C   UNL     1      17.418  -4.610  15.187  1.00  0.00     0.032 C 
ATOM      8  C   UNL     1      17.262  -5.657  16.303  1.00  0.00     0.014 C 
BRANCH   7   9
ATOM      9  C   UNL     1      18.835  -4.109  15.079  1.00  0.00     0.044 C 
ATOM     10  O   UNL     1      19.796  -4.924  15.149  1.00  0.00    -0.550 OA
ATOM     11  O   UNL     1      19.101  -2.764  14.865  1.00  0.00    -0.550 OA
ENDBRANCH   7   9
ENDBRANCH   6   7
ENDBRANCH   5   6
ENDBRANCH   4   5
ENDBRANCH   3   4
ENDBRANCH   2   3
ENDBRANCH   1   2
BRANCH   1  12
ATOM     12  C   UNL     1      12.278  -2.898  12.674  1.00  0.00     0.000 C 
BRANCH  12  13
ATOM     13  C   UNL     1      11.846  -4.379  12.706  1.00  0.00    -0.000 C 
BRANCH  13  14
ATOM     14  C   UNL     1      12.852  -5.291  11.983  1.00  0.00    -0.000 C 
BRANCH  14  15
ATOM     15  C   UNL     1      13.454  -6.363  12.905  1.00  0.00    -0.000 C 
BRANCH  15  16
ATOM     16  C   UNL     1      14.992  -6.330  12.923  1.00  0.00    -0.000 C 
BRANCH  16  17
ATOM     17  C   UNL     1      15.565  -5.198  12.053  1.00  0.00    -0.000 C 
BRANCH  17  18
ATOM     18  C   UNL     1      16.609  -5.701  11.045  1.00  0.00    -0.003 C 
ATOM     19  C   UNL     1      17.878  -6.167  11.752  1.00  0.00     0.004 C 
ENDBRANCH  17  18
ENDBRANCH  16  17
ENDBRANCH  15  16
ENDBRANCH  14  15
ENDBRANCH  13  14
ENDBRANCH  12  13
ENDBRANCH   1  12
TORSDOF 14
ENDMDL
MODEL 3
REMARK VINA RESULT:    -5.524      3.034      4.769
REMARK INTER + INTRA:         -12.370
REMARK INTER:                 -10.398
REMARK INTRA:                  -1.972
REMARK UNBOUND:                -2.324
REMARK SMILES CCCCCCCCCCCCCC[C@H](C)C(=O)[O-]
REMARK SMILES IDX 9 1 10 2 11 3 12 4 13 5 14 6 15 7 16 8 17 9 18 10 19 11 8 12
REMARK SMILES IDX 7 13 6 14 5 15 4 16 3 17 2 18 1 19
REMARK H PARENT
REMARK Flexibility Score: inf
ROOT
ATOM      1  C   UNL     1      14.894  -7.490  15.417  1.00  0.00     0.000 C 
ENDROOT
BRANCH   1   2
ATOM      2  C   UNL     1      15.364  -6.144  15.991  1.00  0.00     0.000 C 
BRANCH   2   3
ATOM      3  C   UNL     1      14.213  -5.147  16.179  1.00  0.00     0.000 C 
BRANCH   3   4
ATOM      4  C   UNL     1      14.667  -3.685  16.035  1.00  0.00     0.000 C 
BRANCH   4   5
ATOM      5  C   UNL     1      14.864  -2.991  17.394  1.00  0.00     0.001 C 
BRANCH   5   6
ATOM      6  C   UNL     1      16.250  -2.329  17.522  1.00  0.00     0.009 C 
BRANCH   6   7
ATOM      7  C   UNL     1      17.417  -3.330  17.674  1.00  0.00     0.032 C 
ATOM      8  C   UNL     1      18.132  -3.205  19.030  1.00  0.00     0.014 C 
BRANCH   7   9
ATOM      9  C   UNL     1      18.381  -3.236  16.519  1.00  0.00     0.044 C 
ATOM     10  O   UNL     1      17.984  -3.491  15.349  1.00  0.00    -0.550 OA
ATOM     11  O   UNL     1      19.694  -2.835  16.718  1.00  0.00    -0.550 OA
ENDBRANCH   7   9
ENDBRANCH   6   7
ENDBRANCH   5   6
ENDBRANCH   4   5
ENDBRANCH   3   4
ENDBRANCH   2   3
ENDBRANCH   1   2
BRANCH   1  12
ATOM     12  C   UNL     1      15.320  -7.699  13.955  1.00  0.00     0.000 C 
BRANCH  12  13
ATOM     13  C   UNL     1      16.414  -6.718  13.484  1.00  0.00    -0.000 C 
BRANCH  13  14
ATOM     14  C   UNL     1      15.995  -5.946  12.221  1.00  0.00    -0.000 C 
BRANCH  14  15
ATOM     15  C   UNL     1      15.488  -4.529  12.529  1.00  0.00    -0.000 C 
BRANCH  15  16
ATOM     16  C   UNL     1      13.954  -4.423  12.465  1.00  0.00    -0.000 C 
BRANCH  16  17
ATOM     17  C   UNL     1      13.326  -5.525  11.594  1.00  0.00    -0.000 C 
BRANCH  17  18
ATOM     18  C   UNL     1      12.959  -5.026  10.188  1.00  0.00    -0.003 C 
ATOM     19  C   UNL     1      13.550  -5.931   9.112  1.00  0.00     0.004 C 
ENDBRANCH  17  18
ENDBRANCH  16  17
ENDBRANCH  15  16
ENDBRANCH  14  15
ENDBRANCH  13  14
ENDBRANCH  12  13
ENDBRANCH   1  12
TORSDOF 14
ENDMDL
MODEL 4
REMARK VINA RESULT:    -5.446      2.903      5.598
REMARK INTER + INTRA:         -12.227
REMARK INTER:                  -9.651
REMARK INTRA:                  -2.576
REMARK UNBOUND:                -2.324
REMARK SMILES CCCCCCCCCCCCCC[C@H](C)C(=O)[O-]
REMARK SMILES IDX 9 1 10 2 11 3 12 4 13 5 14 6 15 7 16 8 17 9 18 10 19 11 8 12
REMARK SMILES IDX 7 13 6 14 5 15 4 16 3 17 2 18 1 19
REMARK H PARENT
REMARK Flexibility Score: inf
ROOT
ATOM      1  C   UNL     1      14.455  -4.412  12.481  1.00  0.00     0.000 C 
ENDROOT
BRANCH   1   2
ATOM      2  C   UNL     1      15.977  -4.212  12.408  1.00  0.00     0.000 C 
BRANCH   2   3
ATOM      3  C   UNL     1      16.681  -5.311  11.601  1.00  0.00     0.000 C 
BRANCH   3   4
ATOM      4  C   UNL     1      17.985  -5.787  12.263  1.00  0.00     0.000 C 
BRANCH   4   5
ATOM      5  C   UNL     1      18.918  -4.623  12.634  1.00  0.00     0.001 C 
BRANCH   5   6
ATOM      6  C   UNL     1      19.160  -4.523  14.153  1.00  0.00     0.009 C 
BRANCH   6   7
ATOM      7  C   UNL     1      18.727  -3.177  14.776  1.00  0.00     0.032 C 
ATOM      8  C   UNL     1      18.999  -1.980  13.850  1.00  0.00     0.014 C 
BRANCH   7   9
ATOM      9  C   UNL     1      19.331  -2.981  16.143  1.00  0.00     0.044 C 
ATOM     10  O   UNL     1      20.499  -2.517  16.252  1.00  0.00    -0.550 OA
ATOM     11  O   UNL     1      18.605  -3.268  17.291  1.00  0.00    -0.550 OA
ENDBRANCH   7   9
ENDBRANCH   6   7
ENDBRANCH   5   6
ENDBRANCH   4   5
ENDBRANCH   3   4
ENDBRANCH   2   3
ENDBRANCH   1   2
BRANCH   1  12
ATOM     12  C   UNL     1      14.026  -5.857  12.178  1.00  0.00     0.000 C 
BRANCH  12  13
ATOM     13  C   UNL     1      13.769  -6.703  13.443  1.00  0.00    -0.000 C 
BRANCH  13  14
ATOM     14  C   UNL     1      15.000  -7.534  13.844  1.00  0.00    -0.000 C 
BRANCH  14  15
ATOM     15  C   UNL     1      15.546  -7.160  15.231  1.00  0.00    -0.000 C 
BRANCH  15  16
ATOM     16  C   UNL     1      14.787  -5.983  15.867  1.00  0.00    -0.000 C 
BRANCH  16  17
ATOM     17  C   UNL     1      15.676  -4.739  16.046  1.00  0.00    -0.000 C 
BRANCH  17  18
ATOM     18  C   UNL     1      14.881  -3.510  16.511  1.00  0.00    -0.003 C 
ATOM     19  C   UNL     1      13.387  -3.695  16.264  1.00  0.00     0.004 C 
ENDBRANCH  17  18
ENDBRANCH  16  17
ENDBRANCH  15  16
ENDBRANCH  14  15
ENDBRANCH  13  14
ENDBRANCH  12  13
ENDBRANCH   1  12
TORSDOF 14
ENDMDL
MODEL 5
REMARK VINA RESULT:    -5.442      2.185      4.319
REMARK INTER + INTRA:         -12.219
REMARK INTER:                  -9.653
REMARK INTRA:                  -2.566
REMARK UNBOUND:                -2.324
REMARK SMILES CCCCCCCCCCCCCC[C@H](C)C(=O)[O-]
REMARK SMILES IDX 9 1 10 2 11 3 12 4 13 5 14 6 15 7 16 8 17 9 18 10 19 11 8 12
REMARK SMILES IDX 7 13 6 14 5 15 4 16 3 17 2 18 1 19
REMARK H PARENT
REMARK Flexibility Score: inf
ROOT
ATOM      1  C   UNL     1      15.159  -3.446  16.602  1.00  0.00     0.000 C 
ENDROOT
BRANCH   1   2
ATOM      2  C   UNL     1      15.572  -2.570  17.796  1.00  0.00     0.000 C 
BRANCH   2   3
ATOM      3  C   UNL     1      17.030  -2.793  18.218  1.00  0.00     0.000 C 
BRANCH   3   4
ATOM      4  C   UNL     1      17.715  -3.909  17.411  1.00  0.00     0.000 C 
BRANCH   4   5
ATOM      5  C   UNL     1      18.807  -3.373  16.471  1.00  0.00     0.001 C 
BRANCH   5   6
ATOM      6  C   UNL     1      18.937  -4.209  15.182  1.00  0.00     0.009 C 
BRANCH   6   7
ATOM      7  C   UNL     1      17.906  -3.851  14.089  1.00  0.00     0.032 C 
ATOM      8  C   UNL     1      17.993  -4.778  12.865  1.00  0.00     0.014 C 
BRANCH   7   9
ATOM      9  C   UNL     1      17.992  -2.397  13.702  1.00  0.00     0.044 C 
ATOM     10  O   UNL     1      18.941  -1.998  12.973  1.00  0.00    -0.550 OA
ATOM     11  O   UNL     1      17.019  -1.493  14.105  1.00  0.00    -0.550 OA
ENDBRANCH   7   9
ENDBRANCH   6   7
ENDBRANCH   5   6
ENDBRANCH   4   5
ENDBRANCH   3   4
ENDBRANCH   2   3
ENDBRANCH   1   2
BRANCH   1  12
ATOM     12  C   UNL     1      13.639  -3.656  16.511  1.00  0.00     0.000 C 
BRANCH  12  13
ATOM     13  C   UNL     1      13.059  -3.371  15.110  1.00  0.00    -0.000 C 
BRANCH  13  14
ATOM     14  C   UNL     1      14.137  -3.427  14.014  1.00  0.00    -0.000 C 
BRANCH  14  15
ATOM     15  C   UNL     1      13.691  -4.227  12.779  1.00  0.00    -0.000 C 
BRANCH  15  16
ATOM     16  C   UNL     1      13.401  -5.703  13.104  1.00  0.00    -0.000 C 
BRANCH  16  17
ATOM     17  C   UNL     1      14.680  -6.494  13.429  1.00  0.00    -0.000 C 
BRANCH  17  18
ATOM     18  C   UNL     1      14.675  -7.058  14.858  1.00  0.00    -0.003 C 
ATOM     19  C   UNL     1      15.954  -6.686  15.601  1.00  0.00     0.004 C 
ENDBRANCH  17  18
ENDBRANCH  16  17
ENDBRANCH  15  16
ENDBRANCH  14  15
ENDBRANCH  13  14
ENDBRANCH  12  13
ENDBRANCH   1  12
TORSDOF 14
ENDMDL
MODEL 6
REMARK VINA RESULT:    -5.438      2.387      5.054
REMARK INTER + INTRA:         -12.213
REMARK INTER:                  -9.784
REMARK INTRA:                  -2.429
REMARK UNBOUND:                -2.324
REMARK SMILES CCCCCCCCCCCCCC[C@H](C)C(=O)[O-]
REMARK SMILES IDX 9 1 10 2 11 3 12 4 13 5 14 6 15 7 16 8 17 9 18 10 19 11 8 12
REMARK SMILES IDX 7 13 6 14 5 15 4 16 3 17 2 18 1 19
REMARK H PARENT
REMARK Flexibility Score: inf
ROOT
ATOM      1  C   UNL     1      15.978  -5.617  10.570  1.00  0.00     0.000 C 
ENDROOT
BRANCH   1   2
ATOM      2  C   UNL     1      15.852  -5.478  12.096  1.00  0.00     0.000 C 
BRANCH   2   3
ATOM      3  C   UNL     1      16.556  -6.613  12.853  1.00  0.00     0.000 C 
BRANCH   3   4
ATOM      4  C   UNL     1      15.606  -7.374  13.793  1.00  0.00     0.000 C 
BRANCH   4   5
ATOM      5  C   UNL     1      14.428  -6.509  14.269  1.00  0.00     0.001 C 
BRANCH   5   6
ATOM      6  C   UNL     1      14.614  -6.005  15.714  1.00  0.00     0.009 C 
BRANCH   6   7
ATOM      7  C   UNL     1      15.317  -4.633  15.819  1.00  0.00     0.032 C 
ATOM      8  C   UNL     1      16.791  -4.753  16.241  1.00  0.00     0.014 C 
BRANCH   7   9
ATOM      9  C   UNL     1      14.552  -3.687  16.708  1.00  0.00     0.044 C 
ATOM     10  O   UNL     1      13.294  -3.755  16.762  1.00  0.00    -0.550 OA
ATOM     11  O   UNL     1      15.216  -2.762  17.502  1.00  0.00    -0.550 OA
ENDBRANCH   7   9
ENDBRANCH   6   7
ENDBRANCH   5   6
ENDBRANCH   4   5
ENDBRANCH   3   4
ENDBRANCH   2   3
ENDBRANCH   1   2
BRANCH   1  12
ATOM     12  C   UNL     1      14.678  -5.268   9.828  1.00  0.00     0.000 C 
BRANCH  12  13
ATOM     13  C   UNL     1      13.412  -5.412  10.698  1.00  0.00    -0.000 C 
BRANCH  13  14
ATOM     14  C   UNL     1      12.318  -4.406  10.302  1.00  0.00    -0.000 C 
BRANCH  14  15
ATOM     15  C   UNL     1      11.436  -3.986  11.488  1.00  0.00    -0.000 C 
BRANCH  15  16
ATOM     16  C   UNL     1      12.113  -4.238  12.847  1.00  0.00    -0.000 C 
BRANCH  16  17
ATOM     17  C   UNL     1      12.222  -2.958  13.695  1.00  0.00    -0.000 C 
BRANCH  17  18
ATOM     18  C   UNL     1      13.038  -1.859  12.998  1.00  0.00    -0.003 C 
ATOM     19  C   UNL     1      14.523  -2.207  12.975  1.00  0.00     0.004 C 
ENDBRANCH  17  18
ENDBRANCH  16  17
ENDBRANCH  15  16
ENDBRANCH  14  15
ENDBRANCH  13  14
ENDBRANCH  12  13
ENDBRANCH   1  12
TORSDOF 14
ENDMDL
MODEL 7
REMARK VINA RESULT:    -5.434      2.669      5.112
REMARK INTER + INTRA:         -12.206
REMARK INTER:                  -9.529
REMARK INTRA:                  -2.677
REMARK UNBOUND:                -2.324
REMARK SMILES CCCCCCCCCCCCCC[C@H](C)C(=O)[O-]
REMARK SMILES IDX 9 1 10 2 11 3 12 4 13 5 14 6 15 7 16 8 17 9 18 10 19 11 8 12
REMARK SMILES IDX 7 13 6 14 5 15 4 16 3 17 2 18 1 19
REMARK H PARENT
REMARK Flexibility Score: inf
ROOT
ATOM      1  C   UNL     1      14.864  -3.569  15.942  1.00  0.00     0.000 C 
ENDROOT
BRANCH   1   2
ATOM      2  C   UNL     1      14.311  -5.003  15.906  1.00  0.00     0.000 C 
BRANCH   2   3
ATOM      3  C   UNL     1      15.418  -6.065  15.934  1.00  0.00     0.000 C 
BRANCH   3   4
ATOM      4  C   UNL     1      15.688  -6.675  14.548  1.00  0.00     0.000 C 
BRANCH   4   5
ATOM      5  C   UNL     1      14.394  -6.992  13.781  1.00  0.00     0.001 C 
BRANCH   5   6
ATOM      6  C   UNL     1      14.266  -6.175  12.480  1.00  0.00     0.009 C 
BRANCH   6   7
ATOM      7  C   UNL     1      15.430  -5.189  12.235  1.00  0.00     0.032 C 
ATOM      8  C   UNL     1      14.953  -3.735  12.078  1.00  0.00     0.014 C 
BRANCH   7   9
ATOM      9  C   UNL     1      16.292  -5.627  11.079  1.00  0.00     0.044 C 
ATOM     10  O   UNL     1      17.465  -6.038  11.292  1.00  0.00    -0.550 OA
ATOM     11  O   UNL     1      15.799  -5.620   9.781  1.00  0.00    -0.550 OA
ENDBRANCH   7   9
ENDBRANCH   6   7
ENDBRANCH   5   6
ENDBRANCH   4   5
ENDBRANCH   3   4
ENDBRANCH   2   3
ENDBRANCH   1   2
BRANCH   1  12
ATOM     12  C   UNL     1      15.021  -3.024  17.371  1.00  0.00     0.000 C 
BRANCH  12  13
ATOM     13  C   UNL     1      16.432  -2.478  17.673  1.00  0.00    -0.000 C 
BRANCH  13  14
ATOM     14  C   UNL     1      17.485  -3.597  17.740  1.00  0.00    -0.000 C 
BRANCH  14  15
ATOM     15  C   UNL     1      18.644  -3.387  16.754  1.00  0.00    -0.000 C 
BRANCH  15  16
ATOM     16  C   UNL     1      18.591  -4.361  15.563  1.00  0.00    -0.000 C 
BRANCH  16  17
ATOM     17  C   UNL     1      18.159  -3.669  14.258  1.00  0.00    -0.000 C 
BRANCH  17  18
ATOM     18  C   UNL     1      18.400  -2.152  14.289  1.00  0.00    -0.003 C 
ATOM     19  C   UNL     1      17.636  -1.450  13.171  1.00  0.00     0.004 C 
ENDBRANCH  17  18
ENDBRANCH  16  17
ENDBRANCH  15  16
ENDBRANCH  14  15
ENDBRANCH  13  14
ENDBRANCH  12  13
ENDBRANCH   1  12
TORSDOF 14
ENDMDL
MODEL 8
REMARK VINA RESULT:    -5.419      1.632      3.567
REMARK INTER + INTRA:         -12.179
REMARK INTER:                  -9.574
REMARK INTRA:                  -2.605
REMARK UNBOUND:                -2.324
REMARK SMILES CCCCCCCCCCCCCC[C@H](C)C(=O)[O-]
REMARK SMILES IDX 9 1 10 2 11 3 12 4 13 5 14 6 15 7 16 8 17 9 18 10 19 11 8 12
REMARK SMILES IDX 7 13 6 14 5 15 4 16 3 17 2 18 1 19
REMARK H PARENT
REMARK Flexibility Score: inf
ROOT
ATOM      1  C   UNL     1      15.074  -7.221  15.365  1.00  0.00     0.000 C 
ENDROOT
BRANCH   1   2
ATOM      2  C   UNL     1      16.197  -6.224  15.693  1.00  0.00     0.000 C 
BRANCH   2   3
ATOM      3  C   UNL     1      15.691  -4.779  15.804  1.00  0.00     0.000 C 
BRANCH   3   4
ATOM      4  C   UNL     1      14.282  -4.692  16.415  1.00  0.00     0.000 C 
BRANCH   4   5
ATOM      5  C   UNL     1      13.547  -3.400  16.022  1.00  0.00     0.001 C 
BRANCH   5   6
ATOM      6  C   UNL     1      13.794  -3.005  14.553  1.00  0.00     0.009 C 
BRANCH   6   7
ATOM      7  C   UNL     1      12.519  -2.591  13.786  1.00  0.00     0.032 C 
ATOM      8  C   UNL     1      11.456  -3.703  13.757  1.00  0.00     0.014 C 
BRANCH   7   9
ATOM      9  C   UNL     1      12.844  -2.086  12.404  1.00  0.00     0.044 C 
ATOM     10  O   UNL     1      13.615  -1.098  12.262  1.00  0.00    -0.550 OA
ATOM     11  O   UNL     1      12.338  -2.719  11.277  1.00  0.00    -0.550 OA
ENDBRANCH   7   9
ENDBRANCH   6   7
ENDBRANCH   5   6
ENDBRANCH   4   5
ENDBRANCH   3   4
ENDBRANCH   2   3
ENDBRANCH   1   2
BRANCH   1  12
ATOM     12  C   UNL     1      14.883  -7.433  13.854  1.00  0.00     0.000 C 
BRANCH  12  13
ATOM     13  C   UNL     1      13.775  -6.551  13.242  1.00  0.00    -0.000 C 
BRANCH  13  14
ATOM     14  C   UNL     1      14.162  -6.014  11.853  1.00  0.00    -0.000 C 
BRANCH  14  15
ATOM     15  C   UNL     1      15.397  -5.101  11.890  1.00  0.00    -0.000 C 
BRANCH  15  16
ATOM     16  C   UNL     1      16.590  -5.688  11.116  1.00  0.00    -0.000 C 
BRANCH  16  17
ATOM     17  C   UNL     1      17.854  -5.804  11.986  1.00  0.00    -0.000 C 
BRANCH  17  18
ATOM     18  C   UNL     1      18.276  -4.458  12.593  1.00  0.00    -0.003 C 
ATOM     19  C   UNL     1      19.133  -4.659  13.838  1.00  0.00     0.004 C 
ENDBRANCH  17  18
ENDBRANCH  16  17
ENDBRANCH  15  16
ENDBRANCH  14  15
ENDBRANCH  13  14
ENDBRANCH  12  13
ENDBRANCH   1  12
TORSDOF 14
ENDMDL
MODEL 9
REMARK VINA RESULT:    -5.416      2.318      5.183
REMARK INTER + INTRA:         -12.173
REMARK INTER:                 -10.070
REMARK INTRA:                  -2.103
REMARK UNBOUND:                -2.324
REMARK SMILES CCCCCCCCCCCCCC[C@H](C)C(=O)[O-]
REMARK SMILES IDX 9 1 10 2 11 3 12 4 13 5 14 6 15 7 16 8 17 9 18 10 19 11 8 12
REMARK SMILES IDX 7 13 6 14 5 15 4 16 3 17 2 18 1 19
REMARK H PARENT
REMARK Flexibility Score: inf
ROOT
ATOM      1  C   UNL     1      14.853  -6.991  15.648  1.00  0.00     0.000 C 
ENDROOT
BRANCH   1   2
ATOM      2  C   UNL     1      15.343  -7.475  14.274  1.00  0.00     0.000 C 
BRANCH   2   3
ATOM      3  C   UNL     1      15.083  -6.453  13.160  1.00  0.00     0.000 C 
BRANCH   3   4
ATOM      4  C   UNL     1      13.611  -6.424  12.716  1.00  0.00     0.000 C 
BRANCH   4   5
ATOM      5  C   UNL     1      13.042  -4.997  12.651  1.00  0.00     0.001 C 
BRANCH   5   6
ATOM      6  C   UNL     1      14.092  -3.965  12.194  1.00  0.00     0.009 C 
BRANCH   6   7
ATOM      7  C   UNL     1      14.320  -2.810  13.194  1.00  0.00     0.032 C 
ATOM      8  C   UNL     1      13.113  -1.862  13.293  1.00  0.00     0.014 C 
BRANCH   7   9
ATOM      9  C   UNL     1      15.597  -2.065  12.896  1.00  0.00     0.044 C 
ATOM     10  O   UNL     1      15.564  -1.024  12.184  1.00  0.00    -0.550 OA
ATOM     11  O   UNL     1      16.808  -2.486  13.428  1.00  0.00    -0.550 OA
ENDBRANCH   7   9
ENDBRANCH   6   7
ENDBRANCH   5   6
ENDBRANCH   4   5
ENDBRANCH   3   4
ENDBRANCH   2   3
ENDBRANCH   1   2
BRANCH   1  12
ATOM     12  C   UNL     1      15.138  -5.501  15.895  1.00  0.00     0.000 C 
BRANCH  12  13
ATOM     13  C   UNL     1      13.876  -4.678  16.231  1.00  0.00    -0.000 C 
BRANCH  13  14
ATOM     14  C   UNL     1      14.218  -3.361  16.950  1.00  0.00    -0.000 C 
BRANCH  14  15
ATOM     15  C   UNL     1      15.692  -2.958  16.787  1.00  0.00    -0.000 C 
BRANCH  15  16
ATOM     16  C   UNL     1      16.372  -2.649  18.132  1.00  0.00    -0.000 C 
BRANCH  16  17
ATOM     17  C   UNL     1      17.835  -3.124  18.173  1.00  0.00    -0.000 C 
BRANCH  17  18
ATOM     18  C   UNL     1      18.296  -3.723  16.835  1.00  0.00    -0.003 C 
ATOM     19  C   UNL     1      19.547  -3.021  16.319  1.00  0.00     0.004 C 
ENDBRANCH  17  18
ENDBRANCH  16  17
ENDBRANCH  15  16
ENDBRANCH  14  15
ENDBRANCH  13  14
ENDBRANCH  12  13
ENDBRANCH   1  12
TORSDOF 14
ENDMDL
