MODEL 1
REMARK VINA RESULT:    -2.575      0.000      0.000
REMARK INTER + INTRA:          -9.781
REMARK INTER:                  -5.886
REMARK INTRA:                  -3.895
REMARK UNBOUND:                -3.895
REMARK SMILES CCCCCCCCCCCCCCCCCCCCCCCC(=O)[O-]
REMARK SMILES IDX 13 1 14 2 15 3 16 4 17 5 18 6 19 7 20 8 21 9 22 10 23 11
REMARK SMILES IDX 24 12 25 13 26 14 12 15 11 16 10 17 9 18 8 19 7 20 6 21 5 22
REMARK SMILES IDX 4 23 3 24 2 25 1 26
REMARK H PARENT
REMARK Flexibility Score: inf
ROOT
ATOM      1  C   UNL     1     -19.849  14.539 -19.093  1.00  0.00     0.000 C 
ENDROOT
BRANCH   1   2
ATOM      2  C   UNL     1     -20.991  14.261 -20.082  1.00  0.00     0.000 C 
BRANCH   2   3
ATOM      3  C   UNL     1     -20.713  14.921 -21.441  1.00  0.00     0.000 C 
BRANCH   3   4
ATOM      4  C   UNL     1     -21.999  15.375 -22.154  1.00  0.00     0.000 C 
BRANCH   4   5
ATOM      5  C   UNL     1     -22.167  14.735 -23.541  1.00  0.00     0.000 C 
BRANCH   5   6
ATOM      6  C   UNL     1     -21.769  13.250 -23.557  1.00  0.00     0.000 C 
BRANCH   6   7
ATOM      7  C   UNL     1     -20.918  12.874 -24.780  1.00  0.00     0.000 C 
BRANCH   7   8
ATOM      8  C   UNL     1     -19.420  12.935 -24.441  1.00  0.00     0.000 C 
BRANCH   8   9
ATOM      9  C   UNL     1     -18.761  14.246 -24.896  1.00  0.00     0.000 C 
BRANCH   9  10
ATOM     10  C   UNL     1     -17.813  14.832 -23.837  1.00  0.00     0.006 C 
BRANCH  10  11
ATOM     11  C   UNL     1     -17.526  13.806 -22.734  1.00  0.00     0.053 C 
BRANCH  11  12
ATOM     12  C   UNL     1     -16.815  14.437 -21.577  1.00  0.00     0.041 C 
ATOM     13  O   UNL     1     -17.143  15.588 -21.182  1.00  0.00    -0.550 OA
ATOM     14  O   UNL     1     -15.813  13.740 -20.910  1.00  0.00    -0.550 OA
ENDBRANCH  11  12
ENDBRANCH  10  11
ENDBRANCH   9  10
ENDBRANCH   8   9
ENDBRANCH   7   8
ENDBRANCH   6   7
ENDBRANCH   5   6
ENDBRANCH   4   5
ENDBRANCH   3   4
ENDBRANCH   2   3
ENDBRANCH   1   2
BRANCH   1  15
ATOM     15  C   UNL     1     -19.023  13.283 -18.775  1.00  0.00     0.000 C 
BRANCH  15  16
ATOM     16  C   UNL     1     -19.269  12.753 -17.350  1.00  0.00     0.000 C 
BRANCH  16  17
ATOM     17  C   UNL     1     -20.550  11.896 -17.264  1.00  0.00     0.000 C 
BRANCH  17  18
ATOM     18  C   UNL     1     -21.104  11.756 -15.836  1.00  0.00    -0.000 C 
BRANCH  18  19
ATOM     19  C   UNL     1     -22.450  12.473 -15.643  1.00  0.00    -0.000 C 
BRANCH  19  20
ATOM     20  C   UNL     1     -22.944  13.162 -16.925  1.00  0.00    -0.000 C 
BRANCH  20  21
ATOM     21  C   UNL     1     -22.857  14.697 -16.846  1.00  0.00    -0.000 C 
BRANCH  21  22
ATOM     22  C   UNL     1     -22.905  15.221 -15.401  1.00  0.00    -0.000 C 
BRANCH  22  23
ATOM     23  C   UNL     1     -21.818  16.271 -15.117  1.00  0.00    -0.000 C 
BRANCH  23  24
ATOM     24  C   UNL     1     -20.499  15.981 -15.858  1.00  0.00    -0.000 C 
BRANCH  24  25
ATOM     25  C   UNL     1     -19.297  15.667 -14.948  1.00  0.00    -0.003 C 
ATOM     26  C   UNL     1     -19.562  14.506 -13.987  1.00  0.00     0.004 C 
ENDBRANCH  24  25
ENDBRANCH  23  24
ENDBRANCH  22  23
ENDBRANCH  21  22
ENDBRANCH  20  21
ENDBRANCH  19  20
ENDBRANCH  18  19
ENDBRANCH  17  18
ENDBRANCH  16  17
ENDBRANCH  15  16
ENDBRANCH   1  15
TORSDOF 22
ENDMDL
MODEL 2
REMARK VINA RESULT:    -2.482      1.649      2.806
REMARK INTER + INTRA:          -9.570
REMARK INTER:                  -5.422
REMARK INTRA:                  -4.148
REMARK UNBOUND:                -3.895
REMARK SMILES CCCCCCCCCCCCCCCCCCCCCCCC(=O)[O-]
REMARK SMILES IDX 13 1 14 2 15 3 16 4 17 5 18 6 19 7 20 8 21 9 22 10 23 11
REMARK SMILES IDX 24 12 25 13 26 14 12 15 11 16 10 17 9 18 8 19 7 20 6 21 5 22
REMARK SMILES IDX 4 23 3 24 2 25 1 26
REMARK H PARENT
REMARK Flexibility Score: inf
ROOT
ATOM      1  C   UNL     1     -16.995  14.727 -18.919  1.00  0.00     0.000 C 
ENDROOT
BRANCH   1   2
ATOM      2  C   UNL     1     -17.412  13.611 -19.889  1.00  0.00     0.000 C 
BRANCH   2   3
ATOM      3  C   UNL     1     -18.797  13.896 -20.490  1.00  0.00     0.000 C 
BRANCH   3   4
ATOM      4  C   UNL     1     -19.229  15.362 -20.319  1.00  0.00     0.000 C 
BRANCH   4   5
ATOM      5  C   UNL     1     -20.618  15.646 -20.914  1.00  0.00     0.000 C 
BRANCH   5   6
ATOM      6  C   UNL     1     -21.279  14.385 -21.493  1.00  0.00     0.000 C 
BRANCH   6   7
ATOM      7  C   UNL     1     -21.643  14.531 -22.979  1.00  0.00     0.000 C 
BRANCH   7   8
ATOM      8  C   UNL     1     -21.964  13.163 -23.599  1.00  0.00     0.000 C 
BRANCH   8   9
ATOM      9  C   UNL     1     -21.041  12.813 -24.777  1.00  0.00     0.000 C 
BRANCH   9  10
ATOM     10  C   UNL     1     -19.778  13.688 -24.821  1.00  0.00     0.006 C 
BRANCH  10  11
ATOM     11  C   UNL     1     -18.552  12.902 -24.344  1.00  0.00     0.053 C 
BRANCH  11  12
ATOM     12  C   UNL     1     -17.490  13.817 -23.818  1.00  0.00     0.041 C 
ATOM     13  O   UNL     1     -17.722  15.049 -23.686  1.00  0.00    -0.550 OA
ATOM     14  O   UNL     1     -16.253  13.306 -23.438  1.00  0.00    -0.550 OA
ENDBRANCH  11  12
ENDBRANCH  10  11
ENDBRANCH   9  10
ENDBRANCH   8   9
ENDBRANCH   7   8
ENDBRANCH   6   7
ENDBRANCH   5   6
ENDBRANCH   4   5
ENDBRANCH   3   4
ENDBRANCH   2   3
ENDBRANCH   1   2
BRANCH   1  15
ATOM     15  C   UNL     1     -17.006  14.271 -17.452  1.00  0.00     0.000 C 
BRANCH  15  16
ATOM     16  C   UNL     1     -18.013  15.056 -16.592  1.00  0.00     0.000 C 
BRANCH  16  17
ATOM     17  C   UNL     1     -19.218  14.188 -16.173  1.00  0.00     0.000 C 
BRANCH  17  18
ATOM     18  C   UNL     1     -19.125  12.729 -16.655  1.00  0.00    -0.000 C 
BRANCH  18  19
ATOM     19  C   UNL     1     -20.362  12.282 -17.451  1.00  0.00    -0.000 C 
BRANCH  19  20
ATOM     20  C   UNL     1     -21.323  13.442 -17.754  1.00  0.00    -0.000 C 
BRANCH  20  21
ATOM     21  C   UNL     1     -22.737  13.202 -17.192  1.00  0.00    -0.000 C 
BRANCH  21  22
ATOM     22  C   UNL     1     -23.015  14.017 -15.917  1.00  0.00    -0.000 C 
BRANCH  22  23
ATOM     23  C   UNL     1     -22.551  15.479 -16.038  1.00  0.00    -0.000 C 
BRANCH  23  24
ATOM     24  C   UNL     1     -23.348  16.273 -17.090  1.00  0.00    -0.000 C 
BRANCH  24  25
ATOM     25  C   UNL     1     -22.494  17.131 -18.042  1.00  0.00    -0.003 C 
ATOM     26  C   UNL     1     -21.035  17.244 -17.598  1.00  0.00     0.004 C 
ENDBRANCH  24  25
ENDBRANCH  23  24
ENDBRANCH  22  23
ENDBRANCH  21  22
ENDBRANCH  20  21
ENDBRANCH  19  20
ENDBRANCH  18  19
ENDBRANCH  17  18
ENDBRANCH  16  17
ENDBRANCH  15  16
ENDBRANCH   1  15
TORSDOF 22
ENDMDL
MODEL 3
REMARK VINA RESULT:    -2.480      1.612      2.840
REMARK INTER + INTRA:          -9.564
REMARK INTER:                  -5.778
REMARK INTRA:                  -3.787
REMARK UNBOUND:                -3.895
REMARK SMILES CCCCCCCCCCCCCCCCCCCCCCCC(=O)[O-]
REMARK SMILES IDX 13 1 14 2 15 3 16 4 17 5 18 6 19 7 20 8 21 9 22 10 23 11
REMARK SMILES IDX 24 12 25 13 26 14 12 15 11 16 10 17 9 18 8 19 7 20 6 21 5 22
REMARK SMILES IDX 4 23 3 24 2 25 1 26
REMARK H PARENT
REMARK Flexibility Score: inf
ROOT
ATOM      1  C   UNL     1     -16.984  14.607 -18.696  1.00  0.00     0.000 C 
ENDROOT
BRANCH   1   2
ATOM      2  C   UNL     1     -17.405  13.468 -19.637  1.00  0.00     0.000 C 
BRANCH   2   3
ATOM      3  C   UNL     1     -18.684  13.835 -20.406  1.00  0.00     0.000 C 
BRANCH   3   4
ATOM      4  C   UNL     1     -19.019  15.334 -20.318  1.00  0.00     0.000 C 
BRANCH   4   5
ATOM      5  C   UNL     1     -20.411  15.665 -20.883  1.00  0.00     0.000 C 
BRANCH   5   6
ATOM      6  C   UNL     1     -21.146  14.421 -21.406  1.00  0.00     0.000 C 
BRANCH   6   7
ATOM      7  C   UNL     1     -21.577  14.557 -22.875  1.00  0.00     0.000 C 
BRANCH   7   8
ATOM      8  C   UNL     1     -21.949  13.188 -23.463  1.00  0.00     0.000 C 
BRANCH   8   9
ATOM      9  C   UNL     1     -21.053  12.785 -24.645  1.00  0.00     0.000 C 
BRANCH   9  10
ATOM     10  C   UNL     1     -19.847  13.722 -24.821  1.00  0.00     0.006 C 
BRANCH  10  11
ATOM     11  C   UNL     1     -18.549  13.027 -24.396  1.00  0.00     0.053 C 
BRANCH  11  12
ATOM     12  C   UNL     1     -17.576  14.004 -23.808  1.00  0.00     0.041 C 
ATOM     13  O   UNL     1     -17.884  15.221 -23.704  1.00  0.00    -0.550 OA
ATOM     14  O   UNL     1     -16.342  13.564 -23.342  1.00  0.00    -0.550 OA
ENDBRANCH  11  12
ENDBRANCH  10  11
ENDBRANCH   9  10
ENDBRANCH   8   9
ENDBRANCH   7   8
ENDBRANCH   6   7
ENDBRANCH   5   6
ENDBRANCH   4   5
ENDBRANCH   3   4
ENDBRANCH   2   3
ENDBRANCH   1   2
BRANCH   1  15
ATOM     15  C   UNL     1     -17.187  14.256 -17.215  1.00  0.00     0.000 C 
BRANCH  15  16
ATOM     16  C   UNL     1     -18.496  14.830 -16.641  1.00  0.00     0.000 C 
BRANCH  16  17
ATOM     17  C   UNL     1     -19.302  13.770 -15.862  1.00  0.00     0.000 C 
BRANCH  17  18
ATOM     18  C   UNL     1     -19.257  12.369 -16.498  1.00  0.00    -0.000 C 
BRANCH  18  19
ATOM     19  C   UNL     1     -20.500  12.056 -17.345  1.00  0.00    -0.000 C 
BRANCH  19  20
ATOM     20  C   UNL     1     -21.286  13.318 -17.734  1.00  0.00    -0.000 C 
BRANCH  20  21
ATOM     21  C   UNL     1     -22.722  13.318 -17.177  1.00  0.00    -0.000 C 
BRANCH  21  22
ATOM     22  C   UNL     1     -22.932  14.376 -16.080  1.00  0.00    -0.000 C 
BRANCH  22  23
ATOM     23  C   UNL     1     -23.284  13.751 -14.718  1.00  0.00    -0.000 C 
BRANCH  23  24
ATOM     24  C   UNL     1     -23.106  12.222 -14.698  1.00  0.00    -0.000 C 
BRANCH  24  25
ATOM     25  C   UNL     1     -22.119  11.696 -13.639  1.00  0.00    -0.003 C 
ATOM     26  C   UNL     1     -21.289  12.805 -12.992  1.00  0.00     0.004 C 
ENDBRANCH  24  25
ENDBRANCH  23  24
ENDBRANCH  22  23
ENDBRANCH  21  22
ENDBRANCH  20  21
ENDBRANCH  19  20
ENDBRANCH  18  19
ENDBRANCH  17  18
ENDBRANCH  16  17
ENDBRANCH  15  16
ENDBRANCH   1  15
TORSDOF 22
ENDMDL
MODEL 4
REMARK VINA RESULT:    -2.472     13.414     15.374
REMARK INTER + INTRA:          -9.547
REMARK INTER:                  -5.985
REMARK INTRA:                  -3.561
REMARK UNBOUND:                -3.895
REMARK SMILES CCCCCCCCCCCCCCCCCCCCCCCC(=O)[O-]
REMARK SMILES IDX 13 1 14 2 15 3 16 4 17 5 18 6 19 7 20 8 21 9 22 10 23 11
REMARK SMILES IDX 24 12 25 13 26 14 12 15 11 16 10 17 9 18 8 19 7 20 6 21 5 22
REMARK SMILES IDX 4 23 3 24 2 25 1 26
REMARK H PARENT
REMARK Flexibility Score: inf
ROOT
ATOM      1  C   UNL     1     -22.227  28.821 -16.860  1.00  0.00     0.000 C 
ENDROOT
BRANCH   1   2
ATOM      2  C   UNL     1     -20.877  29.215 -17.479  1.00  0.00     0.000 C 
BRANCH   2   3
ATOM      3  C   UNL     1     -19.836  28.102 -17.284  1.00  0.00     0.000 C 
BRANCH   3   4
ATOM      4  C   UNL     1     -18.531  28.367 -18.054  1.00  0.00     0.000 C 
BRANCH   4   5
ATOM      5  C   UNL     1     -18.507  29.752 -18.721  1.00  0.00     0.000 C 
BRANCH   5   6
ATOM      6  C   UNL     1     -18.188  29.676 -20.223  1.00  0.00     0.000 C 
BRANCH   6   7
ATOM      7  C   UNL     1     -17.082  30.656 -20.647  1.00  0.00     0.000 C 
BRANCH   7   8
ATOM      8  C   UNL     1     -15.872  29.898 -21.215  1.00  0.00     0.000 C 
BRANCH   8   9
ATOM      9  C   UNL     1     -15.117  30.701 -22.286  1.00  0.00     0.000 C 
BRANCH   9  10
ATOM     10  C   UNL     1     -15.183  30.046 -23.675  1.00  0.00     0.006 C 
BRANCH  10  11
ATOM     11  C   UNL     1     -16.335  29.038 -23.748  1.00  0.00     0.053 C 
BRANCH  11  12
ATOM     12  C   UNL     1     -15.862  27.710 -24.255  1.00  0.00     0.041 C 
ATOM     13  O   UNL     1     -14.638  27.516 -24.483  1.00  0.00    -0.550 OA
ATOM     14  O   UNL     1     -16.769  26.671 -24.442  1.00  0.00    -0.550 OA
ENDBRANCH  11  12
ENDBRANCH  10  11
ENDBRANCH   9  10
ENDBRANCH   8   9
ENDBRANCH   7   8
ENDBRANCH   6   7
ENDBRANCH   5   6
ENDBRANCH   4   5
ENDBRANCH   3   4
ENDBRANCH   2   3
ENDBRANCH   1   2
BRANCH   1  15
ATOM     15  C   UNL     1     -23.007  27.823 -17.730  1.00  0.00     0.000 C 
BRANCH  15  16
ATOM     16  C   UNL     1     -24.423  28.317 -18.078  1.00  0.00     0.000 C 
BRANCH  16  17
ATOM     17  C   UNL     1     -24.427  29.792 -18.532  1.00  0.00     0.000 C 
BRANCH  17  18
ATOM     18  C   UNL     1     -24.782  29.980 -20.017  1.00  0.00    -0.000 C 
BRANCH  18  19
ATOM     19  C   UNL     1     -25.000  28.648 -20.753  1.00  0.00    -0.000 C 
BRANCH  19  20
ATOM     20  C   UNL     1     -23.968  28.409 -21.866  1.00  0.00    -0.000 C 
BRANCH  20  21
ATOM     21  C   UNL     1     -22.725  29.308 -21.727  1.00  0.00    -0.000 C 
BRANCH  21  22
ATOM     22  C   UNL     1     -21.591  28.633 -20.937  1.00  0.00    -0.000 C 
BRANCH  22  23
ATOM     23  C   UNL     1     -21.245  27.235 -21.478  1.00  0.00    -0.000 C 
BRANCH  23  24
ATOM     24  C   UNL     1     -20.967  26.214 -20.360  1.00  0.00    -0.000 C 
BRANCH  24  25
ATOM     25  C   UNL     1     -19.509  25.727 -20.273  1.00  0.00    -0.003 C 
ATOM     26  C   UNL     1     -18.656  26.177 -21.460  1.00  0.00     0.004 C 
ENDBRANCH  24  25
ENDBRANCH  23  24
ENDBRANCH  22  23
ENDBRANCH  21  22
ENDBRANCH  20  21
ENDBRANCH  19  20
ENDBRANCH  18  19
ENDBRANCH  17  18
ENDBRANCH  16  17
ENDBRANCH  15  16
ENDBRANCH   1  15
TORSDOF 22
ENDMDL
MODEL 5
REMARK VINA RESULT:    -2.468      2.397      7.034
REMARK INTER + INTRA:          -9.537
REMARK INTER:                  -5.783
REMARK INTRA:                  -3.754
REMARK UNBOUND:                -3.895
REMARK SMILES CCCCCCCCCCCCCCCCCCCCCCCC(=O)[O-]
REMARK SMILES IDX 13 1 14 2 15 3 16 4 17 5 18 6 19 7 20 8 21 9 22 10 23 11
REMARK SMILES IDX 24 12 25 13 26 14 12 15 11 16 10 17 9 18 8 19 7 20 6 21 5 22
REMARK SMILES IDX 4 23 3 24 2 25 1 26
REMARK H PARENT
REMARK Flexibility Score: inf
ROOT
ATOM      1  C   UNL     1     -18.026  15.327 -20.179  1.00  0.00     0.000 C 
ENDROOT
BRANCH   1   2
ATOM      2  C   UNL     1     -18.332  13.856 -19.861  1.00  0.00     0.000 C 
BRANCH   2   3
ATOM      3  C   UNL     1     -19.612  13.730 -19.020  1.00  0.00     0.000 C 
BRANCH   3   4
ATOM      4  C   UNL     1     -19.760  14.864 -17.992  1.00  0.00     0.000 C 
BRANCH   4   5
ATOM      5  C   UNL     1     -21.156  14.904 -17.349  1.00  0.00     0.000 C 
BRANCH   5   6
ATOM      6  C   UNL     1     -22.028  13.706 -17.759  1.00  0.00     0.000 C 
BRANCH   6   7
ATOM      7  C   UNL     1     -22.364  12.783 -16.577  1.00  0.00     0.000 C 
BRANCH   7   8
ATOM      8  C   UNL     1     -21.250  11.747 -16.361  1.00  0.00     0.000 C 
BRANCH   8   9
ATOM      9  C   UNL     1     -20.719  11.738 -14.919  1.00  0.00     0.000 C 
BRANCH   9  10
ATOM     10  C   UNL     1     -19.447  12.585 -14.750  1.00  0.00     0.006 C 
BRANCH  10  11
ATOM     11  C   UNL     1     -18.396  12.209 -15.801  1.00  0.00     0.053 C 
BRANCH  11  12
ATOM     12  C   UNL     1     -17.238  11.492 -15.178  1.00  0.00     0.041 C 
ATOM     13  O   UNL     1     -17.337  11.015 -14.016  1.00  0.00    -0.550 OA
ATOM     14  O   UNL     1     -16.058  11.318 -15.895  1.00  0.00    -0.550 OA
ENDBRANCH  11  12
ENDBRANCH  10  11
ENDBRANCH   9  10
ENDBRANCH   8   9
ENDBRANCH   7   8
ENDBRANCH   6   7
ENDBRANCH   5   6
ENDBRANCH   4   5
ENDBRANCH   3   4
ENDBRANCH   2   3
ENDBRANCH   1   2
BRANCH   1  15
ATOM     15  C   UNL     1     -17.817  15.577 -21.681  1.00  0.00     0.000 C 
BRANCH  15  16
ATOM     16  C   UNL     1     -17.989  14.301 -22.526  1.00  0.00     0.000 C 
BRANCH  16  17
ATOM     17  C   UNL     1     -17.582  14.522 -23.998  1.00  0.00     0.000 C 
BRANCH  17  18
ATOM     18  C   UNL     1     -18.644  14.059 -25.009  1.00  0.00    -0.000 C 
BRANCH  18  19
ATOM     19  C   UNL     1     -19.526  12.920 -24.472  1.00  0.00    -0.000 C 
BRANCH  19  20
ATOM     20  C   UNL     1     -21.014  13.115 -24.804  1.00  0.00    -0.000 C 
BRANCH  20  21
ATOM     21  C   UNL     1     -21.890  13.258 -23.545  1.00  0.00    -0.000 C 
BRANCH  21  22
ATOM     22  C   UNL     1     -22.129  14.726 -23.153  1.00  0.00    -0.000 C 
BRANCH  22  23
ATOM     23  C   UNL     1     -21.428  15.108 -21.838  1.00  0.00    -0.000 C 
BRANCH  23  24
ATOM     24  C   UNL     1     -22.073  16.325 -21.149  1.00  0.00    -0.000 C 
BRANCH  24  25
ATOM     25  C   UNL     1     -21.089  17.254 -20.414  1.00  0.00    -0.003 C 
ATOM     26  C   UNL     1     -21.784  18.231 -19.464  1.00  0.00     0.004 C 
ENDBRANCH  24  25
ENDBRANCH  23  24
ENDBRANCH  22  23
ENDBRANCH  21  22
ENDBRANCH  20  21
ENDBRANCH  19  20
ENDBRANCH  18  19
ENDBRANCH  17  18
ENDBRANCH  16  17
ENDBRANCH  15  16
ENDBRANCH   1  15
TORSDOF 22
ENDMDL
MODEL 6
REMARK VINA RESULT:    -2.429      2.694      7.369
REMARK INTER + INTRA:          -9.449
REMARK INTER:                  -5.118
REMARK INTRA:                  -4.331
REMARK UNBOUND:                -3.895
REMARK SMILES CCCCCCCCCCCCCCCCCCCCCCCC(=O)[O-]
REMARK SMILES IDX 13 1 14 2 15 3 16 4 17 5 18 6 19 7 20 8 21 9 22 10 23 11
REMARK SMILES IDX 24 12 25 13 26 14 12 15 11 16 10 17 9 18 8 19 7 20 6 21 5 22
REMARK SMILES IDX 4 23 3 24 2 25 1 26
REMARK H PARENT
REMARK Flexibility Score: inf
ROOT
ATOM      1  C   UNL     1     -21.019  14.510 -21.438  1.00  0.00     0.000 C 
ENDROOT
BRANCH   1   2
ATOM      2  C   UNL     1     -21.056  15.872 -20.730  1.00  0.00     0.000 C 
BRANCH   2   3
ATOM      3  C   UNL     1     -19.821  16.713 -21.090  1.00  0.00     0.000 C 
BRANCH   3   4
ATOM      4  C   UNL     1     -18.927  17.006 -19.873  1.00  0.00     0.000 C 
BRANCH   4   5
ATOM      5  C   UNL     1     -17.452  17.209 -20.255  1.00  0.00     0.000 C 
BRANCH   5   6
ATOM      6  C   UNL     1     -16.703  15.879 -20.441  1.00  0.00     0.000 C 
BRANCH   6   7
ATOM      7  C   UNL     1     -16.891  14.919 -19.257  1.00  0.00     0.000 C 
BRANCH   7   8
ATOM      8  C   UNL     1     -17.554  13.611 -19.715  1.00  0.00     0.000 C 
BRANCH   8   9
ATOM      9  C   UNL     1     -18.751  13.212 -18.839  1.00  0.00     0.000 C 
BRANCH   9  10
ATOM     10  C   UNL     1     -18.828  14.023 -17.535  1.00  0.00     0.006 C 
BRANCH  10  11
ATOM     11  C   UNL     1     -20.232  14.606 -17.337  1.00  0.00     0.053 C 
BRANCH  11  12
ATOM     12  C   UNL     1     -21.234  13.526 -17.062  1.00  0.00     0.041 C 
ATOM     13  O   UNL     1     -22.124  13.255 -17.912  1.00  0.00    -0.550 OA
ATOM     14  O   UNL     1     -21.164  12.794 -15.881  1.00  0.00    -0.550 OA
ENDBRANCH  11  12
ENDBRANCH  10  11
ENDBRANCH   9  10
ENDBRANCH   8   9
ENDBRANCH   7   8
ENDBRANCH   6   7
ENDBRANCH   5   6
ENDBRANCH   4   5
ENDBRANCH   3   4
ENDBRANCH   2   3
ENDBRANCH   1   2
BRANCH   1  15
ATOM     15  C   UNL     1     -21.613  14.563 -22.854  1.00  0.00     0.000 C 
BRANCH  15  16
ATOM     16  C   UNL     1     -21.960  13.168 -23.407  1.00  0.00     0.000 C 
BRANCH  16  17
ATOM     17  C   UNL     1     -21.263  12.889 -24.755  1.00  0.00     0.000 C 
BRANCH  17  18
ATOM     18  C   UNL     1     -19.932  13.640 -24.929  1.00  0.00    -0.000 C 
BRANCH  18  19
ATOM     19  C   UNL     1     -18.722  12.835 -24.429  1.00  0.00    -0.000 C 
BRANCH  19  20
ATOM     20  C   UNL     1     -17.887  13.603 -23.392  1.00  0.00    -0.000 C 
BRANCH  20  21
ATOM     21  C   UNL     1     -17.960  15.130 -23.583  1.00  0.00    -0.000 C 
BRANCH  21  22
ATOM     22  C   UNL     1     -16.814  15.674 -24.453  1.00  0.00    -0.000 C 
BRANCH  22  23
ATOM     23  C   UNL     1     -16.422  17.114 -24.080  1.00  0.00    -0.000 C 
BRANCH  23  24
ATOM     24  C   UNL     1     -15.006  17.211 -23.479  1.00  0.00    -0.000 C 
BRANCH  24  25
ATOM     25  C   UNL     1     -14.159  15.931 -23.600  1.00  0.00    -0.003 C 
ATOM     26  C   UNL     1     -13.534  15.501 -22.272  1.00  0.00     0.004 C 
ENDBRANCH  24  25
ENDBRANCH  23  24
ENDBRANCH  22  23
ENDBRANCH  21  22
ENDBRANCH  20  21
ENDBRANCH  19  20
ENDBRANCH  18  19
ENDBRANCH  17  18
ENDBRANCH  16  17
ENDBRANCH  15  16
ENDBRANCH   1  15
TORSDOF 22
ENDMDL
MODEL 7
REMARK VINA RESULT:    -2.397      1.760      7.358
REMARK INTER + INTRA:          -9.376
REMARK INTER:                  -5.794
REMARK INTRA:                  -3.582
REMARK UNBOUND:                -3.895
REMARK SMILES CCCCCCCCCCCCCCCCCCCCCCCC(=O)[O-]
REMARK SMILES IDX 13 1 14 2 15 3 16 4 17 5 18 6 19 7 20 8 21 9 22 10 23 11
REMARK SMILES IDX 24 12 25 13 26 14 12 15 11 16 10 17 9 18 8 19 7 20 6 21 5 22
REMARK SMILES IDX 4 23 3 24 2 25 1 26
REMARK H PARENT
REMARK Flexibility Score: inf
ROOT
ATOM      1  C   UNL     1     -20.104  14.677 -19.676  1.00  0.00     0.000 C 
ENDROOT
BRANCH   1   2
ATOM      2  C   UNL     1     -21.112  15.589 -18.958  1.00  0.00     0.000 C 
BRANCH   2   3
ATOM      3  C   UNL     1     -22.019  14.775 -18.022  1.00  0.00     0.000 C 
BRANCH   3   4
ATOM      4  C   UNL     1     -22.631  15.629 -16.899  1.00  0.00     0.000 C 
BRANCH   4   5
ATOM      5  C   UNL     1     -23.766  14.907 -16.155  1.00  0.00     0.000 C 
BRANCH   5   6
ATOM      6  C   UNL     1     -23.678  13.378 -16.287  1.00  0.00     0.000 C 
BRANCH   6   7
ATOM      7  C   UNL     1     -23.335  12.684 -14.958  1.00  0.00     0.000 C 
BRANCH   7   8
ATOM      8  C   UNL     1     -21.859  12.260 -14.930  1.00  0.00     0.000 C 
BRANCH   8   9
ATOM      9  C   UNL     1     -21.375  11.703 -16.278  1.00  0.00     0.000 C 
BRANCH   9  10
ATOM     10  C   UNL     1     -19.940  12.137 -16.618  1.00  0.00     0.006 C 
BRANCH  10  11
ATOM     11  C   UNL     1     -19.496  13.302 -15.726  1.00  0.00     0.053 C 
BRANCH  11  12
ATOM     12  C   UNL     1     -18.505  14.178 -16.429  1.00  0.00     0.041 C 
ATOM     13  O   UNL     1     -18.444  15.408 -16.162  1.00  0.00    -0.550 OA
ATOM     14  O   UNL     1     -17.622  13.630 -17.354  1.00  0.00    -0.550 OA
ENDBRANCH  11  12
ENDBRANCH  10  11
ENDBRANCH   9  10
ENDBRANCH   8   9
ENDBRANCH   7   8
ENDBRANCH   6   7
ENDBRANCH   5   6
ENDBRANCH   4   5
ENDBRANCH   3   4
ENDBRANCH   2   3
ENDBRANCH   1   2
BRANCH   1  15
ATOM     15  C   UNL     1     -20.583  14.251 -21.072  1.00  0.00     0.000 C 
BRANCH  15  16
ATOM     16  C   UNL     1     -21.301  15.385 -21.827  1.00  0.00     0.000 C 
BRANCH  16  17
ATOM     17  C   UNL     1     -22.193  14.849 -22.966  1.00  0.00     0.000 C 
BRANCH  17  18
ATOM     18  C   UNL     1     -21.782  13.454 -23.468  1.00  0.00    -0.000 C 
BRANCH  18  19
ATOM     19  C   UNL     1     -21.346  13.453 -24.942  1.00  0.00    -0.000 C 
BRANCH  19  20
ATOM     20  C   UNL     1     -19.871  13.841 -25.125  1.00  0.00    -0.000 C 
BRANCH  20  21
ATOM     21  C   UNL     1     -18.926  13.027 -24.222  1.00  0.00    -0.000 C 
BRANCH  21  22
ATOM     22  C   UNL     1     -17.863  13.900 -23.534  1.00  0.00    -0.000 C 
BRANCH  22  23
ATOM     23  C   UNL     1     -17.453  15.112 -24.387  1.00  0.00    -0.000 C 
BRANCH  23  24
ATOM     24  C   UNL     1     -16.999  16.315 -23.537  1.00  0.00    -0.000 C 
BRANCH  24  25
ATOM     25  C   UNL     1     -17.973  16.725 -22.418  1.00  0.00    -0.003 C 
ATOM     26  C   UNL     1     -17.334  16.698 -21.029  1.00  0.00     0.004 C 
ENDBRANCH  24  25
ENDBRANCH  23  24
ENDBRANCH  22  23
ENDBRANCH  21  22
ENDBRANCH  20  21
ENDBRANCH  19  20
ENDBRANCH  18  19
ENDBRANCH  17  18
ENDBRANCH  16  17
ENDBRANCH  15  16
ENDBRANCH   1  15
TORSDOF 22
ENDMDL
MODEL 8
REMARK VINA RESULT:    -2.386     12.857     15.429
REMARK INTER + INTRA:          -9.349
REMARK INTER:                  -5.658
REMARK INTRA:                  -3.692
REMARK UNBOUND:                -3.895
REMARK SMILES CCCCCCCCCCCCCCCCCCCCCCCC(=O)[O-]
REMARK SMILES IDX 13 1 14 2 15 3 16 4 17 5 18 6 19 7 20 8 21 9 22 10 23 11
REMARK SMILES IDX 24 12 25 13 26 14 12 15 11 16 10 17 9 18 8 19 7 20 6 21 5 22
REMARK SMILES IDX 4 23 3 24 2 25 1 26
REMARK H PARENT
REMARK Flexibility Score: inf
ROOT
ATOM      1  C   UNL     1     -20.985  27.853 -19.496  1.00  0.00     0.000 C 
ENDROOT
BRANCH   1   2
ATOM      2  C   UNL     1     -21.329  28.522 -20.835  1.00  0.00     0.000 C 
BRANCH   2   3
ATOM      3  C   UNL     1     -22.144  27.575 -21.729  1.00  0.00     0.000 C 
BRANCH   3   4
ATOM      4  C   UNL     1     -23.505  28.166 -22.136  1.00  0.00     0.000 C 
BRANCH   4   5
ATOM      5  C   UNL     1     -23.593  29.680 -21.886  1.00  0.00     0.000 C 
BRANCH   5   6
ATOM      6  C   UNL     1     -24.808  30.065 -21.027  1.00  0.00     0.000 C 
BRANCH   6   7
ATOM      7  C   UNL     1     -24.893  29.260 -19.720  1.00  0.00     0.000 C 
BRANCH   7   8
ATOM      8  C   UNL     1     -24.320  30.067 -18.545  1.00  0.00     0.000 C 
BRANCH   8   9
ATOM      9  C   UNL     1     -24.095  29.210 -17.290  1.00  0.00     0.000 C 
BRANCH   9  10
ATOM     10  C   UNL     1     -24.110  27.702 -17.590  1.00  0.00     0.006 C 
BRANCH  10  11
ATOM     11  C   UNL     1     -24.002  26.887 -16.297  1.00  0.00     0.053 C 
BRANCH  11  12
ATOM     12  C   UNL     1     -22.576  26.755 -15.855  1.00  0.00     0.041 C 
ATOM     13  O   UNL     1     -21.767  26.055 -16.521  1.00  0.00    -0.550 OA
ATOM     14  O   UNL     1     -22.131  27.434 -14.726  1.00  0.00    -0.550 OA
ENDBRANCH  11  12
ENDBRANCH  10  11
ENDBRANCH   9  10
ENDBRANCH   8   9
ENDBRANCH   7   8
ENDBRANCH   6   7
ENDBRANCH   5   6
ENDBRANCH   4   5
ENDBRANCH   3   4
ENDBRANCH   2   3
ENDBRANCH   1   2
BRANCH   1  15
ATOM     15  C   UNL     1     -20.620  28.870 -18.403  1.00  0.00     0.000 C 
BRANCH  15  16
ATOM     16  C   UNL     1     -19.115  28.884 -18.082  1.00  0.00     0.000 C 
BRANCH  16  17
ATOM     17  C   UNL     1     -18.386  30.057 -18.771  1.00  0.00     0.000 C 
BRANCH  17  18
ATOM     18  C   UNL     1     -17.390  29.613 -19.857  1.00  0.00    -0.000 C 
BRANCH  18  19
ATOM     19  C   UNL     1     -17.993  29.643 -21.270  1.00  0.00    -0.000 C 
BRANCH  19  20
ATOM     20  C   UNL     1     -16.974  29.270 -22.358  1.00  0.00    -0.000 C 
BRANCH  20  21
ATOM     21  C   UNL     1     -16.948  27.759 -22.655  1.00  0.00    -0.000 C 
BRANCH  21  22
ATOM     22  C   UNL     1     -18.234  27.045 -22.209  1.00  0.00    -0.000 C 
BRANCH  22  23
ATOM     23  C   UNL     1     -18.469  25.725 -22.965  1.00  0.00    -0.000 C 
BRANCH  23  24
ATOM     24  C   UNL     1     -19.721  24.972 -22.478  1.00  0.00    -0.000 C 
BRANCH  24  25
ATOM     25  C   UNL     1     -19.531  24.167 -21.179  1.00  0.00    -0.003 C 
ATOM     26  C   UNL     1     -20.703  24.317 -20.206  1.00  0.00     0.004 C 
ENDBRANCH  24  25
ENDBRANCH  23  24
ENDBRANCH  22  23
ENDBRANCH  21  22
ENDBRANCH  20  21
ENDBRANCH  19  20
ENDBRANCH  18  19
ENDBRANCH  17  18
ENDBRANCH  16  17
ENDBRANCH  15  16
ENDBRANCH   1  15
TORSDOF 22
ENDMDL
MODEL 9
REMARK VINA RESULT:    -2.359     13.753     15.556
REMARK INTER + INTRA:          -9.289
REMARK INTER:                  -5.714
REMARK INTRA:                  -3.576
REMARK UNBOUND:                -3.895
REMARK SMILES CCCCCCCCCCCCCCCCCCCCCCCC(=O)[O-]
REMARK SMILES IDX 13 1 14 2 15 3 16 4 17 5 18 6 19 7 20 8 21 9 22 10 23 11
REMARK SMILES IDX 24 12 25 13 26 14 12 15 11 16 10 17 9 18 8 19 7 20 6 21 5 22
REMARK SMILES IDX 4 23 3 24 2 25 1 26
REMARK H PARENT
REMARK Flexibility Score: inf
ROOT
ATOM      1  C   UNL     1     -21.254  28.047 -16.960  1.00  0.00     0.000 C 
ENDROOT
BRANCH   1   2
ATOM      2  C   UNL     1     -19.751  28.335 -17.085  1.00  0.00     0.000 C 
BRANCH   2   3
ATOM      3  C   UNL     1     -19.494  29.519 -18.031  1.00  0.00     0.000 C 
BRANCH   3   4
ATOM      4  C   UNL     1     -18.359  29.244 -19.031  1.00  0.00     0.000 C 
BRANCH   4   5
ATOM      5  C   UNL     1     -17.552  30.507 -19.376  1.00  0.00     0.000 C 
BRANCH   5   6
ATOM      6  C   UNL     1     -17.202  30.593 -20.870  1.00  0.00     0.000 C 
BRANCH   6   7
ATOM      7  C   UNL     1     -17.948  29.550 -21.717  1.00  0.00     0.000 C 
BRANCH   7   8
ATOM      8  C   UNL     1     -16.956  28.649 -22.469  1.00  0.00     0.000 C 
BRANCH   8   9
ATOM      9  C   UNL     1     -16.499  29.254 -23.806  1.00  0.00     0.000 C 
BRANCH   9  10
ATOM     10  C   UNL     1     -15.160  30.000 -23.692  1.00  0.00     0.006 C 
BRANCH  10  11
ATOM     11  C   UNL     1     -14.063  29.073 -23.155  1.00  0.00     0.053 C 
BRANCH  11  12
ATOM     12  C   UNL     1     -13.436  29.635 -21.916  1.00  0.00     0.041 C 
ATOM     13  O   UNL     1     -12.474  30.445 -22.003  1.00  0.00    -0.550 OA
ATOM     14  O   UNL     1     -13.936  29.292 -20.664  1.00  0.00    -0.550 OA
ENDBRANCH  11  12
ENDBRANCH  10  11
ENDBRANCH   9  10
ENDBRANCH   8   9
ENDBRANCH   7   8
ENDBRANCH   6   7
ENDBRANCH   5   6
ENDBRANCH   4   5
ENDBRANCH   3   4
ENDBRANCH   2   3
ENDBRANCH   1   2
BRANCH   1  15
ATOM     15  C   UNL     1     -22.123  29.228 -17.422  1.00  0.00     0.000 C 
BRANCH  15  16
ATOM     16  C   UNL     1     -23.613  28.859 -17.541  1.00  0.00     0.000 C 
BRANCH  16  17
ATOM     17  C   UNL     1     -24.373  29.815 -18.484  1.00  0.00     0.000 C 
BRANCH  17  18
ATOM     18  C   UNL     1     -24.934  29.127 -19.741  1.00  0.00    -0.000 C 
BRANCH  18  19
ATOM     19  C   UNL     1     -24.819  29.998 -21.001  1.00  0.00    -0.000 C 
BRANCH  19  20
ATOM     20  C   UNL     1     -23.599  29.637 -21.863  1.00  0.00    -0.000 C 
BRANCH  20  21
ATOM     21  C   UNL     1     -22.985  28.276 -21.482  1.00  0.00    -0.000 C 
BRANCH  21  22
ATOM     22  C   UNL     1     -21.531  28.397 -20.996  1.00  0.00    -0.000 C 
BRANCH  22  23
ATOM     23  C   UNL     1     -20.961  27.056 -20.502  1.00  0.00    -0.000 C 
BRANCH  23  24
ATOM     24  C   UNL     1     -19.922  26.456 -21.468  1.00  0.00    -0.000 C 
BRANCH  24  25
ATOM     25  C   UNL     1     -18.704  25.804 -20.789  1.00  0.00    -0.003 C 
ATOM     26  C   UNL     1     -18.925  25.530 -19.300  1.00  0.00     0.004 C 
ENDBRANCH  24  25
ENDBRANCH  23  24
ENDBRANCH  22  23
ENDBRANCH  21  22
ENDBRANCH  20  21
ENDBRANCH  19  20
ENDBRANCH  18  19
ENDBRANCH  17  18
ENDBRANCH  16  17
ENDBRANCH  15  16
ENDBRANCH   1  15
TORSDOF 22
ENDMDL
