MODEL 1
REMARK VINA RESULT:     0.177      0.000      0.000
REMARK INTER + INTRA:           0.142
REMARK INTER:                   0.193
REMARK INTRA:                  -0.051
REMARK UNBOUND:                -0.051
REMARK SMILES CCc1cccc(O)c1
REMARK SMILES IDX 3 1 9 2 7 3 6 4 5 5 4 6 2 7 1 8 8 9
REMARK H PARENT 8 10
REMARK Flexibility Score: inf
ROOT
ATOM      1  C   UNL     1       7.507  41.552  24.432  1.00  0.00    -0.045 A 
ATOM      2  C   UNL     1       7.334  42.829  23.872  1.00  0.00     0.049 A 
ATOM      3  C   UNL     1       6.069  43.431  23.862  1.00  0.00     0.115 A 
ATOM      4  C   UNL     1       4.971  42.755  24.405  1.00  0.00     0.046 A 
ATOM      5  C   UNL     1       5.134  41.479  24.952  1.00  0.00     0.004 A 
ATOM      6  C   UNL     1       6.396  40.875  24.961  1.00  0.00     0.004 A 
ENDROOT
BRANCH   1   7
ATOM      7  C   UNL     1       8.860  40.891  24.413  1.00  0.00     0.032 C 
ATOM      8  C   UNL     1       9.629  41.274  23.153  1.00  0.00     0.009 C 
ENDBRANCH   1   7
BRANCH   3   9
ATOM      9  O   UNL     1       5.890  44.700  23.314  1.00  0.00    -0.508 OA
ATOM     10  H   UNL     1       6.313  45.521  23.731  1.00  0.00     0.293 HD
ENDBRANCH   3   9
TORSDOF 2
ENDMDL
MODEL 2
REMARK VINA RESULT:     1.415     18.395     19.821
REMARK INTER + INTRA:           1.488
REMARK INTER:                   1.540
REMARK INTRA:                  -0.052
REMARK UNBOUND:                -0.051
REMARK SMILES CCc1cccc(O)c1
REMARK SMILES IDX 3 1 9 2 7 3 6 4 5 5 4 6 2 7 1 8 8 9
REMARK H PARENT 8 10
REMARK Flexibility Score: inf
ROOT
ATOM      1  C   UNL     1      -3.094  59.245  24.295  1.00  0.00    -0.045 A 
ATOM      2  C   UNL     1      -3.096  58.220  23.332  1.00  0.00     0.049 A 
ATOM      3  C   UNL     1      -3.099  58.534  21.966  1.00  0.00     0.115 A 
ATOM      4  C   UNL     1      -3.106  59.873  21.560  1.00  0.00     0.046 A 
ATOM      5  C   UNL     1      -3.116  60.896  22.512  1.00  0.00     0.004 A 
ATOM      6  C   UNL     1      -3.116  60.585  23.876  1.00  0.00     0.004 A 
ENDROOT
BRANCH   1   7
ATOM      7  C   UNL     1      -3.125  58.907  25.762  1.00  0.00     0.032 C 
ATOM      8  C   UNL     1      -3.124  57.396  25.968  1.00  0.00     0.009 C 
ENDBRANCH   1   7
BRANCH   3   9
ATOM      9  O   UNL     1      -3.095  57.526  21.006  1.00  0.00    -0.508 OA
ATOM     10  H   UNL     1      -3.942  57.256  20.519  1.00  0.00     0.293 HD
ENDBRANCH   3   9
TORSDOF 2
ENDMDL
MODEL 3
REMARK VINA RESULT:     2.198      1.567      2.249
REMARK INTER + INTRA:           2.340
REMARK INTER:                   2.410
REMARK INTRA:                  -0.070
REMARK UNBOUND:                -0.051
REMARK SMILES CCc1cccc(O)c1
REMARK SMILES IDX 3 1 9 2 7 3 6 4 5 5 4 6 2 7 1 8 8 9
REMARK H PARENT 8 10
REMARK Flexibility Score: inf
ROOT
ATOM      1  C   UNL     1       7.511  41.596  24.303  1.00  0.00    -0.045 A 
ATOM      2  C   UNL     1       6.375  40.913  24.773  1.00  0.00     0.049 A 
ATOM      3  C   UNL     1       5.125  41.547  24.785  1.00  0.00     0.115 A 
ATOM      4  C   UNL     1       5.009  42.867  24.336  1.00  0.00     0.046 A 
ATOM      5  C   UNL     1       6.137  43.554  23.880  1.00  0.00     0.004 A 
ATOM      6  C   UNL     1       7.385  42.925  23.868  1.00  0.00     0.004 A 
ENDROOT
BRANCH   1   7
ATOM      7  C   UNL     1       8.860  40.926  24.321  1.00  0.00     0.032 C 
ATOM      8  C   UNL     1       9.682  41.339  23.104  1.00  0.00     0.009 C 
ENDBRANCH   1   7
BRANCH   3   9
ATOM      9  O   UNL     1       3.994  40.876  25.244  1.00  0.00    -0.508 OA
ATOM     10  H   UNL     1       3.612  40.081  24.746  1.00  0.00     0.293 HD
ENDBRANCH   3   9
TORSDOF 2
ENDMDL
MODEL 4
REMARK VINA RESULT:     2.672     19.034     20.220
REMARK INTER + INTRA:           2.855
REMARK INTER:                   2.928
REMARK INTRA:                  -0.073
REMARK UNBOUND:                -0.051
REMARK SMILES CCc1cccc(O)c1
REMARK SMILES IDX 3 1 9 2 7 3 6 4 5 5 4 6 2 7 1 8 8 9
REMARK H PARENT 8 10
REMARK Flexibility Score: inf
ROOT
ATOM      1  C   UNL     1      -3.121  59.734  23.008  1.00  0.00    -0.045 A 
ATOM      2  C   UNL     1      -3.110  58.468  23.619  1.00  0.00     0.049 A 
ATOM      3  C   UNL     1      -3.114  58.358  25.016  1.00  0.00     0.115 A 
ATOM      4  C   UNL     1      -3.122  59.513  25.806  1.00  0.00     0.046 A 
ATOM      5  C   UNL     1      -3.120  60.774  25.204  1.00  0.00     0.004 A 
ATOM      6  C   UNL     1      -3.115  60.887  23.811  1.00  0.00     0.004 A 
ENDROOT
BRANCH   1   7
ATOM      7  C   UNL     1      -3.084  59.853  21.508  1.00  0.00     0.032 C 
ATOM      8  C   UNL     1      -2.316  61.101  21.085  1.00  0.00     0.009 C 
ENDBRANCH   1   7
BRANCH   3   9
ATOM      9  O   UNL     1      -3.108  57.107  25.630  1.00  0.00    -0.508 OA
ATOM     10  H   UNL     1      -2.457  56.383  25.350  1.00  0.00     0.293 HD
ENDBRANCH   3   9
TORSDOF 2
ENDMDL
