MODEL 1
REMARK VINA RESULT:    -3.587      0.000      0.000
REMARK INTER + INTRA:          -6.026
REMARK INTER:                  -5.474
REMARK INTRA:                  -0.552
REMARK UNBOUND:                -0.552
REMARK SMILES CC1=CCC[C@H](C)C(=O)C[C@H](C(C)C)C(=O)C1
REMARK SMILES IDX 8 1 9 2 6 3 7 4 5 5 4 6 3 7 2 8 1 9 10 11 11 12 15 13 16 14
REMARK SMILES IDX 17 15 12 17 13 18 14 19
REMARK H PARENT
REMARK Flexibility Score: 70.00
ROOT
ATOM      1  C   UNL     1     134.606 182.812 192.319  1.00  0.00     0.136 C 
ATOM      2  O   UNL     1     134.284 181.949 193.125  1.00  0.00    -0.299 OA
ENDROOT
BRANCH   1   3
ATOM      3  C   UNL     1     133.641 183.932 191.991  1.00  0.00     0.053 C 
ATOM      4  C   UNL     1     132.244 183.349 191.760  1.00  0.00     0.016 C 
BRANCH   3   5
ATOM      5  C   UNL     1     133.592 185.012 193.098  1.00  0.00     0.015 C 
BRANCH   5   6
ATOM      6  C   UNL     1     134.390 186.281 192.764  1.00  0.00     0.028 C 
BRANCH   6   7
ATOM      7  C   UNL     1     135.757 186.256 193.403  1.00  0.00    -0.028 C 
ATOM      8  C   UNL     1     136.926 186.159 192.730  1.00  0.00    -0.070 CG0
ATOM      9  C   UNL     1     138.205 186.143 193.528  1.00  0.00     0.039 C 
ATOM     10  G   UNL     1     137.000 186.057 191.218  1.00  0.00     0.000 G0
ENDBRANCH   6   7
ENDBRANCH   5   6
ENDBRANCH   3   5
ENDBRANCH   1   3
BRANCH   1  11
ATOM     11  C   UNL     1     135.939 182.707 191.620  1.00  0.00     0.087 C 
BRANCH  11  12
ATOM     12  C   UNL     1     136.097 183.678 190.419  1.00  0.00     0.066 C 
BRANCH  12  13
ATOM     13  C   UNL     1     137.240 184.656 190.674  1.00  0.00     0.140 C 
ATOM     14  O   UNL     1     138.376 184.325 190.370  1.00  0.00    -0.299 OA
BRANCH  13  15
ATOM     15  C   UNL     1     137.025 186.063 191.199  1.00  0.00     0.106 CG0
ATOM     16  G   UNL     1     136.931 186.160 192.711  1.00  0.00     0.000 G0
ENDBRANCH  13  15
ENDBRANCH  12  13
BRANCH  12  17
ATOM     17  C   UNL     1     136.337 182.900 189.084  1.00  0.00    -0.006 C 
ATOM     18  C   UNL     1     135.125 183.006 188.141  1.00  0.00     0.008 C 
ATOM     19  C   UNL     1     136.648 181.412 189.325  1.00  0.00     0.008 C 
ENDBRANCH  12  17
ENDBRANCH  11  12
ENDBRANCH   1  11
TORSDOF 1
ENDMDL
MODEL 2
REMARK VINA RESULT:    -3.536      1.735      4.000
REMARK INTER + INTRA:          -5.949
REMARK INTER:                  -5.850
REMARK INTRA:                  -0.098
REMARK UNBOUND:                -0.552
REMARK SMILES CC1=CCC[C@H](C)C(=O)C[C@H](C(C)C)C(=O)C1
REMARK SMILES IDX 8 1 9 2 6 3 7 4 5 5 4 6 3 7 2 8 1 9 10 11 11 12 15 13 16 14
REMARK SMILES IDX 17 15 12 17 13 18 14 19
REMARK H PARENT
REMARK Flexibility Score: 70.00
ROOT
ATOM      1  C   UNL     1     137.504 184.589 190.359  1.00  0.00     0.136 C 
ATOM      2  O   UNL     1     138.511 183.939 190.113  1.00  0.00    -0.299 OA
ENDROOT
BRANCH   1   3
ATOM      3  C   UNL     1     137.589 185.788 191.281  1.00  0.00     0.053 C 
ATOM      4  C   UNL     1     138.652 186.758 190.758  1.00  0.00     0.016 C 
BRANCH   3   5
ATOM      5  C   UNL     1     136.231 186.514 191.428  1.00  0.00     0.015 C 
BRANCH   5   6
ATOM      6  C   UNL     1     135.478 186.171 192.722  1.00  0.00     0.028 C 
BRANCH   6   7
ATOM      7  C   UNL     1     134.004 185.972 192.465  1.00  0.00    -0.028 C 
ATOM      8  C   UNL     1     133.404 184.776 192.274  1.00  0.00    -0.070 CG0
ATOM      9  C   UNL     1     131.918 184.758 192.024  1.00  0.00     0.039 C 
ATOM     10  G   UNL     1     134.163 183.461 192.292  1.00  0.00     0.000 G0
ENDBRANCH   6   7
ENDBRANCH   5   6
ENDBRANCH   3   5
ENDBRANCH   1   3
BRANCH   1  11
ATOM     11  C   UNL     1     136.181 184.144 189.785  1.00  0.00     0.087 C 
BRANCH  11  12
ATOM     12  C   UNL     1     135.740 182.729 190.247  1.00  0.00     0.066 C 
BRANCH  12  13
ATOM     13  C   UNL     1     134.387 182.798 190.948  1.00  0.00     0.140 C 
ATOM     14  O   UNL     1     133.427 182.244 190.430  1.00  0.00    -0.299 OA
BRANCH  13  15
ATOM     15  C   UNL     1     134.189 183.437 192.309  1.00  0.00     0.106 CG0
ATOM     16  G   UNL     1     133.418 184.744 192.280  1.00  0.00     0.000 G0
ENDBRANCH  13  15
ENDBRANCH  12  13
BRANCH  12  17
ATOM     17  C   UNL     1     135.679 181.730 189.046  1.00  0.00    -0.006 C 
ATOM     18  C   UNL     1     137.002 180.961 188.881  1.00  0.00     0.008 C 
ATOM     19  C   UNL     1     135.347 182.434 187.718  1.00  0.00     0.008 C 
ENDBRANCH  12  17
ENDBRANCH  11  12
ENDBRANCH   1  11
TORSDOF 1
ENDMDL
MODEL 3
REMARK VINA RESULT:    -3.429      1.737      3.777
REMARK INTER + INTRA:          -5.784
REMARK INTER:                  -5.440
REMARK INTRA:                  -0.344
REMARK UNBOUND:                -0.552
REMARK SMILES CC1=CCC[C@H](C)C(=O)C[C@H](C(C)C)C(=O)C1
REMARK SMILES IDX 8 1 9 2 6 3 7 4 5 5 4 6 3 7 2 8 1 9 10 11 11 12 15 13 16 14
REMARK SMILES IDX 17 15 12 17 13 18 14 19
REMARK H PARENT
REMARK Flexibility Score: 70.00
ROOT
ATOM      1  C   UNL     1     137.234 184.389 190.378  1.00  0.00     0.136 C 
ATOM      2  O   UNL     1     137.639 183.418 189.754  1.00  0.00    -0.299 OA
ENDROOT
BRANCH   1   3
ATOM      3  C   UNL     1     138.183 185.159 191.273  1.00  0.00     0.053 C 
ATOM      4  C   UNL     1     138.208 186.628 190.843  1.00  0.00     0.016 C 
BRANCH   3   5
ATOM      5  C   UNL     1     137.805 185.047 192.769  1.00  0.00     0.015 C 
BRANCH   5   6
ATOM      6  C   UNL     1     137.155 186.316 193.343  1.00  0.00     0.028 C 
BRANCH   6   7
ATOM      7  C   UNL     1     136.066 185.976 194.331  1.00  0.00    -0.028 C 
ATOM      8  C   UNL     1     134.754 185.858 194.029  1.00  0.00    -0.070 CG0
ATOM      9  C   UNL     1     133.797 185.517 195.143  1.00  0.00     0.039 C 
ATOM     10  G   UNL     1     134.209 186.064 192.627  1.00  0.00     0.000 G0
ENDBRANCH   6   7
ENDBRANCH   5   6
ENDBRANCH   3   5
ENDBRANCH   1   3
BRANCH   1  11
ATOM     11  C   UNL     1     135.774 184.763 190.292  1.00  0.00     0.087 C 
BRANCH  11  12
ATOM     12  C   UNL     1     134.848 183.890 191.181  1.00  0.00     0.066 C 
BRANCH  12  13
ATOM     13  C   UNL     1     133.825 184.764 191.901  1.00  0.00     0.140 C 
ATOM     14  O   UNL     1     132.668 184.375 191.976  1.00  0.00    -0.299 OA
BRANCH  13  15
ATOM     15  C   UNL     1     134.190 186.051 192.615  1.00  0.00     0.106 CG0
ATOM     16  G   UNL     1     134.733 185.856 194.019  1.00  0.00     0.000 G0
ENDBRANCH  13  15
ENDBRANCH  12  13
BRANCH  12  17
ATOM     17  C   UNL     1     134.124 182.788 190.340  1.00  0.00    -0.006 C 
ATOM     18  C   UNL     1     134.781 181.409 190.529  1.00  0.00     0.008 C 
ATOM     19  C   UNL     1     134.099 183.124 188.838  1.00  0.00     0.008 C 
ENDBRANCH  12  17
ENDBRANCH  11  12
ENDBRANCH   1  11
TORSDOF 1
ENDMDL
MODEL 4
REMARK VINA RESULT:    -3.354      1.709      3.771
REMARK INTER + INTRA:          -5.670
REMARK INTER:                  -5.384
REMARK INTRA:                  -0.287
REMARK UNBOUND:                -0.552
REMARK SMILES CC1=CCC[C@H](C)C(=O)C[C@H](C(C)C)C(=O)C1
REMARK SMILES IDX 8 1 9 2 6 3 7 4 5 5 4 6 3 7 2 8 1 9 10 11 11 12 15 13 16 14
REMARK SMILES IDX 17 15 12 17 13 18 14 19
REMARK H PARENT
REMARK Flexibility Score: 70.00
ROOT
ATOM      1  C   UNL     1     137.254 184.788 190.609  1.00  0.00     0.136 C 
ATOM      2  O   UNL     1     138.016 183.856 190.392  1.00  0.00    -0.299 OA
ENDROOT
BRANCH   1   3
ATOM      3  C   UNL     1     137.737 185.987 191.398  1.00  0.00     0.053 C 
ATOM      4  C   UNL     1     136.841 187.191 191.092  1.00  0.00     0.016 C 
BRANCH   3   5
ATOM      5  C   UNL     1     137.765 185.718 192.921  1.00  0.00     0.015 C 
BRANCH   5   6
ATOM      6  C   UNL     1     136.379 185.738 193.583  1.00  0.00     0.028 C 
BRANCH   6   7
ATOM      7  C   UNL     1     135.999 184.372 194.103  1.00  0.00    -0.028 C 
ATOM      8  C   UNL     1     134.991 183.612 193.621  1.00  0.00    -0.070 CG0
ATOM      9  C   UNL     1     134.744 182.270 194.262  1.00  0.00     0.039 C 
ATOM     10  G   UNL     1     134.098 184.056 192.476  1.00  0.00     0.000 G0
ENDBRANCH   6   7
ENDBRANCH   5   6
ENDBRANCH   3   5
ENDBRANCH   1   3
BRANCH   1  11
ATOM     11  C   UNL     1     135.824 184.696 190.135  1.00  0.00     0.087 C 
BRANCH  11  12
ATOM     12  C   UNL     1     135.230 183.263 190.206  1.00  0.00     0.066 C 
BRANCH  12  13
ATOM     13  C   UNL     1     134.114 183.202 191.245  1.00  0.00     0.140 C 
ATOM     14  O   UNL     1     133.238 182.359 191.118  1.00  0.00    -0.299 OA
BRANCH  13  15
ATOM     15  C   UNL     1     134.088 184.074 192.486  1.00  0.00     0.106 CG0
ATOM     16  G   UNL     1     134.989 183.593 193.609  1.00  0.00     0.000 G0
ENDBRANCH  13  15
ENDBRANCH  12  13
BRANCH  12  17
ATOM     17  C   UNL     1     134.699 182.796 188.812  1.00  0.00    -0.006 C 
ATOM     18  C   UNL     1     135.770 182.013 188.032  1.00  0.00     0.008 C 
ATOM     19  C   UNL     1     134.219 183.975 187.946  1.00  0.00     0.008 C 
ENDBRANCH  12  17
ENDBRANCH  11  12
ENDBRANCH   1  11
TORSDOF 1
ENDMDL
MODEL 5
REMARK VINA RESULT:    -3.041      2.199      4.993
REMARK INTER + INTRA:          -5.193
REMARK INTER:                  -4.756
REMARK INTRA:                  -0.438
REMARK UNBOUND:                -0.552
REMARK SMILES CC1=CCC[C@H](C)C(=O)C[C@H](C(C)C)C(=O)C1
REMARK SMILES IDX 8 1 9 2 6 3 7 4 5 5 4 6 3 7 2 8 1 9 10 11 11 12 15 13 16 14
REMARK SMILES IDX 17 15 12 17 13 18 14 19
REMARK H PARENT
REMARK Flexibility Score: 70.00
ROOT
ATOM      1  C   UNL     1     135.961 181.880 190.610  1.00  0.00     0.136 C 
ATOM      2  O   UNL     1     135.691 180.696 190.456  1.00  0.00    -0.299 OA
ENDROOT
BRANCH   1   3
ATOM      3  C   UNL     1     136.425 182.707 189.429  1.00  0.00     0.053 C 
ATOM      4  C   UNL     1     137.737 182.131 188.889  1.00  0.00     0.016 C 
BRANCH   3   5
ATOM      5  C   UNL     1     135.367 182.771 188.303  1.00  0.00     0.015 C 
BRANCH   5   6
ATOM      6  C   UNL     1     134.290 183.845 188.520  1.00  0.00     0.028 C 
BRANCH   6   7
ATOM      7  C   UNL     1     132.988 183.233 188.978  1.00  0.00    -0.028 C 
ATOM      8  C   UNL     1     132.364 183.518 190.142  1.00  0.00    -0.070 CG0
ATOM      9  C   UNL     1     131.068 182.810 190.446  1.00  0.00     0.039 C 
ATOM     10  G   UNL     1     132.916 184.507 191.153  1.00  0.00     0.000 G0
ENDBRANCH   6   7
ENDBRANCH   5   6
ENDBRANCH   3   5
ENDBRANCH   1   3
BRANCH   1  11
ATOM     11  C   UNL     1     135.884 182.478 191.994  1.00  0.00     0.087 C 
BRANCH  11  12
ATOM     12  C   UNL     1     135.353 183.937 192.018  1.00  0.00     0.066 C 
BRANCH  12  13
ATOM     13  C   UNL     1     133.837 183.948 192.194  1.00  0.00     0.140 C 
ATOM     14  O   UNL     1     133.365 183.547 193.248  1.00  0.00    -0.299 OA
BRANCH  13  15
ATOM     15  C   UNL     1     132.887 184.522 191.161  1.00  0.00     0.106 CG0
ATOM     16  G   UNL     1     132.372 183.511 190.153  1.00  0.00     0.000 G0
ENDBRANCH  13  15
ENDBRANCH  12  13
BRANCH  12  17
ATOM     17  C   UNL     1     136.036 184.774 193.149  1.00  0.00    -0.006 C 
ATOM     18  C   UNL     1     136.064 186.274 192.804  1.00  0.00     0.008 C 
ATOM     19  C   UNL     1     137.474 184.304 193.434  1.00  0.00     0.008 C 
ENDBRANCH  12  17
ENDBRANCH  11  12
ENDBRANCH   1  11
TORSDOF 1
ENDMDL
MODEL 6
REMARK VINA RESULT:    -2.978      2.535      4.744
REMARK INTER + INTRA:          -5.097
REMARK INTER:                  -5.354
REMARK INTRA:                   0.257
REMARK UNBOUND:                -0.552
REMARK SMILES CC1=CCC[C@H](C)C(=O)C[C@H](C(C)C)C(=O)C1
REMARK SMILES IDX 8 1 9 2 6 3 7 4 5 5 4 6 3 7 2 8 1 9 10 11 11 12 15 13 16 14
REMARK SMILES IDX 17 15 12 17 13 18 14 19
REMARK H PARENT
REMARK Flexibility Score: 70.00
ROOT
ATOM      1  C   UNL     1     134.560 182.787 187.748  1.00  0.00     0.136 C 
ATOM      2  O   UNL     1     134.955 182.082 186.830  1.00  0.00    -0.299 OA
ENDROOT
BRANCH   1   3
ATOM      3  C   UNL     1     133.279 183.580 187.591  1.00  0.00     0.053 C 
ATOM      4  C   UNL     1     132.928 183.691 186.105  1.00  0.00     0.016 C 
BRANCH   3   5
ATOM      5  C   UNL     1     132.099 182.955 188.373  1.00  0.00     0.015 C 
BRANCH   5   6
ATOM      6  C   UNL     1     131.316 183.962 189.228  1.00  0.00     0.028 C 
BRANCH   6   7
ATOM      7  C   UNL     1     131.160 183.474 190.648  1.00  0.00    -0.028 C 
ATOM      8  C   UNL     1     131.987 183.784 191.670  1.00  0.00    -0.070 CG0
ATOM      9  C   UNL     1     131.686 183.204 193.029  1.00  0.00     0.039 C 
ATOM     10  G   UNL     1     133.202 184.679 191.505  1.00  0.00     0.000 G0
ENDBRANCH   6   7
ENDBRANCH   5   6
ENDBRANCH   3   5
ENDBRANCH   1   3
BRANCH   1  11
ATOM     11  C   UNL     1     135.393 182.900 189.001  1.00  0.00     0.087 C 
BRANCH  11  12
ATOM     12  C   UNL     1     135.187 184.230 189.775  1.00  0.00     0.066 C 
BRANCH  12  13
ATOM     13  C   UNL     1     134.465 183.971 191.094  1.00  0.00     0.140 C 
ATOM     14  O   UNL     1     134.969 183.201 191.899  1.00  0.00    -0.299 OA
BRANCH  13  15
ATOM     15  C   UNL     1     133.196 184.695 191.501  1.00  0.00     0.106 CG0
ATOM     16  G   UNL     1     131.991 183.792 191.687  1.00  0.00     0.000 G0
ENDBRANCH  13  15
ENDBRANCH  12  13
BRANCH  12  17
ATOM     17  C   UNL     1     136.547 184.956 190.036  1.00  0.00    -0.006 C 
ATOM     18  C   UNL     1     137.633 183.971 190.504  1.00  0.00     0.008 C 
ATOM     19  C   UNL     1     136.416 186.081 191.078  1.00  0.00     0.008 C 
ENDBRANCH  12  17
ENDBRANCH  11  12
ENDBRANCH   1  11
TORSDOF 1
ENDMDL
MODEL 7
REMARK VINA RESULT:    -2.964      1.888      4.024
REMARK INTER + INTRA:          -5.075
REMARK INTER:                  -4.766
REMARK INTRA:                  -0.309
REMARK UNBOUND:                -0.552
REMARK SMILES CC1=CCC[C@H](C)C(=O)C[C@H](C(C)C)C(=O)C1
REMARK SMILES IDX 8 1 9 2 6 3 7 4 5 5 4 6 3 7 2 8 1 9 10 11 11 12 15 13 16 14
REMARK SMILES IDX 17 15 12 17 13 18 14 19
REMARK H PARENT
REMARK Flexibility Score: 70.00
ROOT
ATOM      1  C   UNL     1     135.498 184.158 189.899  1.00  0.00     0.136 C 
ATOM      2  O   UNL     1     135.301 184.293 188.700  1.00  0.00    -0.299 OA
ENDROOT
BRANCH   1   3
ATOM      3  C   UNL     1     136.855 183.703 190.393  1.00  0.00     0.053 C 
ATOM      4  C   UNL     1     137.474 182.745 189.371  1.00  0.00     0.016 C 
BRANCH   3   5
ATOM      5  C   UNL     1     137.813 184.888 190.661  1.00  0.00     0.015 C 
BRANCH   5   6
ATOM      6  C   UNL     1     137.685 185.486 192.070  1.00  0.00     0.028 C 
BRANCH   6   7
ATOM      7  C   UNL     1     137.728 184.410 193.129  1.00  0.00    -0.028 C 
ATOM      8  C   UNL     1     136.673 184.012 193.874  1.00  0.00    -0.070 CG0
ATOM      9  C   UNL     1     136.894 182.924 194.894  1.00  0.00     0.039 C 
ATOM     10  G   UNL     1     135.289 184.619 193.733  1.00  0.00     0.000 G0
ENDBRANCH   6   7
ENDBRANCH   5   6
ENDBRANCH   3   5
ENDBRANCH   1   3
BRANCH   1  11
ATOM     11  C   UNL     1     134.359 184.389 190.863  1.00  0.00     0.087 C 
BRANCH  11  12
ATOM     12  C   UNL     1     134.088 183.191 191.813  1.00  0.00     0.066 C 
BRANCH  12  13
ATOM     13  C   UNL     1     134.222 183.628 193.269  1.00  0.00     0.140 C 
ATOM     14  O   UNL     1     133.501 183.107 194.108  1.00  0.00    -0.299 OA
BRANCH  13  15
ATOM     15  C   UNL     1     135.275 184.609 193.747  1.00  0.00     0.106 CG0
ATOM     16  G   UNL     1     136.667 184.018 193.883  1.00  0.00     0.000 G0
ENDBRANCH  13  15
ENDBRANCH  12  13
BRANCH  12  17
ATOM     17  C   UNL     1     132.675 182.572 191.561  1.00  0.00    -0.006 C 
ATOM     18  C   UNL     1     132.738 181.406 190.558  1.00  0.00     0.008 C 
ATOM     19  C   UNL     1     131.665 183.614 191.046  1.00  0.00     0.008 C 
ENDBRANCH  12  17
ENDBRANCH  11  12
ENDBRANCH   1  11
TORSDOF 1
ENDMDL
MODEL 8
REMARK VINA RESULT:    -2.914      2.151      4.872
REMARK INTER + INTRA:          -5.000
REMARK INTER:                  -5.332
REMARK INTRA:                   0.333
REMARK UNBOUND:                -0.552
REMARK SMILES CC1=CCC[C@H](C)C(=O)C[C@H](C(C)C)C(=O)C1
REMARK SMILES IDX 8 1 9 2 6 3 7 4 5 5 4 6 3 7 2 8 1 9 10 11 11 12 15 13 16 14
REMARK SMILES IDX 17 15 12 17 13 18 14 19
REMARK H PARENT
REMARK Flexibility Score: 70.00
ROOT
ATOM      1  C   UNL     1     135.738 183.770 189.130  1.00  0.00     0.136 C 
ATOM      2  O   UNL     1     134.821 184.354 188.569  1.00  0.00    -0.299 OA
ENDROOT
BRANCH   1   3
ATOM      3  C   UNL     1     136.164 182.398 188.649  1.00  0.00     0.053 C 
ATOM      4  C   UNL     1     137.615 182.142 189.062  1.00  0.00     0.016 C 
BRANCH   3   5
ATOM      5  C   UNL     1     135.249 181.274 189.189  1.00  0.00     0.015 C 
BRANCH   5   6
ATOM      6  C   UNL     1     135.494 180.926 190.665  1.00  0.00     0.028 C 
BRANCH   6   7
ATOM      7  C   UNL     1     134.243 181.113 191.489  1.00  0.00    -0.028 C 
ATOM      8  C   UNL     1     134.041 182.111 192.377  1.00  0.00    -0.070 CG0
ATOM      9  C   UNL     1     132.730 182.146 193.121  1.00  0.00     0.039 C 
ATOM     10  G   UNL     1     135.076 183.185 192.660  1.00  0.00     0.000 G0
ENDBRANCH   6   7
ENDBRANCH   5   6
ENDBRANCH   3   5
ENDBRANCH   1   3
BRANCH   1  11
ATOM     11  C   UNL     1     136.388 184.404 190.336  1.00  0.00     0.087 C 
BRANCH  11  12
ATOM     12  C   UNL     1     135.451 185.357 191.125  1.00  0.00     0.066 C 
BRANCH  12  13
ATOM     13  C   UNL     1     134.673 184.580 192.183  1.00  0.00     0.140 C 
ATOM     14  O   UNL     1     133.633 185.056 192.617  1.00  0.00    -0.299 OA
BRANCH  13  15
ATOM     15  C   UNL     1     135.073 183.196 192.657  1.00  0.00     0.106 CG0
ATOM     16  G   UNL     1     134.040 182.118 192.383  1.00  0.00     0.000 G0
ENDBRANCH  13  15
ENDBRANCH  12  13
BRANCH  12  17
ATOM     17  C   UNL     1     136.252 186.524 191.790  1.00  0.00    -0.006 C 
ATOM     18  C   UNL     1     137.415 186.993 190.897  1.00  0.00     0.008 C 
ATOM     19  C   UNL     1     136.813 186.133 193.169  1.00  0.00     0.008 C 
ENDBRANCH  12  17
ENDBRANCH  11  12
ENDBRANCH   1  11
TORSDOF 1
ENDMDL
MODEL 9
REMARK VINA RESULT:    -2.860      2.294      5.375
REMARK INTER + INTRA:          -4.916
REMARK INTER:                  -4.839
REMARK INTRA:                  -0.077
REMARK UNBOUND:                -0.552
REMARK SMILES CC1=CCC[C@H](C)C(=O)C[C@H](C(C)C)C(=O)C1
REMARK SMILES IDX 8 1 9 2 6 3 7 4 5 5 4 6 3 7 2 8 1 9 10 11 11 12 15 13 16 14
REMARK SMILES IDX 17 15 12 17 13 18 14 19
REMARK H PARENT
REMARK Flexibility Score: 70.00
ROOT
ATOM      1  C   UNL     1     136.826 185.831 192.612  1.00  0.00     0.136 C 
ATOM      2  O   UNL     1     137.291 186.716 193.317  1.00  0.00    -0.299 OA
ENDROOT
BRANCH   1   3
ATOM      3  C   UNL     1     137.065 185.855 191.117  1.00  0.00     0.053 C 
ATOM      4  C   UNL     1     138.467 186.402 190.835  1.00  0.00     0.016 C 
BRANCH   3   5
ATOM      5  C   UNL     1     136.897 184.460 190.471  1.00  0.00     0.015 C 
BRANCH   5   6
ATOM      6  C   UNL     1     135.639 184.324 189.601  1.00  0.00     0.028 C 
BRANCH   6   7
ATOM      7  C   UNL     1     134.752 183.204 190.088  1.00  0.00    -0.028 C 
ATOM      8  C   UNL     1     133.734 183.346 190.965  1.00  0.00    -0.070 CG0
ATOM      9  C   UNL     1     132.949 182.117 191.348  1.00  0.00     0.039 C 
ATOM     10  G   UNL     1     133.357 184.681 191.581  1.00  0.00     0.000 G0
ENDBRANCH   6   7
ENDBRANCH   5   6
ENDBRANCH   3   5
ENDBRANCH   1   3
BRANCH   1  11
ATOM     11  C   UNL     1     135.967 184.762 193.243  1.00  0.00     0.087 C 
BRANCH  11  12
ATOM     12  C   UNL     1     134.643 185.297 193.850  1.00  0.00     0.066 C 
BRANCH  12  13
ATOM     13  C   UNL     1     133.445 184.734 193.090  1.00  0.00     0.140 C 
ATOM     14  O   UNL     1     132.464 184.371 193.724  1.00  0.00    -0.299 OA
BRANCH  13  15
ATOM     15  C   UNL     1     133.369 184.690 191.576  1.00  0.00     0.106 CG0
ATOM     16  G   UNL     1     133.734 183.347 190.970  1.00  0.00     0.000 G0
ENDBRANCH  13  15
ENDBRANCH  12  13
BRANCH  12  17
ATOM     17  C   UNL     1     134.531 184.952 195.371  1.00  0.00    -0.006 C 
ATOM     18  C   UNL     1     134.864 186.169 196.253  1.00  0.00     0.008 C 
ATOM     19  C   UNL     1     135.449 183.783 195.772  1.00  0.00     0.008 C 
ENDBRANCH  12  17
ENDBRANCH  11  12
ENDBRANCH   1  11
TORSDOF 1
ENDMDL
