MODEL 1
REMARK VINA RESULT:    -4.510      0.000      0.000
REMARK INTER + INTRA:         -12.726
REMARK INTER:                  -9.784
REMARK INTRA:                  -2.942
REMARK UNBOUND:                -2.942
REMARK SMILES CCCCCCCCCCCCCCCCCCCCCC(=O)[O-]
REMARK SMILES IDX 12 1 11 2 10 3 9 4 8 5 7 6 6 7 5 8 4 9 3 10 2 11 1 12 13 13
REMARK SMILES IDX 14 14 15 15 16 16 17 17 18 18 19 19 20 20 21 21 22 22 23 23
REMARK SMILES IDX 24 24
REMARK H PARENT
REMARK Flexibility Score: inf
ROOT
ATOM      1  C   UNL     1      45.976   3.853  20.971  1.00  0.00     0.000 C 
ENDROOT
BRANCH   1   2
ATOM      2  C   UNL     1      46.508   2.624  20.218  1.00  0.00     0.000 C 
BRANCH   2   3
ATOM      3  C   UNL     1      46.839   1.485  21.194  1.00  0.00     0.000 C 
BRANCH   3   4
ATOM      4  C   UNL     1      48.224   0.864  20.945  1.00  0.00    -0.000 C 
BRANCH   4   5
ATOM      5  C   UNL     1      48.470  -0.490  21.642  1.00  0.00    -0.000 C 
BRANCH   5   6
ATOM      6  C   UNL     1      49.505  -0.462  22.781  1.00  0.00    -0.000 C 
BRANCH   6   7
ATOM      7  C   UNL     1      50.065   0.934  23.115  1.00  0.00    -0.000 C 
BRANCH   7   8
ATOM      8  C   UNL     1      51.577   1.080  22.834  1.00  0.00    -0.000 C 
BRANCH   8   9
ATOM      9  C   UNL     1      51.906   2.340  22.021  1.00  0.00    -0.000 C 
BRANCH   9  10
ATOM     10  C   UNL     1      52.128   1.998  20.540  1.00  0.00    -0.000 C 
BRANCH  10  11
ATOM     11  C   UNL     1      51.227   2.818  19.604  1.00  0.00    -0.003 C 
ATOM     12  C   UNL     1      51.978   3.945  18.896  1.00  0.00     0.004 C 
ENDBRANCH  10  11
ENDBRANCH   9  10
ENDBRANCH   8   9
ENDBRANCH   7   8
ENDBRANCH   6   7
ENDBRANCH   5   6
ENDBRANCH   4   5
ENDBRANCH   3   4
ENDBRANCH   2   3
ENDBRANCH   1   2
BRANCH   1  13
ATOM     13  C   UNL     1      46.448   3.913  22.434  1.00  0.00     0.000 C 
BRANCH  13  14
ATOM     14  C   UNL     1      47.558   4.941  22.717  1.00  0.00     0.000 C 
BRANCH  14  15
ATOM     15  C   UNL     1      48.933   4.498  22.196  1.00  0.00     0.000 C 
BRANCH  15  16
ATOM     16  C   UNL     1      49.591   5.606  21.366  1.00  0.00     0.000 C 
BRANCH  16  17
ATOM     17  C   UNL     1      48.623   6.776  21.143  1.00  0.00     0.000 C 
BRANCH  17  18
ATOM     18  C   UNL     1      49.298   8.001  20.502  1.00  0.00     0.000 C 
BRANCH  18  19
ATOM     19  C   UNL     1      50.793   7.824  20.177  1.00  0.00     0.000 C 
BRANCH  19  20
ATOM     20  C   UNL     1      51.069   7.721  18.667  1.00  0.00     0.006 C 
BRANCH  20  21
ATOM     21  C   UNL     1      49.958   8.370  17.831  1.00  0.00     0.053 C 
BRANCH  21  22
ATOM     22  C   UNL     1      50.054   7.983  16.386  1.00  0.00     0.041 C 
ATOM     23  O   UNL     1      49.527   8.707  15.501  1.00  0.00    -0.550 OA
ATOM     24  O   UNL     1      50.759   6.846  16.014  1.00  0.00    -0.550 OA
ENDBRANCH  21  22
ENDBRANCH  20  21
ENDBRANCH  19  20
ENDBRANCH  18  19
ENDBRANCH  17  18
ENDBRANCH  16  17
ENDBRANCH  15  16
ENDBRANCH  14  15
ENDBRANCH  13  14
ENDBRANCH   1  13
TORSDOF 20
ENDMDL
MODEL 2
REMARK VINA RESULT:    -4.352      3.365      6.567
REMARK INTER + INTRA:         -12.384
REMARK INTER:                  -8.725
REMARK INTRA:                  -3.659
REMARK UNBOUND:                -2.942
REMARK SMILES CCCCCCCCCCCCCCCCCCCCCC(=O)[O-]
REMARK SMILES IDX 12 1 11 2 10 3 9 4 8 5 7 6 6 7 5 8 4 9 3 10 2 11 1 12 13 13
REMARK SMILES IDX 14 14 15 15 16 16 17 17 18 18 19 19 20 20 21 21 22 22 23 23
REMARK SMILES IDX 24 24
REMARK H PARENT
REMARK Flexibility Score: inf
ROOT
ATOM      1  C   UNL     1      50.387   6.861  24.559  1.00  0.00     0.000 C 
ENDROOT
BRANCH   1   2
ATOM      2  C   UNL     1      50.374   8.384  24.764  1.00  0.00     0.000 C 
BRANCH   2   3
ATOM      3  C   UNL     1      49.066   8.995  24.243  1.00  0.00     0.000 C 
BRANCH   3   4
ATOM      4  C   UNL     1      47.816   8.230  24.714  1.00  0.00    -0.000 C 
BRANCH   4   5
ATOM      5  C   UNL     1      46.942   7.645  23.585  1.00  0.00    -0.000 C 
BRANCH   5   6
ATOM      6  C   UNL     1      47.088   6.128  23.365  1.00  0.00    -0.000 C 
BRANCH   6   7
ATOM      7  C   UNL     1      47.329   5.704  21.904  1.00  0.00    -0.000 C 
BRANCH   7   8
ATOM      8  C   UNL     1      47.932   6.821  21.024  1.00  0.00    -0.000 C 
BRANCH   8   9
ATOM      9  C   UNL     1      49.466   6.791  21.000  1.00  0.00    -0.000 C 
BRANCH   9  10
ATOM     10  C   UNL     1      50.044   8.208  20.870  1.00  0.00    -0.000 C 
BRANCH  10  11
ATOM     11  C   UNL     1      50.681   8.461  19.495  1.00  0.00    -0.003 C 
ATOM     12  C   UNL     1      51.570   7.307  19.033  1.00  0.00     0.004 C 
ENDBRANCH  10  11
ENDBRANCH   9  10
ENDBRANCH   8   9
ENDBRANCH   7   8
ENDBRANCH   6   7
ENDBRANCH   5   6
ENDBRANCH   4   5
ENDBRANCH   3   4
ENDBRANCH   2   3
ENDBRANCH   1   2
BRANCH   1  13
ATOM     13  C   UNL     1      50.815   6.088  25.818  1.00  0.00     0.000 C 
BRANCH  13  14
ATOM     14  C   UNL     1      49.902   6.283  27.042  1.00  0.00     0.000 C 
BRANCH  14  15
ATOM     15  C   UNL     1      48.673   5.363  27.025  1.00  0.00     0.000 C 
BRANCH  15  16
ATOM     16  C   UNL     1      49.066   3.925  26.665  1.00  0.00     0.000 C 
BRANCH  16  17
ATOM     17  C   UNL     1      48.159   3.367  25.560  1.00  0.00     0.000 C 
BRANCH  17  18
ATOM     18  C   UNL     1      48.925   2.525  24.523  1.00  0.00     0.000 C 
BRANCH  18  19
ATOM     19  C   UNL     1      49.664   3.339  23.443  1.00  0.00     0.000 C 
BRANCH  19  20
ATOM     20  C   UNL     1      49.895   2.543  22.148  1.00  0.00     0.006 C 
BRANCH  20  21
ATOM     21  C   UNL     1      50.632   3.369  21.086  1.00  0.00     0.053 C 
BRANCH  21  22
ATOM     22  C   UNL     1      51.823   2.638  20.543  1.00  0.00     0.041 C 
ATOM     23  O   UNL     1      52.713   2.211  21.325  1.00  0.00    -0.550 OA
ATOM     24  O   UNL     1      51.931   2.395  19.180  1.00  0.00    -0.550 OA
ENDBRANCH  21  22
ENDBRANCH  20  21
ENDBRANCH  19  20
ENDBRANCH  18  19
ENDBRANCH  17  18
ENDBRANCH  16  17
ENDBRANCH  15  16
ENDBRANCH  14  15
ENDBRANCH  13  14
ENDBRANCH   1  13
TORSDOF 20
ENDMDL
MODEL 3
REMARK VINA RESULT:    -4.345      3.662      6.666
REMARK INTER + INTRA:         -12.368
REMARK INTER:                  -9.867
REMARK INTRA:                  -2.501
REMARK UNBOUND:                -2.942
REMARK SMILES CCCCCCCCCCCCCCCCCCCCCC(=O)[O-]
REMARK SMILES IDX 12 1 11 2 10 3 9 4 8 5 7 6 6 7 5 8 4 9 3 10 2 11 1 12 13 13
REMARK SMILES IDX 14 14 15 15 16 16 17 17 18 18 19 19 20 20 21 21 22 22 23 23
REMARK SMILES IDX 24 24
REMARK H PARENT
REMARK Flexibility Score: inf
ROOT
ATOM      1  C   UNL     1      46.847   1.707  19.863  1.00  0.00     0.000 C 
ENDROOT
BRANCH   1   2
ATOM      2  C   UNL     1      46.164   2.795  20.706  1.00  0.00     0.000 C 
BRANCH   2   3
ATOM      3  C   UNL     1      44.982   3.414  19.945  1.00  0.00     0.000 C 
BRANCH   3   4
ATOM      4  C   UNL     1      43.615   2.978  20.501  1.00  0.00    -0.000 C 
BRANCH   4   5
ATOM      5  C   UNL     1      43.674   1.993  21.687  1.00  0.00    -0.000 C 
BRANCH   5   6
ATOM      6  C   UNL     1      43.192   0.565  21.376  1.00  0.00    -0.000 C 
BRANCH   6   7
ATOM      7  C   UNL     1      43.311  -0.430  22.546  1.00  0.00    -0.000 C 
BRANCH   7   8
ATOM      8  C   UNL     1      43.299   0.242  23.937  1.00  0.00    -0.000 C 
BRANCH   8   9
ATOM      9  C   UNL     1      44.529  -0.123  24.779  1.00  0.00    -0.000 C 
BRANCH   9  10
ATOM     10  C   UNL     1      44.113  -0.687  26.146  1.00  0.00    -0.000 C 
BRANCH  10  11
ATOM     11  C   UNL     1      43.173   0.256  26.912  1.00  0.00    -0.003 C 
ATOM     12  C   UNL     1      43.880   1.510  27.425  1.00  0.00     0.004 C 
ENDBRANCH  10  11
ENDBRANCH   9  10
ENDBRANCH   8   9
ENDBRANCH   7   8
ENDBRANCH   6   7
ENDBRANCH   5   6
ENDBRANCH   4   5
ENDBRANCH   3   4
ENDBRANCH   2   3
ENDBRANCH   1   2
BRANCH   1  13
ATOM     13  C   UNL     1      47.680   0.726  20.708  1.00  0.00     0.000 C 
BRANCH  13  14
ATOM     14  C   UNL     1      47.098   0.410  22.097  1.00  0.00     0.000 C 
BRANCH  14  15
ATOM     15  C   UNL     1      47.811   1.160  23.231  1.00  0.00     0.000 C 
BRANCH  15  16
ATOM     16  C   UNL     1      49.320   0.889  23.207  1.00  0.00     0.000 C 
BRANCH  16  17
ATOM     17  C   UNL     1      50.112   2.148  23.584  1.00  0.00     0.000 C 
BRANCH  17  18
ATOM     18  C   UNL     1      51.050   2.626  22.461  1.00  0.00     0.000 C 
BRANCH  18  19
ATOM     19  C   UNL     1      50.345   3.284  21.260  1.00  0.00     0.000 C 
BRANCH  19  20
ATOM     20  C   UNL     1      50.760   2.670  19.912  1.00  0.00     0.006 C 
BRANCH  20  21
ATOM     21  C   UNL     1      52.000   3.355  19.323  1.00  0.00     0.053 C 
BRANCH  21  22
ATOM     22  C   UNL     1      53.248   2.570  19.593  1.00  0.00     0.041 C 
ATOM     23  O   UNL     1      54.266   3.143  20.061  1.00  0.00    -0.550 OA
ATOM     24  O   UNL     1      53.273   1.200  19.364  1.00  0.00    -0.550 OA
ENDBRANCH  21  22
ENDBRANCH  20  21
ENDBRANCH  19  20
ENDBRANCH  18  19
ENDBRANCH  17  18
ENDBRANCH  16  17
ENDBRANCH  15  16
ENDBRANCH  14  15
ENDBRANCH  13  14
ENDBRANCH   1  13
TORSDOF 20
ENDMDL
MODEL 4
REMARK VINA RESULT:    -4.341      4.345      7.529
REMARK INTER + INTRA:         -12.359
REMARK INTER:                  -8.564
REMARK INTRA:                  -3.794
REMARK UNBOUND:                -2.942
REMARK SMILES CCCCCCCCCCCCCCCCCCCCCC(=O)[O-]
REMARK SMILES IDX 12 1 11 2 10 3 9 4 8 5 7 6 6 7 5 8 4 9 3 10 2 11 1 12 13 13
REMARK SMILES IDX 14 14 15 15 16 16 17 17 18 18 19 19 20 20 21 21 22 22 23 23
REMARK SMILES IDX 24 24
REMARK H PARENT
REMARK Flexibility Score: inf
ROOT
ATOM      1  C   UNL     1      48.006   3.621  23.268  1.00  0.00     0.000 C 
ENDROOT
BRANCH   1   2
ATOM      2  C   UNL     1      47.969   2.127  23.628  1.00  0.00     0.000 C 
BRANCH   2   3
ATOM      3  C   UNL     1      46.906   1.391  22.801  1.00  0.00     0.000 C 
BRANCH   3   4
ATOM      4  C   UNL     1      47.464   0.802  21.493  1.00  0.00    -0.000 C 
BRANCH   4   5
ATOM      5  C   UNL     1      46.781   1.303  20.204  1.00  0.00    -0.000 C 
BRANCH   5   6
ATOM      6  C   UNL     1      46.387   2.791  20.208  1.00  0.00    -0.000 C 
BRANCH   6   7
ATOM      7  C   UNL     1      44.875   3.063  20.111  1.00  0.00    -0.000 C 
BRANCH   7   8
ATOM      8  C   UNL     1      44.241   3.530  21.440  1.00  0.00    -0.000 C 
BRANCH   8   9
ATOM      9  C   UNL     1      43.399   2.435  22.109  1.00  0.00    -0.000 C 
BRANCH   9  10
ATOM     10  C   UNL     1      43.278   1.202  21.201  1.00  0.00    -0.000 C 
BRANCH  10  11
ATOM     11  C   UNL     1      43.112  -0.102  21.996  1.00  0.00    -0.003 C 
ATOM     12  C   UNL     1      43.485   0.051  23.470  1.00  0.00     0.004 C 
ENDBRANCH  10  11
ENDBRANCH   9  10
ENDBRANCH   8   9
ENDBRANCH   7   8
ENDBRANCH   6   7
ENDBRANCH   5   6
ENDBRANCH   4   5
ENDBRANCH   3   4
ENDBRANCH   2   3
ENDBRANCH   1   2
BRANCH   1  13
ATOM     13  C   UNL     1      49.421   4.126  22.940  1.00  0.00     0.000 C 
BRANCH  13  14
ATOM     14  C   UNL     1      49.671   4.436  21.453  1.00  0.00     0.000 C 
BRANCH  14  15
ATOM     15  C   UNL     1      49.958   3.180  20.618  1.00  0.00     0.000 C 
BRANCH  15  16
ATOM     16  C   UNL     1      51.437   3.112  20.217  1.00  0.00     0.000 C 
BRANCH  16  17
ATOM     17  C   UNL     1      52.144   1.945  20.918  1.00  0.00     0.000 C 
BRANCH  17  18
ATOM     18  C   UNL     1      51.175   1.027  21.684  1.00  0.00     0.000 C 
BRANCH  18  19
ATOM     19  C   UNL     1      51.406   0.962  23.206  1.00  0.00     0.000 C 
BRANCH  19  20
ATOM     20  C   UNL     1      50.662  -0.206  23.875  1.00  0.00     0.006 C 
BRANCH  20  21
ATOM     21  C   UNL     1      50.926  -1.541  23.168  1.00  0.00     0.053 C 
BRANCH  21  22
ATOM     22  C   UNL     1      49.650  -2.251  22.831  1.00  0.00     0.041 C 
ATOM     23  O   UNL     1      48.637  -2.116  23.567  1.00  0.00    -0.550 OA
ATOM     24  O   UNL     1      49.568  -3.031  21.684  1.00  0.00    -0.550 OA
ENDBRANCH  21  22
ENDBRANCH  20  21
ENDBRANCH  19  20
ENDBRANCH  18  19
ENDBRANCH  17  18
ENDBRANCH  16  17
ENDBRANCH  15  16
ENDBRANCH  14  15
ENDBRANCH  13  14
ENDBRANCH   1  13
TORSDOF 20
ENDMDL
MODEL 5
REMARK VINA RESULT:    -4.334      3.174      7.049
REMARK INTER + INTRA:         -12.343
REMARK INTER:                  -9.754
REMARK INTRA:                  -2.589
REMARK UNBOUND:                -2.942
REMARK SMILES CCCCCCCCCCCCCCCCCCCCCC(=O)[O-]
REMARK SMILES IDX 12 1 11 2 10 3 9 4 8 5 7 6 6 7 5 8 4 9 3 10 2 11 1 12 13 13
REMARK SMILES IDX 14 14 15 15 16 16 17 17 18 18 19 19 20 20 21 21 22 22 23 23
REMARK SMILES IDX 24 24
REMARK H PARENT
REMARK Flexibility Score: inf
ROOT
ATOM      1  C   UNL     1      51.463   7.093  19.575  1.00  0.00     0.000 C 
ENDROOT
BRANCH   1   2
ATOM      2  C   UNL     1      51.056   8.508  19.137  1.00  0.00     0.000 C 
BRANCH   2   3
ATOM      3  C   UNL     1      49.863   8.461  18.172  1.00  0.00     0.000 C 
BRANCH   3   4
ATOM      4  C   UNL     1      48.505   8.501  18.894  1.00  0.00    -0.000 C 
BRANCH   4   5
ATOM      5  C   UNL     1      48.527   9.143  20.297  1.00  0.00    -0.000 C 
BRANCH   5   6
ATOM      6  C   UNL     1      48.227   8.183  21.462  1.00  0.00    -0.000 C 
BRANCH   6   7
ATOM      7  C   UNL     1      48.941   8.521  22.784  1.00  0.00    -0.000 C 
BRANCH   7   8
ATOM      8  C   UNL     1      49.999   7.477  23.203  1.00  0.00    -0.000 C 
BRANCH   8   9
ATOM      9  C   UNL     1      50.230   7.448  24.720  1.00  0.00    -0.000 C 
BRANCH   9  10
ATOM     10  C   UNL     1      50.499   6.017  25.209  1.00  0.00    -0.000 C 
BRANCH  10  11
ATOM     11  C   UNL     1      50.476   5.904  26.741  1.00  0.00    -0.003 C 
ATOM     12  C   UNL     1      49.607   6.973  27.402  1.00  0.00     0.004 C 
ENDBRANCH  10  11
ENDBRANCH   9  10
ENDBRANCH   8   9
ENDBRANCH   7   8
ENDBRANCH   6   7
ENDBRANCH   5   6
ENDBRANCH   4   5
ENDBRANCH   3   4
ENDBRANCH   2   3
ENDBRANCH   1   2
BRANCH   1  13
ATOM     13  C   UNL     1      52.313   6.358  18.524  1.00  0.00     0.000 C 
BRANCH  13  14
ATOM     14  C   UNL     1      51.854   4.925  18.203  1.00  0.00     0.000 C 
BRANCH  14  15
ATOM     15  C   UNL     1      52.522   3.868  19.095  1.00  0.00     0.000 C 
BRANCH  15  16
ATOM     16  C   UNL     1      51.533   2.756  19.466  1.00  0.00     0.000 C 
BRANCH  16  17
ATOM     17  C   UNL     1      51.705   2.334  20.932  1.00  0.00     0.000 C 
BRANCH  17  18
ATOM     18  C   UNL     1      50.456   2.611  21.788  1.00  0.00     0.000 C 
BRANCH  18  19
ATOM     19  C   UNL     1      50.086   4.099  21.934  1.00  0.00     0.000 C 
BRANCH  19  20
ATOM     20  C   UNL     1      48.694   4.428  21.370  1.00  0.00     0.006 C 
BRANCH  20  21
ATOM     21  C   UNL     1      47.898   3.164  21.022  1.00  0.00     0.053 C 
BRANCH  21  22
ATOM     22  C   UNL     1      46.423   3.430  20.984  1.00  0.00     0.041 C 
ATOM     23  O   UNL     1      45.876   4.091  21.905  1.00  0.00    -0.550 OA
ATOM     24  O   UNL     1      45.661   2.982  19.913  1.00  0.00    -0.550 OA
ENDBRANCH  21  22
ENDBRANCH  20  21
ENDBRANCH  19  20
ENDBRANCH  18  19
ENDBRANCH  17  18
ENDBRANCH  16  17
ENDBRANCH  15  16
ENDBRANCH  14  15
ENDBRANCH  13  14
ENDBRANCH   1  13
TORSDOF 20
ENDMDL
MODEL 6
REMARK VINA RESULT:    -4.312      2.791      4.938
REMARK INTER + INTRA:         -12.297
REMARK INTER:                  -8.468
REMARK INTRA:                  -3.829
REMARK UNBOUND:                -2.942
REMARK SMILES CCCCCCCCCCCCCCCCCCCCCC(=O)[O-]
REMARK SMILES IDX 12 1 11 2 10 3 9 4 8 5 7 6 6 7 5 8 4 9 3 10 2 11 1 12 13 13
REMARK SMILES IDX 14 14 15 15 16 16 17 17 18 18 19 19 20 20 21 21 22 22 23 23
REMARK SMILES IDX 24 24
REMARK H PARENT
REMARK Flexibility Score: inf
ROOT
ATOM      1  C   UNL     1      45.305   3.757  21.204  1.00  0.00     0.000 C 
ENDROOT
BRANCH   1   2
ATOM      2  C   UNL     1      44.157   3.235  20.327  1.00  0.00     0.000 C 
BRANCH   2   3
ATOM      3  C   UNL     1      43.147   2.439  21.165  1.00  0.00     0.000 C 
BRANCH   3   4
ATOM      4  C   UNL     1      43.239   0.920  20.934  1.00  0.00    -0.000 C 
BRANCH   4   5
ATOM      5  C   UNL     1      42.941   0.050  22.173  1.00  0.00    -0.000 C 
BRANCH   5   6
ATOM      6  C   UNL     1      43.971   0.157  23.312  1.00  0.00    -0.000 C 
BRANCH   6   7
ATOM      7  C   UNL     1      45.382  -0.349  22.961  1.00  0.00    -0.000 C 
BRANCH   7   8
ATOM      8  C   UNL     1      46.505   0.319  23.783  1.00  0.00    -0.000 C 
BRANCH   8   9
ATOM      9  C   UNL     1      46.175   1.769  24.163  1.00  0.00    -0.000 C 
BRANCH   9  10
ATOM     10  C   UNL     1      47.431   2.513  24.641  1.00  0.00    -0.000 C 
BRANCH  10  11
ATOM     11  C   UNL     1      48.293   1.667  25.591  1.00  0.00    -0.003 C 
ATOM     12  C   UNL     1      49.745   1.553  25.130  1.00  0.00     0.004 C 
ENDBRANCH  10  11
ENDBRANCH   9  10
ENDBRANCH   8   9
ENDBRANCH   7   8
ENDBRANCH   6   7
ENDBRANCH   5   6
ENDBRANCH   4   5
ENDBRANCH   3   4
ENDBRANCH   2   3
ENDBRANCH   1   2
BRANCH   1  13
ATOM     13  C   UNL     1      46.689   3.279  20.731  1.00  0.00     0.000 C 
BRANCH  13  14
ATOM     14  C   UNL     1      46.682   1.967  19.925  1.00  0.00     0.000 C 
BRANCH  14  15
ATOM     15  C   UNL     1      47.844   1.032  20.291  1.00  0.00     0.000 C 
BRANCH  15  16
ATOM     16  C   UNL     1      48.785   1.694  21.305  1.00  0.00     0.000 C 
BRANCH  16  17
ATOM     17  C   UNL     1      50.060   2.205  20.621  1.00  0.00     0.000 C 
BRANCH  17  18
ATOM     18  C   UNL     1      50.394   3.664  20.982  1.00  0.00     0.000 C 
BRANCH  18  19
ATOM     19  C   UNL     1      50.028   4.076  22.421  1.00  0.00     0.000 C 
BRANCH  19  20
ATOM     20  C   UNL     1      49.176   5.355  22.478  1.00  0.00     0.006 C 
BRANCH  20  21
ATOM     21  C   UNL     1      49.265   6.168  21.180  1.00  0.00     0.053 C 
BRANCH  21  22
ATOM     22  C   UNL     1      49.835   7.533  21.419  1.00  0.00     0.041 C 
ATOM     23  O   UNL     1      49.746   8.066  22.557  1.00  0.00    -0.550 OA
ATOM     24  O   UNL     1      50.499   8.200  20.398  1.00  0.00    -0.550 OA
ENDBRANCH  21  22
ENDBRANCH  20  21
ENDBRANCH  19  20
ENDBRANCH  18  19
ENDBRANCH  17  18
ENDBRANCH  16  17
ENDBRANCH  15  16
ENDBRANCH  14  15
ENDBRANCH  13  14
ENDBRANCH   1  13
TORSDOF 20
ENDMDL
MODEL 7
REMARK VINA RESULT:    -4.297      3.602      7.638
REMARK INTER + INTRA:         -12.263
REMARK INTER:                  -9.564
REMARK INTRA:                  -2.699
REMARK UNBOUND:                -2.942
REMARK SMILES CCCCCCCCCCCCCCCCCCCCCC(=O)[O-]
REMARK SMILES IDX 12 1 11 2 10 3 9 4 8 5 7 6 6 7 5 8 4 9 3 10 2 11 1 12 13 13
REMARK SMILES IDX 14 14 15 15 16 16 17 17 18 18 19 19 20 20 21 21 22 22 23 23
REMARK SMILES IDX 24 24
REMARK H PARENT
REMARK Flexibility Score: inf
ROOT
ATOM      1  C   UNL     1      48.277   9.765  24.198  1.00  0.00     0.000 C 
ENDROOT
BRANCH   1   2
ATOM      2  C   UNL     1      46.931  10.152  24.829  1.00  0.00     0.000 C 
BRANCH   2   3
ATOM      3  C   UNL     1      46.288  11.322  24.071  1.00  0.00     0.000 C 
BRANCH   3   4
ATOM      4  C   UNL     1      47.320  12.222  23.370  1.00  0.00    -0.000 C 
BRANCH   4   5
ATOM      5  C   UNL     1      46.910  12.720  21.968  1.00  0.00    -0.000 C 
BRANCH   5   6
ATOM      6  C   UNL     1      46.376  11.633  21.018  1.00  0.00    -0.000 C 
BRANCH   6   7
ATOM      7  C   UNL     1      47.402  10.556  20.620  1.00  0.00    -0.000 C 
BRANCH   7   8
ATOM      8  C   UNL     1      46.930   9.113  20.904  1.00  0.00    -0.000 C 
BRANCH   8   9
ATOM      9  C   UNL     1      47.580   8.085  19.967  1.00  0.00    -0.000 C 
BRANCH   9  10
ATOM     10  C   UNL     1      48.590   7.210  20.725  1.00  0.00    -0.000 C 
BRANCH  10  11
ATOM     11  C   UNL     1      49.914   7.940  20.998  1.00  0.00    -0.003 C 
ATOM     12  C   UNL     1      50.923   7.782  19.862  1.00  0.00     0.004 C 
ENDBRANCH  10  11
ENDBRANCH   9  10
ENDBRANCH   8   9
ENDBRANCH   7   8
ENDBRANCH   6   7
ENDBRANCH   5   6
ENDBRANCH   4   5
ENDBRANCH   3   4
ENDBRANCH   2   3
ENDBRANCH   1   2
BRANCH   1  13
ATOM     13  C   UNL     1      48.644   8.287  24.422  1.00  0.00     0.000 C 
BRANCH  13  14
ATOM     14  C   UNL     1      50.130   8.026  24.726  1.00  0.00     0.000 C 
BRANCH  14  15
ATOM     15  C   UNL     1      50.492   6.533  24.708  1.00  0.00     0.000 C 
BRANCH  15  16
ATOM     16  C   UNL     1      49.335   5.693  24.155  1.00  0.00     0.000 C 
BRANCH  16  17
ATOM     17  C   UNL     1      49.660   4.194  24.226  1.00  0.00     0.000 C 
BRANCH  17  18
ATOM     18  C   UNL     1      50.427   3.686  22.992  1.00  0.00     0.000 C 
BRANCH  18  19
ATOM     19  C   UNL     1      49.750   3.981  21.639  1.00  0.00     0.000 C 
BRANCH  19  20
ATOM     20  C   UNL     1      50.113   2.955  20.552  1.00  0.00     0.006 C 
BRANCH  20  21
ATOM     21  C   UNL     1      51.448   2.257  20.839  1.00  0.00     0.053 C 
BRANCH  21  22
ATOM     22  C   UNL     1      52.421   2.438  19.713  1.00  0.00     0.041 C 
ATOM     23  O   UNL     1      53.414   1.671  19.606  1.00  0.00    -0.550 OA
ATOM     24  O   UNL     1      52.210   3.428  18.762  1.00  0.00    -0.550 OA
ENDBRANCH  21  22
ENDBRANCH  20  21
ENDBRANCH  19  20
ENDBRANCH  18  19
ENDBRANCH  17  18
ENDBRANCH  16  17
ENDBRANCH  15  16
ENDBRANCH  14  15
ENDBRANCH  13  14
ENDBRANCH   1  13
TORSDOF 20
ENDMDL
MODEL 8
REMARK VINA RESULT:    -4.278      2.147      3.300
REMARK INTER + INTRA:         -12.222
REMARK INTER:                  -8.772
REMARK INTRA:                  -3.450
REMARK UNBOUND:                -2.942
REMARK SMILES CCCCCCCCCCCCCCCCCCCCCC(=O)[O-]
REMARK SMILES IDX 12 1 11 2 10 3 9 4 8 5 7 6 6 7 5 8 4 9 3 10 2 11 1 12 13 13
REMARK SMILES IDX 14 14 15 15 16 16 17 17 18 18 19 19 20 20 21 21 22 22 23 23
REMARK SMILES IDX 24 24
REMARK H PARENT
REMARK Flexibility Score: inf
ROOT
ATOM      1  C   UNL     1      43.542   2.148  21.821  1.00  0.00     0.000 C 
ENDROOT
BRANCH   1   2
ATOM      2  C   UNL     1      43.316   0.638  21.651  1.00  0.00     0.000 C 
BRANCH   2   3
ATOM      3  C   UNL     1      43.937  -0.143  22.818  1.00  0.00     0.000 C 
BRANCH   3   4
ATOM      4  C   UNL     1      45.471  -0.230  22.734  1.00  0.00    -0.000 C 
BRANCH   4   5
ATOM      5  C   UNL     1      46.231   0.447  23.894  1.00  0.00    -0.000 C 
BRANCH   5   6
ATOM      6  C   UNL     1      47.766   0.369  23.804  1.00  0.00    -0.000 C 
BRANCH   6   7
ATOM      7  C   UNL     1      48.308  -0.338  22.548  1.00  0.00    -0.000 C 
BRANCH   7   8
ATOM      8  C   UNL     1      49.509   0.384  21.899  1.00  0.00    -0.000 C 
BRANCH   8   9
ATOM      9  C   UNL     1      50.130   1.442  22.820  1.00  0.00    -0.000 C 
BRANCH   9  10
ATOM     10  C   UNL     1      50.949   2.462  22.015  1.00  0.00    -0.000 C 
BRANCH  10  11
ATOM     11  C   UNL     1      50.998   2.128  20.516  1.00  0.00    -0.003 C 
ATOM     12  C   UNL     1      51.189   3.365  19.639  1.00  0.00     0.004 C 
ENDBRANCH  10  11
ENDBRANCH   9  10
ENDBRANCH   8   9
ENDBRANCH   7   8
ENDBRANCH   6   7
ENDBRANCH   5   6
ENDBRANCH   4   5
ENDBRANCH   3   4
ENDBRANCH   2   3
ENDBRANCH   1   2
BRANCH   1  13
ATOM     13  C   UNL     1      43.635   2.897  20.480  1.00  0.00     0.000 C 
BRANCH  13  14
ATOM     14  C   UNL     1      44.987   3.582  20.211  1.00  0.00     0.000 C 
BRANCH  14  15
ATOM     15  C   UNL     1      46.148   2.586  20.079  1.00  0.00     0.000 C 
BRANCH  15  16
ATOM     16  C   UNL     1      47.380   3.071  20.852  1.00  0.00     0.000 C 
BRANCH  16  17
ATOM     17  C   UNL     1      46.984   3.620  22.230  1.00  0.00     0.000 C 
BRANCH  17  18
ATOM     18  C   UNL     1      47.517   5.041  22.487  1.00  0.00     0.000 C 
BRANCH  18  19
ATOM     19  C   UNL     1      48.830   5.384  21.756  1.00  0.00     0.000 C 
BRANCH  19  20
ATOM     20  C   UNL     1      48.750   6.706  20.974  1.00  0.00     0.006 C 
BRANCH  20  21
ATOM     21  C   UNL     1      50.133   7.336  20.763  1.00  0.00     0.053 C 
BRANCH  21  22
ATOM     22  C   UNL     1      50.054   8.579  19.929  1.00  0.00     0.041 C 
ATOM     23  O   UNL     1      51.040   8.937  19.232  1.00  0.00    -0.550 OA
ATOM     24  O   UNL     1      48.880   9.320  19.891  1.00  0.00    -0.550 OA
ENDBRANCH  21  22
ENDBRANCH  20  21
ENDBRANCH  19  20
ENDBRANCH  18  19
ENDBRANCH  17  18
ENDBRANCH  16  17
ENDBRANCH  15  16
ENDBRANCH  14  15
ENDBRANCH  13  14
ENDBRANCH   1  13
TORSDOF 20
ENDMDL
MODEL 9
REMARK VINA RESULT:    -4.243      3.264      7.160
REMARK INTER + INTRA:         -12.146
REMARK INTER:                  -9.321
REMARK INTRA:                  -2.825
REMARK UNBOUND:                -2.942
REMARK SMILES CCCCCCCCCCCCCCCCCCCCCC(=O)[O-]
REMARK SMILES IDX 12 1 11 2 10 3 9 4 8 5 7 6 6 7 5 8 4 9 3 10 2 11 1 12 13 13
REMARK SMILES IDX 14 14 15 15 16 16 17 17 18 18 19 19 20 20 21 21 22 22 23 23
REMARK SMILES IDX 24 24
REMARK H PARENT
REMARK Flexibility Score: inf
ROOT
ATOM      1  C   UNL     1      51.880   4.988  18.435  1.00  0.00     0.000 C 
ENDROOT
BRANCH   1   2
ATOM      2  C   UNL     1      52.565   6.341  18.686  1.00  0.00     0.000 C 
BRANCH   2   3
ATOM      3  C   UNL     1      51.527   7.430  18.994  1.00  0.00     0.000 C 
BRANCH   3   4
ATOM      4  C   UNL     1      50.426   6.955  19.958  1.00  0.00    -0.000 C 
BRANCH   4   5
ATOM      5  C   UNL     1      49.564   8.077  20.573  1.00  0.00    -0.000 C 
BRANCH   5   6
ATOM      6  C   UNL     1      48.061   7.999  20.253  1.00  0.00    -0.000 C 
BRANCH   6   7
ATOM      7  C   UNL     1      47.179   7.475  21.402  1.00  0.00    -0.000 C 
BRANCH   7   8
ATOM      8  C   UNL     1      47.152   5.935  21.512  1.00  0.00    -0.000 C 
BRANCH   8   9
ATOM      9  C   UNL     1      47.514   5.438  22.919  1.00  0.00    -0.000 C 
BRANCH   9  10
ATOM     10  C   UNL     1      48.344   6.486  23.676  1.00  0.00    -0.000 C 
BRANCH  10  11
ATOM     11  C   UNL     1      49.836   6.123  23.740  1.00  0.00    -0.003 C 
ATOM     12  C   UNL     1      50.376   6.090  25.169  1.00  0.00     0.004 C 
ENDBRANCH  10  11
ENDBRANCH   9  10
ENDBRANCH   8   9
ENDBRANCH   7   8
ENDBRANCH   6   7
ENDBRANCH   5   6
ENDBRANCH   4   5
ENDBRANCH   3   4
ENDBRANCH   2   3
ENDBRANCH   1   2
BRANCH   1  13
ATOM     13  C   UNL     1      52.551   3.825  19.186  1.00  0.00     0.000 C 
BRANCH  13  14
ATOM     14  C   UNL     1      51.629   2.631  19.492  1.00  0.00     0.000 C 
BRANCH  14  15
ATOM     15  C   UNL     1      51.516   2.331  20.994  1.00  0.00     0.000 C 
BRANCH  15  16
ATOM     16  C   UNL     1      50.299   3.034  21.606  1.00  0.00     0.000 C 
BRANCH  16  17
ATOM     17  C   UNL     1      49.091   2.963  20.662  1.00  0.00     0.000 C 
BRANCH  17  18
ATOM     18  C   UNL     1      48.339   1.622  20.747  1.00  0.00     0.000 C 
BRANCH  18  19
ATOM     19  C   UNL     1      47.020   1.565  19.953  1.00  0.00     0.000 C 
BRANCH  19  20
ATOM     20  C   UNL     1      46.093   2.756  20.247  1.00  0.00     0.006 C 
BRANCH  20  21
ATOM     21  C   UNL     1      45.362   2.601  21.587  1.00  0.00     0.053 C 
BRANCH  21  22
ATOM     22  C   UNL     1      43.914   2.975  21.475  1.00  0.00     0.041 C 
ATOM     23  O   UNL     1      43.305   3.452  22.468  1.00  0.00    -0.550 OA
ATOM     24  O   UNL     1      43.249   2.830  20.264  1.00  0.00    -0.550 OA
ENDBRANCH  21  22
ENDBRANCH  20  21
ENDBRANCH  19  20
ENDBRANCH  18  19
ENDBRANCH  17  18
ENDBRANCH  16  17
ENDBRANCH  15  16
ENDBRANCH  14  15
ENDBRANCH  13  14
ENDBRANCH   1  13
TORSDOF 20
ENDMDL
