MODEL 1
REMARK VINA RESULT:    -5.175      0.000      0.000
REMARK INTER + INTRA:          -9.980
REMARK INTER:                  -9.108
REMARK INTRA:                  -0.872
REMARK UNBOUND:                -0.872
REMARK SMILES CCCCCCC=CCCCCCCCC(=O)[O-]
REMARK SMILES IDX 10 1 11 2 12 3 13 4 14 5 15 6 16 7 17 8 18 9 9 10 8 11 7 12
REMARK SMILES IDX 6 13 5 14 4 15 3 16 2 17 1 18
REMARK H PARENT
REMARK Flexibility Score: inf
ROOT
ATOM      1  C   UNL     1       1.230  -8.113  -2.331  1.00  0.00     0.004 C 
ENDROOT
BRANCH   1   2
ATOM      2  C   UNL     1       2.505  -7.335  -1.984  1.00  0.00     0.000 C 
BRANCH   2   3
ATOM      3  C   UNL     1       3.394  -7.152  -3.221  1.00  0.00     0.000 C 
BRANCH   3   4
ATOM      4  C   UNL     1       4.330  -8.359  -3.453  1.00  0.00     0.000 C 
BRANCH   4   5
ATOM      5  C   UNL     1       5.125  -8.771  -2.200  1.00  0.00     0.006 C 
BRANCH   5   6
ATOM      6  C   UNL     1       6.227  -7.778  -1.803  1.00  0.00     0.053 C 
BRANCH   6   7
ATOM      7  C   UNL     1       5.908  -7.075  -0.518  1.00  0.00     0.041 C 
ATOM      8  O   UNL     1       5.141  -7.608   0.326  1.00  0.00    -0.550 OA
ATOM      9  O   UNL     1       6.448  -5.821  -0.262  1.00  0.00    -0.550 OA
ENDBRANCH   6   7
ENDBRANCH   5   6
ENDBRANCH   4   5
ENDBRANCH   3   4
ENDBRANCH   2   3
ENDBRANCH   1   2
BRANCH   1  10
ATOM     10  C   UNL     1       0.178  -7.191  -2.959  1.00  0.00     0.027 C 
BRANCH  10  11
ATOM     11  C   UNL     1      -1.160  -7.871  -3.041  1.00  0.00    -0.031 C 
ATOM     12  C   UNL     1      -2.275  -7.192  -3.355  1.00  0.00    -0.031 C 
BRANCH  12  13
ATOM     13  C   UNL     1      -3.610  -7.876  -3.460  1.00  0.00     0.027 C 
BRANCH  13  14
ATOM     14  C   UNL     1      -4.648  -6.966  -4.128  1.00  0.00     0.004 C 
BRANCH  14  15
ATOM     15  C   UNL     1      -3.985  -6.030  -5.146  1.00  0.00     0.000 C 
BRANCH  15  16
ATOM     16  C   UNL     1      -4.063  -6.614  -6.561  1.00  0.00    -0.000 C 
BRANCH  16  17
ATOM     17  C   UNL     1      -5.465  -7.162  -6.853  1.00  0.00    -0.003 C 
ATOM     18  C   UNL     1      -6.327  -6.122  -7.563  1.00  0.00     0.004 C 
ENDBRANCH  16  17
ENDBRANCH  15  16
ENDBRANCH  14  15
ENDBRANCH  13  14
ENDBRANCH  12  13
ENDBRANCH  10  11
ENDBRANCH   1  10
TORSDOF 13
ENDMDL
MODEL 2
REMARK VINA RESULT:    -5.128      0.991      1.346
REMARK INTER + INTRA:          -9.897
REMARK INTER:                  -9.021
REMARK INTRA:                  -0.876
REMARK UNBOUND:                -0.872
REMARK SMILES CCCCCCC=CCCCCCCCC(=O)[O-]
REMARK SMILES IDX 10 1 11 2 12 3 13 4 14 5 15 6 16 7 17 8 18 9 9 10 8 11 7 12
REMARK SMILES IDX 6 13 5 14 4 15 3 16 2 17 1 18
REMARK H PARENT
REMARK Flexibility Score: inf
ROOT
ATOM      1  C   UNL     1       1.399  -7.224  -2.238  1.00  0.00     0.004 C 
ENDROOT
BRANCH   1   2
ATOM      2  C   UNL     1       2.701  -7.091  -3.036  1.00  0.00     0.000 C 
BRANCH   2   3
ATOM      3  C   UNL     1       3.321  -8.468  -3.315  1.00  0.00     0.000 C 
BRANCH   3   4
ATOM      4  C   UNL     1       4.825  -8.375  -3.653  1.00  0.00     0.000 C 
BRANCH   4   5
ATOM      5  C   UNL     1       5.729  -8.259  -2.410  1.00  0.00     0.006 C 
BRANCH   5   6
ATOM      6  C   UNL     1       5.098  -8.810  -1.124  1.00  0.00     0.053 C 
BRANCH   6   7
ATOM      7  C   UNL     1       4.985  -7.758  -0.062  1.00  0.00     0.041 C 
ATOM      8  O   UNL     1       4.196  -7.915   0.907  1.00  0.00    -0.550 OA
ATOM      9  O   UNL     1       5.741  -6.597  -0.153  1.00  0.00    -0.550 OA
ENDBRANCH   6   7
ENDBRANCH   5   6
ENDBRANCH   4   5
ENDBRANCH   3   4
ENDBRANCH   2   3
ENDBRANCH   1   2
BRANCH   1  10
ATOM     10  C   UNL     1       0.344  -8.002  -3.033  1.00  0.00     0.027 C 
BRANCH  10  11
ATOM     11  C   UNL     1      -0.996  -7.325  -2.966  1.00  0.00    -0.031 C 
ATOM     12  C   UNL     1      -2.120  -7.952  -3.347  1.00  0.00    -0.031 C 
BRANCH  12  13
ATOM     13  C   UNL     1      -3.464  -7.283  -3.259  1.00  0.00     0.027 C 
BRANCH  13  14
ATOM     14  C   UNL     1      -4.593  -8.258  -3.612  1.00  0.00     0.004 C 
BRANCH  14  15
ATOM     15  C   UNL     1      -5.663  -7.573  -4.469  1.00  0.00     0.000 C 
BRANCH  15  16
ATOM     16  C   UNL     1      -5.200  -6.183  -4.920  1.00  0.00    -0.000 C 
BRANCH  16  17
ATOM     17  C   UNL     1      -5.210  -6.070  -6.449  1.00  0.00    -0.003 C 
ATOM     18  C   UNL     1      -4.067  -6.868  -7.068  1.00  0.00     0.004 C 
ENDBRANCH  16  17
ENDBRANCH  15  16
ENDBRANCH  14  15
ENDBRANCH  13  14
ENDBRANCH  12  13
ENDBRANCH  10  11
ENDBRANCH   1  10
TORSDOF 13
ENDMDL
MODEL 3
REMARK VINA RESULT:    -4.772      1.965      4.659
REMARK INTER + INTRA:          -9.270
REMARK INTER:                  -8.048
REMARK INTRA:                  -1.223
REMARK UNBOUND:                -0.872
REMARK SMILES CCCCCCC=CCCCCCCCC(=O)[O-]
REMARK SMILES IDX 10 1 11 2 12 3 13 4 14 5 15 6 16 7 17 8 18 9 9 10 8 11 7 12
REMARK SMILES IDX 6 13 5 14 4 15 3 16 2 17 1 18
REMARK H PARENT
REMARK Flexibility Score: inf
ROOT
ATOM      1  C   UNL     1      -3.484  -5.960  -4.120  1.00  0.00     0.004 C 
ENDROOT
BRANCH   1   2
ATOM      2  C   UNL     1      -3.522  -7.286  -3.351  1.00  0.00     0.000 C 
BRANCH   2   3
ATOM      3  C   UNL     1      -2.172  -8.012  -3.434  1.00  0.00     0.000 C 
BRANCH   3   4
ATOM      4  C   UNL     1      -1.025  -7.189  -2.807  1.00  0.00     0.000 C 
BRANCH   4   5
ATOM      5  C   UNL     1       0.311  -7.953  -2.733  1.00  0.00     0.006 C 
BRANCH   5   6
ATOM      6  C   UNL     1       1.552  -7.055  -2.832  1.00  0.00     0.053 C 
BRANCH   6   7
ATOM      7  C   UNL     1       2.642  -7.504  -1.906  1.00  0.00     0.041 C 
ATOM      8  O   UNL     1       2.547  -8.602  -1.297  1.00  0.00    -0.550 OA
ATOM      9  O   UNL     1       3.756  -6.699  -1.704  1.00  0.00    -0.550 OA
ENDBRANCH   6   7
ENDBRANCH   5   6
ENDBRANCH   4   5
ENDBRANCH   3   4
ENDBRANCH   2   3
ENDBRANCH   1   2
BRANCH   1  10
ATOM     10  C   UNL     1      -3.942  -6.152  -5.570  1.00  0.00     0.027 C 
BRANCH  10  11
ATOM     11  C   UNL     1      -5.384  -6.574  -5.634  1.00  0.00    -0.031 C 
ATOM     12  C   UNL     1      -5.776  -7.626  -6.368  1.00  0.00    -0.031 C 
BRANCH  12  13
ATOM     13  C   UNL     1      -7.215  -8.062  -6.414  1.00  0.00     0.027 C 
BRANCH  13  14
ATOM     14  C   UNL     1      -7.678  -8.295  -7.857  1.00  0.00     0.004 C 
BRANCH  14  15
ATOM     15  C   UNL     1      -7.204  -7.163  -8.776  1.00  0.00     0.000 C 
BRANCH  15  16
ATOM     16  C   UNL     1      -8.038  -5.896  -8.563  1.00  0.00    -0.000 C 
BRANCH  16  17
ATOM     17  C   UNL     1      -7.137  -4.670  -8.368  1.00  0.00    -0.003 C 
ATOM     18  C   UNL     1      -5.754  -4.902  -8.971  1.00  0.00     0.004 C 
ENDBRANCH  16  17
ENDBRANCH  15  16
ENDBRANCH  14  15
ENDBRANCH  13  14
ENDBRANCH  12  13
ENDBRANCH  10  11
ENDBRANCH   1  10
TORSDOF 13
ENDMDL
MODEL 4
REMARK VINA RESULT:    -4.742      4.463      9.498
REMARK INTER + INTRA:          -9.218
REMARK INTER:                  -8.317
REMARK INTRA:                  -0.902
REMARK UNBOUND:                -0.872
REMARK SMILES CCCCCCC=CCCCCCCCC(=O)[O-]
REMARK SMILES IDX 10 1 11 2 12 3 13 4 14 5 15 6 16 7 17 8 18 9 9 10 8 11 7 12
REMARK SMILES IDX 6 13 5 14 4 15 3 16 2 17 1 18
REMARK H PARENT
REMARK Flexibility Score: inf
ROOT
ATOM      1  C   UNL     1      -3.784  -6.101  -4.490  1.00  0.00     0.004 C 
ENDROOT
BRANCH   1   2
ATOM      2  C   UNL     1      -5.251  -5.949  -4.905  1.00  0.00     0.000 C 
BRANCH   2   3
ATOM      3  C   UNL     1      -5.959  -7.311  -4.941  1.00  0.00     0.000 C 
BRANCH   3   4
ATOM      4  C   UNL     1      -6.318  -7.746  -6.379  1.00  0.00     0.000 C 
BRANCH   4   5
ATOM      5  C   UNL     1      -5.132  -8.351  -7.153  1.00  0.00     0.006 C 
BRANCH   5   6
ATOM      6  C   UNL     1      -4.924  -7.749  -8.550  1.00  0.00     0.053 C 
BRANCH   6   7
ATOM      7  C   UNL     1      -4.312  -6.382  -8.484  1.00  0.00     0.041 C 
ATOM      8  O   UNL     1      -3.061  -6.244  -8.514  1.00  0.00    -0.550 OA
ATOM      9  O   UNL     1      -5.126  -5.263  -8.373  1.00  0.00    -0.550 OA
ENDBRANCH   6   7
ENDBRANCH   5   6
ENDBRANCH   4   5
ENDBRANCH   3   4
ENDBRANCH   2   3
ENDBRANCH   1   2
BRANCH   1  10
ATOM     10  C   UNL     1      -3.649  -7.021  -3.271  1.00  0.00     0.027 C 
BRANCH  10  11
ATOM     11  C   UNL     1      -2.354  -7.784  -3.306  1.00  0.00    -0.031 C 
ATOM     12  C   UNL     1      -1.206  -7.238  -2.875  1.00  0.00    -0.031 C 
BRANCH  12  13
ATOM     13  C   UNL     1       0.085  -8.009  -2.889  1.00  0.00     0.027 C 
BRANCH  13  14
ATOM     14  C   UNL     1       1.286  -7.081  -2.672  1.00  0.00     0.004 C 
BRANCH  14  15
ATOM     15  C   UNL     1       2.606  -7.853  -2.793  1.00  0.00     0.000 C 
BRANCH  15  16
ATOM     16  C   UNL     1       3.792  -6.894  -2.948  1.00  0.00    -0.000 C 
BRANCH  16  17
ATOM     17  C   UNL     1       4.868  -7.177  -1.893  1.00  0.00    -0.003 C 
ATOM     18  C   UNL     1       4.347  -8.119  -0.812  1.00  0.00     0.004 C 
ENDBRANCH  16  17
ENDBRANCH  15  16
ENDBRANCH  14  15
ENDBRANCH  13  14
ENDBRANCH  12  13
ENDBRANCH  10  11
ENDBRANCH   1  10
TORSDOF 13
ENDMDL
MODEL 5
REMARK VINA RESULT:    -4.737      4.690      9.797
REMARK INTER + INTRA:          -9.209
REMARK INTER:                  -8.470
REMARK INTRA:                  -0.739
REMARK UNBOUND:                -0.872
REMARK SMILES CCCCCCC=CCCCCCCCC(=O)[O-]
REMARK SMILES IDX 10 1 11 2 12 3 13 4 14 5 15 6 16 7 17 8 18 9 9 10 8 11 7 12
REMARK SMILES IDX 6 13 5 14 4 15 3 16 2 17 1 18
REMARK H PARENT
REMARK Flexibility Score: inf
ROOT
ATOM      1  C   UNL     1      -2.518  -8.047  -3.427  1.00  0.00     0.004 C 
ENDROOT
BRANCH   1   2
ATOM      2  C   UNL     1      -3.838  -7.270  -3.479  1.00  0.00     0.000 C 
BRANCH   2   3
ATOM      3  C   UNL     1      -3.645  -5.894  -4.131  1.00  0.00     0.000 C 
BRANCH   3   4
ATOM      4  C   UNL     1      -4.380  -5.778  -5.484  1.00  0.00     0.000 C 
BRANCH   4   5
ATOM      5  C   UNL     1      -4.761  -7.140  -6.096  1.00  0.00     0.006 C 
BRANCH   5   6
ATOM      6  C   UNL     1      -5.703  -7.043  -7.304  1.00  0.00     0.053 C 
BRANCH   6   7
ATOM      7  C   UNL     1      -5.025  -6.430  -8.492  1.00  0.00     0.041 C 
ATOM      8  O   UNL     1      -4.335  -7.142  -9.269  1.00  0.00    -0.550 OA
ATOM      9  O   UNL     1      -5.144  -5.067  -8.732  1.00  0.00    -0.550 OA
ENDBRANCH   6   7
ENDBRANCH   5   6
ENDBRANCH   4   5
ENDBRANCH   3   4
ENDBRANCH   2   3
ENDBRANCH   1   2
BRANCH   1  10
ATOM     10  C   UNL     1      -1.384  -7.167  -2.886  1.00  0.00     0.027 C 
BRANCH  10  11
ATOM     11  C   UNL     1      -0.056  -7.863  -2.999  1.00  0.00    -0.031 C 
ATOM     12  C   UNL     1       1.088  -7.253  -2.650  1.00  0.00    -0.031 C 
BRANCH  12  13
ATOM     13  C   UNL     1       2.415  -7.956  -2.741  1.00  0.00     0.027 C 
BRANCH  13  14
ATOM     14  C   UNL     1       3.556  -6.958  -2.968  1.00  0.00     0.004 C 
BRANCH  14  15
ATOM     15  C   UNL     1       4.916  -7.602  -2.671  1.00  0.00     0.000 C 
BRANCH  15  16
ATOM     16  C   UNL     1       5.453  -7.148  -1.309  1.00  0.00    -0.000 C 
BRANCH  16  17
ATOM     17  C   UNL     1       5.464  -8.309  -0.308  1.00  0.00    -0.003 C 
ATOM     18  C   UNL     1       4.156  -8.373   0.476  1.00  0.00     0.004 C 
ENDBRANCH  16  17
ENDBRANCH  15  16
ENDBRANCH  14  15
ENDBRANCH  13  14
ENDBRANCH  12  13
ENDBRANCH  10  11
ENDBRANCH   1  10
TORSDOF 13
ENDMDL
MODEL 6
REMARK VINA RESULT:    -4.618      2.722      5.586
REMARK INTER + INTRA:          -8.999
REMARK INTER:                  -8.367
REMARK INTRA:                  -0.631
REMARK UNBOUND:                -0.872
REMARK SMILES CCCCCCC=CCCCCCCCC(=O)[O-]
REMARK SMILES IDX 10 1 11 2 12 3 13 4 14 5 15 6 16 7 17 8 18 9 9 10 8 11 7 12
REMARK SMILES IDX 6 13 5 14 4 15 3 16 2 17 1 18
REMARK H PARENT
REMARK Flexibility Score: inf
ROOT
ATOM      1  C   UNL     1      -3.846  -5.940  -4.217  1.00  0.00     0.004 C 
ENDROOT
BRANCH   1   2
ATOM      2  C   UNL     1      -3.996  -7.295  -3.516  1.00  0.00     0.000 C 
BRANCH   2   3
ATOM      3  C   UNL     1      -2.667  -8.064  -3.511  1.00  0.00     0.000 C 
BRANCH   3   4
ATOM      4  C   UNL     1      -1.498  -7.209  -2.975  1.00  0.00     0.000 C 
BRANCH   4   5
ATOM      5  C   UNL     1      -0.190  -8.003  -2.788  1.00  0.00     0.006 C 
BRANCH   5   6
ATOM      6  C   UNL     1       1.078  -7.139  -2.824  1.00  0.00     0.053 C 
BRANCH   6   7
ATOM      7  C   UNL     1       2.319  -7.961  -2.649  1.00  0.00     0.041 C 
ATOM      8  O   UNL     1       2.627  -8.415  -1.515  1.00  0.00    -0.550 OA
ATOM      9  O   UNL     1       3.144  -8.212  -3.738  1.00  0.00    -0.550 OA
ENDBRANCH   6   7
ENDBRANCH   5   6
ENDBRANCH   4   5
ENDBRANCH   3   4
ENDBRANCH   2   3
ENDBRANCH   1   2
BRANCH   1  10
ATOM     10  C   UNL     1      -3.853  -6.106  -5.742  1.00  0.00     0.027 C 
BRANCH  10  11
ATOM     11  C   UNL     1      -5.250  -6.310  -6.259  1.00  0.00    -0.031 C 
ATOM     12  C   UNL     1      -5.654  -5.770  -7.420  1.00  0.00    -0.031 C 
BRANCH  12  13
ATOM     13  C   UNL     1      -7.044  -5.993  -7.950  1.00  0.00     0.027 C 
BRANCH  13  14
ATOM     14  C   UNL     1      -7.456  -4.873  -8.912  1.00  0.00     0.004 C 
BRANCH  14  15
ATOM     15  C   UNL     1      -6.720  -3.568  -8.585  1.00  0.00     0.000 C 
BRANCH  15  16
ATOM     16  C   UNL     1      -7.113  -2.455  -9.562  1.00  0.00    -0.000 C 
BRANCH  16  17
ATOM     17  C   UNL     1      -6.739  -1.076  -9.004  1.00  0.00    -0.003 C 
ATOM     18  C   UNL     1      -7.938  -0.407  -8.339  1.00  0.00     0.004 C 
ENDBRANCH  16  17
ENDBRANCH  15  16
ENDBRANCH  14  15
ENDBRANCH  13  14
ENDBRANCH  12  13
ENDBRANCH  10  11
ENDBRANCH   1  10
TORSDOF 13
ENDMDL
MODEL 7
REMARK VINA RESULT:    -4.566      1.567      3.504
REMARK INTER + INTRA:          -8.908
REMARK INTER:                  -8.329
REMARK INTRA:                  -0.580
REMARK UNBOUND:                -0.872
REMARK SMILES CCCCCCC=CCCCCCCCC(=O)[O-]
REMARK SMILES IDX 10 1 11 2 12 3 13 4 14 5 15 6 16 7 17 8 18 9 9 10 8 11 7 12
REMARK SMILES IDX 6 13 5 14 4 15 3 16 2 17 1 18
REMARK H PARENT
REMARK Flexibility Score: inf
ROOT
ATOM      1  C   UNL     1      -2.484  -7.860  -3.362  1.00  0.00     0.004 C 
ENDROOT
BRANCH   1   2
ATOM      2  C   UNL     1      -1.236  -7.052  -2.989  1.00  0.00     0.000 C 
BRANCH   2   3
ATOM      3  C   UNL     1      -0.049  -7.976  -2.685  1.00  0.00     0.000 C 
BRANCH   3   4
ATOM      4  C   UNL     1       1.303  -7.231  -2.741  1.00  0.00     0.000 C 
BRANCH   4   5
ATOM      5  C   UNL     1       2.525  -8.165  -2.647  1.00  0.00     0.006 C 
BRANCH   5   6
ATOM      6  C   UNL     1       2.769  -8.737  -1.244  1.00  0.00     0.053 C 
BRANCH   6   7
ATOM      7  C   UNL     1       3.731  -7.898  -0.458  1.00  0.00     0.041 C 
ATOM      8  O   UNL     1       3.701  -7.907   0.801  1.00  0.00    -0.550 OA
ATOM      9  O   UNL     1       4.650  -7.094  -1.120  1.00  0.00    -0.550 OA
ENDBRANCH   6   7
ENDBRANCH   5   6
ENDBRANCH   4   5
ENDBRANCH   3   4
ENDBRANCH   2   3
ENDBRANCH   1   2
BRANCH   1  10
ATOM     10  C   UNL     1      -3.694  -6.941  -3.565  1.00  0.00     0.027 C 
BRANCH  10  11
ATOM     11  C   UNL     1      -3.715  -6.370  -4.956  1.00  0.00    -0.031 C 
ATOM     12  C   UNL     1      -4.188  -7.074  -5.997  1.00  0.00    -0.031 C 
BRANCH  12  13
ATOM     13  C   UNL     1      -4.230  -6.495  -7.384  1.00  0.00     0.027 C 
BRANCH  13  14
ATOM     14  C   UNL     1      -5.073  -7.366  -8.323  1.00  0.00     0.004 C 
BRANCH  14  15
ATOM     15  C   UNL     1      -6.386  -6.666  -8.692  1.00  0.00     0.000 C 
BRANCH  15  16
ATOM     16  C   UNL     1      -6.122  -5.270  -9.267  1.00  0.00    -0.000 C 
BRANCH  16  17
ATOM     17  C   UNL     1      -6.877  -4.196  -8.473  1.00  0.00    -0.003 C 
ATOM     18  C   UNL     1      -6.909  -2.872  -9.230  1.00  0.00     0.004 C 
ENDBRANCH  16  17
ENDBRANCH  15  16
ENDBRANCH  14  15
ENDBRANCH  13  14
ENDBRANCH  12  13
ENDBRANCH  10  11
ENDBRANCH   1  10
TORSDOF 13
ENDMDL
MODEL 8
REMARK VINA RESULT:    -4.536     11.051     14.562
REMARK INTER + INTRA:          -8.856
REMARK INTER:                  -7.619
REMARK INTRA:                  -1.236
REMARK UNBOUND:                -0.872
REMARK SMILES CCCCCCC=CCCCCCCCC(=O)[O-]
REMARK SMILES IDX 10 1 11 2 12 3 13 4 14 5 15 6 16 7 17 8 18 9 9 10 8 11 7 12
REMARK SMILES IDX 6 13 5 14 4 15 3 16 2 17 1 18
REMARK H PARENT
REMARK Flexibility Score: inf
ROOT
ATOM      1  C   UNL     1       7.130   1.202  -4.701  1.00  0.00     0.004 C 
ENDROOT
BRANCH   1   2
ATOM      2  C   UNL     1       7.210   0.360  -5.979  1.00  0.00     0.000 C 
BRANCH   2   3
ATOM      3  C   UNL     1       7.034   1.234  -7.229  1.00  0.00     0.000 C 
BRANCH   3   4
ATOM      4  C   UNL     1       6.040   0.620  -8.238  1.00  0.00     0.000 C 
BRANCH   4   5
ATOM      5  C   UNL     1       5.145   1.663  -8.933  1.00  0.00     0.006 C 
BRANCH   5   6
ATOM      6  C   UNL     1       4.166   1.068  -9.955  1.00  0.00     0.053 C 
BRANCH   6   7
ATOM      7  C   UNL     1       2.766   1.011  -9.422  1.00  0.00     0.041 C 
ATOM      8  O   UNL     1       2.012   0.047  -9.716  1.00  0.00    -0.550 OA
ATOM      9  O   UNL     1       2.292   2.035  -8.611  1.00  0.00    -0.550 OA
ENDBRANCH   6   7
ENDBRANCH   5   6
ENDBRANCH   4   5
ENDBRANCH   3   4
ENDBRANCH   2   3
ENDBRANCH   1   2
BRANCH   1  10
ATOM     10  C   UNL     1       8.411   1.063  -3.870  1.00  0.00     0.027 C 
BRANCH  10  11
ATOM     11  C   UNL     1       9.211   2.336  -3.887  1.00  0.00    -0.031 C 
ATOM     12  C   UNL     1       8.619   3.535  -4.003  1.00  0.00    -0.031 C 
BRANCH  12  13
ATOM     13  C   UNL     1       9.415   4.810  -3.997  1.00  0.00     0.027 C 
BRANCH  13  14
ATOM     14  C   UNL     1       9.543   5.378  -2.579  1.00  0.00     0.004 C 
BRANCH  14  15
ATOM     15  C   UNL     1       8.169   5.493  -1.908  1.00  0.00     0.000 C 
BRANCH  15  16
ATOM     16  C   UNL     1       8.262   5.191  -0.408  1.00  0.00    -0.000 C 
BRANCH  16  17
ATOM     17  C   UNL     1       9.078   3.918  -0.154  1.00  0.00    -0.003 C 
ATOM     18  C   UNL     1       8.223   2.669  -0.342  1.00  0.00     0.004 C 
ENDBRANCH  16  17
ENDBRANCH  15  16
ENDBRANCH  14  15
ENDBRANCH  13  14
ENDBRANCH  12  13
ENDBRANCH  10  11
ENDBRANCH   1  10
TORSDOF 13
ENDMDL
MODEL 9
REMARK VINA RESULT:    -4.515     11.024     12.156
REMARK INTER + INTRA:          -8.818
REMARK INTER:                  -7.877
REMARK INTRA:                  -0.941
REMARK UNBOUND:                -0.872
REMARK SMILES CCCCCCC=CCCCCCCCC(=O)[O-]
REMARK SMILES IDX 10 1 11 2 12 3 13 4 14 5 15 6 16 7 17 8 18 9 9 10 8 11 7 12
REMARK SMILES IDX 6 13 5 14 4 15 3 16 2 17 1 18
REMARK H PARENT
REMARK Flexibility Score: inf
ROOT
ATOM      1  C   UNL     1       7.219   1.149  -4.719  1.00  0.00     0.004 C 
ENDROOT
BRANCH   1   2
ATOM      2  C   UNL     1       8.309   1.069  -3.645  1.00  0.00     0.000 C 
BRANCH   2   3
ATOM      3  C   UNL     1       9.292   2.242  -3.766  1.00  0.00     0.000 C 
BRANCH   3   4
ATOM      4  C   UNL     1       9.595   2.895  -2.400  1.00  0.00     0.000 C 
BRANCH   4   5
ATOM      5  C   UNL     1       8.332   3.342  -1.638  1.00  0.00     0.006 C 
BRANCH   5   6
ATOM      6  C   UNL     1       8.207   2.746  -0.229  1.00  0.00     0.053 C 
BRANCH   6   7
ATOM      7  C   UNL     1       8.079   3.810   0.819  1.00  0.00     0.041 C 
ATOM      8  O   UNL     1       7.066   3.849   1.565  1.00  0.00    -0.550 OA
ATOM      9  O   UNL     1       9.074   4.768   0.958  1.00  0.00    -0.550 OA
ENDBRANCH   6   7
ENDBRANCH   5   6
ENDBRANCH   4   5
ENDBRANCH   3   4
ENDBRANCH   2   3
ENDBRANCH   1   2
BRANCH   1  10
ATOM     10  C   UNL     1       7.670   2.024  -5.895  1.00  0.00     0.027 C 
BRANCH  10  11
ATOM     11  C   UNL     1       6.852   1.744  -7.126  1.00  0.00    -0.031 C 
ATOM     12  C   UNL     1       6.474   0.498  -7.448  1.00  0.00    -0.031 C 
BRANCH  12  13
ATOM     13  C   UNL     1       5.636   0.220  -8.666  1.00  0.00     0.027 C 
BRANCH  13  14
ATOM     14  C   UNL     1       4.816   1.451  -9.068  1.00  0.00     0.004 C 
BRANCH  14  15
ATOM     15  C   UNL     1       3.376   1.061  -9.422  1.00  0.00     0.000 C 
BRANCH  15  16
ATOM     16  C   UNL     1       2.487   2.303  -9.558  1.00  0.00    -0.000 C 
BRANCH  16  17
ATOM     17  C   UNL     1       3.011   3.451  -8.686  1.00  0.00    -0.003 C 
ATOM     18  C   UNL     1       3.034   4.765  -9.462  1.00  0.00     0.004 C 
ENDBRANCH  16  17
ENDBRANCH  15  16
ENDBRANCH  14  15
ENDBRANCH  13  14
ENDBRANCH  12  13
ENDBRANCH  10  11
ENDBRANCH   1  10
TORSDOF 13
ENDMDL
