MODEL 1
REMARK VINA RESULT:   326.229      0.000      0.000
REMARK INTER + INTRA:         324.895
REMARK INTER:                 326.229
REMARK INTRA:                  -1.334
REMARK UNBOUND:                -1.334
REMARK SMILES C[C@H]1O[C@H](O[C@H]2CC[C@@]3(C)[C@@H](CC[C@]4(C)[C@H]3C=C[C@]35OC[C@@]6(CCC(C)(C)C[C@H]63)[C@@H](O)C[C@@]54C)[C@]2(C)CO)[C@@H](O)[C@@H](O[C@@H]2O[C@@H](CO)[C@@H](O)[C@H](O)[C@H]2O)[C@@H]1O
REMARK SMILES IDX 1 1 2 2 54 3 41 4 39 5 4 6 3 7 55 8 42 10 43 11 52 12 44 13
REMARK SMILES IDX 50 14 45 15 48 16 53 17 51 19 46 21 47 22 49 24 5 26 6 27
REMARK SMILES IDX 7 28 35 29 8 30 11 31 36 32 9 33 12 34 10 35 16 36 13 37
REMARK SMILES IDX 14 38 17 39 15 40 33 41 18 42 19 43 32 44 34 45 29 46 20 47
REMARK SMILES IDX 30 48 22 49 28 50 21 51 23 52 25 53 24 54 26 55 27 56 37 57
REMARK SMILES IDX 38 58 31 60 40 62
REMARK H PARENT 55 9 53 18 51 20 47 23 49 25 38 59 31 61 40 63
REMARK Flexibility Score: inf
ROOT
ATOM      1  C   UNL     1      14.858  96.497   1.375  1.00  0.00     0.041 C 
ATOM      2  C   UNL     1      13.531  96.686  -1.115  1.00  0.00     0.150 C 
ATOM      3  C   UNL     1      13.004  98.738  -0.468  1.00  0.00     0.175 C 
ATOM      4  C   UNL     1      12.294 102.243   1.517  1.00  0.00     0.186 C 
ATOM      5  C   UNL     1      13.234 100.734   2.368  1.00  0.00     0.202 C 
ATOM      6  C   UNL     1      11.827  98.300   1.960  1.00  0.00     0.282 C 
ATOM      7  O   UNL     1      12.450  97.734   0.011  1.00  0.00    -0.344 OA
ENDROOT
BRANCH   3   8
ATOM      8  O   UNL     1      12.599  98.092  -2.631  1.00  0.00    -0.388 OA
ATOM      9  H   UNL     1      11.497  99.223  -3.908  1.00  0.00     0.211 HD
ENDBRANCH   3   8
BRANCH   4  10
ATOM     10  O   UNL     1      12.432 104.343   3.447  1.00  0.00    -0.341 OA
BRANCH  10  11
ATOM     11  C   UNL     1      10.590 104.259   5.777  1.00  0.00     0.282 C 
ATOM     12  C   UNL     1      10.163 104.963   7.793  1.00  0.00     0.202 C 
ATOM     13  O   UNL     1       8.086 104.723   5.735  1.00  0.00    -0.341 OA
ATOM     14  C   UNL     1       7.659 104.825   8.146  1.00  0.00     0.179 C 
ATOM     15  C   UNL     1       4.831 104.946   6.921  1.00  0.00     0.178 C 
ATOM     16  C   UNL     1       5.550 105.214   8.584  1.00  0.00     0.177 C 
BRANCH  12  17
ATOM     17  O   UNL     1      11.458 104.032   8.691  1.00  0.00    -0.385 OA
ATOM     18  H   UNL     1      12.463 103.199   8.469  1.00  0.00     0.211 HD
ENDBRANCH  12  17
BRANCH  14  19
ATOM     19  O   UNL     1       7.460 104.842   9.856  1.00  0.00    -0.387 OA
ATOM     20  H   UNL     1       8.002 106.184  10.209  1.00  0.00     0.211 HD
ENDBRANCH  14  19
BRANCH  15  21
ATOM     21  C   UNL     1       4.885 104.021   4.511  1.00  0.00     0.191 C 
BRANCH  21  22
ATOM     22  O   UNL     1       5.466 103.189   5.931  1.00  0.00    -0.394 OA
ATOM     23  H   UNL     1       5.735 104.036   6.464  1.00  0.00     0.210 HD
ENDBRANCH  21  22
ENDBRANCH  15  21
BRANCH  16  24
ATOM     24  O   UNL     1       4.310 103.244   8.683  1.00  0.00    -0.387 OA
ATOM     25  H   UNL     1       5.158 102.142   9.044  1.00  0.00     0.211 HD
ENDBRANCH  16  24
ENDBRANCH  10  11
ENDBRANCH   4  10
BRANCH   6  26
ATOM     26  O   UNL     1      10.637  96.697   1.505  1.00  0.00    -0.346 OA
BRANCH  26  27
ATOM     27  C   UNL     1       9.195  95.425   0.511  1.00  0.00     0.130 C 
ATOM     28  C   UNL     1       8.985  92.886   0.363  1.00  0.00     0.033 C 
ATOM     29  C   UNL     1       7.754  96.826   0.259  1.00  0.00     0.020 C 
ATOM     30  C   UNL     1       8.846  94.077   2.915  1.00  0.00     0.010 C 
ATOM     31  C   UNL     1       8.730  97.140   3.888  1.00  0.00     0.006 C 
ATOM     32  C   UNL     1       9.559  97.659  -1.235  1.00  0.00     0.017 C 
ATOM     33  C   UNL     1       9.798  95.511   5.138  1.00  0.00    -0.022 C 
ATOM     34  C   UNL     1       9.679  99.224   5.668  1.00  0.00     0.005 C 
ATOM     35  C   UNL     1      11.075  94.371   4.716  1.00  0.00     0.012 C 
ATOM     36  C   UNL     1      11.909  97.033   6.339  1.00  0.00     0.024 C 
ATOM     37  C   UNL     1       9.092  97.581   7.017  1.00  0.00     0.008 C 
ATOM     38  C   UNL     1      12.130  98.314   8.416  1.00  0.00    -0.017 C 
ATOM     39  C   UNL     1      13.084  96.284   7.296  1.00  0.00    -0.024 C 
ATOM     40  C   UNL     1      14.348  99.280   5.410  1.00  0.00     0.013 C 
ATOM     41  C   UNL     1      15.423  99.413   9.148  1.00  0.00     0.009 C 
ATOM     42  C   UNL     1      13.985  96.633   8.668  1.00  0.00     0.005 C 
ATOM     43  C   UNL     1      15.566  97.709   9.164  1.00  0.00     0.096 C 
ATOM     44  C   UNL     1      19.084  98.396   9.442  1.00  0.00     0.043 C 
ATOM     45  C   UNL     1      14.170 102.664   8.805  1.00  0.00     0.015 C 
ATOM     46  C   UNL     1      17.120  96.761   9.701  1.00  0.00     0.037 C 
ATOM     47  O   UNL     1      15.911  98.053   7.855  1.00  0.00    -0.369 OA
ATOM     48  C   UNL     1      18.955  97.611   7.649  1.00  0.00     0.124 C 
ATOM     49  C   UNL     1      17.391  96.467   8.210  1.00  0.00     0.026 C 
ATOM     50  C   UNL     1      18.818  95.732   9.606  1.00  0.00     0.014 C 
ATOM     51  C   UNL     1      17.193  97.937   7.551  1.00  0.00     0.171 C 
ATOM     52  C   UNL     1      15.780  95.772   7.259  1.00  0.00     0.013 C 
ATOM     53  C   UNL     1      17.112  94.250   9.540  1.00  0.00    -0.035 C 
ATOM     54  C   UNL     1      16.115  94.511   8.310  1.00  0.00     0.007 C 
ATOM     55  C   UNL     1      15.133  93.470   9.914  1.00  0.00     0.011 C 
ATOM     56  C   UNL     1      17.590  92.793  10.041  1.00  0.00     0.011 C 
BRANCH  29  57
ATOM     57  C   UNL     1       5.438  96.041  -2.782  1.00  0.00     0.165 C 
BRANCH  57  58
ATOM     58  O   UNL     1       5.786  96.973  -3.828  1.00  0.00    -0.396 OA
ATOM     59  H   UNL     1       4.918  97.665  -4.213  1.00  0.00     0.210 HD
ENDBRANCH  57  58
ENDBRANCH  29  57
BRANCH  48  60
ATOM     60  O   UNL     1      18.744  98.183   6.110  1.00  0.00    -0.392 OA
ATOM     61  H   UNL     1      18.577  99.245   5.819  1.00  0.00     0.210 HD
ENDBRANCH  48  60
ENDBRANCH  26  27
ENDBRANCH   6  26
BRANCH   5  62
ATOM     62  O   UNL     1      14.650 100.278   1.731  1.00  0.00    -0.385 OA
ATOM     63  H   UNL     1      14.778 101.454   2.400  1.00  0.00     0.211 HD
ENDBRANCH   5  62
TORSDOF 14
ENDMDL
MODEL 2
REMARK VINA RESULT:   328.307      1.378      2.253
REMARK INTER + INTRA:         326.973
REMARK INTER:                 328.577
REMARK INTRA:                  -1.604
REMARK UNBOUND:                -1.334
REMARK SMILES C[C@H]1O[C@H](O[C@H]2CC[C@@]3(C)[C@@H](CC[C@]4(C)[C@H]3C=C[C@]35OC[C@@]6(CCC(C)(C)C[C@H]63)[C@@H](O)C[C@@]54C)[C@]2(C)CO)[C@@H](O)[C@@H](O[C@@H]2O[C@@H](CO)[C@@H](O)[C@H](O)[C@H]2O)[C@@H]1O
REMARK SMILES IDX 1 1 2 2 54 3 41 4 39 5 4 6 3 7 55 8 42 10 43 11 52 12 44 13
REMARK SMILES IDX 50 14 45 15 48 16 53 17 51 19 46 21 47 22 49 24 5 26 6 27
REMARK SMILES IDX 7 28 35 29 8 30 11 31 36 32 9 33 12 34 10 35 16 36 13 37
REMARK SMILES IDX 14 38 17 39 15 40 33 41 18 42 19 43 32 44 34 45 29 46 20 47
REMARK SMILES IDX 30 48 22 49 28 50 21 51 23 52 25 53 24 54 26 55 27 56 37 57
REMARK SMILES IDX 38 58 31 60 40 62
REMARK H PARENT 55 9 53 18 51 20 47 23 49 25 38 59 31 61 40 63
REMARK Flexibility Score: inf
ROOT
ATOM      1  C   UNL     1      15.214  96.488   1.257  1.00  0.00     0.041 C 
ATOM      2  C   UNL     1      14.147  96.693  -1.354  1.00  0.00     0.150 C 
ATOM      3  C   UNL     1      13.773  98.814  -0.833  1.00  0.00     0.175 C 
ATOM      4  C   UNL     1      13.240 102.456   0.950  1.00  0.00     0.186 C 
ATOM      5  C   UNL     1      13.942 100.903   1.939  1.00  0.00     0.202 C 
ATOM      6  C   UNL     1      12.340  98.601   1.485  1.00  0.00     0.282 C 
ATOM      7  O   UNL     1      13.078  97.891  -0.375  1.00  0.00    -0.344 OA
ENDROOT
BRANCH   3   8
ATOM      8  O   UNL     1      13.506  98.114  -3.001  1.00  0.00    -0.388 OA
ATOM      9  H   UNL     1      11.713  97.488  -3.720  1.00  0.00     0.211 HD
ENDBRANCH   3   8
BRANCH   4  10
ATOM     10  O   UNL     1      13.411 104.617   2.808  1.00  0.00    -0.341 OA
BRANCH  10  11
ATOM     11  C   UNL     1      10.959 105.430   4.276  1.00  0.00     0.282 C 
ATOM     12  C   UNL     1       8.781 105.455   4.321  1.00  0.00     0.202 C 
ATOM     13  O   UNL     1      10.399 104.873   6.698  1.00  0.00    -0.341 OA
ATOM     14  C   UNL     1       8.060 105.601   6.744  1.00  0.00     0.179 C 
ATOM     15  C   UNL     1       8.654 104.939   9.698  1.00  0.00     0.178 C 
ATOM     16  C   UNL     1       7.151 105.300   8.712  1.00  0.00     0.177 C 
BRANCH  12  17
ATOM     17  O   UNL     1       8.494 106.695   3.006  1.00  0.00    -0.385 OA
ATOM     18  H   UNL     1       7.543 107.481   2.527  1.00  0.00     0.211 HD
ENDBRANCH  12  17
BRANCH  14  19
ATOM     19  O   UNL     1       6.437 106.173   6.681  1.00  0.00    -0.387 OA
ATOM     20  H   UNL     1       6.393 106.799   5.329  1.00  0.00     0.211 HD
ENDBRANCH  14  19
BRANCH  15  21
ATOM     21  C   UNL     1      11.204 104.967  10.102  1.00  0.00     0.191 C 
BRANCH  21  22
ATOM     22  O   UNL     1      10.252 106.313   9.527  1.00  0.00    -0.394 OA
ATOM     23  H   UNL     1      11.020 107.010   9.527  1.00  0.00     0.210 HD
ENDBRANCH  21  22
ENDBRANCH  15  21
BRANCH  16  24
ATOM     24  O   UNL     1       7.504 107.125  10.116  1.00  0.00    -0.387 OA
ATOM     25  H   UNL     1       7.784 106.676  11.451  1.00  0.00     0.211 HD
ENDBRANCH  16  24
ENDBRANCH  10  11
ENDBRANCH   4  10
BRANCH   6  26
ATOM     26  O   UNL     1      11.041  97.102   0.975  1.00  0.00    -0.346 OA
BRANCH  26  27
ATOM     27  C   UNL     1       9.634  95.894  -0.141  1.00  0.00     0.130 C 
ATOM     28  C   UNL     1       9.332  93.366  -0.321  1.00  0.00     0.033 C 
ATOM     29  C   UNL     1       8.277  97.354  -0.502  1.00  0.00     0.020 C 
ATOM     30  C   UNL     1       9.034  94.555   2.218  1.00  0.00     0.010 C 
ATOM     31  C   UNL     1       8.965  97.618   3.196  1.00  0.00     0.006 C 
ATOM     32  C   UNL     1      10.232  98.115  -1.839  1.00  0.00     0.017 C 
ATOM     33  C   UNL     1       9.858  95.942   4.519  1.00  0.00    -0.022 C 
ATOM     34  C   UNL     1       9.850  99.656   5.061  1.00  0.00     0.005 C 
ATOM     35  C   UNL     1      11.117  94.751   4.197  1.00  0.00     0.012 C 
ATOM     36  C   UNL     1      11.925  97.372   5.899  1.00  0.00     0.024 C 
ATOM     37  C   UNL     1       9.087  98.035   6.347  1.00  0.00     0.008 C 
ATOM     38  C   UNL     1      12.028  98.637   7.994  1.00  0.00    -0.017 C 
ATOM     39  C   UNL     1      12.985  96.572   6.944  1.00  0.00    -0.024 C 
ATOM     40  C   UNL     1      14.523  99.519   5.186  1.00  0.00     0.013 C 
ATOM     41  C   UNL     1      15.292  99.597   9.000  1.00  0.00     0.009 C 
ATOM     42  C   UNL     1      13.785  96.880   8.387  1.00  0.00     0.005 C 
ATOM     43  C   UNL     1      15.363  97.888   9.017  1.00  0.00     0.096 C 
ATOM     44  C   UNL     1      18.872  98.427   9.586  1.00  0.00     0.043 C 
ATOM     45  C   UNL     1      14.207 102.897   8.575  1.00  0.00     0.015 C 
ATOM     46  C   UNL     1      16.827  96.875   9.674  1.00  0.00     0.037 C 
ATOM     47  O   UNL     1      15.828  98.221   7.743  1.00  0.00    -0.369 OA
ATOM     48  C   UNL     1      18.858  97.653   7.784  1.00  0.00     0.124 C 
ATOM     49  C   UNL     1      17.208  96.574   8.209  1.00  0.00     0.026 C 
ATOM     50  C   UNL     1      18.483  95.777   9.712  1.00  0.00     0.014 C 
ATOM     51  C   UNL     1      17.125  98.052   7.544  1.00  0.00     0.171 C 
ATOM     52  C   UNL     1      15.652  95.949   7.124  1.00  0.00     0.013 C 
ATOM     53  C   UNL     1      16.729  94.367   9.498  1.00  0.00    -0.035 C 
ATOM     54  C   UNL     1      15.848  94.673   8.192  1.00  0.00     0.007 C 
ATOM     55  C   UNL     1      14.695  93.669   9.704  1.00  0.00     0.011 C 
ATOM     56  C   UNL     1      17.104  92.890  10.027  1.00  0.00     0.011 C 
BRANCH  29  57
ATOM     57  C   UNL     1       6.188  96.674  -3.727  1.00  0.00     0.165 C 
BRANCH  57  58
ATOM     58  O   UNL     1       5.401  97.858  -3.976  1.00  0.00    -0.396 OA
ATOM     59  H   UNL     1       4.408  97.699  -4.584  1.00  0.00     0.210 HD
ENDBRANCH  57  58
ENDBRANCH  29  57
BRANCH  48  60
ATOM     60  O   UNL     1      18.797  98.237   6.236  1.00  0.00    -0.392 OA
ATOM     61  H   UNL     1      18.139  99.055   5.866  1.00  0.00     0.210 HD
ENDBRANCH  48  60
ENDBRANCH  26  27
ENDBRANCH   6  26
BRANCH   5  62
ATOM     62  O   UNL     1      15.357 100.284   1.457  1.00  0.00    -0.385 OA
ATOM     63  H   UNL     1      15.446 101.631   1.611  1.00  0.00     0.211 HD
ENDBRANCH   5  62
TORSDOF 14
ENDMDL
