MODEL 1
REMARK VINA RESULT:    -4.657      0.000      0.000
REMARK INTER + INTRA:          -4.793
REMARK INTER:                  -4.793
REMARK INTRA:                   0.000
REMARK UNBOUND:                 0.000
REMARK SMILES Nc1ncnc2nc[nH]c12
REMARK SMILES IDX 8 1 7 2 6 3 5 4 4 5 3 6 2 7 10 8 9 9 1 11
REMARK H PARENT 9 10 1 12 1 13
REMARK Flexibility Score: inf
ROOT
ATOM      1  C   UNL     1    -105.388 199.272  -3.038  1.00  0.00     0.199 A 
ATOM      2  N   UNL     1    -106.073 199.470  -1.879  1.00  0.00    -0.217 NA
ATOM      3  C   UNL     1    -105.418 198.671  -1.020  1.00  0.00     0.182 A 
ATOM      4  N   UNL     1    -105.700 198.494   0.292  1.00  0.00    -0.215 NA
ATOM      5  C   UNL     1    -104.916 197.633   1.010  1.00  0.00     0.226 A 
ATOM      6  N   UNL     1    -103.875 196.972   0.407  1.00  0.00    -0.217 NA
ATOM      7  C   UNL     1    -103.589 197.152  -0.917  1.00  0.00     0.152 A 
ATOM      8  C   UNL     1    -104.397 198.030  -1.634  1.00  0.00     0.127 A 
ATOM      9  N   UNL     1    -104.357 198.398  -2.920  1.00  0.00    -0.340 N 
ATOM     10  H   UNL     1    -103.696 198.090  -3.666  1.00  0.00     0.168 HD
ENDROOT
BRANCH   7  11
ATOM     11  N   UNL     1    -102.501 196.454  -1.523  1.00  0.00    -0.382 N 
ATOM     12  H   UNL     1    -101.538 196.857  -1.538  1.00  0.00     0.158 HD
ATOM     13  H   UNL     1    -102.658 195.521  -1.963  1.00  0.00     0.158 HD
ENDBRANCH   7  11
TORSDOF 1
ENDMDL
MODEL 2
REMARK VINA RESULT:    -4.646      2.195      2.755
REMARK INTER + INTRA:          -4.782
REMARK INTER:                  -4.782
REMARK INTRA:                   0.000
REMARK UNBOUND:                 0.000
REMARK SMILES Nc1ncnc2nc[nH]c12
REMARK SMILES IDX 8 1 7 2 6 3 5 4 4 5 3 6 2 7 10 8 9 9 1 11
REMARK H PARENT 9 10 1 12 1 13
REMARK Flexibility Score: inf
ROOT
ATOM      1  C   UNL     1    -106.425 194.630  -1.252  1.00  0.00     0.199 A 
ATOM      2  N   UNL     1    -106.916 195.364  -0.217  1.00  0.00    -0.217 NA
ATOM      3  C   UNL     1    -105.903 196.207   0.041  1.00  0.00     0.182 A 
ATOM      4  N   UNL     1    -105.873 197.166   0.997  1.00  0.00    -0.215 NA
ATOM      5  C   UNL     1    -104.745 197.932   1.109  1.00  0.00     0.226 A 
ATOM      6  N   UNL     1    -103.678 197.726   0.271  1.00  0.00    -0.217 NA
ATOM      7  C   UNL     1    -103.707 196.759  -0.695  1.00  0.00     0.152 A 
ATOM      8  C   UNL     1    -104.862 195.988  -0.795  1.00  0.00     0.127 A 
ATOM      9  N   UNL     1    -105.172 194.988  -1.629  1.00  0.00    -0.340 N 
ATOM     10  H   UNL     1    -104.594 194.571  -2.392  1.00  0.00     0.168 HD
ENDROOT
BRANCH   7  11
ATOM     11  N   UNL     1    -102.585 196.563  -1.555  1.00  0.00    -0.382 N 
ATOM     12  H   UNL     1    -101.680 197.057  -1.390  1.00  0.00     0.158 HD
ATOM     13  H   UNL     1    -102.658 195.917  -2.371  1.00  0.00     0.158 HD
ENDBRANCH   7  11
TORSDOF 1
ENDMDL
MODEL 3
REMARK VINA RESULT:    -4.409      1.648      3.286
REMARK INTER + INTRA:          -4.538
REMARK INTER:                  -4.538
REMARK INTRA:                   0.000
REMARK UNBOUND:                 0.000
REMARK SMILES Nc1ncnc2nc[nH]c12
REMARK SMILES IDX 8 1 7 2 6 3 5 4 4 5 3 6 2 7 10 8 9 9 1 11
REMARK H PARENT 9 10 1 12 1 13
REMARK Flexibility Score: inf
ROOT
ATOM      1  C   UNL     1    -103.718 197.601   0.239  1.00  0.00     0.199 A 
ATOM      2  N   UNL     1    -104.844 196.846   0.115  1.00  0.00    -0.217 NA
ATOM      3  C   UNL     1    -105.307 197.222  -1.089  1.00  0.00     0.182 A 
ATOM      4  N   UNL     1    -106.424 196.765  -1.703  1.00  0.00    -0.215 NA
ATOM      5  C   UNL     1    -106.736 197.270  -2.935  1.00  0.00     0.226 A 
ATOM      6  N   UNL     1    -105.933 198.213  -3.525  1.00  0.00    -0.217 NA
ATOM      7  C   UNL     1    -104.805 198.674  -2.907  1.00  0.00     0.152 A 
ATOM      8  C   UNL     1    -104.502 198.151  -1.653  1.00  0.00     0.127 A 
ATOM      9  N   UNL     1    -103.482 198.408  -0.826  1.00  0.00    -0.340 N 
ATOM     10  H   UNL     1    -102.687 199.072  -0.956  1.00  0.00     0.168 HD
ENDROOT
BRANCH   7  11
ATOM     11  N   UNL     1    -103.984 199.656  -3.540  1.00  0.00    -0.382 N 
ATOM     12  H   UNL     1    -103.413 199.425  -4.383  1.00  0.00     0.158 HD
ATOM     13  H   UNL     1    -103.944 200.627  -3.162  1.00  0.00     0.158 HD
ENDBRANCH   7  11
TORSDOF 1
ENDMDL
MODEL 4
REMARK VINA RESULT:    -4.290     14.168     15.481
REMARK INTER + INTRA:          -4.415
REMARK INTER:                  -4.415
REMARK INTRA:                   0.000
REMARK UNBOUND:                 0.000
REMARK SMILES Nc1ncnc2nc[nH]c12
REMARK SMILES IDX 8 1 7 2 6 3 5 4 4 5 3 6 2 7 10 8 9 9 1 11
REMARK H PARENT 9 10 1 12 1 13
REMARK Flexibility Score: inf
ROOT
ATOM      1  C   UNL     1    -102.863 181.249  -4.500  1.00  0.00     0.199 A 
ATOM      2  N   UNL     1    -104.219 181.313  -4.408  1.00  0.00    -0.217 NA
ATOM      3  C   UNL     1    -104.398 182.318  -3.535  1.00  0.00     0.182 A 
ATOM      4  N   UNL     1    -105.583 182.798  -3.088  1.00  0.00    -0.215 NA
ATOM      5  C   UNL     1    -105.564 183.833  -2.194  1.00  0.00     0.226 A 
ATOM      6  N   UNL     1    -104.372 184.364  -1.768  1.00  0.00    -0.217 NA
ATOM      7  C   UNL     1    -103.176 183.881  -2.219  1.00  0.00     0.152 A 
ATOM      8  C   UNL     1    -103.212 182.827  -3.127  1.00  0.00     0.127 A 
ATOM      9  N   UNL     1    -102.219 182.162  -3.730  1.00  0.00    -0.340 N 
ATOM     10  H   UNL     1    -101.189 182.302  -3.637  1.00  0.00     0.168 HD
ENDROOT
BRANCH   7  11
ATOM     11  N   UNL     1    -101.949 184.449  -1.762  1.00  0.00    -0.382 N 
ATOM     12  H   UNL     1    -101.915 185.064  -0.919  1.00  0.00     0.158 HD
ATOM     13  H   UNL     1    -101.060 184.255  -2.272  1.00  0.00     0.158 HD
ENDBRANCH   7  11
TORSDOF 1
ENDMDL
MODEL 5
REMARK VINA RESULT:    -4.204     15.348     16.517
REMARK INTER + INTRA:          -4.327
REMARK INTER:                  -4.327
REMARK INTRA:                   0.000
REMARK UNBOUND:                 0.000
REMARK SMILES Nc1ncnc2nc[nH]c12
REMARK SMILES IDX 8 1 7 2 6 3 5 4 4 5 3 6 2 7 10 8 9 9 1 11
REMARK H PARENT 9 10 1 12 1 13
REMARK Flexibility Score: inf
ROOT
ATOM      1  C   UNL     1     -97.101 193.201 -16.224  1.00  0.00     0.199 A 
ATOM      2  N   UNL     1     -95.913 193.692 -15.777  1.00  0.00    -0.217 NA
ATOM      3  C   UNL     1     -96.264 194.899 -15.302  1.00  0.00     0.182 A 
ATOM      4  N   UNL     1     -95.442 195.814 -14.735  1.00  0.00    -0.215 NA
ATOM      5  C   UNL     1     -95.986 196.994 -14.310  1.00  0.00     0.226 A 
ATOM      6  N   UNL     1     -97.329 197.235 -14.458  1.00  0.00    -0.217 NA
ATOM      7  C   UNL     1     -98.159 196.313 -15.030  1.00  0.00     0.152 A 
ATOM      8  C   UNL     1     -97.590 195.117 -15.458  1.00  0.00     0.127 A 
ATOM      9  N   UNL     1     -98.145 194.048 -16.042  1.00  0.00    -0.340 N 
ATOM     10  H   UNL     1     -99.143 193.892 -16.304  1.00  0.00     0.168 HD
ENDROOT
BRANCH   7  11
ATOM     11  N   UNL     1     -99.553 196.586 -15.173  1.00  0.00    -0.382 N 
ATOM     12  H   UNL     1    -100.230 196.376 -14.407  1.00  0.00     0.158 HD
ATOM     13  H   UNL     1     -99.916 197.003 -16.058  1.00  0.00     0.158 HD
ENDBRANCH   7  11
TORSDOF 1
ENDMDL
MODEL 6
REMARK VINA RESULT:    -4.167     15.148     16.330
REMARK INTER + INTRA:          -4.289
REMARK INTER:                  -4.289
REMARK INTRA:                   0.000
REMARK UNBOUND:                 0.000
REMARK SMILES Nc1ncnc2nc[nH]c12
REMARK SMILES IDX 8 1 7 2 6 3 5 4 4 5 3 6 2 7 10 8 9 9 1 11
REMARK H PARENT 9 10 1 12 1 13
REMARK Flexibility Score: inf
ROOT
ATOM      1  C   UNL     1     -98.671 197.413 -14.836  1.00  0.00     0.199 A 
ATOM      2  N   UNL     1     -97.398 197.535 -14.372  1.00  0.00    -0.217 NA
ATOM      3  C   UNL     1     -96.841 196.375 -14.759  1.00  0.00     0.182 A 
ATOM      4  N   UNL     1     -95.563 195.982 -14.546  1.00  0.00    -0.215 NA
ATOM      5  C   UNL     1     -95.177 194.758 -15.018  1.00  0.00     0.226 A 
ATOM      6  N   UNL     1     -96.068 193.958 -15.689  1.00  0.00    -0.217 NA
ATOM      7  C   UNL     1     -97.358 194.355 -15.906  1.00  0.00     0.152 A 
ATOM      8  C   UNL     1     -97.735 195.603 -15.419  1.00  0.00     0.127 A 
ATOM      9  N   UNL     1     -98.908 196.243 -15.480  1.00  0.00    -0.340 N 
ATOM     10  H   UNL     1     -99.802 195.928 -15.917  1.00  0.00     0.168 HD
ENDROOT
BRANCH   7  11
ATOM     11  N   UNL     1     -98.266 193.506 -16.608  1.00  0.00    -0.382 N 
ATOM     12  H   UNL     1     -98.322 193.512 -17.650  1.00  0.00     0.158 HD
ATOM     13  H   UNL     1     -98.894 192.861 -16.079  1.00  0.00     0.158 HD
ENDBRANCH   7  11
TORSDOF 1
ENDMDL
MODEL 7
REMARK VINA RESULT:    -3.985      2.477      3.119
REMARK INTER + INTRA:          -4.102
REMARK INTER:                  -4.102
REMARK INTRA:                   0.000
REMARK UNBOUND:                 0.000
REMARK SMILES Nc1ncnc2nc[nH]c12
REMARK SMILES IDX 8 1 7 2 6 3 5 4 4 5 3 6 2 7 10 8 9 9 1 11
REMARK H PARENT 9 10 1 12 1 13
REMARK Flexibility Score: inf
ROOT
ATOM      1  C   UNL     1    -103.383 197.394  -0.465  1.00  0.00     0.199 A 
ATOM      2  N   UNL     1    -104.355 197.696   0.438  1.00  0.00    -0.217 NA
ATOM      3  C   UNL     1    -105.293 196.773   0.167  1.00  0.00     0.182 A 
ATOM      4  N   UNL     1    -106.486 196.626   0.790  1.00  0.00    -0.215 NA
ATOM      5  C   UNL     1    -107.314 195.622   0.370  1.00  0.00     0.226 A 
ATOM      6  N   UNL     1    -106.937 194.791  -0.655  1.00  0.00    -0.217 NA
ATOM      7  C   UNL     1    -105.733 194.937  -1.284  1.00  0.00     0.152 A 
ATOM      8  C   UNL     1    -104.902 195.964  -0.845  1.00  0.00     0.127 A 
ATOM      9  N   UNL     1    -103.687 196.341  -1.264  1.00  0.00    -0.340 N 
ATOM     10  H   UNL     1    -103.103 195.930  -2.025  1.00  0.00     0.168 HD
ENDROOT
BRANCH   7  11
ATOM     11  N   UNL     1    -105.362 194.060  -2.347  1.00  0.00    -0.382 N 
ATOM     12  H   UNL     1    -104.386 193.699  -2.439  1.00  0.00     0.158 HD
ATOM     13  H   UNL     1    -106.071 193.766  -3.054  1.00  0.00     0.158 HD
ENDBRANCH   7  11
TORSDOF 1
ENDMDL
MODEL 8
REMARK VINA RESULT:    -3.963      0.985      2.969
REMARK INTER + INTRA:          -4.079
REMARK INTER:                  -4.079
REMARK INTRA:                   0.000
REMARK UNBOUND:                 0.000
REMARK SMILES Nc1ncnc2nc[nH]c12
REMARK SMILES IDX 8 1 7 2 6 3 5 4 4 5 3 6 2 7 10 8 9 9 1 11
REMARK H PARENT 9 10 1 12 1 13
REMARK Flexibility Score: inf
ROOT
ATOM      1  C   UNL     1    -105.320 197.601   2.031  1.00  0.00     0.199 A 
ATOM      2  N   UNL     1    -106.163 198.498   1.451  1.00  0.00    -0.217 NA
ATOM      3  C   UNL     1    -105.726 198.520   0.181  1.00  0.00     0.182 A 
ATOM      4  N   UNL     1    -106.230 199.263  -0.833  1.00  0.00    -0.215 NA
ATOM      5  C   UNL     1    -105.648 199.151  -2.066  1.00  0.00     0.226 A 
ATOM      6  N   UNL     1    -104.583 198.308  -2.259  1.00  0.00    -0.217 NA
ATOM      7  C   UNL     1    -104.074 197.558  -1.237  1.00  0.00     0.152 A 
ATOM      8  C   UNL     1    -104.678 197.683   0.011  1.00  0.00     0.127 A 
ATOM      9  N   UNL     1    -104.401 197.085   1.177  1.00  0.00    -0.340 N 
ATOM     10  H   UNL     1    -103.655 196.386   1.391  1.00  0.00     0.168 HD
ENDROOT
BRANCH   7  11
ATOM     11  N   UNL     1    -102.966 196.686  -1.462  1.00  0.00    -0.382 N 
ATOM     12  H   UNL     1    -103.100 195.723  -1.840  1.00  0.00     0.158 HD
ATOM     13  H   UNL     1    -101.997 197.007  -1.247  1.00  0.00     0.158 HD
ENDBRANCH   7  11
TORSDOF 1
ENDMDL
MODEL 9
REMARK VINA RESULT:    -3.915     15.218     16.120
REMARK INTER + INTRA:          -4.030
REMARK INTER:                  -4.030
REMARK INTRA:                   0.000
REMARK UNBOUND:                 0.000
REMARK SMILES Nc1ncnc2nc[nH]c12
REMARK SMILES IDX 8 1 7 2 6 3 5 4 4 5 3 6 2 7 10 8 9 9 1 11
REMARK H PARENT 9 10 1 12 1 13
REMARK Flexibility Score: inf
ROOT
ATOM      1  C   UNL     1     -94.289 195.545 -14.224  1.00  0.00     0.199 A 
ATOM      2  N   UNL     1     -94.641 196.832 -13.957  1.00  0.00    -0.217 NA
ATOM      3  C   UNL     1     -95.944 196.846 -14.283  1.00  0.00     0.182 A 
ATOM      4  N   UNL     1     -96.786 197.904 -14.203  1.00  0.00    -0.215 NA
ATOM      5  C   UNL     1     -98.087 197.723 -14.584  1.00  0.00     0.226 A 
ATOM      6  N   UNL     1     -98.518 196.500 -15.033  1.00  0.00    -0.217 NA
ATOM      7  C   UNL     1     -97.669 195.432 -15.113  1.00  0.00     0.152 A 
ATOM      8  C   UNL     1     -96.348 195.632 -14.723  1.00  0.00     0.127 A 
ATOM      9  N   UNL     1     -95.311 194.786 -14.693  1.00  0.00    -0.340 N 
ATOM     10  H   UNL     1     -95.282 193.779 -14.966  1.00  0.00     0.168 HD
ENDROOT
BRANCH   7  11
ATOM     11  N   UNL     1     -98.141 194.169 -15.583  1.00  0.00    -0.382 N 
ATOM     12  H   UNL     1     -97.938 193.286 -15.064  1.00  0.00     0.158 HD
ATOM     13  H   UNL     1     -98.700 194.113 -16.462  1.00  0.00     0.158 HD
ENDBRANCH   7  11
TORSDOF 1
ENDMDL
