MODEL 1
REMARK VINA RESULT:    -0.623      0.000      0.000
REMARK INTER + INTRA:           0.528
REMARK INTER:                  -1.644
REMARK INTRA:                   2.171
REMARK UNBOUND:                 2.171
REMARK SMILES CCCCCCCCCCCCCCCCCCCCCCCCCCCCCC(=O)[O-]
REMARK SMILES IDX 16 1 17 2 18 3 19 4 20 5 21 6 22 7 23 8 24 9 25 10 26 11
REMARK SMILES IDX 27 12 28 13 29 14 30 15 31 16 32 17 15 18 14 19 13 20 12 21
REMARK SMILES IDX 11 22 10 23 9 24 8 25 7 26 6 27 5 28 4 29 3 30 2 31 1 32
REMARK H PARENT
REMARK Flexibility Score: inf
ROOT
ATOM      1  C   UNL     1      -6.432 -10.575   3.157  1.00  0.00     0.000 C 
ENDROOT
BRANCH   1   2
ATOM      2  C   UNL     1      -6.930 -12.005   2.886  1.00  0.00     0.000 C 
BRANCH   2   3
ATOM      3  C   UNL     1      -8.048 -12.042   1.829  1.00  0.00     0.000 C 
BRANCH   3   4
ATOM      4  C   UNL     1      -9.294 -11.255   2.274  1.00  0.00     0.000 C 
BRANCH   4   5
ATOM      5  C   UNL     1     -10.609 -11.974   1.904  1.00  0.00     0.000 C 
BRANCH   5   6
ATOM      6  C   UNL     1     -10.829 -12.124   0.386  1.00  0.00     0.000 C 
BRANCH   6   7
ATOM      7  C   UNL     1      -9.654 -11.657  -0.488  1.00  0.00     0.000 C 
BRANCH   7   8
ATOM      8  C   UNL     1      -9.944 -10.333  -1.213  1.00  0.00     0.000 C 
BRANCH   8   9
ATOM      9  C   UNL     1     -11.357 -10.333  -1.815  1.00  0.00     0.000 C 
BRANCH   9  10
ATOM     10  C   UNL     1     -11.510  -9.339  -2.982  1.00  0.00     0.000 C 
BRANCH  10  11
ATOM     11  C   UNL     1     -11.701  -9.982  -4.371  1.00  0.00     0.000 C 
BRANCH  11  12
ATOM     12  C   UNL     1     -10.471 -10.726  -4.923  1.00  0.00     0.000 C 
BRANCH  12  13
ATOM     13  C   UNL     1      -9.327  -9.774  -5.314  1.00  0.00     0.006 C 
BRANCH  13  14
ATOM     14  C   UNL     1      -7.953 -10.316  -4.899  1.00  0.00     0.053 C 
BRANCH  14  15
ATOM     15  C   UNL     1      -6.830  -9.557  -5.535  1.00  0.00     0.041 C 
ATOM     16  O   UNL     1      -7.006  -8.374  -5.931  1.00  0.00    -0.550 OA
ATOM     17  O   UNL     1      -5.581 -10.151  -5.672  1.00  0.00    -0.550 OA
ENDBRANCH  14  15
ENDBRANCH  13  14
ENDBRANCH  12  13
ENDBRANCH  11  12
ENDBRANCH  10  11
ENDBRANCH   9  10
ENDBRANCH   8   9
ENDBRANCH   7   8
ENDBRANCH   6   7
ENDBRANCH   5   6
ENDBRANCH   4   5
ENDBRANCH   3   4
ENDBRANCH   2   3
ENDBRANCH   1   2
BRANCH   1  18
ATOM     18  C   UNL     1      -5.241 -10.541   4.129  1.00  0.00     0.000 C 
BRANCH  18  19
ATOM     19  C   UNL     1      -5.432 -11.491   5.326  1.00  0.00     0.000 C 
BRANCH  19  20
ATOM     20  C   UNL     1      -6.844 -11.406   5.927  1.00  0.00     0.000 C 
BRANCH  20  21
ATOM     21  C   UNL     1      -7.921 -11.967   4.981  1.00  0.00     0.000 C 
BRANCH  21  22
ATOM     22  C   UNL     1      -9.294 -12.092   5.658  1.00  0.00     0.000 C 
BRANCH  22  23
ATOM     23  C   UNL     1      -9.205 -12.106   7.191  1.00  0.00     0.000 C 
BRANCH  23  24
ATOM     24  C   UNL     1      -9.919 -10.890   7.796  1.00  0.00    -0.000 C 
BRANCH  24  25
ATOM     25  C   UNL     1     -11.403 -11.196   8.049  1.00  0.00    -0.000 C 
BRANCH  25  26
ATOM     26  C   UNL     1     -11.773 -11.154   9.540  1.00  0.00    -0.000 C 
BRANCH  26  27
ATOM     27  C   UNL     1     -10.539 -11.052  10.453  1.00  0.00    -0.000 C 
BRANCH  27  28
ATOM     28  C   UNL     1     -10.691 -11.875  11.741  1.00  0.00    -0.000 C 
BRANCH  28  29
ATOM     29  C   UNL     1     -11.932 -11.474  12.559  1.00  0.00    -0.000 C 
BRANCH  29  30
ATOM     30  C   UNL     1     -11.655 -10.320  13.538  1.00  0.00    -0.000 C 
BRANCH  30  31
ATOM     31  C   UNL     1     -12.010  -8.921  13.004  1.00  0.00    -0.003 C 
ATOM     32  C   UNL     1     -11.561  -7.794  13.936  1.00  0.00     0.004 C 
ENDBRANCH  30  31
ENDBRANCH  29  30
ENDBRANCH  28  29
ENDBRANCH  27  28
ENDBRANCH  26  27
ENDBRANCH  25  26
ENDBRANCH  24  25
ENDBRANCH  23  24
ENDBRANCH  22  23
ENDBRANCH  21  22
ENDBRANCH  20  21
ENDBRANCH  19  20
ENDBRANCH  18  19
ENDBRANCH   1  18
TORSDOF 28
ENDMDL
MODEL 2
REMARK VINA RESULT:     0.710      1.739      4.340
REMARK INTER + INTRA:           4.043
REMARK INTER:                   4.753
REMARK INTRA:                  -0.710
REMARK UNBOUND:                 2.171
REMARK SMILES CCCCCCCCCCCCCCCCCCCCCCCCCCCCCC(=O)[O-]
REMARK SMILES IDX 16 1 17 2 18 3 19 4 20 5 21 6 22 7 23 8 24 9 25 10 26 11
REMARK SMILES IDX 27 12 28 13 29 14 30 15 31 16 32 17 15 18 14 19 13 20 12 21
REMARK SMILES IDX 11 22 10 23 9 24 8 25 7 26 6 27 5 28 4 29 3 30 2 31 1 32
REMARK H PARENT
REMARK Flexibility Score: inf
ROOT
ATOM      1  C   UNL     1      -8.847 -11.296   6.928  1.00  0.00     0.000 C 
ENDROOT
BRANCH   1   2
ATOM      2  C   UNL     1      -9.167 -11.780   5.504  1.00  0.00     0.000 C 
BRANCH   2   3
ATOM      3  C   UNL     1     -10.671 -11.704   5.188  1.00  0.00     0.000 C 
BRANCH   3   4
ATOM      4  C   UNL     1     -10.959 -11.881   3.686  1.00  0.00     0.000 C 
BRANCH   4   5
ATOM      5  C   UNL     1      -9.670 -12.008   2.848  1.00  0.00     0.000 C 
BRANCH   5   6
ATOM      6  C   UNL     1      -9.897 -11.865   1.330  1.00  0.00     0.000 C 
BRANCH   6   7
ATOM      7  C   UNL     1     -11.357 -12.029   0.877  1.00  0.00     0.000 C 
BRANCH   7   8
ATOM      8  C   UNL     1     -11.754 -11.024  -0.216  1.00  0.00     0.000 C 
BRANCH   8   9
ATOM      9  C   UNL     1     -11.040 -11.337  -1.539  1.00  0.00     0.000 C 
BRANCH   9  10
ATOM     10  C   UNL     1     -11.971 -11.235  -2.761  1.00  0.00     0.000 C 
BRANCH  10  11
ATOM     11  C   UNL     1     -11.299 -11.504  -4.123  1.00  0.00     0.000 C 
BRANCH  11  12
ATOM     12  C   UNL     1     -10.564 -10.300  -4.740  1.00  0.00     0.000 C 
BRANCH  12  13
ATOM     13  C   UNL     1      -9.651 -10.699  -5.913  1.00  0.00     0.006 C 
BRANCH  13  14
ATOM     14  C   UNL     1      -8.398  -9.817  -5.999  1.00  0.00     0.053 C 
BRANCH  14  15
ATOM     15  C   UNL     1      -7.320 -10.274  -5.065  1.00  0.00     0.041 C 
ATOM     16  O   UNL     1      -6.114  -9.997  -5.303  1.00  0.00    -0.550 OA
ATOM     17  O   UNL     1      -7.651 -10.990  -3.921  1.00  0.00    -0.550 OA
ENDBRANCH  14  15
ENDBRANCH  13  14
ENDBRANCH  12  13
ENDBRANCH  11  12
ENDBRANCH  10  11
ENDBRANCH   9  10
ENDBRANCH   8   9
ENDBRANCH   7   8
ENDBRANCH   6   7
ENDBRANCH   5   6
ENDBRANCH   4   5
ENDBRANCH   3   4
ENDBRANCH   2   3
ENDBRANCH   1   2
BRANCH   1  18
ATOM     18  C   UNL     1      -9.564 -12.125   8.006  1.00  0.00     0.000 C 
BRANCH  18  19
ATOM     19  C   UNL     1     -10.562 -11.285   8.826  1.00  0.00     0.000 C 
BRANCH  19  20
ATOM     20  C   UNL     1     -11.321 -12.123   9.868  1.00  0.00     0.000 C 
BRANCH  20  21
ATOM     21  C   UNL     1     -11.966 -11.255  10.963  1.00  0.00     0.000 C 
BRANCH  21  22
ATOM     22  C   UNL     1     -11.863 -11.894  12.357  1.00  0.00     0.000 C 
BRANCH  22  23
ATOM     23  C   UNL     1     -10.923 -11.125  13.298  1.00  0.00     0.000 C 
BRANCH  23  24
ATOM     24  C   UNL     1     -11.696 -10.089  14.125  1.00  0.00    -0.000 C 
BRANCH  24  25
ATOM     25  C   UNL     1     -11.193  -8.668  13.830  1.00  0.00    -0.000 C 
BRANCH  25  26
ATOM     26  C   UNL     1     -11.769  -8.093  12.527  1.00  0.00    -0.000 C 
BRANCH  26  27
ATOM     27  C   UNL     1     -10.676  -7.729  11.506  1.00  0.00    -0.000 C 
BRANCH  27  28
ATOM     28  C   UNL     1     -10.313  -8.908  10.590  1.00  0.00    -0.000 C 
BRANCH  28  29
ATOM     29  C   UNL     1      -9.610  -8.459   9.296  1.00  0.00    -0.000 C 
BRANCH  29  30
ATOM     30  C   UNL     1     -10.426  -7.427   8.499  1.00  0.00    -0.000 C 
BRANCH  30  31
ATOM     31  C   UNL     1     -11.911  -7.786   8.307  1.00  0.00    -0.003 C 
ATOM     32  C   UNL     1     -12.125  -8.925   7.309  1.00  0.00     0.004 C 
ENDBRANCH  30  31
ENDBRANCH  29  30
ENDBRANCH  28  29
ENDBRANCH  27  28
ENDBRANCH  26  27
ENDBRANCH  25  26
ENDBRANCH  24  25
ENDBRANCH  23  24
ENDBRANCH  22  23
ENDBRANCH  21  22
ENDBRANCH  20  21
ENDBRANCH  19  20
ENDBRANCH  18  19
ENDBRANCH   1  18
TORSDOF 28
ENDMDL
MODEL 3
REMARK VINA RESULT:     1.241      5.229     13.616
REMARK INTER + INTRA:           5.443
REMARK INTER:                   3.636
REMARK INTRA:                   1.806
REMARK UNBOUND:                 2.171
REMARK SMILES CCCCCCCCCCCCCCCCCCCCCCCCCCCCCC(=O)[O-]
REMARK SMILES IDX 16 1 17 2 18 3 19 4 20 5 21 6 22 7 23 8 24 9 25 10 26 11
REMARK SMILES IDX 27 12 28 13 29 14 30 15 31 16 32 17 15 18 14 19 13 20 12 21
REMARK SMILES IDX 11 22 10 23 9 24 8 25 7 26 6 27 5 28 4 29 3 30 2 31 1 32
REMARK H PARENT
REMARK Flexibility Score: inf
ROOT
ATOM      1  C   UNL     1      -8.641 -10.885   3.975  1.00  0.00     0.000 C 
ENDROOT
BRANCH   1   2
ATOM      2  C   UNL     1      -7.592 -11.457   4.944  1.00  0.00     0.000 C 
BRANCH   2   3
ATOM      3  C   UNL     1      -8.069 -11.418   6.406  1.00  0.00     0.000 C 
BRANCH   3   4
ATOM      4  C   UNL     1      -9.423 -12.124   6.595  1.00  0.00     0.000 C 
BRANCH   4   5
ATOM      5  C   UNL     1     -10.053 -11.833   7.974  1.00  0.00     0.000 C 
BRANCH   5   6
ATOM      6  C   UNL     1     -11.545 -11.448   7.907  1.00  0.00     0.000 C 
BRANCH   6   7
ATOM      7  C   UNL     1     -11.817  -9.949   7.698  1.00  0.00     0.000 C 
BRANCH   7   8
ATOM      8  C   UNL     1     -12.083  -9.205   9.016  1.00  0.00     0.000 C 
BRANCH   8   9
ATOM      9  C   UNL     1     -11.059  -9.603  10.089  1.00  0.00     0.000 C 
BRANCH   9  10
ATOM     10  C   UNL     1     -11.529 -10.784  10.958  1.00  0.00     0.000 C 
BRANCH  10  11
ATOM     11  C   UNL     1     -10.402 -11.610  11.608  1.00  0.00     0.000 C 
BRANCH  11  12
ATOM     12  C   UNL     1     -10.646 -12.010  13.075  1.00  0.00     0.000 C 
BRANCH  12  13
ATOM     13  C   UNL     1     -11.936 -11.400  13.651  1.00  0.00     0.006 C 
BRANCH  13  14
ATOM     14  C   UNL     1     -12.122  -9.935  13.232  1.00  0.00     0.053 C 
BRANCH  14  15
ATOM     15  C   UNL     1     -11.050  -9.049  13.785  1.00  0.00     0.041 C 
ATOM     16  O   UNL     1      -9.922  -9.525  14.084  1.00  0.00    -0.550 OA
ATOM     17  O   UNL     1     -11.290  -7.690  13.951  1.00  0.00    -0.550 OA
ENDBRANCH  14  15
ENDBRANCH  13  14
ENDBRANCH  12  13
ENDBRANCH  11  12
ENDBRANCH  10  11
ENDBRANCH   9  10
ENDBRANCH   8   9
ENDBRANCH   7   8
ENDBRANCH   6   7
ENDBRANCH   5   6
ENDBRANCH   4   5
ENDBRANCH   3   4
ENDBRANCH   2   3
ENDBRANCH   1   2
BRANCH   1  18
ATOM     18  C   UNL     1      -9.772 -11.883   3.677  1.00  0.00     0.000 C 
BRANCH  18  19
ATOM     19  C   UNL     1     -11.148 -11.199   3.573  1.00  0.00     0.000 C 
BRANCH  19  20
ATOM     20  C   UNL     1     -12.096 -11.925   2.604  1.00  0.00     0.000 C 
BRANCH  20  21
ATOM     21  C   UNL     1     -11.472 -12.125   1.211  1.00  0.00     0.000 C 
BRANCH  21  22
ATOM     22  C   UNL     1     -10.983 -10.807   0.589  1.00  0.00     0.000 C 
BRANCH  22  23
ATOM     23  C   UNL     1     -10.562 -10.960  -0.880  1.00  0.00     0.000 C 
BRANCH  23  24
ATOM     24  C   UNL     1     -11.768 -11.296  -1.767  1.00  0.00    -0.000 C 
BRANCH  24  25
ATOM     25  C   UNL     1     -11.821 -10.370  -2.993  1.00  0.00    -0.000 C 
BRANCH  25  26
ATOM     26  C   UNL     1     -11.416 -11.082  -4.292  1.00  0.00    -0.000 C 
BRANCH  26  27
ATOM     27  C   UNL     1      -9.925 -10.899  -4.627  1.00  0.00    -0.000 C 
BRANCH  27  28
ATOM     28  C   UNL     1      -9.707 -10.243  -5.999  1.00  0.00    -0.000 C 
BRANCH  28  29
ATOM     29  C   UNL     1      -9.201  -8.793  -5.890  1.00  0.00    -0.000 C 
BRANCH  29  30
ATOM     30  C   UNL     1      -7.683  -8.672  -6.114  1.00  0.00    -0.000 C 
BRANCH  30  31
ATOM     31  C   UNL     1      -6.857  -9.864  -5.598  1.00  0.00    -0.003 C 
ATOM     32  C   UNL     1      -5.349  -9.612  -5.651  1.00  0.00     0.004 C 
ENDBRANCH  30  31
ENDBRANCH  29  30
ENDBRANCH  28  29
ENDBRANCH  27  28
ENDBRANCH  26  27
ENDBRANCH  25  26
ENDBRANCH  24  25
ENDBRANCH  23  24
ENDBRANCH  22  23
ENDBRANCH  21  22
ENDBRANCH  20  21
ENDBRANCH  19  20
ENDBRANCH  18  19
ENDBRANCH   1  18
TORSDOF 28
ENDMDL
