MODEL 1
REMARK VINA RESULT:    -0.203      0.000      0.000
REMARK INTER + INTRA:          -0.426
REMARK INTER:                  -0.214
REMARK INTRA:                  -0.211
REMARK UNBOUND:                -0.211
REMARK SMILES C=C(C)[C@H]1CC[C@H](C)[C@]12CC=C(C)CC2
REMARK SMILES IDX 8 1 7 2 6 3 5 4 4 5 9 6 15 7 14 8 12 9 11 10 10 11 13 12
REMARK SMILES IDX 2 13 1 14 3 15
REMARK H PARENT
REMARK Flexibility Score: inf
ROOT
ATOM      1  C   UNL     1       4.809   9.006  10.881  1.00  0.00     0.008 C 
ATOM      2  C   UNL     1       4.957   8.604  12.368  1.00  0.00    -0.007 C 
ATOM      3  C   UNL     1       3.844   7.609  12.746  1.00  0.00     0.004 C 
ATOM      4  C   UNL     1       4.488   6.225  12.836  1.00  0.00     0.009 C 
ATOM      5  C   UNL     1       5.944   6.398  12.379  1.00  0.00     0.021 C 
ATOM      6  C   UNL     1       6.293   7.875  12.732  1.00  0.00    -0.017 C 
ATOM      7  C   UNL     1       6.557   8.045  14.287  1.00  0.00     0.012 C 
ATOM      8  C   UNL     1       7.725   8.986  14.612  1.00  0.00     0.031 C 
ATOM      9  C   UNL     1       8.951   8.515  13.870  1.00  0.00    -0.077 C 
ATOM     10  C   UNL     1       8.827   8.213  12.570  1.00  0.00    -0.027 C 
ATOM     11  C   UNL     1       7.501   8.418  11.887  1.00  0.00     0.035 C 
ATOM     12  C   UNL     1      10.261   8.298  14.577  1.00  0.00     0.039 C 
ENDROOT
BRANCH   5  13
ATOM     13  C   UNL     1       6.917   5.318  12.873  1.00  0.00    -0.077 C 
ATOM     14  C   UNL     1       6.814   4.875  14.138  1.00  0.00     0.008 C 
ATOM     15  C   UNL     1       8.108   4.875  12.051  1.00  0.00     0.039 C 
ENDBRANCH   5  13
TORSDOF 1
ENDMDL
