MODEL 1
REMARK VINA RESULT:    -4.991      0.000      0.000
REMARK INTER + INTRA:          -9.912
REMARK INTER:                  -9.076
REMARK INTRA:                  -0.836
REMARK UNBOUND:                -0.836
REMARK SMILES CCCCCC=CCC=CCCCCCCCC(=O)[O-]
REMARK SMILES IDX 11 1 12 2 13 3 14 4 15 5 16 6 17 7 18 8 19 9 20 10 10 11
REMARK SMILES IDX 9 12 8 13 7 14 6 15 5 16 4 17 3 18 2 19 1 20
REMARK H PARENT
REMARK Flexibility Score: inf
ROOT
ATOM      1  C   UNL     1      45.081  28.089   2.226  1.00  0.00     0.027 C 
ENDROOT
BRANCH   1   2
ATOM      2  C   UNL     1      45.204  27.671   0.750  1.00  0.00     0.004 C 
BRANCH   2   3
ATOM      3  C   UNL     1      45.918  28.698  -0.153  1.00  0.00     0.000 C 
BRANCH   3   4
ATOM      4  C   UNL     1      45.377  28.791  -1.590  1.00  0.00     0.000 C 
BRANCH   4   5
ATOM      5  C   UNL     1      45.035  27.419  -2.192  1.00  0.00     0.000 C 
BRANCH   5   6
ATOM      6  C   UNL     1      44.606  27.552  -3.658  1.00  0.00     0.006 C 
BRANCH   6   7
ATOM      7  C   UNL     1      43.427  28.520  -3.799  1.00  0.00     0.053 C 
BRANCH   7   8
ATOM      8  C   UNL     1      42.746  28.331  -5.117  1.00  0.00     0.041 C 
ATOM      9  O   UNL     1      41.536  28.647  -5.255  1.00  0.00    -0.550 OA
ATOM     10  O   UNL     1      43.458  27.841  -6.205  1.00  0.00    -0.550 OA
ENDBRANCH   7   8
ENDBRANCH   6   7
ENDBRANCH   5   6
ENDBRANCH   4   5
ENDBRANCH   3   4
ENDBRANCH   2   3
ENDBRANCH   1   2
BRANCH   1  11
ATOM     11  C   UNL     1      44.317  27.085   3.054  1.00  0.00    -0.031 C 
ATOM     12  C   UNL     1      44.884  26.147   3.834  1.00  0.00    -0.027 C 
BRANCH  12  13
ATOM     13  C   UNL     1      46.375  25.956   3.966  1.00  0.00     0.054 C 
BRANCH  13  14
ATOM     14  C   UNL     1      46.844  26.315   5.348  1.00  0.00    -0.027 C 
ATOM     15  C   UNL     1      45.991  26.759   6.283  1.00  0.00    -0.031 C 
BRANCH  15  16
ATOM     16  C   UNL     1      46.460  27.138   7.661  1.00  0.00     0.027 C 
BRANCH  16  17
ATOM     17  C   UNL     1      45.390  26.826   8.719  1.00  0.00     0.004 C 
BRANCH  17  18
ATOM     18  C   UNL     1      45.534  27.691   9.980  1.00  0.00     0.000 C 
BRANCH  18  19
ATOM     19  C   UNL     1      44.466  28.791  10.070  1.00  0.00    -0.003 C 
ATOM     20  C   UNL     1      44.825  29.981   9.186  1.00  0.00     0.004 C 
ENDBRANCH  18  19
ENDBRANCH  17  18
ENDBRANCH  16  17
ENDBRANCH  15  16
ENDBRANCH  13  14
ENDBRANCH  12  13
ENDBRANCH   1  11
TORSDOF 14
ENDMDL
MODEL 2
REMARK VINA RESULT:    -4.927      5.090     10.403
REMARK INTER + INTRA:          -9.795
REMARK INTER:                  -8.473
REMARK INTRA:                  -1.322
REMARK UNBOUND:                -0.836
REMARK SMILES CCCCCC=CCC=CCCCCCCCC(=O)[O-]
REMARK SMILES IDX 11 1 12 2 13 3 14 4 15 5 16 6 17 7 18 8 19 9 20 10 10 11
REMARK SMILES IDX 9 12 8 13 7 14 6 15 5 16 4 17 3 18 2 19 1 20
REMARK H PARENT
REMARK Flexibility Score: inf
ROOT
ATOM      1  C   UNL     1      44.152  27.066   2.617  1.00  0.00     0.027 C 
ENDROOT
BRANCH   1   2
ATOM      2  C   UNL     1      44.663  26.316   3.860  1.00  0.00     0.004 C 
BRANCH   2   3
ATOM      3  C   UNL     1      46.170  25.983   3.837  1.00  0.00     0.000 C 
BRANCH   3   4
ATOM      4  C   UNL     1      47.020  26.737   4.875  1.00  0.00     0.000 C 
BRANCH   4   5
ATOM      5  C   UNL     1      46.195  27.706   5.735  1.00  0.00     0.000 C 
BRANCH   5   6
ATOM      6  C   UNL     1      46.016  27.163   7.158  1.00  0.00     0.006 C 
BRANCH   6   7
ATOM      7  C   UNL     1      45.525  28.260   8.107  1.00  0.00     0.053 C 
BRANCH   7   8
ATOM      8  C   UNL     1      45.085  27.672   9.409  1.00  0.00     0.041 C 
ATOM      9  O   UNL     1      44.490  28.386  10.258  1.00  0.00    -0.550 OA
ATOM     10  O   UNL     1      45.297  26.324   9.672  1.00  0.00    -0.550 OA
ENDBRANCH   7   8
ENDBRANCH   6   7
ENDBRANCH   5   6
ENDBRANCH   4   5
ENDBRANCH   3   4
ENDBRANCH   2   3
ENDBRANCH   1   2
BRANCH   1  11
ATOM     11  C   UNL     1      44.265  28.565   2.753  1.00  0.00    -0.031 C 
ATOM     12  C   UNL     1      45.129  29.332   2.065  1.00  0.00    -0.027 C 
BRANCH  12  13
ATOM     13  C   UNL     1      46.128  28.787   1.073  1.00  0.00     0.054 C 
BRANCH  13  14
ATOM     14  C   UNL     1      45.727  29.125  -0.336  1.00  0.00    -0.027 C 
ATOM     15  C   UNL     1      45.243  28.190  -1.169  1.00  0.00    -0.031 C 
BRANCH  15  16
ATOM     16  C   UNL     1      44.861  28.521  -2.585  1.00  0.00     0.027 C 
BRANCH  16  17
ATOM     17  C   UNL     1      44.803  27.255  -3.455  1.00  0.00     0.004 C 
BRANCH  17  18
ATOM     18  C   UNL     1      43.371  26.892  -3.875  1.00  0.00     0.000 C 
BRANCH  18  19
ATOM     19  C   UNL     1      42.538  28.122  -4.267  1.00  0.00    -0.003 C 
ATOM     20  C   UNL     1      42.804  28.528  -5.713  1.00  0.00     0.004 C 
ENDBRANCH  18  19
ENDBRANCH  17  18
ENDBRANCH  16  17
ENDBRANCH  15  16
ENDBRANCH  13  14
ENDBRANCH  12  13
ENDBRANCH   1  11
TORSDOF 14
ENDMDL
MODEL 3
REMARK VINA RESULT:    -4.869      1.001      2.019
REMARK INTER + INTRA:          -9.690
REMARK INTER:                  -8.634
REMARK INTRA:                  -1.056
REMARK UNBOUND:                -0.836
REMARK SMILES CCCCCC=CCC=CCCCCCCCC(=O)[O-]
REMARK SMILES IDX 11 1 12 2 13 3 14 4 15 5 16 6 17 7 18 8 19 9 20 10 10 11
REMARK SMILES IDX 9 12 8 13 7 14 6 15 5 16 4 17 3 18 2 19 1 20
REMARK H PARENT
REMARK Flexibility Score: inf
ROOT
ATOM      1  C   UNL     1      45.636  27.962   0.550  1.00  0.00     0.027 C 
ENDROOT
BRANCH   1   2
ATOM      2  C   UNL     1      46.061  28.748  -0.703  1.00  0.00     0.004 C 
BRANCH   2   3
ATOM      3  C   UNL     1      46.089  27.919  -2.005  1.00  0.00     0.000 C 
BRANCH   3   4
ATOM      4  C   UNL     1      44.912  28.171  -2.963  1.00  0.00     0.000 C 
BRANCH   4   5
ATOM      5  C   UNL     1      44.331  29.588  -2.839  1.00  0.00     0.000 C 
BRANCH   5   6
ATOM      6  C   UNL     1      42.887  29.637  -3.353  1.00  0.00     0.006 C 
BRANCH   6   7
ATOM      7  C   UNL     1      42.573  28.420  -4.228  1.00  0.00     0.053 C 
BRANCH   7   8
ATOM      8  C   UNL     1      42.262  28.844  -5.627  1.00  0.00     0.041 C 
ATOM      9  O   UNL     1      41.228  29.520  -5.869  1.00  0.00    -0.550 OA
ATOM     10  O   UNL     1      43.134  28.526  -6.661  1.00  0.00    -0.550 OA
ENDBRANCH   7   8
ENDBRANCH   6   7
ENDBRANCH   5   6
ENDBRANCH   4   5
ENDBRANCH   3   4
ENDBRANCH   2   3
ENDBRANCH   1   2
BRANCH   1  11
ATOM     11  C   UNL     1      45.172  28.858   1.671  1.00  0.00    -0.031 C 
ATOM     12  C   UNL     1      44.508  28.437   2.763  1.00  0.00    -0.027 C 
BRANCH  12  13
ATOM     13  C   UNL     1      44.115  27.000   3.001  1.00  0.00     0.054 C 
BRANCH  13  14
ATOM     14  C   UNL     1      45.047  26.341   3.979  1.00  0.00    -0.027 C 
ATOM     15  C   UNL     1      45.777  27.062   4.845  1.00  0.00    -0.031 C 
BRANCH  15  16
ATOM     16  C   UNL     1      46.726  26.407   5.810  1.00  0.00     0.027 C 
BRANCH  16  17
ATOM     17  C   UNL     1      46.411  26.810   7.259  1.00  0.00     0.004 C 
BRANCH  17  18
ATOM     18  C   UNL     1      45.931  28.264   7.378  1.00  0.00     0.000 C 
BRANCH  18  19
ATOM     19  C   UNL     1      45.079  28.507   8.633  1.00  0.00    -0.003 C 
ATOM     20  C   UNL     1      45.143  27.313   9.580  1.00  0.00     0.004 C 
ENDBRANCH  18  19
ENDBRANCH  17  18
ENDBRANCH  16  17
ENDBRANCH  15  16
ENDBRANCH  13  14
ENDBRANCH  12  13
ENDBRANCH   1  11
TORSDOF 14
ENDMDL
MODEL 4
REMARK VINA RESULT:    -4.683      1.221      1.879
REMARK INTER + INTRA:          -9.351
REMARK INTER:                  -8.177
REMARK INTRA:                  -1.174
REMARK UNBOUND:                -0.836
REMARK SMILES CCCCCC=CCC=CCCCCCCCC(=O)[O-]
REMARK SMILES IDX 11 1 12 2 13 3 14 4 15 5 16 6 17 7 18 8 19 9 20 10 10 11
REMARK SMILES IDX 9 12 8 13 7 14 6 15 5 16 4 17 3 18 2 19 1 20
REMARK H PARENT
REMARK Flexibility Score: inf
ROOT
ATOM      1  C   UNL     1      45.212  27.685   1.711  1.00  0.00     0.027 C 
ENDROOT
BRANCH   1   2
ATOM      2  C   UNL     1      45.526  29.173   1.947  1.00  0.00     0.004 C 
BRANCH   2   3
ATOM      3  C   UNL     1      46.110  29.909   0.723  1.00  0.00     0.000 C 
BRANCH   3   4
ATOM      4  C   UNL     1      45.127  30.120  -0.441  1.00  0.00     0.000 C 
BRANCH   4   5
ATOM      5  C   UNL     1      45.679  29.628  -1.788  1.00  0.00     0.000 C 
BRANCH   5   6
ATOM      6  C   UNL     1      44.795  28.520  -2.374  1.00  0.00     0.006 C 
BRANCH   6   7
ATOM      7  C   UNL     1      43.803  29.089  -3.392  1.00  0.00     0.053 C 
BRANCH   7   8
ATOM      8  C   UNL     1      42.957  27.999  -3.968  1.00  0.00     0.041 C 
ATOM      9  O   UNL     1      43.280  26.793  -3.803  1.00  0.00    -0.550 OA
ATOM     10  O   UNL     1      41.791  28.311  -4.655  1.00  0.00    -0.550 OA
ENDBRANCH   7   8
ENDBRANCH   6   7
ENDBRANCH   5   6
ENDBRANCH   4   5
ENDBRANCH   3   4
ENDBRANCH   2   3
ENDBRANCH   1   2
BRANCH   1  11
ATOM     11  C   UNL     1      44.210  27.137   2.698  1.00  0.00    -0.031 C 
ATOM     12  C   UNL     1      44.524  26.390   3.772  1.00  0.00    -0.027 C 
BRANCH  12  13
ATOM     13  C   UNL     1      45.933  25.977   4.122  1.00  0.00     0.054 C 
BRANCH  13  14
ATOM     14  C   UNL     1      46.321  26.484   5.482  1.00  0.00    -0.027 C 
ATOM     15  C   UNL     1      46.043  27.740   5.866  1.00  0.00    -0.031 C 
BRANCH  15  16
ATOM     16  C   UNL     1      46.448  28.257   7.218  1.00  0.00     0.027 C 
BRANCH  16  17
ATOM     17  C   UNL     1      45.219  28.551   8.093  1.00  0.00     0.004 C 
BRANCH  17  18
ATOM     18  C   UNL     1      45.208  27.730   9.392  1.00  0.00     0.000 C 
BRANCH  18  19
ATOM     19  C   UNL     1      45.939  26.387   9.251  1.00  0.00    -0.003 C 
ATOM     20  C   UNL     1      46.715  26.047  10.519  1.00  0.00     0.004 C 
ENDBRANCH  18  19
ENDBRANCH  17  18
ENDBRANCH  16  17
ENDBRANCH  15  16
ENDBRANCH  13  14
ENDBRANCH  12  13
ENDBRANCH   1  11
TORSDOF 14
ENDMDL
MODEL 5
REMARK VINA RESULT:    -4.668      5.542     10.795
REMARK INTER + INTRA:          -9.324
REMARK INTER:                  -8.251
REMARK INTRA:                  -1.073
REMARK UNBOUND:                -0.836
REMARK SMILES CCCCCC=CCC=CCCCCCCCC(=O)[O-]
REMARK SMILES IDX 11 1 12 2 13 3 14 4 15 5 16 6 17 7 18 8 19 9 20 10 10 11
REMARK SMILES IDX 9 12 8 13 7 14 6 15 5 16 4 17 3 18 2 19 1 20
REMARK H PARENT
REMARK Flexibility Score: inf
ROOT
ATOM      1  C   UNL     1      45.509  26.005   4.079  1.00  0.00     0.027 C 
ENDROOT
BRANCH   1   2
ATOM      2  C   UNL     1      45.701  26.451   5.539  1.00  0.00     0.004 C 
BRANCH   2   3
ATOM      3  C   UNL     1      47.010  27.221   5.811  1.00  0.00     0.000 C 
BRANCH   3   4
ATOM      4  C   UNL     1      46.982  28.139   7.046  1.00  0.00     0.000 C 
BRANCH   4   5
ATOM      5  C   UNL     1      45.572  28.645   7.385  1.00  0.00     0.000 C 
BRANCH   5   6
ATOM      6  C   UNL     1      45.235  28.390   8.859  1.00  0.00     0.006 C 
BRANCH   6   7
ATOM      7  C   UNL     1      45.330  26.899   9.195  1.00  0.00     0.053 C 
BRANCH   7   8
ATOM      8  C   UNL     1      46.210  26.683  10.384  1.00  0.00     0.041 C 
ATOM      9  O   UNL     1      46.623  27.666  11.054  1.00  0.00    -0.550 OA
ATOM     10  O   UNL     1      46.544  25.393  10.779  1.00  0.00    -0.550 OA
ENDBRANCH   7   8
ENDBRANCH   6   7
ENDBRANCH   5   6
ENDBRANCH   4   5
ENDBRANCH   3   4
ENDBRANCH   2   3
ENDBRANCH   1   2
BRANCH   1  11
ATOM     11  C   UNL     1      44.330  26.673   3.415  1.00  0.00    -0.031 C 
ATOM     12  C   UNL     1      44.412  27.477   2.339  1.00  0.00    -0.027 C 
BRANCH  12  13
ATOM     13  C   UNL     1      45.710  27.840   1.662  1.00  0.00     0.054 C 
BRANCH  13  14
ATOM     14  C   UNL     1      45.475  28.791   0.522  1.00  0.00    -0.027 C 
ATOM     15  C   UNL     1      45.492  28.372  -0.754  1.00  0.00    -0.031 C 
BRANCH  15  16
ATOM     16  C   UNL     1      45.278  29.324  -1.898  1.00  0.00     0.027 C 
BRANCH  16  17
ATOM     17  C   UNL     1      45.097  28.569  -3.224  1.00  0.00     0.004 C 
BRANCH  17  18
ATOM     18  C   UNL     1      44.553  27.146  -3.024  1.00  0.00     0.000 C 
BRANCH  18  19
ATOM     19  C   UNL     1      43.264  26.886  -3.818  1.00  0.00    -0.003 C 
ATOM     20  C   UNL     1      42.760  28.165  -4.480  1.00  0.00     0.004 C 
ENDBRANCH  18  19
ENDBRANCH  17  18
ENDBRANCH  16  17
ENDBRANCH  15  16
ENDBRANCH  13  14
ENDBRANCH  12  13
ENDBRANCH   1  11
TORSDOF 14
ENDMDL
MODEL 6
REMARK VINA RESULT:    -4.647      1.292      1.649
REMARK INTER + INTRA:          -9.286
REMARK INTER:                  -8.045
REMARK INTRA:                  -1.241
REMARK UNBOUND:                -0.836
REMARK SMILES CCCCCC=CCC=CCCCCCCCC(=O)[O-]
REMARK SMILES IDX 11 1 12 2 13 3 14 4 15 5 16 6 17 7 18 8 19 9 20 10 10 11
REMARK SMILES IDX 9 12 8 13 7 14 6 15 5 16 4 17 3 18 2 19 1 20
REMARK H PARENT
REMARK Flexibility Score: inf
ROOT
ATOM      1  C   UNL     1      45.170  27.643   1.630  1.00  0.00     0.027 C 
ENDROOT
BRANCH   1   2
ATOM      2  C   UNL     1      45.869  28.974   1.959  1.00  0.00     0.004 C 
BRANCH   2   3
ATOM      3  C   UNL     1      45.787  30.037   0.843  1.00  0.00     0.000 C 
BRANCH   3   4
ATOM      4  C   UNL     1      45.440  29.491  -0.553  1.00  0.00     0.000 C 
BRANCH   4   5
ATOM      5  C   UNL     1      46.683  29.158  -1.393  1.00  0.00     0.000 C 
BRANCH   5   6
ATOM      6  C   UNL     1      46.468  27.879  -2.210  1.00  0.00     0.006 C 
BRANCH   6   7
ATOM      7  C   UNL     1      45.003  27.434  -2.161  1.00  0.00     0.053 C 
BRANCH   7   8
ATOM      8  C   UNL     1      44.463  27.250  -3.543  1.00  0.00     0.041 C 
ATOM      9  O   UNL     1      43.406  26.591  -3.726  1.00  0.00    -0.550 OA
ATOM     10  O   UNL     1      45.103  27.838  -4.626  1.00  0.00    -0.550 OA
ENDBRANCH   7   8
ENDBRANCH   6   7
ENDBRANCH   5   6
ENDBRANCH   4   5
ENDBRANCH   3   4
ENDBRANCH   2   3
ENDBRANCH   1   2
BRANCH   1  11
ATOM     11  C   UNL     1      44.228  27.195   2.720  1.00  0.00    -0.031 C 
ATOM     12  C   UNL     1      44.569  26.392   3.745  1.00  0.00    -0.027 C 
BRANCH  12  13
ATOM     13  C   UNL     1      45.948  25.808   3.927  1.00  0.00     0.054 C 
BRANCH  13  14
ATOM     14  C   UNL     1      46.621  26.384   5.142  1.00  0.00    -0.027 C 
ATOM     15  C   UNL     1      45.917  26.744   6.227  1.00  0.00    -0.031 C 
BRANCH  15  16
ATOM     16  C   UNL     1      46.584  27.340   7.435  1.00  0.00     0.027 C 
BRANCH  16  17
ATOM     17  C   UNL     1      46.254  26.538   8.705  1.00  0.00     0.004 C 
BRANCH  17  18
ATOM     18  C   UNL     1      45.099  27.153   9.509  1.00  0.00     0.000 C 
BRANCH  18  19
ATOM     19  C   UNL     1      45.515  28.422  10.268  1.00  0.00    -0.003 C 
ATOM     20  C   UNL     1      44.345  29.391  10.403  1.00  0.00     0.004 C 
ENDBRANCH  18  19
ENDBRANCH  17  18
ENDBRANCH  16  17
ENDBRANCH  15  16
ENDBRANCH  13  14
ENDBRANCH  12  13
ENDBRANCH   1  11
TORSDOF 14
ENDMDL
MODEL 7
REMARK VINA RESULT:    -4.034      1.461      2.210
REMARK INTER + INTRA:          -8.172
REMARK INTER:                  -7.184
REMARK INTRA:                  -0.988
REMARK UNBOUND:                -0.836
REMARK SMILES CCCCCC=CCC=CCCCCCCCC(=O)[O-]
REMARK SMILES IDX 11 1 12 2 13 3 14 4 15 5 16 6 17 7 18 8 19 9 20 10 10 11
REMARK SMILES IDX 9 12 8 13 7 14 6 15 5 16 4 17 3 18 2 19 1 20
REMARK H PARENT
REMARK Flexibility Score: inf
ROOT
ATOM      1  C   UNL     1      45.313  27.749  -0.066  1.00  0.00     0.027 C 
ENDROOT
BRANCH   1   2
ATOM      2  C   UNL     1      45.342  28.618  -1.336  1.00  0.00     0.004 C 
BRANCH   2   3
ATOM      3  C   UNL     1      46.613  28.460  -2.196  1.00  0.00     0.000 C 
BRANCH   3   4
ATOM      4  C   UNL     1      46.558  29.144  -3.573  1.00  0.00     0.000 C 
BRANCH   4   5
ATOM      5  C   UNL     1      46.767  28.164  -4.738  1.00  0.00     0.000 C 
BRANCH   5   6
ATOM      6  C   UNL     1      45.548  27.251  -4.915  1.00  0.00     0.006 C 
BRANCH   6   7
ATOM      7  C   UNL     1      44.265  28.072  -5.069  1.00  0.00     0.053 C 
BRANCH   7   8
ATOM      8  C   UNL     1      43.170  27.501  -4.226  1.00  0.00     0.041 C 
ATOM      9  O   UNL     1      43.362  26.443  -3.571  1.00  0.00    -0.550 OA
ATOM     10  O   UNL     1      41.948  28.156  -4.132  1.00  0.00    -0.550 OA
ENDBRANCH   7   8
ENDBRANCH   6   7
ENDBRANCH   5   6
ENDBRANCH   4   5
ENDBRANCH   3   4
ENDBRANCH   2   3
ENDBRANCH   1   2
BRANCH   1  11
ATOM     11  C   UNL     1      45.376  28.565   1.201  1.00  0.00    -0.031 C 
ATOM     12  C   UNL     1      46.183  28.299   2.244  1.00  0.00    -0.027 C 
BRANCH  12  13
ATOM     13  C   UNL     1      47.125  27.121   2.295  1.00  0.00     0.054 C 
BRANCH  13  14
ATOM     14  C   UNL     1      47.034  26.415   3.618  1.00  0.00    -0.027 C 
ATOM     15  C   UNL     1      46.867  27.094   4.764  1.00  0.00    -0.031 C 
BRANCH  15  16
ATOM     16  C   UNL     1      46.796  26.391   6.091  1.00  0.00     0.027 C 
BRANCH  16  17
ATOM     17  C   UNL     1      45.757  27.049   7.014  1.00  0.00     0.004 C 
BRANCH  17  18
ATOM     18  C   UNL     1      46.277  27.244   8.446  1.00  0.00     0.000 C 
BRANCH  18  19
ATOM     19  C   UNL     1      45.168  27.123   9.502  1.00  0.00    -0.003 C 
ATOM     20  C   UNL     1      44.746  28.496  10.015  1.00  0.00     0.004 C 
ENDBRANCH  18  19
ENDBRANCH  17  18
ENDBRANCH  16  17
ENDBRANCH  15  16
ENDBRANCH  13  14
ENDBRANCH  12  13
ENDBRANCH   1  11
TORSDOF 14
ENDMDL
MODEL 8
REMARK VINA RESULT:    -3.796      5.075     10.921
REMARK INTER + INTRA:          -7.739
REMARK INTER:                  -6.784
REMARK INTRA:                  -0.955
REMARK UNBOUND:                -0.836
REMARK SMILES CCCCCC=CCC=CCCCCCCCC(=O)[O-]
REMARK SMILES IDX 11 1 12 2 13 3 14 4 15 5 16 6 17 7 18 8 19 9 20 10 10 11
REMARK SMILES IDX 9 12 8 13 7 14 6 15 5 16 4 17 3 18 2 19 1 20
REMARK H PARENT
REMARK Flexibility Score: inf
ROOT
ATOM      1  C   UNL     1      45.381  27.703   1.874  1.00  0.00     0.027 C 
ENDROOT
BRANCH   1   2
ATOM      2  C   UNL     1      46.588  27.703   2.828  1.00  0.00     0.004 C 
BRANCH   2   3
ATOM      3  C   UNL     1      46.938  26.323   3.423  1.00  0.00     0.000 C 
BRANCH   3   4
ATOM      4  C   UNL     1      47.056  26.285   4.957  1.00  0.00     0.000 C 
BRANCH   4   5
ATOM      5  C   UNL     1      45.748  26.666   5.668  1.00  0.00     0.000 C 
BRANCH   5   6
ATOM      6  C   UNL     1      46.022  27.565   6.879  1.00  0.00     0.006 C 
BRANCH   6   7
ATOM      7  C   UNL     1      46.721  26.785   7.996  1.00  0.00     0.053 C 
BRANCH   7   8
ATOM      8  C   UNL     1      45.864  26.736   9.220  1.00  0.00     0.041 C 
ATOM      9  O   UNL     1      46.023  25.819  10.068  1.00  0.00    -0.550 OA
ATOM     10  O   UNL     1      44.915  27.725   9.446  1.00  0.00    -0.550 OA
ENDBRANCH   7   8
ENDBRANCH   6   7
ENDBRANCH   5   6
ENDBRANCH   4   5
ENDBRANCH   3   4
ENDBRANCH   2   3
ENDBRANCH   1   2
BRANCH   1  11
ATOM     11  C   UNL     1      45.210  29.016   1.150  1.00  0.00    -0.031 C 
ATOM     12  C   UNL     1      45.674  29.275  -0.086  1.00  0.00    -0.027 C 
BRANCH  12  13
ATOM     13  C   UNL     1      46.458  28.283  -0.911  1.00  0.00     0.054 C 
BRANCH  13  14
ATOM     14  C   UNL     1      45.947  28.235  -2.323  1.00  0.00    -0.027 C 
ATOM     15  C   UNL     1      46.433  27.356  -3.214  1.00  0.00    -0.031 C 
BRANCH  15  16
ATOM     16  C   UNL     1      45.939  27.318  -4.633  1.00  0.00     0.027 C 
BRANCH  16  17
ATOM     17  C   UNL     1      45.153  28.592  -4.982  1.00  0.00     0.004 C 
BRANCH  17  18
ATOM     18  C   UNL     1      44.049  28.339  -6.020  1.00  0.00     0.000 C 
BRANCH  18  19
ATOM     19  C   UNL     1      42.642  28.614  -5.468  1.00  0.00    -0.003 C 
ATOM     20  C   UNL     1      42.424  27.899  -4.139  1.00  0.00     0.004 C 
ENDBRANCH  18  19
ENDBRANCH  17  18
ENDBRANCH  16  17
ENDBRANCH  15  16
ENDBRANCH  13  14
ENDBRANCH  12  13
ENDBRANCH   1  11
TORSDOF 14
ENDMDL
MODEL 9
REMARK VINA RESULT:    -3.781      1.591      2.411
REMARK INTER + INTRA:          -7.711
REMARK INTER:                  -6.652
REMARK INTRA:                  -1.059
REMARK UNBOUND:                -0.836
REMARK SMILES CCCCCC=CCC=CCCCCCCCC(=O)[O-]
REMARK SMILES IDX 11 1 12 2 13 3 14 4 15 5 16 6 17 7 18 8 19 9 20 10 10 11
REMARK SMILES IDX 9 12 8 13 7 14 6 15 5 16 4 17 3 18 2 19 1 20
REMARK H PARENT
REMARK Flexibility Score: inf
ROOT
ATOM      1  C   UNL     1      45.441  28.304   0.430  1.00  0.00     0.027 C 
ENDROOT
BRANCH   1   2
ATOM      2  C   UNL     1      46.914  28.289  -0.017  1.00  0.00     0.004 C 
BRANCH   2   3
ATOM      3  C   UNL     1      47.125  28.089  -1.532  1.00  0.00     0.000 C 
BRANCH   3   4
ATOM      4  C   UNL     1      46.845  29.330  -2.398  1.00  0.00     0.000 C 
BRANCH   4   5
ATOM      5  C   UNL     1      45.791  29.076  -3.487  1.00  0.00     0.000 C 
BRANCH   5   6
ATOM      6  C   UNL     1      45.313  27.619  -3.461  1.00  0.00     0.006 C 
BRANCH   6   7
ATOM      7  C   UNL     1      43.797  27.542  -3.262  1.00  0.00     0.053 C 
BRANCH   7   8
ATOM      8  C   UNL     1      43.083  27.801  -4.550  1.00  0.00     0.041 C 
ATOM      9  O   UNL     1      43.654  27.567  -5.648  1.00  0.00    -0.550 OA
ATOM     10  O   UNL     1      41.774  28.265  -4.540  1.00  0.00    -0.550 OA
ENDBRANCH   7   8
ENDBRANCH   6   7
ENDBRANCH   5   6
ENDBRANCH   4   5
ENDBRANCH   3   4
ENDBRANCH   2   3
ENDBRANCH   1   2
BRANCH   1  11
ATOM     11  C   UNL     1      45.205  27.505   1.688  1.00  0.00    -0.031 C 
ATOM     12  C   UNL     1      44.707  28.009   2.832  1.00  0.00    -0.027 C 
BRANCH  12  13
ATOM     13  C   UNL     1      44.337  29.460   3.017  1.00  0.00     0.054 C 
BRANCH  13  14
ATOM     14  C   UNL     1      44.999  30.032   4.239  1.00  0.00    -0.027 C 
ATOM     15  C   UNL     1      45.536  29.240   5.181  1.00  0.00    -0.031 C 
BRANCH  15  16
ATOM     16  C   UNL     1      46.180  29.809   6.414  1.00  0.00     0.027 C 
BRANCH  16  17
ATOM     17  C   UNL     1      45.173  29.914   7.570  1.00  0.00     0.004 C 
BRANCH  17  18
ATOM     18  C   UNL     1      45.807  29.610   8.936  1.00  0.00     0.000 C 
BRANCH  18  19
ATOM     19  C   UNL     1      44.888  28.779   9.845  1.00  0.00    -0.003 C 
ATOM     20  C   UNL     1      45.082  27.286   9.603  1.00  0.00     0.004 C 
ENDBRANCH  18  19
ENDBRANCH  17  18
ENDBRANCH  16  17
ENDBRANCH  15  16
ENDBRANCH  13  14
ENDBRANCH  12  13
ENDBRANCH   1  11
TORSDOF 14
ENDMDL
