MODEL 1
REMARK VINA RESULT:    -3.691      0.000      0.000
REMARK INTER + INTRA:          -6.124
REMARK INTER:                  -5.633
REMARK INTRA:                  -0.491
REMARK UNBOUND:                -0.491
REMARK SMILES CC1=CCC[C@H](C)C(=O)C[C@@H](C(C)C)C(=O)C1
REMARK SMILES IDX 8 1 9 2 6 3 7 4 5 5 4 6 3 7 2 8 1 9 10 11 11 12 15 13 16 14
REMARK SMILES IDX 17 15 12 17 13 18 14 19
REMARK H PARENT
REMARK Flexibility Score: 70.00
ROOT
ATOM      1  C   UNL     1     -15.656   4.904  31.137  1.00  0.00     0.136 C 
ATOM      2  O   UNL     1     -16.870   4.892  30.989  1.00  0.00    -0.299 OA
ENDROOT
BRANCH   1   3
ATOM      3  C   UNL     1     -15.071   5.229  32.497  1.00  0.00     0.053 C 
ATOM      4  C   UNL     1     -15.946   6.275  33.194  1.00  0.00     0.016 C 
BRANCH   3   5
ATOM      5  C   UNL     1     -14.934   3.971  33.379  1.00  0.00     0.015 C 
BRANCH   5   6
ATOM      6  C   UNL     1     -13.504   3.415  33.480  1.00  0.00     0.028 C 
BRANCH   6   7
ATOM      7  C   UNL     1     -13.380   1.972  33.043  1.00  0.00    -0.028 C 
ATOM      8  C   UNL     1     -13.112   1.496  31.799  1.00  0.00    -0.070 CG0
ATOM      9  C   UNL     1     -13.144  -0.006  31.629  1.00  0.00     0.039 C 
ATOM     10  G   UNL     1     -12.700   2.337  30.595  1.00  0.00     0.000 G0
ENDBRANCH   6   7
ENDBRANCH   5   6
ENDBRANCH   3   5
ENDBRANCH   1   3
BRANCH   1  11
ATOM     11  C   UNL     1     -14.772   4.627  29.948  1.00  0.00     0.087 C 
BRANCH  11  12
ATOM     12  C   UNL     1     -14.944   3.184  29.402  1.00  0.00     0.066 C 
BRANCH  12  13
ATOM     13  C   UNL     1     -13.672   2.335  29.420  1.00  0.00     0.140 C 
ATOM     14  O   UNL     1     -13.392   1.685  28.422  1.00  0.00    -0.299 OA
BRANCH  13  15
ATOM     15  C   UNL     1     -12.690   2.335  30.569  1.00  0.00     0.106 CG0
ATOM     16  G   UNL     1     -13.117   1.519  31.785  1.00  0.00     0.000 G0
ENDBRANCH  13  15
ENDBRANCH  12  13
BRANCH  12  17
ATOM     17  C   UNL     1     -15.636   3.185  28.002  1.00  0.00    -0.006 C 
ATOM     18  C   UNL     1     -15.298   4.449  27.197  1.00  0.00     0.008 C 
ATOM     19  C   UNL     1     -17.160   2.997  28.069  1.00  0.00     0.008 C 
ENDBRANCH  12  17
ENDBRANCH  11  12
ENDBRANCH   1  11
TORSDOF 1
ENDMDL
MODEL 2
REMARK VINA RESULT:    -3.518      1.968      5.242
REMARK INTER + INTRA:          -5.860
REMARK INTER:                  -5.447
REMARK INTRA:                  -0.413
REMARK UNBOUND:                -0.491
REMARK SMILES CC1=CCC[C@H](C)C(=O)C[C@@H](C(C)C)C(=O)C1
REMARK SMILES IDX 8 1 9 2 6 3 7 4 5 5 4 6 3 7 2 8 1 9 10 11 11 12 15 13 16 14
REMARK SMILES IDX 17 15 12 17 13 18 14 19
REMARK H PARENT
REMARK Flexibility Score: 70.00
ROOT
ATOM      1  C   UNL     1     -13.958   1.929  29.210  1.00  0.00     0.136 C 
ATOM      2  O   UNL     1     -14.175   0.728  29.130  1.00  0.00    -0.299 OA
ENDROOT
BRANCH   1   3
ATOM      3  C   UNL     1     -14.581   2.871  28.199  1.00  0.00     0.053 C 
ATOM      4  C   UNL     1     -14.046   2.547  26.800  1.00  0.00     0.016 C 
BRANCH   3   5
ATOM      5  C   UNL     1     -16.122   2.795  28.215  1.00  0.00     0.015 C 
BRANCH   5   6
ATOM      6  C   UNL     1     -16.800   3.796  29.165  1.00  0.00     0.028 C 
BRANCH   6   7
ATOM      7  C   UNL     1     -15.993   5.053  29.401  1.00  0.00    -0.028 C 
ATOM      8  C   UNL     1     -15.445   5.488  30.566  1.00  0.00    -0.070 CG0
ATOM      9  C   UNL     1     -14.769   6.839  30.532  1.00  0.00     0.039 C 
ATOM     10  G   UNL     1     -15.380   4.696  31.868  1.00  0.00     0.000 G0
ENDBRANCH   6   7
ENDBRANCH   5   6
ENDBRANCH   3   5
ENDBRANCH   1   3
BRANCH   1  11
ATOM     11  C   UNL     1     -13.046   2.437  30.298  1.00  0.00     0.087 C 
BRANCH  11  12
ATOM     12  C   UNL     1     -13.764   2.554  31.670  1.00  0.00     0.066 C 
BRANCH  12  13
ATOM     13  C   UNL     1     -14.040   3.986  32.129  1.00  0.00     0.140 C 
ATOM     14  O   UNL     1     -13.131   4.614  32.655  1.00  0.00    -0.299 OA
BRANCH  13  15
ATOM     15  C   UNL     1     -15.347   4.701  31.878  1.00  0.00     0.106 CG0
ATOM     16  G   UNL     1     -15.417   5.481  30.568  1.00  0.00     0.000 G0
ENDBRANCH  13  15
ENDBRANCH  12  13
BRANCH  12  17
ATOM     17  C   UNL     1     -13.038   1.710  32.764  1.00  0.00    -0.006 C 
ATOM     18  C   UNL     1     -12.734   0.284  32.279  1.00  0.00     0.008 C 
ATOM     19  C   UNL     1     -13.791   1.660  34.104  1.00  0.00     0.008 C 
ENDBRANCH  12  17
ENDBRANCH  11  12
ENDBRANCH   1  11
TORSDOF 1
ENDMDL
MODEL 3
REMARK VINA RESULT:    -3.498     10.422     12.784
REMARK INTER + INTRA:          -5.830
REMARK INTER:                  -5.533
REMARK INTRA:                  -0.297
REMARK UNBOUND:                -0.491
REMARK SMILES CC1=CCC[C@H](C)C(=O)C[C@@H](C(C)C)C(=O)C1
REMARK SMILES IDX 8 1 9 2 6 3 7 4 5 5 4 6 3 7 2 8 1 9 10 11 11 12 15 13 16 14
REMARK SMILES IDX 17 15 12 17 13 18 14 19
REMARK H PARENT
REMARK Flexibility Score: 70.00
ROOT
ATOM      1  C   UNL     1      -2.832   0.144  28.871  1.00  0.00     0.136 C 
ATOM      2  O   UNL     1      -3.848   0.201  28.192  1.00  0.00    -0.299 OA
ENDROOT
BRANCH   1   3
ATOM      3  C   UNL     1      -1.479   0.093  28.191  1.00  0.00     0.053 C 
ATOM      4  C   UNL     1      -1.671  -0.041  26.677  1.00  0.00     0.016 C 
BRANCH   3   5
ATOM      5  C   UNL     1      -0.625   1.337  28.515  1.00  0.00     0.015 C 
BRANCH   5   6
ATOM      6  C   UNL     1      -1.274   2.676  28.125  1.00  0.00     0.028 C 
BRANCH   6   7
ATOM      7  C   UNL     1      -0.979   3.800  29.092  1.00  0.00    -0.028 C 
ATOM      8  C   UNL     1      -1.797   4.319  30.045  1.00  0.00    -0.070 CG0
ATOM      9  C   UNL     1      -1.272   5.513  30.809  1.00  0.00     0.039 C 
ATOM     10  G   UNL     1      -3.149   3.749  30.463  1.00  0.00     0.000 G0
ENDBRANCH   6   7
ENDBRANCH   5   6
ENDBRANCH   3   5
ENDBRANCH   1   3
BRANCH   1  11
ATOM     11  C   UNL     1      -2.958   0.092  30.372  1.00  0.00     0.087 C 
BRANCH  11  12
ATOM     12  C   UNL     1      -3.865   1.222  30.933  1.00  0.00     0.066 C 
BRANCH  12  13
ATOM     13  C   UNL     1      -3.129   2.508  31.310  1.00  0.00     0.140 C 
ATOM     14  O   UNL     1      -2.403   2.495  32.295  1.00  0.00    -0.299 OA
BRANCH  13  15
ATOM     15  C   UNL     1      -3.172   3.765  30.472  1.00  0.00     0.106 CG0
ATOM     16  G   UNL     1      -1.811   4.304  30.043  1.00  0.00     0.000 G0
ENDBRANCH  13  15
ENDBRANCH  12  13
BRANCH  12  17
ATOM     17  C   UNL     1      -4.774   0.698  32.089  1.00  0.00    -0.006 C 
ATOM     18  C   UNL     1      -5.386  -0.672  31.761  1.00  0.00     0.008 C 
ATOM     19  C   UNL     1      -5.882   1.684  32.496  1.00  0.00     0.008 C 
ENDBRANCH  12  17
ENDBRANCH  11  12
ENDBRANCH   1  11
TORSDOF 1
ENDMDL
MODEL 4
REMARK VINA RESULT:    -3.472      4.949      6.441
REMARK INTER + INTRA:          -5.790
REMARK INTER:                  -5.649
REMARK INTRA:                  -0.141
REMARK UNBOUND:                -0.491
REMARK SMILES CC1=CCC[C@H](C)C(=O)C[C@@H](C(C)C)C(=O)C1
REMARK SMILES IDX 8 1 9 2 6 3 7 4 5 5 4 6 3 7 2 8 1 9 10 11 11 12 15 13 16 14
REMARK SMILES IDX 17 15 12 17 13 18 14 19
REMARK H PARENT
REMARK Flexibility Score: 70.00
ROOT
ATOM      1  C   UNL     1     -11.616  10.025  31.542  1.00  0.00     0.136 C 
ATOM      2  O   UNL     1     -11.458  11.211  31.796  1.00  0.00    -0.299 OA
ENDROOT
BRANCH   1   3
ATOM      3  C   UNL     1     -10.749   8.990  32.230  1.00  0.00     0.053 C 
ATOM      4  C   UNL     1     -10.386   9.478  33.636  1.00  0.00     0.016 C 
BRANCH   3   5
ATOM      5  C   UNL     1     -11.444   7.614  32.303  1.00  0.00     0.015 C 
BRANCH   5   6
ATOM      6  C   UNL     1     -12.279   7.388  33.576  1.00  0.00     0.028 C 
BRANCH   6   7
ATOM      7  C   UNL     1     -13.370   6.354  33.411  1.00  0.00    -0.028 C 
ATOM      8  C   UNL     1     -14.670   6.559  33.070  1.00  0.00    -0.070 CG0
ATOM      9  C   UNL     1     -15.569   5.343  33.075  1.00  0.00     0.039 C 
ATOM     10  G   UNL     1     -15.269   7.881  32.602  1.00  0.00     0.000 G0
ENDBRANCH   6   7
ENDBRANCH   5   6
ENDBRANCH   3   5
ENDBRANCH   1   3
BRANCH   1  11
ATOM     11  C   UNL     1     -12.652   9.628  30.521  1.00  0.00     0.087 C 
BRANCH  11  12
ATOM     12  C   UNL     1     -14.100   9.721  31.075  1.00  0.00     0.066 C 
BRANCH  12  13
ATOM     13  C   UNL     1     -14.802   8.375  31.264  1.00  0.00     0.140 C 
ATOM     14  O   UNL     1     -14.897   7.629  30.300  1.00  0.00    -0.299 OA
BRANCH  13  15
ATOM     15  C   UNL     1     -15.295   7.877  32.602  1.00  0.00     0.106 CG0
ATOM     16  G   UNL     1     -14.683   6.560  33.069  1.00  0.00     0.000 G0
ENDBRANCH  13  15
ENDBRANCH  12  13
BRANCH  12  17
ATOM     17  C   UNL     1     -14.960  10.727  30.248  1.00  0.00    -0.006 C 
ATOM     18  C   UNL     1     -14.269  12.093  30.110  1.00  0.00     0.008 C 
ATOM     19  C   UNL     1     -16.386  10.912  30.794  1.00  0.00     0.008 C 
ENDBRANCH  12  17
ENDBRANCH  11  12
ENDBRANCH   1  11
TORSDOF 1
ENDMDL
MODEL 5
REMARK VINA RESULT:    -3.402      5.721      7.051
REMARK INTER + INTRA:          -5.683
REMARK INTER:                  -5.327
REMARK INTRA:                  -0.356
REMARK UNBOUND:                -0.491
REMARK SMILES CC1=CCC[C@H](C)C(=O)C[C@@H](C(C)C)C(=O)C1
REMARK SMILES IDX 8 1 9 2 6 3 7 4 5 5 4 6 3 7 2 8 1 9 10 11 11 12 15 13 16 14
REMARK SMILES IDX 17 15 12 17 13 18 14 19
REMARK H PARENT
REMARK Flexibility Score: 70.00
ROOT
ATOM      1  C   UNL     1     -14.751  10.749  29.690  1.00  0.00     0.136 C 
ATOM      2  O   UNL     1     -15.963  10.853  29.570  1.00  0.00    -0.299 OA
ENDROOT
BRANCH   1   3
ATOM      3  C   UNL     1     -13.911  11.991  29.917  1.00  0.00     0.053 C 
ATOM      4  C   UNL     1     -14.352  12.677  31.213  1.00  0.00     0.016 C 
BRANCH   3   5
ATOM      5  C   UNL     1     -12.404  11.665  29.968  1.00  0.00     0.015 C 
BRANCH   5   6
ATOM      6  C   UNL     1     -11.808  11.624  31.386  1.00  0.00     0.028 C 
BRANCH   6   7
ATOM      7  C   UNL     1     -10.637  10.678  31.526  1.00  0.00    -0.028 C 
ATOM      8  C   UNL     1     -10.635   9.420  32.040  1.00  0.00    -0.070 CG0
ATOM      9  C   UNL     1      -9.291   8.736  32.147  1.00  0.00     0.039 C 
ATOM     10  G   UNL     1     -11.872   8.617  32.430  1.00  0.00     0.000 G0
ENDBRANCH   6   7
ENDBRANCH   5   6
ENDBRANCH   3   5
ENDBRANCH   1   3
BRANCH   1  11
ATOM     11  C   UNL     1     -14.119   9.385  29.574  1.00  0.00     0.087 C 
BRANCH  11  12
ATOM     12  C   UNL     1     -14.069   8.635  30.933  1.00  0.00     0.066 C 
BRANCH  12  13
ATOM     13  C   UNL     1     -12.697   8.068  31.302  1.00  0.00     0.140 C 
ATOM     14  O   UNL     1     -12.218   7.196  30.591  1.00  0.00    -0.299 OA
BRANCH  13  15
ATOM     15  C   UNL     1     -11.859   8.600  32.442  1.00  0.00     0.106 CG0
ATOM     16  G   UNL     1     -10.642   9.419  32.024  1.00  0.00     0.000 G0
ENDBRANCH  13  15
ENDBRANCH  12  13
BRANCH  12  17
ATOM     17  C   UNL     1     -15.199   7.564  31.031  1.00  0.00    -0.006 C 
ATOM     18  C   UNL     1     -15.915   7.360  29.687  1.00  0.00     0.008 C 
ATOM     19  C   UNL     1     -16.229   7.854  32.136  1.00  0.00     0.008 C 
ENDBRANCH  12  17
ENDBRANCH  11  12
ENDBRANCH   1  11
TORSDOF 1
ENDMDL
MODEL 6
REMARK VINA RESULT:    -3.382      1.970      4.285
REMARK INTER + INTRA:          -5.653
REMARK INTER:                  -5.246
REMARK INTRA:                  -0.406
REMARK UNBOUND:                -0.491
REMARK SMILES CC1=CCC[C@H](C)C(=O)C[C@@H](C(C)C)C(=O)C1
REMARK SMILES IDX 8 1 9 2 6 3 7 4 5 5 4 6 3 7 2 8 1 9 10 11 11 12 15 13 16 14
REMARK SMILES IDX 17 15 12 17 13 18 14 19
REMARK H PARENT
REMARK Flexibility Score: 70.00
ROOT
ATOM      1  C   UNL     1     -15.316   2.977  28.441  1.00  0.00     0.136 C 
ATOM      2  O   UNL     1     -15.663   1.807  28.499  1.00  0.00    -0.299 OA
ENDROOT
BRANCH   1   3
ATOM      3  C   UNL     1     -16.295   4.025  27.950  1.00  0.00     0.053 C 
ATOM      4  C   UNL     1     -17.213   3.411  26.887  1.00  0.00     0.016 C 
BRANCH   3   5
ATOM      5  C   UNL     1     -17.132   4.616  29.104  1.00  0.00     0.015 C 
BRANCH   5   6
ATOM      6  C   UNL     1     -16.395   5.664  29.955  1.00  0.00     0.028 C 
BRANCH   6   7
ATOM      7  C   UNL     1     -16.253   5.276  31.409  1.00  0.00    -0.028 C 
ATOM      8  C   UNL     1     -15.127   4.890  32.065  1.00  0.00    -0.070 CG0
ATOM      9  C   UNL     1     -15.297   4.462  33.505  1.00  0.00     0.039 C 
ATOM     10  G   UNL     1     -13.710   4.938  31.503  1.00  0.00     0.000 G0
ENDBRANCH   6   7
ENDBRANCH   5   6
ENDBRANCH   3   5
ENDBRANCH   1   3
BRANCH   1  11
ATOM     11  C   UNL     1     -13.906   3.342  28.828  1.00  0.00     0.087 C 
BRANCH  11  12
ATOM     12  C   UNL     1     -13.446   2.639  30.134  1.00  0.00     0.066 C 
BRANCH  12  13
ATOM     13  C   UNL     1     -13.035   3.586  31.262  1.00  0.00     0.140 C 
ATOM     14  O   UNL     1     -12.079   3.279  31.960  1.00  0.00    -0.299 OA
BRANCH  13  15
ATOM     15  C   UNL     1     -13.687   4.929  31.497  1.00  0.00     0.106 CG0
ATOM     16  G   UNL     1     -15.105   4.872  32.057  1.00  0.00     0.000 G0
ENDBRANCH  13  15
ENDBRANCH  12  13
BRANCH  12  17
ATOM     17  C   UNL     1     -12.360   1.556  29.844  1.00  0.00    -0.006 C 
ATOM     18  C   UNL     1     -12.063   1.430  28.341  1.00  0.00     0.008 C 
ATOM     19  C   UNL     1     -12.695   0.175  30.430  1.00  0.00     0.008 C 
ENDBRANCH  12  17
ENDBRANCH  11  12
ENDBRANCH   1  11
TORSDOF 1
ENDMDL
MODEL 7
REMARK VINA RESULT:    -3.377      2.019      4.109
REMARK INTER + INTRA:          -5.646
REMARK INTER:                  -5.257
REMARK INTRA:                  -0.389
REMARK UNBOUND:                -0.491
REMARK SMILES CC1=CCC[C@H](C)C(=O)C[C@@H](C(C)C)C(=O)C1
REMARK SMILES IDX 8 1 9 2 6 3 7 4 5 5 4 6 3 7 2 8 1 9 10 11 11 12 15 13 16 14
REMARK SMILES IDX 17 15 12 17 13 18 14 19
REMARK H PARENT
REMARK Flexibility Score: 70.00
ROOT
ATOM      1  C   UNL     1     -13.030   0.971  31.549  1.00  0.00     0.136 C 
ATOM      2  O   UNL     1     -12.188   0.120  31.800  1.00  0.00    -0.299 OA
ENDROOT
BRANCH   1   3
ATOM      3  C   UNL     1     -13.359   2.028  32.585  1.00  0.00     0.053 C 
ATOM      4  C   UNL     1     -13.376   1.391  33.979  1.00  0.00     0.016 C 
BRANCH   3   5
ATOM      5  C   UNL     1     -12.360   3.203  32.545  1.00  0.00     0.015 C 
BRANCH   5   6
ATOM      6  C   UNL     1     -12.896   4.473  31.864  1.00  0.00     0.028 C 
BRANCH   6   7
ATOM      7  C   UNL     1     -14.404   4.584  31.885  1.00  0.00    -0.028 C 
ATOM      8  C   UNL     1     -15.252   4.643  30.825  1.00  0.00    -0.070 CG0
ATOM      9  C   UNL     1     -16.715   4.853  31.142  1.00  0.00     0.039 C 
ATOM     10  G   UNL     1     -14.868   4.430  29.365  1.00  0.00     0.000 G0
ENDBRANCH   6   7
ENDBRANCH   5   6
ENDBRANCH   3   5
ENDBRANCH   1   3
BRANCH   1  11
ATOM     11  C   UNL     1     -13.745   0.924  30.223  1.00  0.00     0.087 C 
BRANCH  11  12
ATOM     12  C   UNL     1     -13.448   2.168  29.342  1.00  0.00     0.066 C 
BRANCH  12  13
ATOM     13  C   UNL     1     -14.680   2.982  28.946  1.00  0.00     0.140 C 
ATOM     14  O   UNL     1     -15.580   2.417  28.340  1.00  0.00    -0.299 OA
BRANCH  13  15
ATOM     15  C   UNL     1     -14.888   4.423  29.350  1.00  0.00     0.106 CG0
ATOM     16  G   UNL     1     -15.248   4.638  30.817  1.00  0.00     0.000 G0
ENDBRANCH  13  15
ENDBRANCH  12  13
BRANCH  12  17
ATOM     17  C   UNL     1     -12.562   1.794  28.112  1.00  0.00    -0.006 C 
ATOM     18  C   UNL     1     -12.414   0.274  27.954  1.00  0.00     0.008 C 
ATOM     19  C   UNL     1     -11.176   2.459  28.126  1.00  0.00     0.008 C 
ENDBRANCH  12  17
ENDBRANCH  11  12
ENDBRANCH   1  11
TORSDOF 1
ENDMDL
MODEL 8
REMARK VINA RESULT:    -3.292      1.710      4.020
REMARK INTER + INTRA:          -5.516
REMARK INTER:                  -5.048
REMARK INTRA:                  -0.468
REMARK UNBOUND:                -0.491
REMARK SMILES CC1=CCC[C@H](C)C(=O)C[C@@H](C(C)C)C(=O)C1
REMARK SMILES IDX 8 1 9 2 6 3 7 4 5 5 4 6 3 7 2 8 1 9 10 11 11 12 15 13 16 14
REMARK SMILES IDX 17 15 12 17 13 18 14 19
REMARK H PARENT
REMARK Flexibility Score: 70.00
ROOT
ATOM      1  C   UNL     1     -16.445   4.967  29.495  1.00  0.00     0.136 C 
ATOM      2  O   UNL     1     -16.909   5.935  28.909  1.00  0.00    -0.299 OA
ENDROOT
BRANCH   1   3
ATOM      3  C   UNL     1     -16.006   3.752  28.703  1.00  0.00     0.053 C 
ATOM      4  C   UNL     1     -17.148   3.295  27.790  1.00  0.00     0.016 C 
BRANCH   3   5
ATOM      5  C   UNL     1     -14.736   4.034  27.873  1.00  0.00     0.015 C 
BRANCH   5   6
ATOM      6  C   UNL     1     -13.418   3.675  28.581  1.00  0.00     0.028 C 
BRANCH   6   7
ATOM      7  C   UNL     1     -13.478   2.376  29.353  1.00  0.00    -0.028 C 
ATOM      8  C   UNL     1     -13.247   2.181  30.678  1.00  0.00    -0.070 CG0
ATOM      9  C   UNL     1     -13.281   0.751  31.166  1.00  0.00     0.039 C 
ATOM     10  G   UNL     1     -13.047   3.279  31.718  1.00  0.00     0.000 G0
ENDBRANCH   6   7
ENDBRANCH   5   6
ENDBRANCH   3   5
ENDBRANCH   1   3
BRANCH   1  11
ATOM     11  C   UNL     1     -16.354   4.998  30.999  1.00  0.00     0.087 C 
BRANCH  11  12
ATOM     12  C   UNL     1     -14.899   5.196  31.504  1.00  0.00     0.066 C 
BRANCH  12  13
ATOM     13  C   UNL     1     -14.293   3.981  32.207  1.00  0.00     0.140 C 
ATOM     14  O   UNL     1     -14.890   3.503  33.161  1.00  0.00    -0.299 OA
BRANCH  13  15
ATOM     15  C   UNL     1     -13.045   3.278  31.723  1.00  0.00     0.106 CG0
ATOM     16  G   UNL     1     -13.279   2.188  30.682  1.00  0.00     0.000 G0
ENDBRANCH  13  15
ENDBRANCH  12  13
BRANCH  12  17
ATOM     17  C   UNL     1     -14.764   6.500  32.351  1.00  0.00    -0.006 C 
ATOM     18  C   UNL     1     -16.075   7.300  32.384  1.00  0.00     0.008 C 
ATOM     19  C   UNL     1     -13.605   7.407  31.906  1.00  0.00     0.008 C 
ENDBRANCH  12  17
ENDBRANCH  11  12
ENDBRANCH   1  11
TORSDOF 1
ENDMDL
MODEL 9
REMARK VINA RESULT:    -3.276      1.956      5.126
REMARK INTER + INTRA:          -5.490
REMARK INTER:                  -5.338
REMARK INTRA:                  -0.152
REMARK UNBOUND:                -0.491
REMARK SMILES CC1=CCC[C@H](C)C(=O)C[C@@H](C(C)C)C(=O)C1
REMARK SMILES IDX 8 1 9 2 6 3 7 4 5 5 4 6 3 7 2 8 1 9 10 11 11 12 15 13 16 14
REMARK SMILES IDX 17 15 12 17 13 18 14 19
REMARK H PARENT
REMARK Flexibility Score: 70.00
ROOT
ATOM      1  C   UNL     1     -12.101   2.114  30.093  1.00  0.00     0.136 C 
ATOM      2  O   UNL     1     -11.484   2.635  29.175  1.00  0.00    -0.299 OA
ENDROOT
BRANCH   1   3
ATOM      3  C   UNL     1     -12.768   0.770  29.880  1.00  0.00     0.053 C 
ATOM      4  C   UNL     1     -12.772  -0.015  31.195  1.00  0.00     0.016 C 
BRANCH   3   5
ATOM      5  C   UNL     1     -14.206   0.921  29.341  1.00  0.00     0.015 C 
BRANCH   5   6
ATOM      6  C   UNL     1     -14.352   1.922  28.182  1.00  0.00     0.028 C 
BRANCH   6   7
ATOM      7  C   UNL     1     -15.461   2.929  28.385  1.00  0.00    -0.028 C 
ATOM      8  C   UNL     1     -15.377   4.164  28.947  1.00  0.00    -0.070 CG0
ATOM      9  C   UNL     1     -16.674   4.921  29.111  1.00  0.00     0.039 C 
ATOM     10  G   UNL     1     -14.086   4.876  29.339  1.00  0.00     0.000 G0
ENDBRANCH   6   7
ENDBRANCH   5   6
ENDBRANCH   3   5
ENDBRANCH   1   3
BRANCH   1  11
ATOM     11  C   UNL     1     -12.209   2.843  31.408  1.00  0.00     0.087 C 
BRANCH  11  12
ATOM     12  C   UNL     1     -13.588   3.531  31.596  1.00  0.00     0.066 C 
BRANCH  12  13
ATOM     13  C   UNL     1     -13.764   4.839  30.822  1.00  0.00     0.140 C 
ATOM     14  O   UNL     1     -13.553   5.892  31.406  1.00  0.00    -0.299 OA
BRANCH  13  15
ATOM     15  C   UNL     1     -14.086   4.893  29.347  1.00  0.00     0.106 CG0
ATOM     16  G   UNL     1     -15.363   4.166  28.936  1.00  0.00     0.000 G0
ENDBRANCH  13  15
ENDBRANCH  12  13
BRANCH  12  17
ATOM     17  C   UNL     1     -13.945   3.685  33.108  1.00  0.00    -0.006 C 
ATOM     18  C   UNL     1     -13.579   2.429  33.913  1.00  0.00     0.008 C 
ATOM     19  C   UNL     1     -15.415   4.060  33.359  1.00  0.00     0.008 C 
ENDBRANCH  12  17
ENDBRANCH  11  12
ENDBRANCH   1  11
TORSDOF 1
ENDMDL
