MODEL 1
REMARK VINA RESULT:    -3.952      0.000      0.000
REMARK INTER + INTRA:          -5.160
REMARK INTER:                  -4.876
REMARK INTRA:                  -0.284
REMARK UNBOUND:                -0.284
REMARK SMILES C=CCc1ccc(OC)c(OC)c1
REMARK SMILES IDX 7 1 10 2 13 3 4 4 5 5 6 6 8 7 9 8 11 9 12 10 3 11 2 12 1 13
REMARK H PARENT
REMARK Flexibility Score: inf
ROOT
ATOM      1  C   UNL     1      79.262  15.038   2.056  1.00  0.00     0.160 A 
ATOM      2  C   UNL     1      79.292  16.302   2.665  1.00  0.00     0.160 A 
ATOM      3  C   UNL     1      79.438  16.400   4.063  1.00  0.00     0.054 A 
ATOM      4  C   UNL     1      79.547  15.244   4.852  1.00  0.00    -0.040 A 
ATOM      5  C   UNL     1      79.528  13.986   4.235  1.00  0.00     0.008 A 
ATOM      6  C   UNL     1      79.382  13.881   2.851  1.00  0.00     0.051 A 
ENDROOT
BRANCH   1   7
ATOM      7  O   UNL     1      79.115  14.971   0.662  1.00  0.00    -0.493 OA
ATOM      8  C   UNL     1      77.902  14.637  -0.006  1.00  0.00     0.278 C 
ENDBRANCH   1   7
BRANCH   2   9
ATOM      9  O   UNL     1      79.175  17.438   1.847  1.00  0.00    -0.493 OA
ATOM     10  C   UNL     1      80.137  18.485   1.779  1.00  0.00     0.278 C 
ENDBRANCH   2   9
BRANCH   4  11
ATOM     11  C   UNL     1      79.732  15.359   6.342  1.00  0.00     0.062 C 
BRANCH  11  12
ATOM     12  C   UNL     1      79.981  14.009   6.952  1.00  0.00    -0.030 C 
ATOM     13  C   UNL     1      80.471  13.875   8.188  1.00  0.00     0.004 C 
ENDBRANCH  11  12
ENDBRANCH   4  11
TORSDOF 4
ENDMDL
MODEL 2
REMARK VINA RESULT:    -3.721      2.173      5.232
REMARK INTER + INTRA:          -4.875
REMARK INTER:                  -4.614
REMARK INTRA:                  -0.261
REMARK UNBOUND:                -0.284
REMARK SMILES C=CCc1ccc(OC)c(OC)c1
REMARK SMILES IDX 7 1 10 2 13 3 4 4 5 5 6 6 8 7 9 8 11 9 12 10 3 11 2 12 1 13
REMARK H PARENT
REMARK Flexibility Score: inf
ROOT
ATOM      1  C   UNL     1      79.063  15.179   4.275  1.00  0.00     0.160 A 
ATOM      2  C   UNL     1      78.353  15.067   3.070  1.00  0.00     0.160 A 
ATOM      3  C   UNL     1      78.428  16.102   2.117  1.00  0.00     0.054 A 
ATOM      4  C   UNL     1      79.201  17.247   2.366  1.00  0.00    -0.040 A 
ATOM      5  C   UNL     1      79.915  17.346   3.568  1.00  0.00     0.008 A 
ATOM      6  C   UNL     1      79.844  16.325   4.517  1.00  0.00     0.051 A 
ENDROOT
BRANCH   1   7
ATOM      7  O   UNL     1      78.968  14.133   5.206  1.00  0.00    -0.493 OA
ATOM      8  C   UNL     1      79.545  14.156   6.508  1.00  0.00     0.278 C 
ENDBRANCH   1   7
BRANCH   2   9
ATOM      9  O   UNL     1      77.586  13.910   2.854  1.00  0.00    -0.493 OA
ATOM     10  C   UNL     1      76.368  13.875   2.118  1.00  0.00     0.278 C 
ENDBRANCH   2   9
BRANCH   4  11
ATOM     11  C   UNL     1      79.298  18.335   1.330  1.00  0.00     0.062 C 
BRANCH  11  12
ATOM     12  C   UNL     1      77.989  18.503   0.612  1.00  0.00    -0.030 C 
ATOM     13  C   UNL     1      77.140  19.487   0.920  1.00  0.00     0.004 C 
ENDBRANCH  11  12
ENDBRANCH   4  11
TORSDOF 4
ENDMDL
MODEL 3
REMARK VINA RESULT:    -3.712      2.250      4.886
REMARK INTER + INTRA:          -4.864
REMARK INTER:                  -5.070
REMARK INTRA:                   0.206
REMARK UNBOUND:                -0.284
REMARK SMILES C=CCc1ccc(OC)c(OC)c1
REMARK SMILES IDX 7 1 10 2 13 3 4 4 5 5 6 6 8 7 9 8 11 9 12 10 3 11 2 12 1 13
REMARK H PARENT
REMARK Flexibility Score: inf
ROOT
ATOM      1  C   UNL     1      80.061  14.652   4.296  1.00  0.00     0.160 A 
ATOM      2  C   UNL     1      79.505  15.938   4.365  1.00  0.00     0.160 A 
ATOM      3  C   UNL     1      79.074  16.576   3.184  1.00  0.00     0.054 A 
ATOM      4  C   UNL     1      79.203  15.937   1.941  1.00  0.00    -0.040 A 
ATOM      5  C   UNL     1      79.750  14.648   1.883  1.00  0.00     0.008 A 
ATOM      6  C   UNL     1      80.180  14.012   3.048  1.00  0.00     0.051 A 
ENDROOT
BRANCH   1   7
ATOM      7  O   UNL     1      80.483  14.042   5.489  1.00  0.00    -0.493 OA
ATOM      8  C   UNL     1      79.664  13.875   6.642  1.00  0.00     0.278 C 
ENDBRANCH   1   7
BRANCH   2   9
ATOM      9  O   UNL     1      79.394  16.550   5.624  1.00  0.00    -0.493 OA
ATOM     10  C   UNL     1      79.731  17.907   5.895  1.00  0.00     0.278 C 
ENDBRANCH   2   9
BRANCH   4  11
ATOM     11  C   UNL     1      78.713  16.615   0.688  1.00  0.00     0.062 C 
BRANCH  11  12
ATOM     12  C   UNL     1      78.651  18.104   0.879  1.00  0.00    -0.030 C 
ATOM     13  C   UNL     1      77.509  18.783   0.745  1.00  0.00     0.004 C 
ENDBRANCH  11  12
ENDBRANCH   4  11
TORSDOF 4
ENDMDL
MODEL 4
REMARK VINA RESULT:    -3.569      1.946      4.616
REMARK INTER + INTRA:          -4.687
REMARK INTER:                  -4.387
REMARK INTRA:                  -0.300
REMARK UNBOUND:                -0.284
REMARK SMILES C=CCc1ccc(OC)c(OC)c1
REMARK SMILES IDX 7 1 10 2 13 3 4 4 5 5 6 6 8 7 9 8 11 9 12 10 3 11 2 12 1 13
REMARK H PARENT
REMARK Flexibility Score: inf
ROOT
ATOM      1  C   UNL     1      79.457  16.432   4.522  1.00  0.00     0.160 A 
ATOM      2  C   UNL     1      79.975  16.930   3.316  1.00  0.00     0.160 A 
ATOM      3  C   UNL     1      80.044  16.090   2.186  1.00  0.00     0.054 A 
ATOM      4  C   UNL     1      79.605  14.758   2.260  1.00  0.00    -0.040 A 
ATOM      5  C   UNL     1      79.080  14.273   3.465  1.00  0.00     0.008 A 
ATOM      6  C   UNL     1      79.010  15.099   4.587  1.00  0.00     0.051 A 
ENDROOT
BRANCH   1   7
ATOM      7  O   UNL     1      79.402  17.292   5.629  1.00  0.00    -0.493 OA
ATOM      8  C   UNL     1      79.717  16.909   6.965  1.00  0.00     0.278 C 
ENDBRANCH   1   7
BRANCH   2   9
ATOM      9  O   UNL     1      80.409  18.265   3.277  1.00  0.00    -0.493 OA
ATOM     10  C   UNL     1      80.495  19.053   2.095  1.00  0.00     0.278 C 
ENDBRANCH   2   9
BRANCH   4  11
ATOM     11  C   UNL     1      79.656  13.876   1.040  1.00  0.00     0.062 C 
BRANCH  11  12
ATOM     12  C   UNL     1      78.902  14.502  -0.099  1.00  0.00    -0.030 C 
ATOM     13  C   UNL     1      77.568  14.559  -0.112  1.00  0.00     0.004 C 
ENDBRANCH  11  12
ENDBRANCH   4  11
TORSDOF 4
ENDMDL
MODEL 5
REMARK VINA RESULT:    -3.522      2.118      5.256
REMARK INTER + INTRA:          -4.629
REMARK INTER:                  -4.553
REMARK INTRA:                  -0.076
REMARK UNBOUND:                -0.284
REMARK SMILES C=CCc1ccc(OC)c(OC)c1
REMARK SMILES IDX 7 1 10 2 13 3 4 4 5 5 6 6 8 7 9 8 11 9 12 10 3 11 2 12 1 13
REMARK H PARENT
REMARK Flexibility Score: inf
ROOT
ATOM      1  C   UNL     1      79.467  15.999   4.615  1.00  0.00     0.160 A 
ATOM      2  C   UNL     1      79.404  14.597   4.592  1.00  0.00     0.160 A 
ATOM      3  C   UNL     1      79.532  13.913   3.367  1.00  0.00     0.054 A 
ATOM      4  C   UNL     1      79.715  14.622   2.170  1.00  0.00    -0.040 A 
ATOM      5  C   UNL     1      79.787  16.021   2.202  1.00  0.00     0.008 A 
ATOM      6  C   UNL     1      79.660  16.705   3.412  1.00  0.00     0.051 A 
ENDROOT
BRANCH   1   7
ATOM      7  O   UNL     1      79.335  16.654   5.849  1.00  0.00    -0.493 OA
ATOM      8  C   UNL     1      79.619  18.033   6.066  1.00  0.00     0.278 C 
ENDBRANCH   1   7
BRANCH   2   9
ATOM      9  O   UNL     1      79.216  13.919   5.808  1.00  0.00    -0.493 OA
ATOM     10  C   UNL     1      80.170  13.875   6.863  1.00  0.00     0.278 C 
ENDBRANCH   2   9
BRANCH   4  11
ATOM     11  C   UNL     1      79.879  13.880   0.869  1.00  0.00     0.062 C 
BRANCH  11  12
ATOM     12  C   UNL     1      78.831  14.305  -0.121  1.00  0.00    -0.030 C 
ATOM     13  C   UNL     1      77.529  14.109   0.106  1.00  0.00     0.004 C 
ENDBRANCH  11  12
ENDBRANCH   4  11
TORSDOF 4
ENDMDL
MODEL 6
REMARK VINA RESULT:    -3.516      0.960      2.549
REMARK INTER + INTRA:          -4.622
REMARK INTER:                  -4.387
REMARK INTRA:                  -0.235
REMARK UNBOUND:                -0.284
REMARK SMILES C=CCc1ccc(OC)c(OC)c1
REMARK SMILES IDX 7 1 10 2 13 3 4 4 5 5 6 6 8 7 9 8 11 9 12 10 3 11 2 12 1 13
REMARK H PARENT
REMARK Flexibility Score: inf
ROOT
ATOM      1  C   UNL     1      79.482  16.487   2.139  1.00  0.00     0.160 A 
ATOM      2  C   UNL     1      79.750  15.127   1.923  1.00  0.00     0.160 A 
ATOM      3  C   UNL     1      80.002  14.282   3.022  1.00  0.00     0.054 A 
ATOM      4  C   UNL     1      79.992  14.791   4.330  1.00  0.00    -0.040 A 
ATOM      5  C   UNL     1      79.712  16.149   4.538  1.00  0.00     0.008 A 
ATOM      6  C   UNL     1      79.464  16.991   3.454  1.00  0.00     0.051 A 
ENDROOT
BRANCH   1   7
ATOM      7  O   UNL     1      79.236  17.304   1.024  1.00  0.00    -0.493 OA
ATOM      8  C   UNL     1      78.300  18.378   1.001  1.00  0.00     0.278 C 
ENDBRANCH   1   7
BRANCH   2   9
ATOM      9  O   UNL     1      79.757  14.651   0.602  1.00  0.00    -0.493 OA
ATOM     10  C   UNL     1      78.600  14.214  -0.105  1.00  0.00     0.278 C 
ENDBRANCH   2   9
BRANCH   4  11
ATOM     11  C   UNL     1      80.233  13.875   5.501  1.00  0.00     0.062 C 
BRANCH  11  12
ATOM     12  C   UNL     1      79.495  14.360   6.716  1.00  0.00    -0.030 C 
ATOM     13  C   UNL     1      80.106  14.517   7.894  1.00  0.00     0.004 C 
ENDBRANCH  11  12
ENDBRANCH   4  11
TORSDOF 4
ENDMDL
MODEL 7
REMARK VINA RESULT:    -2.731      2.670      4.493
REMARK INTER + INTRA:          -3.654
REMARK INTER:                  -3.903
REMARK INTRA:                   0.250
REMARK UNBOUND:                -0.284
REMARK SMILES C=CCc1ccc(OC)c(OC)c1
REMARK SMILES IDX 7 1 10 2 13 3 4 4 5 5 6 6 8 7 9 8 11 9 12 10 3 11 2 12 1 13
REMARK H PARENT
REMARK Flexibility Score: inf
ROOT
ATOM      1  C   UNL     1      79.821  17.943   2.215  1.00  0.00     0.160 A 
ATOM      2  C   UNL     1      78.692  17.745   1.406  1.00  0.00     0.160 A 
ATOM      3  C   UNL     1      78.010  16.513   1.449  1.00  0.00     0.054 A 
ATOM      4  C   UNL     1      78.455  15.480   2.289  1.00  0.00    -0.040 A 
ATOM      5  C   UNL     1      79.578  15.689   3.101  1.00  0.00     0.008 A 
ATOM      6  C   UNL     1      80.259  16.907   3.063  1.00  0.00     0.051 A 
ENDROOT
BRANCH   1   7
ATOM      7  O   UNL     1      80.481  19.180   2.150  1.00  0.00    -0.493 OA
ATOM      8  C   UNL     1      81.662  19.426   1.393  1.00  0.00     0.278 C 
ENDBRANCH   1   7
BRANCH   2   9
ATOM      9  O   UNL     1      78.275  18.797   0.574  1.00  0.00    -0.493 OA
ATOM     10  C   UNL     1      77.021  19.462   0.679  1.00  0.00     0.278 C 
ENDBRANCH   2   9
BRANCH   4  11
ATOM     11  C   UNL     1      77.703  14.176   2.350  1.00  0.00     0.062 C 
BRANCH  11  12
ATOM     12  C   UNL     1      77.054  13.875   1.028  1.00  0.00    -0.030 C 
ATOM     13  C   UNL     1      77.721  13.989  -0.124  1.00  0.00     0.004 C 
ENDBRANCH  11  12
ENDBRANCH   4  11
TORSDOF 4
ENDMDL
MODEL 8
REMARK VINA RESULT:    -2.694     18.711     20.275
REMARK INTER + INTRA:          -3.608
REMARK INTER:                  -3.336
REMARK INTRA:                  -0.272
REMARK UNBOUND:                -0.284
REMARK SMILES C=CCc1ccc(OC)c(OC)c1
REMARK SMILES IDX 7 1 10 2 13 3 4 4 5 5 6 6 8 7 9 8 11 9 12 10 3 11 2 12 1 13
REMARK H PARENT
REMARK Flexibility Score: inf
ROOT
ATOM      1  C   UNL     1      89.097  26.609  16.344  1.00  0.00     0.160 A 
ATOM      2  C   UNL     1      90.402  26.958  16.725  1.00  0.00     0.160 A 
ATOM      3  C   UNL     1      91.375  27.205  15.737  1.00  0.00     0.054 A 
ATOM      4  C   UNL     1      91.052  27.099  14.375  1.00  0.00    -0.040 A 
ATOM      5  C   UNL     1      89.745  26.761  14.003  1.00  0.00     0.008 A 
ATOM      6  C   UNL     1      88.776  26.513  14.976  1.00  0.00     0.051 A 
ENDROOT
BRANCH   1   7
ATOM      7  O   UNL     1      88.149  26.368  17.351  1.00  0.00    -0.493 OA
ATOM      8  C   UNL     1      87.337  25.201  17.432  1.00  0.00     0.278 C 
ENDBRANCH   1   7
BRANCH   2   9
ATOM      9  O   UNL     1      90.693  27.051  18.096  1.00  0.00    -0.493 OA
ATOM     10  C   UNL     1      92.005  27.017  18.648  1.00  0.00     0.278 C 
ENDBRANCH   2   9
BRANCH   4  11
ATOM     11  C   UNL     1      92.092  27.393  13.326  1.00  0.00     0.062 C 
BRANCH  11  12
ATOM     12  C   UNL     1      92.125  26.303  12.291  1.00  0.00    -0.030 C 
ATOM     13  C   UNL     1      92.012  26.569  10.987  1.00  0.00     0.004 C 
ENDBRANCH  11  12
ENDBRANCH   4  11
TORSDOF 4
ENDMDL
MODEL 9
REMARK VINA RESULT:    -2.593      1.971      4.555
REMARK INTER + INTRA:          -3.483
REMARK INTER:                  -3.204
REMARK INTRA:                  -0.279
REMARK UNBOUND:                -0.284
REMARK SMILES C=CCc1ccc(OC)c(OC)c1
REMARK SMILES IDX 7 1 10 2 13 3 4 4 5 5 6 6 8 7 9 8 11 9 12 10 3 11 2 12 1 13
REMARK H PARENT
REMARK Flexibility Score: inf
ROOT
ATOM      1  C   UNL     1      78.383  15.056   2.601  1.00  0.00     0.160 A 
ATOM      2  C   UNL     1      78.987  15.358   3.831  1.00  0.00     0.160 A 
ATOM      3  C   UNL     1      79.781  16.515   3.954  1.00  0.00     0.054 A 
ATOM      4  C   UNL     1      79.979  17.365   2.854  1.00  0.00    -0.040 A 
ATOM      5  C   UNL     1      79.364  17.062   1.632  1.00  0.00     0.008 A 
ATOM      6  C   UNL     1      78.577  15.916   1.503  1.00  0.00     0.051 A 
ENDROOT
BRANCH   1   7
ATOM      7  O   UNL     1      77.599  13.896   2.509  1.00  0.00    -0.493 OA
ATOM      8  C   UNL     1      76.233  13.875   2.103  1.00  0.00     0.278 C 
ENDBRANCH   1   7
BRANCH   2   9
ATOM      9  O   UNL     1      78.773  14.485   4.910  1.00  0.00    -0.493 OA
ATOM     10  C   UNL     1      79.631  14.372   6.041  1.00  0.00     0.278 C 
ENDBRANCH   2   9
BRANCH   4  11
ATOM     11  C   UNL     1      80.806  18.614   3.002  1.00  0.00     0.062 C 
BRANCH  11  12
ATOM     12  C   UNL     1      80.888  19.355   1.696  1.00  0.00    -0.030 C 
ATOM     13  C   UNL     1      82.040  19.861   1.247  1.00  0.00     0.004 C 
ENDBRANCH  11  12
ENDBRANCH   4  11
TORSDOF 4
ENDMDL
