MODEL 1
REMARK VINA RESULT:    -4.933      0.000      0.000
REMARK INTER + INTRA:          -6.092
REMARK INTER:                  -5.798
REMARK INTRA:                  -0.294
REMARK UNBOUND:                -0.294
REMARK SMILES O=c1cc(-c2ccc(O)c(O)c2)oc2cc(O)cc(O)c12
REMARK SMILES IDX 4 1 3 2 2 3 1 4 21 5 19 6 18 7 16 8 15 9 14 10 13 11 5 12
REMARK SMILES IDX 6 13 7 14 8 15 12 16 10 17 9 18 11 20 20 22 17 24
REMARK H PARENT 9 19 11 21 20 23 17 25
REMARK Flexibility Score: inf
ROOT
ATOM      1  C   UNL     1      31.473  19.630  31.392  1.00  0.00     0.138 A 
ATOM      2  C   UNL     1      30.818  19.964  32.584  1.00  0.00     0.100 A 
ATOM      3  C   UNL     1      29.794  20.912  32.568  1.00  0.00     0.197 A 
ATOM      4  O   UNL     1      29.188  21.149  33.644  1.00  0.00    -0.289 OA
ATOM      5  C   UNL     1      29.449  21.555  31.354  1.00  0.00     0.107 A 
ATOM      6  C   UNL     1      28.445  22.561  31.222  1.00  0.00     0.134 A 
ATOM      7  C   UNL     1      28.123  23.053  29.951  1.00  0.00     0.093 A 
ATOM      8  C   UNL     1      28.810  22.618  28.815  1.00  0.00     0.123 A 
ATOM      9  C   UNL     1      29.825  21.673  28.940  1.00  0.00     0.094 A 
ATOM     10  C   UNL     1      30.146  21.137  30.189  1.00  0.00     0.146 A 
ATOM     11  O   UNL     1      31.109  20.224  30.260  1.00  0.00    -0.456 OA
ENDROOT
BRANCH   1  12
ATOM     12  C   UNL     1      32.572  18.632  31.352  1.00  0.00     0.021 A 
ATOM     13  C   UNL     1      33.140  18.205  30.136  1.00  0.00     0.016 A 
ATOM     14  C   UNL     1      34.180  17.271  30.130  1.00  0.00     0.051 A 
ATOM     15  C   UNL     1      34.675  16.755  31.334  1.00  0.00     0.157 A 
ATOM     16  C   UNL     1      33.083  18.118  32.556  1.00  0.00     0.062 A 
ATOM     17  C   UNL     1      34.127  17.180  32.549  1.00  0.00     0.158 A 
BRANCH  15  18
ATOM     18  O   UNL     1      35.711  15.823  31.330  1.00  0.00    -0.504 OA
ATOM     19  H   UNL     1      35.638  14.948  31.837  1.00  0.00     0.293 HD
ENDBRANCH  15  18
BRANCH  17  20
ATOM     20  O   UNL     1      34.622  16.668  33.746  1.00  0.00    -0.504 OA
ATOM     21  H   UNL     1      34.262  15.810  34.146  1.00  0.00     0.293 HD
ENDBRANCH  17  20
ENDBRANCH   1  12
BRANCH   6  22
ATOM     22  O   UNL     1      27.754  23.125  32.299  1.00  0.00    -0.507 OA
ATOM     23  H   UNL     1      26.759  23.061  32.448  1.00  0.00     0.293 HD
ENDBRANCH   6  22
BRANCH   8  24
ATOM     24  O   UNL     1      28.495  23.125  27.556  1.00  0.00    -0.508 OA
ATOM     25  H   UNL     1      28.977  22.809  26.722  1.00  0.00     0.293 HD
ENDBRANCH   8  24
TORSDOF 5
ENDMDL
MODEL 2
REMARK VINA RESULT:    -4.815      1.175      2.726
REMARK INTER + INTRA:          -5.953
REMARK INTER:                  -5.636
REMARK INTRA:                  -0.318
REMARK UNBOUND:                -0.294
REMARK SMILES O=c1cc(-c2ccc(O)c(O)c2)oc2cc(O)cc(O)c12
REMARK SMILES IDX 4 1 3 2 2 3 1 4 21 5 19 6 18 7 16 8 15 9 14 10 13 11 5 12
REMARK SMILES IDX 6 13 7 14 8 15 12 16 10 17 9 18 11 20 20 22 17 24
REMARK H PARENT 9 19 11 21 20 23 17 25
REMARK Flexibility Score: inf
ROOT
ATOM      1  C   UNL     1      32.078  19.154  30.680  1.00  0.00     0.138 A 
ATOM      2  C   UNL     1      31.776  19.629  29.396  1.00  0.00     0.100 A 
ATOM      3  C   UNL     1      30.775  20.588  29.232  1.00  0.00     0.197 A 
ATOM      4  O   UNL     1      30.566  21.035  28.075  1.00  0.00    -0.289 OA
ATOM      5  C   UNL     1      30.050  21.048  30.358  1.00  0.00     0.107 A 
ATOM      6  C   UNL     1      28.986  21.999  30.308  1.00  0.00     0.134 A 
ATOM      7  C   UNL     1      28.408  22.451  31.500  1.00  0.00     0.093 A 
ATOM      8  C   UNL     1      28.815  21.944  32.737  1.00  0.00     0.123 A 
ATOM      9  C   UNL     1      29.818  20.979  32.792  1.00  0.00     0.094 A 
ATOM     10  C   UNL     1      30.438  20.533  31.623  1.00  0.00     0.146 A 
ATOM     11  O   UNL     1      31.404  19.625  31.723  1.00  0.00    -0.456 OA
ENDROOT
BRANCH   1  12
ATOM     12  C   UNL     1      33.129  18.132  30.912  1.00  0.00     0.021 A 
ATOM     13  C   UNL     1      33.807  17.512  29.844  1.00  0.00     0.016 A 
ATOM     14  C   UNL     1      34.800  16.560  30.094  1.00  0.00     0.051 A 
ATOM     15  C   UNL     1      35.137  16.217  31.409  1.00  0.00     0.157 A 
ATOM     16  C   UNL     1      33.483  17.790  32.229  1.00  0.00     0.062 A 
ATOM     17  C   UNL     1      34.479  16.834  32.478  1.00  0.00     0.158 A 
BRANCH  15  18
ATOM     18  O   UNL     1      36.125  15.267  31.660  1.00  0.00    -0.504 OA
ATOM     19  H   UNL     1      36.689  14.878  30.912  1.00  0.00     0.293 HD
ENDBRANCH  15  18
BRANCH  17  20
ATOM     20  O   UNL     1      34.817  16.494  33.786  1.00  0.00    -0.504 OA
ATOM     21  H   UNL     1      35.740  16.677  34.161  1.00  0.00     0.293 HD
ENDBRANCH  17  20
ENDBRANCH   1  12
BRANCH   6  22
ATOM     22  O   UNL     1      28.446  22.510  29.123  1.00  0.00    -0.507 OA
ATOM     23  H   UNL     1      28.726  23.373  28.683  1.00  0.00     0.293 HD
ENDBRANCH   6  22
BRANCH   8  24
ATOM     24  O   UNL     1      28.224  22.388  33.918  1.00  0.00    -0.508 OA
ATOM     25  H   UNL     1      28.679  22.268  34.815  1.00  0.00     0.293 HD
ENDBRANCH   8  24
TORSDOF 5
ENDMDL
MODEL 3
REMARK VINA RESULT:    -4.741      1.601      7.310
REMARK INTER + INTRA:          -5.867
REMARK INTER:                  -5.548
REMARK INTRA:                  -0.318
REMARK UNBOUND:                -0.294
REMARK SMILES O=c1cc(-c2ccc(O)c(O)c2)oc2cc(O)cc(O)c12
REMARK SMILES IDX 4 1 3 2 2 3 1 4 21 5 19 6 18 7 16 8 15 9 14 10 13 11 5 12
REMARK SMILES IDX 6 13 7 14 8 15 12 16 10 17 9 18 11 20 20 22 17 24
REMARK H PARENT 9 19 11 21 20 23 17 25
REMARK Flexibility Score: inf
ROOT
ATOM      1  C   UNL     1      31.737  19.323  30.856  1.00  0.00     0.138 A 
ATOM      2  C   UNL     1      32.102  19.065  29.528  1.00  0.00     0.100 A 
ATOM      3  C   UNL     1      33.116  18.146  29.255  1.00  0.00     0.197 A 
ATOM      4  O   UNL     1      33.382  17.896  28.052  1.00  0.00    -0.289 OA
ATOM      5  C   UNL     1      33.793  17.508  30.323  1.00  0.00     0.107 A 
ATOM      6  C   UNL     1      34.865  16.579  30.167  1.00  0.00     0.134 A 
ATOM      7  C   UNL     1      35.391  15.937  31.295  1.00  0.00     0.093 A 
ATOM      8  C   UNL     1      34.923  16.234  32.578  1.00  0.00     0.123 A 
ATOM      9  C   UNL     1      33.911  17.176  32.743  1.00  0.00     0.094 A 
ATOM     10  C   UNL     1      33.342  17.808  31.636  1.00  0.00     0.146 A 
ATOM     11  O   UNL     1      32.366  18.687  31.839  1.00  0.00    -0.456 OA
ENDROOT
BRANCH   1  12
ATOM     12  C   UNL     1      30.668  20.293  31.203  1.00  0.00     0.021 A 
ATOM     13  C   UNL     1      29.929  20.966  30.212  1.00  0.00     0.016 A 
ATOM     14  C   UNL     1      28.921  21.867  30.569  1.00  0.00     0.051 A 
ATOM     15  C   UNL     1      28.630  22.104  31.918  1.00  0.00     0.157 A 
ATOM     16  C   UNL     1      30.360  20.529  32.555  1.00  0.00     0.062 A 
ATOM     17  C   UNL     1      29.350  21.433  32.912  1.00  0.00     0.158 A 
BRANCH  15  18
ATOM     18  O   UNL     1      27.627  23.003  32.276  1.00  0.00    -0.504 OA
ATOM     19  H   UNL     1      26.859  22.727  32.878  1.00  0.00     0.293 HD
ENDBRANCH  15  18
BRANCH  17  20
ATOM     20  O   UNL     1      29.057  21.669  34.254  1.00  0.00    -0.504 OA
ATOM     21  H   UNL     1      29.340  22.524  34.717  1.00  0.00     0.293 HD
ENDBRANCH  17  20
ENDBRANCH   1  12
BRANCH   6  22
ATOM     22  O   UNL     1      35.463  16.269  28.941  1.00  0.00    -0.507 OA
ATOM     23  H   UNL     1      36.455  16.187  28.784  1.00  0.00     0.293 HD
ENDBRANCH   6  22
BRANCH   8  24
ATOM     24  O   UNL     1      35.463  15.602  33.696  1.00  0.00    -0.508 OA
ATOM     25  H   UNL     1      35.104  15.776  34.628  1.00  0.00     0.293 HD
ENDBRANCH   8  24
TORSDOF 5
ENDMDL
MODEL 4
REMARK VINA RESULT:    -4.592      2.555      3.808
REMARK INTER + INTRA:          -5.692
REMARK INTER:                  -5.430
REMARK INTRA:                  -0.262
REMARK UNBOUND:                -0.294
REMARK SMILES O=c1cc(-c2ccc(O)c(O)c2)oc2cc(O)cc(O)c12
REMARK SMILES IDX 4 1 3 2 2 3 1 4 21 5 19 6 18 7 16 8 15 9 14 10 13 11 5 12
REMARK SMILES IDX 6 13 7 14 8 15 12 16 10 17 9 18 11 20 20 22 17 24
REMARK H PARENT 9 19 11 21 20 23 17 25
REMARK Flexibility Score: inf
ROOT
ATOM      1  C   UNL     1      33.937  18.245  31.784  1.00  0.00     0.138 A 
ATOM      2  C   UNL     1      34.845  19.231  32.193  1.00  0.00     0.100 A 
ATOM      3  C   UNL     1      34.372  20.471  32.625  1.00  0.00     0.197 A 
ATOM      4  O   UNL     1      35.208  21.314  33.038  1.00  0.00    -0.289 OA
ATOM      5  C   UNL     1      32.981  20.736  32.612  1.00  0.00     0.107 A 
ATOM      6  C   UNL     1      32.385  21.975  32.997  1.00  0.00     0.134 A 
ATOM      7  C   UNL     1      30.989  22.087  33.037  1.00  0.00     0.093 A 
ATOM      8  C   UNL     1      30.170  21.023  32.649  1.00  0.00     0.123 A 
ATOM      9  C   UNL     1      30.743  19.827  32.224  1.00  0.00     0.094 A 
ATOM     10  C   UNL     1      32.131  19.673  32.206  1.00  0.00     0.146 A 
ATOM     11  O   UNL     1      32.635  18.508  31.811  1.00  0.00    -0.456 OA
ENDROOT
BRANCH   1  12
ATOM     12  C   UNL     1      34.385  16.911  31.312  1.00  0.00     0.021 A 
ATOM     13  C   UNL     1      34.564  16.631  29.944  1.00  0.00     0.016 A 
ATOM     14  C   UNL     1      34.997  15.368  29.529  1.00  0.00     0.051 A 
ATOM     15  C   UNL     1      35.266  14.368  30.472  1.00  0.00     0.157 A 
ATOM     16  C   UNL     1      34.670  15.904  32.252  1.00  0.00     0.062 A 
ATOM     17  C   UNL     1      35.104  14.637  31.836  1.00  0.00     0.158 A 
BRANCH  15  18
ATOM     18  O   UNL     1      35.696  13.108  30.062  1.00  0.00    -0.504 OA
ATOM     19  H   UNL     1      35.119  12.284  30.188  1.00  0.00     0.293 HD
ENDBRANCH  15  18
BRANCH  17  20
ATOM     20  O   UNL     1      35.375  13.642  32.773  1.00  0.00    -0.504 OA
ATOM     21  H   UNL     1      35.707  13.865  33.703  1.00  0.00     0.293 HD
ENDBRANCH  17  20
ENDBRANCH   1  12
BRANCH   6  22
ATOM     22  O   UNL     1      33.109  23.125  33.325  1.00  0.00    -0.507 OA
ATOM     23  H   UNL     1      33.372  23.399  34.259  1.00  0.00     0.293 HD
ENDBRANCH   6  22
BRANCH   8  24
ATOM     24  O   UNL     1      28.782  21.148  32.676  1.00  0.00    -0.508 OA
ATOM     25  H   UNL     1      28.334  22.040  32.853  1.00  0.00     0.293 HD
ENDBRANCH   8  24
TORSDOF 5
ENDMDL
MODEL 5
REMARK VINA RESULT:    -4.410      2.789      4.053
REMARK INTER + INTRA:          -5.478
REMARK INTER:                  -5.183
REMARK INTRA:                  -0.295
REMARK UNBOUND:                -0.294
REMARK SMILES O=c1cc(-c2ccc(O)c(O)c2)oc2cc(O)cc(O)c12
REMARK SMILES IDX 4 1 3 2 2 3 1 4 21 5 19 6 18 7 16 8 15 9 14 10 13 11 5 12
REMARK SMILES IDX 6 13 7 14 8 15 12 16 10 17 9 18 11 20 20 22 17 24
REMARK H PARENT 9 19 11 21 20 23 17 25
REMARK Flexibility Score: inf
ROOT
ATOM      1  C   UNL     1      30.388  20.191  29.967  1.00  0.00     0.138 A 
ATOM      2  C   UNL     1      30.174  18.893  29.483  1.00  0.00     0.100 A 
ATOM      3  C   UNL     1      29.143  18.656  28.573  1.00  0.00     0.197 A 
ATOM      4  O   UNL     1      29.012  17.492  28.116  1.00  0.00    -0.289 OA
ATOM      5  C   UNL     1      28.299  19.720  28.173  1.00  0.00     0.107 A 
ATOM      6  C   UNL     1      27.195  19.590  27.277  1.00  0.00     0.134 A 
ATOM      7  C   UNL     1      26.492  20.734  26.877  1.00  0.00     0.093 A 
ATOM      8  C   UNL     1      26.817  21.994  27.387  1.00  0.00     0.123 A 
ATOM      9  C   UNL     1      27.860  22.123  28.300  1.00  0.00     0.094 A 
ATOM     10  C   UNL     1      28.602  21.007  28.692  1.00  0.00     0.146 A 
ATOM     11  O   UNL     1      29.601  21.178  29.551  1.00  0.00    -0.456 OA
ENDROOT
BRANCH   1  12
ATOM     12  C   UNL     1      31.467  20.500  30.939  1.00  0.00     0.021 A 
ATOM     13  C   UNL     1      31.635  21.792  31.472  1.00  0.00     0.016 A 
ATOM     14  C   UNL     1      32.654  22.051  32.393  1.00  0.00     0.051 A 
ATOM     15  C   UNL     1      33.514  21.025  32.803  1.00  0.00     0.157 A 
ATOM     16  C   UNL     1      32.328  19.473  31.366  1.00  0.00     0.062 A 
ATOM     17  C   UNL     1      33.350  19.734  32.290  1.00  0.00     0.158 A 
BRANCH  15  18
ATOM     18  O   UNL     1      34.532  21.281  33.720  1.00  0.00    -0.504 OA
ATOM     19  H   UNL     1      35.472  21.511  33.418  1.00  0.00     0.293 HD
ENDBRANCH  15  18
BRANCH  17  20
ATOM     20  O   UNL     1      34.205  18.714  32.701  1.00  0.00    -0.504 OA
ATOM     21  H   UNL     1      35.117  18.584  32.282  1.00  0.00     0.293 HD
ENDBRANCH  17  20
ENDBRANCH   1  12
BRANCH   6  22
ATOM     22  O   UNL     1      26.735  18.371  26.771  1.00  0.00    -0.507 OA
ATOM     23  H   UNL     1      26.108  18.267  25.988  1.00  0.00     0.293 HD
ENDBRANCH   6  22
BRANCH   8  24
ATOM     24  O   UNL     1      26.102  23.125  26.996  1.00  0.00    -0.508 OA
ATOM     25  H   UNL     1      25.090  23.117  26.934  1.00  0.00     0.293 HD
ENDBRANCH   8  24
TORSDOF 5
ENDMDL
MODEL 6
REMARK VINA RESULT:    -4.385      6.503     10.269
REMARK INTER + INTRA:          -5.449
REMARK INTER:                  -5.154
REMARK INTRA:                  -0.294
REMARK UNBOUND:                -0.294
REMARK SMILES O=c1cc(-c2ccc(O)c(O)c2)oc2cc(O)cc(O)c12
REMARK SMILES IDX 4 1 3 2 2 3 1 4 21 5 19 6 18 7 16 8 15 9 14 10 13 11 5 12
REMARK SMILES IDX 6 13 7 14 8 15 12 16 10 17 9 18 11 20 20 22 17 24
REMARK H PARENT 9 19 11 21 20 23 17 25
REMARK Flexibility Score: inf
ROOT
ATOM      1  C   UNL     1      35.726  13.118  30.982  1.00  0.00     0.138 A 
ATOM      2  C   UNL     1      35.916  12.052  31.871  1.00  0.00     0.100 A 
ATOM      3  C   UNL     1      35.829  10.739  31.404  1.00  0.00     0.197 A 
ATOM      4  O   UNL     1      36.060   9.806  32.215  1.00  0.00    -0.289 OA
ATOM      5  C   UNL     1      35.515  10.494  30.046  1.00  0.00     0.107 A 
ATOM      6  C   UNL     1      35.367   9.199  29.465  1.00  0.00     0.134 A 
ATOM      7  C   UNL     1      35.151   9.081  28.086  1.00  0.00     0.093 A 
ATOM      8  C   UNL     1      35.020  10.213  27.278  1.00  0.00     0.123 A 
ATOM      9  C   UNL     1      35.114  11.482  27.844  1.00  0.00     0.094 A 
ATOM     10  C   UNL     1      35.362  11.633  29.210  1.00  0.00     0.146 A 
ATOM     11  O   UNL     1      35.463  12.862  29.705  1.00  0.00    -0.456 OA
ENDROOT
BRANCH   1  12
ATOM     12  C   UNL     1      35.803  14.533  31.424  1.00  0.00     0.021 A 
ATOM     13  C   UNL     1      35.728  15.600  30.508  1.00  0.00     0.016 A 
ATOM     14  C   UNL     1      35.794  16.923  30.955  1.00  0.00     0.051 A 
ATOM     15  C   UNL     1      35.926  17.203  32.320  1.00  0.00     0.157 A 
ATOM     16  C   UNL     1      35.923  14.824  32.795  1.00  0.00     0.062 A 
ATOM     17  C   UNL     1      35.989  16.152  33.242  1.00  0.00     0.158 A 
BRANCH  15  18
ATOM     18  O   UNL     1      35.993  18.521  32.768  1.00  0.00    -0.504 OA
ATOM     19  H   UNL     1      35.565  19.280  32.249  1.00  0.00     0.293 HD
ENDBRANCH  15  18
BRANCH  17  20
ATOM     20  O   UNL     1      36.118  16.432  34.601  1.00  0.00    -0.504 OA
ATOM     21  H   UNL     1      36.367  15.714  35.270  1.00  0.00     0.293 HD
ENDBRANCH  17  20
ENDBRANCH   1  12
BRANCH   6  22
ATOM     22  O   UNL     1      35.398   8.005  30.193  1.00  0.00    -0.507 OA
ATOM     23  H   UNL     1      35.953   7.197  29.958  1.00  0.00     0.293 HD
ENDBRANCH   6  22
BRANCH   8  24
ATOM     24  O   UNL     1      34.790  10.087  25.909  1.00  0.00    -0.508 OA
ATOM     25  H   UNL     1      34.355   9.258  25.520  1.00  0.00     0.293 HD
ENDBRANCH   8  24
TORSDOF 5
ENDMDL
MODEL 7
REMARK VINA RESULT:    -4.304      6.467     10.404
REMARK INTER + INTRA:          -5.353
REMARK INTER:                  -5.043
REMARK INTRA:                  -0.311
REMARK UNBOUND:                -0.294
REMARK SMILES O=c1cc(-c2ccc(O)c(O)c2)oc2cc(O)cc(O)c12
REMARK SMILES IDX 4 1 3 2 2 3 1 4 21 5 19 6 18 7 16 8 15 9 14 10 13 11 5 12
REMARK SMILES IDX 6 13 7 14 8 15 12 16 10 17 9 18 11 20 20 22 17 24
REMARK H PARENT 9 19 11 21 20 23 17 25
REMARK Flexibility Score: inf
ROOT
ATOM      1  C   UNL     1      35.446  13.637  30.177  1.00  0.00     0.138 A 
ATOM      2  C   UNL     1      35.021  13.532  28.845  1.00  0.00     0.100 A 
ATOM      3  C   UNL     1      34.863  12.271  28.268  1.00  0.00     0.197 A 
ATOM      4  O   UNL     1      34.428  12.209  27.090  1.00  0.00    -0.289 OA
ATOM      5  C   UNL     1      35.166  11.110  29.019  1.00  0.00     0.107 A 
ATOM      6  C   UNL     1      35.075   9.773  28.526  1.00  0.00     0.134 A 
ATOM      7  C   UNL     1      35.307   8.699  29.394  1.00  0.00     0.093 A 
ATOM      8  C   UNL     1      35.683   8.914  30.722  1.00  0.00     0.123 A 
ATOM      9  C   UNL     1      35.823  10.215  31.200  1.00  0.00     0.094 A 
ATOM     10  C   UNL     1      35.566  11.307  30.368  1.00  0.00     0.146 A 
ATOM     11  O   UNL     1      35.694  12.531  30.870  1.00  0.00    -0.456 OA
ENDROOT
BRANCH   1  12
ATOM     12  C   UNL     1      35.635  14.952  30.840  1.00  0.00     0.021 A 
ATOM     13  C   UNL     1      35.856  16.129  30.099  1.00  0.00     0.016 A 
ATOM     14  C   UNL     1      36.020  17.355  30.750  1.00  0.00     0.051 A 
ATOM     15  C   UNL     1      35.959  17.428  32.147  1.00  0.00     0.157 A 
ATOM     16  C   UNL     1      35.562  15.037  32.241  1.00  0.00     0.062 A 
ATOM     17  C   UNL     1      35.728  16.268  32.894  1.00  0.00     0.158 A 
BRANCH  15  18
ATOM     18  O   UNL     1      36.124  18.649  32.799  1.00  0.00    -0.504 OA
ATOM     19  H   UNL     1      36.611  19.422  32.360  1.00  0.00     0.293 HD
ENDBRANCH  15  18
BRANCH  17  20
ATOM     20  O   UNL     1      35.665  16.342  34.284  1.00  0.00    -0.504 OA
ATOM     21  H   UNL     1      36.502  16.367  34.853  1.00  0.00     0.293 HD
ENDBRANCH  17  20
ENDBRANCH   1  12
BRANCH   6  22
ATOM     22  O   UNL     1      34.786   9.447  27.197  1.00  0.00    -0.507 OA
ATOM     23  H   UNL     1      35.425   9.000  26.557  1.00  0.00     0.293 HD
ENDBRANCH   6  22
BRANCH   8  24
ATOM     24  O   UNL     1      35.927   7.840  31.575  1.00  0.00    -0.508 OA
ATOM     25  H   UNL     1      36.429   7.959  32.448  1.00  0.00     0.293 HD
ENDBRANCH   8  24
TORSDOF 5
ENDMDL
MODEL 8
REMARK VINA RESULT:    -4.293      1.878      2.357
REMARK INTER + INTRA:          -5.340
REMARK INTER:                  -5.075
REMARK INTRA:                  -0.265
REMARK UNBOUND:                -0.294
REMARK SMILES O=c1cc(-c2ccc(O)c(O)c2)oc2cc(O)cc(O)c12
REMARK SMILES IDX 4 1 3 2 2 3 1 4 21 5 19 6 18 7 16 8 15 9 14 10 13 11 5 12
REMARK SMILES IDX 6 13 7 14 8 15 12 16 10 17 9 18 11 20 20 22 17 24
REMARK H PARENT 9 19 11 21 20 23 17 25
REMARK Flexibility Score: inf
ROOT
ATOM      1  C   UNL     1      31.446  19.369  30.103  1.00  0.00     0.138 A 
ATOM      2  C   UNL     1      31.330  20.697  30.534  1.00  0.00     0.100 A 
ATOM      3  C   UNL     1      30.273  21.483  30.072  1.00  0.00     0.197 A 
ATOM      4  O   UNL     1      30.165  22.653  30.520  1.00  0.00    -0.289 OA
ATOM      5  C   UNL     1      29.347  20.945  29.146  1.00  0.00     0.107 A 
ATOM      6  C   UNL     1      28.250  21.662  28.581  1.00  0.00     0.134 A 
ATOM      7  C   UNL     1      27.343  20.993  27.750  1.00  0.00     0.093 A 
ATOM      8  C   UNL     1      27.526  19.648  27.417  1.00  0.00     0.123 A 
ATOM      9  C   UNL     1      28.621  18.953  27.924  1.00  0.00     0.094 A 
ATOM     10  C   UNL     1      29.525  19.583  28.783  1.00  0.00     0.146 A 
ATOM     11  O   UNL     1      30.546  18.877  29.258  1.00  0.00    -0.456 OA
ENDROOT
BRANCH   1  12
ATOM     12  C   UNL     1      32.552  18.489  30.559  1.00  0.00     0.021 A 
ATOM     13  C   UNL     1      33.481  17.940  29.654  1.00  0.00     0.016 A 
ATOM     14  C   UNL     1      34.518  17.122  30.113  1.00  0.00     0.051 A 
ATOM     15  C   UNL     1      34.650  16.847  31.480  1.00  0.00     0.157 A 
ATOM     16  C   UNL     1      32.700  18.217  31.931  1.00  0.00     0.062 A 
ATOM     17  C   UNL     1      33.741  17.397  32.390  1.00  0.00     0.158 A 
BRANCH  15  18
ATOM     18  O   UNL     1      35.682  16.032  31.940  1.00  0.00    -0.504 OA
ATOM     19  H   UNL     1      36.403  15.686  31.316  1.00  0.00     0.293 HD
ENDBRANCH  15  18
BRANCH  17  20
ATOM     20  O   UNL     1      33.875  17.125  33.750  1.00  0.00    -0.504 OA
ATOM     21  H   UNL     1      33.932  17.867  34.437  1.00  0.00     0.293 HD
ENDBRANCH  17  20
ENDBRANCH   1  12
BRANCH   6  22
ATOM     22  O   UNL     1      28.019  23.026  28.781  1.00  0.00    -0.507 OA
ATOM     23  H   UNL     1      27.512  23.627  28.150  1.00  0.00     0.293 HD
ENDBRANCH   6  22
BRANCH   8  24
ATOM     24  O   UNL     1      26.627  18.994  26.577  1.00  0.00    -0.508 OA
ATOM     25  H   UNL     1      26.843  18.092  26.170  1.00  0.00     0.293 HD
ENDBRANCH   8  24
TORSDOF 5
ENDMDL
