MODEL 1
REMARK VINA RESULT:    -4.636      0.000      0.000
REMARK INTER + INTRA:         -10.056
REMARK INTER:                  -8.159
REMARK INTRA:                  -1.898
REMARK UNBOUND:                -1.898
REMARK SMILES CCCCCCCCCCCCCCC(=O)[O-]
REMARK SMILES IDX 9 1 10 2 11 3 12 4 13 5 14 6 15 7 16 8 17 9 8 10 7 11 6 12
REMARK SMILES IDX 5 13 4 14 3 15 2 16 1 17
REMARK H PARENT
REMARK Flexibility Score: inf
ROOT
ATOM      1  C   UNL     1     -25.671 -31.391 -10.404  1.00  0.00     0.000 C 
ENDROOT
BRANCH   1   2
ATOM      2  C   UNL     1     -24.438 -32.073 -11.032  1.00  0.00     0.000 C 
BRANCH   2   3
ATOM      3  C   UNL     1     -23.918 -31.419 -12.326  1.00  0.00     0.000 C 
BRANCH   3   4
ATOM      4  C   UNL     1     -22.513 -31.901 -12.716  1.00  0.00     0.000 C 
BRANCH   4   5
ATOM      5  C   UNL     1     -22.314 -33.376 -12.337  1.00  0.00     0.006 C 
BRANCH   5   6
ATOM      6  C   UNL     1     -21.662 -34.184 -13.467  1.00  0.00     0.053 C 
BRANCH   6   7
ATOM      7  C   UNL     1     -20.767 -35.262 -12.936  1.00  0.00     0.041 C 
ATOM      8  O   UNL     1     -21.029 -35.820 -11.838  1.00  0.00    -0.550 OA
ATOM      9  O   UNL     1     -19.623 -35.625 -13.636  1.00  0.00    -0.550 OA
ENDBRANCH   6   7
ENDBRANCH   5   6
ENDBRANCH   4   5
ENDBRANCH   3   4
ENDBRANCH   2   3
ENDBRANCH   1   2
BRANCH   1  10
ATOM     10  C   UNL     1     -26.466 -30.478 -11.356  1.00  0.00     0.000 C 
BRANCH  10  11
ATOM     11  C   UNL     1     -27.945 -30.877 -11.469  1.00  0.00    -0.000 C 
BRANCH  11  12
ATOM     12  C   UNL     1     -28.282 -31.333 -12.897  1.00  0.00    -0.000 C 
BRANCH  12  13
ATOM     13  C   UNL     1     -27.887 -32.794 -13.160  1.00  0.00    -0.000 C 
BRANCH  13  14
ATOM     14  C   UNL     1     -28.214 -33.718 -11.978  1.00  0.00    -0.000 C 
BRANCH  14  15
ATOM     15  C   UNL     1     -27.032 -34.644 -11.663  1.00  0.00    -0.000 C 
BRANCH  15  16
ATOM     16  C   UNL     1     -26.123 -34.813 -12.887  1.00  0.00    -0.003 C 
ATOM     17  C   UNL     1     -24.958 -35.748 -12.582  1.00  0.00     0.004 C 
ENDBRANCH  15  16
ENDBRANCH  14  15
ENDBRANCH  13  14
ENDBRANCH  12  13
ENDBRANCH  11  12
ENDBRANCH  10  11
ENDBRANCH   1  10
TORSDOF 13
ENDMDL
MODEL 2
REMARK VINA RESULT:    -4.621      1.223      3.138
REMARK INTER + INTRA:         -10.030
REMARK INTER:                  -8.337
REMARK INTRA:                  -1.693
REMARK UNBOUND:                -1.898
REMARK SMILES CCCCCCCCCCCCCCC(=O)[O-]
REMARK SMILES IDX 9 1 10 2 11 3 12 4 13 5 14 6 15 7 16 8 17 9 8 10 7 11 6 12
REMARK SMILES IDX 5 13 4 14 3 15 2 16 1 17
REMARK H PARENT
REMARK Flexibility Score: inf
ROOT
ATOM      1  C   UNL     1     -25.709 -34.974 -11.446  1.00  0.00     0.000 C 
ENDROOT
BRANCH   1   2
ATOM      2  C   UNL     1     -25.006 -35.584 -12.677  1.00  0.00     0.000 C 
BRANCH   2   3
ATOM      3  C   UNL     1     -23.467 -35.560 -12.628  1.00  0.00     0.000 C 
BRANCH   3   4
ATOM      4  C   UNL     1     -22.889 -34.139 -12.686  1.00  0.00     0.000 C 
BRANCH   4   5
ATOM      5  C   UNL     1     -21.534 -34.127 -13.408  1.00  0.00     0.006 C 
BRANCH   5   6
ATOM      6  C   UNL     1     -20.367 -33.858 -12.449  1.00  0.00     0.053 C 
BRANCH   6   7
ATOM      7  C   UNL     1     -19.925 -35.105 -11.746  1.00  0.00     0.041 C 
ATOM      8  O   UNL     1     -19.701 -35.087 -10.507  1.00  0.00    -0.550 OA
ATOM      9  O   UNL     1     -19.727 -36.277 -12.464  1.00  0.00    -0.550 OA
ENDBRANCH   6   7
ENDBRANCH   5   6
ENDBRANCH   4   5
ENDBRANCH   3   4
ENDBRANCH   2   3
ENDBRANCH   1   2
BRANCH   1  10
ATOM     10  C   UNL     1     -27.218 -34.719 -11.617  1.00  0.00     0.000 C 
BRANCH  10  11
ATOM     11  C   UNL     1     -27.677 -34.808 -13.079  1.00  0.00    -0.000 C 
BRANCH  11  12
ATOM     12  C   UNL     1     -27.649 -33.425 -13.748  1.00  0.00    -0.000 C 
BRANCH  12  13
ATOM     13  C   UNL     1     -28.364 -32.350 -12.915  1.00  0.00    -0.000 C 
BRANCH  13  14
ATOM     14  C   UNL     1     -27.461 -31.151 -12.595  1.00  0.00    -0.000 C 
BRANCH  14  15
ATOM     15  C   UNL     1     -26.000 -31.453 -12.956  1.00  0.00    -0.000 C 
BRANCH  15  16
ATOM     16  C   UNL     1     -25.099 -31.369 -11.718  1.00  0.00    -0.003 C 
ATOM     17  C   UNL     1     -25.925 -31.347 -10.436  1.00  0.00     0.004 C 
ENDBRANCH  15  16
ENDBRANCH  14  15
ENDBRANCH  13  14
ENDBRANCH  12  13
ENDBRANCH  11  12
ENDBRANCH  10  11
ENDBRANCH   1  10
TORSDOF 13
ENDMDL
MODEL 3
REMARK VINA RESULT:    -4.611      1.573      3.378
REMARK INTER + INTRA:         -10.012
REMARK INTER:                  -8.182
REMARK INTRA:                  -1.830
REMARK UNBOUND:                -1.898
REMARK SMILES CCCCCCCCCCCCCCC(=O)[O-]
REMARK SMILES IDX 9 1 10 2 11 3 12 4 13 5 14 6 15 7 16 8 17 9 8 10 7 11 6 12
REMARK SMILES IDX 5 13 4 14 3 15 2 16 1 17
REMARK H PARENT
REMARK Flexibility Score: inf
ROOT
ATOM      1  C   UNL     1     -25.894 -34.781 -11.477  1.00  0.00     0.000 C 
ENDROOT
BRANCH   1   2
ATOM      2  C   UNL     1     -25.084 -35.489 -12.582  1.00  0.00     0.000 C 
BRANCH   2   3
ATOM      3  C   UNL     1     -23.582 -35.148 -12.611  1.00  0.00     0.000 C 
BRANCH   3   4
ATOM      4  C   UNL     1     -23.304 -33.657 -12.375  1.00  0.00     0.000 C 
BRANCH   4   5
ATOM      5  C   UNL     1     -21.795 -33.370 -12.400  1.00  0.00     0.006 C 
BRANCH   5   6
ATOM      6  C   UNL     1     -21.425 -32.297 -13.433  1.00  0.00     0.053 C 
BRANCH   6   7
ATOM      7  C   UNL     1     -20.800 -32.894 -14.657  1.00  0.00     0.041 C 
ATOM      8  O   UNL     1     -20.652 -34.140 -14.748  1.00  0.00    -0.550 OA
ATOM      9  O   UNL     1     -20.348 -32.070 -15.681  1.00  0.00    -0.550 OA
ENDBRANCH   6   7
ENDBRANCH   5   6
ENDBRANCH   4   5
ENDBRANCH   3   4
ENDBRANCH   2   3
ENDBRANCH   1   2
BRANCH   1  10
ATOM     10  C   UNL     1     -27.415 -34.730 -11.714  1.00  0.00     0.000 C 
BRANCH  10  11
ATOM     11  C   UNL     1     -27.789 -34.761 -13.203  1.00  0.00    -0.000 C 
BRANCH  11  12
ATOM     12  C   UNL     1     -27.675 -33.361 -13.826  1.00  0.00    -0.000 C 
BRANCH  12  13
ATOM     13  C   UNL     1     -28.505 -32.309 -13.073  1.00  0.00    -0.000 C 
BRANCH  13  14
ATOM     14  C   UNL     1     -27.673 -31.091 -12.648  1.00  0.00    -0.000 C 
BRANCH  14  15
ATOM     15  C   UNL     1     -26.178 -31.340 -12.881  1.00  0.00    -0.000 C 
BRANCH  15  16
ATOM     16  C   UNL     1     -25.331 -30.667 -11.794  1.00  0.00    -0.003 C 
ATOM     17  C   UNL     1     -25.571 -31.310 -10.432  1.00  0.00     0.004 C 
ENDBRANCH  15  16
ENDBRANCH  14  15
ENDBRANCH  13  14
ENDBRANCH  12  13
ENDBRANCH  11  12
ENDBRANCH  10  11
ENDBRANCH   1  10
TORSDOF 13
ENDMDL
MODEL 4
REMARK VINA RESULT:    -4.587      3.059      6.043
REMARK INTER + INTRA:          -9.970
REMARK INTER:                  -8.364
REMARK INTRA:                  -1.606
REMARK UNBOUND:                -1.898
REMARK SMILES CCCCCCCCCCCCCCC(=O)[O-]
REMARK SMILES IDX 9 1 10 2 11 3 12 4 13 5 14 6 15 7 16 8 17 9 8 10 7 11 6 12
REMARK SMILES IDX 5 13 4 14 3 15 2 16 1 17
REMARK H PARENT
REMARK Flexibility Score: inf
ROOT
ATOM      1  C   UNL     1     -25.141 -35.496 -12.685  1.00  0.00     0.000 C 
ENDROOT
BRANCH   1   2
ATOM      2  C   UNL     1     -26.225 -35.663 -13.769  1.00  0.00     0.000 C 
BRANCH   2   3
ATOM      3  C   UNL     1     -27.620 -35.138 -13.385  1.00  0.00     0.000 C 
BRANCH   3   4
ATOM      4  C   UNL     1     -27.871 -33.701 -13.866  1.00  0.00     0.000 C 
BRANCH   4   5
ATOM      5  C   UNL     1     -28.611 -32.885 -12.795  1.00  0.00     0.006 C 
BRANCH   5   6
ATOM      6  C   UNL     1     -28.631 -31.386 -13.119  1.00  0.00     0.053 C 
BRANCH   6   7
ATOM      7  C   UNL     1     -27.537 -30.648 -12.410  1.00  0.00     0.041 C 
ATOM      8  O   UNL     1     -27.641 -30.385 -11.183  1.00  0.00    -0.550 OA
ATOM      9  O   UNL     1     -26.417 -30.219 -13.112  1.00  0.00    -0.550 OA
ENDBRANCH   6   7
ENDBRANCH   5   6
ENDBRANCH   4   5
ENDBRANCH   3   4
ENDBRANCH   2   3
ENDBRANCH   1   2
BRANCH   1  10
ATOM     10  C   UNL     1     -25.621 -34.834 -11.380  1.00  0.00     0.000 C 
BRANCH  10  11
ATOM     11  C   UNL     1     -25.268 -33.341 -11.303  1.00  0.00    -0.000 C 
BRANCH  11  12
ATOM     12  C   UNL     1     -24.168 -32.985 -12.315  1.00  0.00    -0.000 C 
BRANCH  12  13
ATOM     13  C   UNL     1     -22.920 -32.387 -11.648  1.00  0.00    -0.000 C 
BRANCH  13  14
ATOM     14  C   UNL     1     -21.616 -33.015 -12.162  1.00  0.00    -0.000 C 
BRANCH  14  15
ATOM     15  C   UNL     1     -21.904 -34.089 -13.218  1.00  0.00    -0.000 C 
BRANCH  15  16
ATOM     16  C   UNL     1     -21.140 -35.382 -12.911  1.00  0.00    -0.003 C 
ATOM     17  C   UNL     1     -20.483 -35.320 -11.535  1.00  0.00     0.004 C 
ENDBRANCH  15  16
ENDBRANCH  14  15
ENDBRANCH  13  14
ENDBRANCH  12  13
ENDBRANCH  11  12
ENDBRANCH  10  11
ENDBRANCH   1  10
TORSDOF 13
ENDMDL
MODEL 5
REMARK VINA RESULT:    -4.522      1.726      2.985
REMARK INTER + INTRA:          -9.856
REMARK INTER:                  -8.284
REMARK INTRA:                  -1.573
REMARK UNBOUND:                -1.898
REMARK SMILES CCCCCCCCCCCCCCC(=O)[O-]
REMARK SMILES IDX 9 1 10 2 11 3 12 4 13 5 14 6 15 7 16 8 17 9 8 10 7 11 6 12
REMARK SMILES IDX 5 13 4 14 3 15 2 16 1 17
REMARK H PARENT
REMARK Flexibility Score: inf
ROOT
ATOM      1  C   UNL     1     -25.710 -34.302 -11.170  1.00  0.00     0.000 C 
ENDROOT
BRANCH   1   2
ATOM      2  C   UNL     1     -25.003 -35.515 -11.809  1.00  0.00     0.000 C 
BRANCH   2   3
ATOM      3  C   UNL     1     -23.884 -35.167 -12.808  1.00  0.00     0.000 C 
BRANCH   3   4
ATOM      4  C   UNL     1     -22.488 -35.559 -12.301  1.00  0.00     0.000 C 
BRANCH   4   5
ATOM      5  C   UNL     1     -21.393 -34.804 -13.070  1.00  0.00     0.006 C 
BRANCH   5   6
ATOM      6  C   UNL     1     -21.595 -33.284 -13.025  1.00  0.00     0.053 C 
BRANCH   6   7
ATOM      7  C   UNL     1     -20.971 -32.604 -14.206  1.00  0.00     0.041 C 
ATOM      8  O   UNL     1     -20.711 -31.373 -14.163  1.00  0.00    -0.550 OA
ATOM      9  O   UNL     1     -20.710 -33.322 -15.366  1.00  0.00    -0.550 OA
ENDBRANCH   6   7
ENDBRANCH   5   6
ENDBRANCH   4   5
ENDBRANCH   3   4
ENDBRANCH   2   3
ENDBRANCH   1   2
BRANCH   1  10
ATOM     10  C   UNL     1     -25.066 -32.937 -11.474  1.00  0.00     0.000 C 
BRANCH  10  11
ATOM     11  C   UNL     1     -25.761 -31.774 -10.750  1.00  0.00    -0.000 C 
BRANCH  11  12
ATOM     12  C   UNL     1     -26.423 -30.820 -11.755  1.00  0.00    -0.000 C 
BRANCH  12  13
ATOM     13  C   UNL     1     -27.958 -30.884 -11.709  1.00  0.00    -0.000 C 
BRANCH  13  14
ATOM     14  C   UNL     1     -28.563 -31.492 -12.983  1.00  0.00    -0.000 C 
BRANCH  14  15
ATOM     15  C   UNL     1     -28.482 -33.023 -12.951  1.00  0.00    -0.000 C 
BRANCH  15  16
ATOM     16  C   UNL     1     -27.632 -33.553 -14.112  1.00  0.00    -0.003 C 
ATOM     17  C   UNL     1     -27.773 -35.066 -14.252  1.00  0.00     0.004 C 
ENDBRANCH  15  16
ENDBRANCH  14  15
ENDBRANCH  13  14
ENDBRANCH  12  13
ENDBRANCH  11  12
ENDBRANCH  10  11
ENDBRANCH   1  10
TORSDOF 13
ENDMDL
MODEL 6
REMARK VINA RESULT:    -4.483      2.465      5.637
REMARK INTER + INTRA:          -9.787
REMARK INTER:                  -8.441
REMARK INTRA:                  -1.346
REMARK UNBOUND:                -1.898
REMARK SMILES CCCCCCCCCCCCCCC(=O)[O-]
REMARK SMILES IDX 9 1 10 2 11 3 12 4 13 5 14 6 15 7 16 8 17 9 8 10 7 11 6 12
REMARK SMILES IDX 5 13 4 14 3 15 2 16 1 17
REMARK H PARENT
REMARK Flexibility Score: inf
ROOT
ATOM      1  C   UNL     1     -25.262 -32.218 -11.159  1.00  0.00     0.000 C 
ENDROOT
BRANCH   1   2
ATOM      2  C   UNL     1     -26.171 -31.183 -10.466  1.00  0.00     0.000 C 
BRANCH   2   3
ATOM      3  C   UNL     1     -27.474 -30.851 -11.216  1.00  0.00     0.000 C 
BRANCH   3   4
ATOM      4  C   UNL     1     -27.421 -31.232 -12.702  1.00  0.00     0.000 C 
BRANCH   4   5
ATOM      5  C   UNL     1     -28.403 -32.371 -13.013  1.00  0.00     0.006 C 
BRANCH   5   6
ATOM      6  C   UNL     1     -27.741 -33.511 -13.798  1.00  0.00     0.053 C 
BRANCH   6   7
ATOM      7  C   UNL     1     -27.381 -34.663 -12.910  1.00  0.00     0.041 C 
ATOM      8  O   UNL     1     -26.668 -35.602 -13.350  1.00  0.00    -0.550 OA
ATOM      9  O   UNL     1     -27.862 -34.716 -11.608  1.00  0.00    -0.550 OA
ENDBRANCH   6   7
ENDBRANCH   5   6
ENDBRANCH   4   5
ENDBRANCH   3   4
ENDBRANCH   2   3
ENDBRANCH   1   2
BRANCH   1  10
ATOM     10  C   UNL     1     -23.815 -31.754 -11.405  1.00  0.00     0.000 C 
BRANCH  10  11
ATOM     11  C   UNL     1     -22.980 -32.786 -12.178  1.00  0.00    -0.000 C 
BRANCH  11  12
ATOM     12  C   UNL     1     -23.714 -34.133 -12.262  1.00  0.00    -0.000 C 
BRANCH  12  13
ATOM     13  C   UNL     1     -22.799 -35.278 -12.724  1.00  0.00    -0.000 C 
BRANCH  13  14
ATOM     14  C   UNL     1     -21.342 -35.088 -12.278  1.00  0.00    -0.000 C 
BRANCH  14  15
ATOM     15  C   UNL     1     -20.371 -35.436 -13.413  1.00  0.00    -0.000 C 
BRANCH  15  16
ATOM     16  C   UNL     1     -19.685 -34.176 -13.956  1.00  0.00    -0.003 C 
ATOM     17  C   UNL     1     -20.607 -33.411 -14.901  1.00  0.00     0.004 C 
ENDBRANCH  15  16
ENDBRANCH  14  15
ENDBRANCH  13  14
ENDBRANCH  12  13
ENDBRANCH  11  12
ENDBRANCH  10  11
ENDBRANCH   1  10
TORSDOF 13
ENDMDL
MODEL 7
REMARK VINA RESULT:    -4.311      2.461      5.968
REMARK INTER + INTRA:          -9.485
REMARK INTER:                  -8.378
REMARK INTRA:                  -1.106
REMARK UNBOUND:                -1.898
REMARK SMILES CCCCCCCCCCCCCCC(=O)[O-]
REMARK SMILES IDX 9 1 10 2 11 3 12 4 13 5 14 6 15 7 16 8 17 9 8 10 7 11 6 12
REMARK SMILES IDX 5 13 4 14 3 15 2 16 1 17
REMARK H PARENT
REMARK Flexibility Score: inf
ROOT
ATOM      1  C   UNL     1     -27.243 -34.665 -11.565  1.00  0.00     0.000 C 
ENDROOT
BRANCH   1   2
ATOM      2  C   UNL     1     -28.383 -33.676 -11.885  1.00  0.00     0.000 C 
BRANCH   2   3
ATOM      3  C   UNL     1     -28.193 -32.854 -13.173  1.00  0.00     0.000 C 
BRANCH   3   4
ATOM      4  C   UNL     1     -28.657 -31.398 -13.027  1.00  0.00     0.000 C 
BRANCH   4   5
ATOM      5  C   UNL     1     -27.961 -30.717 -11.839  1.00  0.00     0.006 C 
BRANCH   5   6
ATOM      6  C   UNL     1     -26.528 -30.284 -12.175  1.00  0.00     0.053 C 
BRANCH   6   7
ATOM      7  C   UNL     1     -25.520 -30.967 -11.302  1.00  0.00     0.041 C 
ATOM      8  O   UNL     1     -25.896 -31.627 -10.298  1.00  0.00    -0.550 OA
ATOM      9  O   UNL     1     -24.164 -30.844 -11.576  1.00  0.00    -0.550 OA
ENDBRANCH   6   7
ENDBRANCH   5   6
ENDBRANCH   4   5
ENDBRANCH   3   4
ENDBRANCH   2   3
ENDBRANCH   1   2
BRANCH   1  10
ATOM     10  C   UNL     1     -26.219 -34.868 -12.698  1.00  0.00     0.000 C 
BRANCH  10  11
ATOM     11  C   UNL     1     -24.787 -34.505 -12.280  1.00  0.00    -0.000 C 
BRANCH  11  12
ATOM     12  C   UNL     1     -23.807 -35.630 -12.647  1.00  0.00    -0.000 C 
BRANCH  12  13
ATOM     13  C   UNL     1     -22.342 -35.248 -12.384  1.00  0.00    -0.000 C 
BRANCH  13  14
ATOM     14  C   UNL     1     -21.773 -34.308 -13.457  1.00  0.00    -0.000 C 
BRANCH  14  15
ATOM     15  C   UNL     1     -20.360 -34.739 -13.870  1.00  0.00    -0.000 C 
BRANCH  15  16
ATOM     16  C   UNL     1     -19.572 -33.559 -14.451  1.00  0.00    -0.003 C 
ATOM     17  C   UNL     1     -20.485 -32.619 -15.233  1.00  0.00     0.004 C 
ENDBRANCH  15  16
ENDBRANCH  14  15
ENDBRANCH  13  14
ENDBRANCH  12  13
ENDBRANCH  11  12
ENDBRANCH  10  11
ENDBRANCH   1  10
TORSDOF 13
ENDMDL
MODEL 8
REMARK VINA RESULT:    -4.303      1.937      4.951
REMARK INTER + INTRA:          -9.471
REMARK INTER:                  -8.167
REMARK INTRA:                  -1.305
REMARK UNBOUND:                -1.898
REMARK SMILES CCCCCCCCCCCCCCC(=O)[O-]
REMARK SMILES IDX 9 1 10 2 11 3 12 4 13 5 14 6 15 7 16 8 17 9 8 10 7 11 6 12
REMARK SMILES IDX 5 13 4 14 3 15 2 16 1 17
REMARK H PARENT
REMARK Flexibility Score: inf
ROOT
ATOM      1  C   UNL     1     -26.889 -31.422 -10.940  1.00  0.00     0.000 C 
ENDROOT
BRANCH   1   2
ATOM      2  C   UNL     1     -27.785 -30.594 -11.883  1.00  0.00     0.000 C 
BRANCH   2   3
ATOM      3  C   UNL     1     -28.490 -31.400 -12.989  1.00  0.00     0.000 C 
BRANCH   3   4
ATOM      4  C   UNL     1     -28.407 -32.917 -12.768  1.00  0.00     0.000 C 
BRANCH   4   5
ATOM      5  C   UNL     1     -27.471 -33.571 -13.796  1.00  0.00     0.006 C 
BRANCH   5   6
ATOM      6  C   UNL     1     -27.280 -35.071 -13.535  1.00  0.00     0.053 C 
BRANCH   6   7
ATOM      7  C   UNL     1     -26.022 -35.347 -12.769  1.00  0.00     0.041 C 
ATOM      8  O   UNL     1     -25.136 -36.097 -13.256  1.00  0.00    -0.550 OA
ATOM      9  O   UNL     1     -25.843 -34.804 -11.503  1.00  0.00    -0.550 OA
ENDBRANCH   6   7
ENDBRANCH   5   6
ENDBRANCH   4   5
ENDBRANCH   3   4
ENDBRANCH   2   3
ENDBRANCH   1   2
BRANCH   1  10
ATOM     10  C   UNL     1     -25.383 -31.114 -11.034  1.00  0.00     0.000 C 
BRANCH  10  11
ATOM     11  C   UNL     1     -24.849 -31.176 -12.473  1.00  0.00    -0.000 C 
BRANCH  11  12
ATOM     12  C   UNL     1     -23.337 -31.448 -12.485  1.00  0.00    -0.000 C 
BRANCH  12  13
ATOM     13  C   UNL     1     -22.977 -32.818 -11.888  1.00  0.00    -0.000 C 
BRANCH  13  14
ATOM     14  C   UNL     1     -22.580 -33.844 -12.960  1.00  0.00    -0.000 C 
BRANCH  14  15
ATOM     15  C   UNL     1     -21.309 -34.598 -12.552  1.00  0.00    -0.000 C 
BRANCH  15  16
ATOM     16  C   UNL     1     -20.222 -34.466 -13.626  1.00  0.00    -0.003 C 
ATOM     17  C   UNL     1     -20.707 -33.619 -14.799  1.00  0.00     0.004 C 
ENDBRANCH  15  16
ENDBRANCH  14  15
ENDBRANCH  13  14
ENDBRANCH  12  13
ENDBRANCH  11  12
ENDBRANCH  10  11
ENDBRANCH   1  10
TORSDOF 13
ENDMDL
MODEL 9
REMARK VINA RESULT:    -4.239     15.088     17.593
REMARK INTER + INTRA:          -9.358
REMARK INTER:                  -7.834
REMARK INTRA:                  -1.523
REMARK UNBOUND:                -1.898
REMARK SMILES CCCCCCCCCCCCCCC(=O)[O-]
REMARK SMILES IDX 9 1 10 2 11 3 12 4 13 5 14 6 15 7 16 8 17 9 8 10 7 11 6 12
REMARK SMILES IDX 5 13 4 14 3 15 2 16 1 17
REMARK H PARENT
REMARK Flexibility Score: inf
ROOT
ATOM      1  C   UNL     1     -30.479 -48.998  -8.463  1.00  0.00     0.000 C 
ENDROOT
BRANCH   1   2
ATOM      2  C   UNL     1     -29.679 -49.166  -7.155  1.00  0.00     0.000 C 
BRANCH   2   3
ATOM      3  C   UNL     1     -29.670 -47.933  -6.232  1.00  0.00     0.000 C 
BRANCH   3   4
ATOM      4  C   UNL     1     -30.997 -47.160  -6.255  1.00  0.00     0.000 C 
BRANCH   4   5
ATOM      5  C   UNL     1     -32.069 -47.888  -5.431  1.00  0.00     0.006 C 
BRANCH   5   6
ATOM      6  C   UNL     1     -33.481 -47.664  -5.988  1.00  0.00     0.053 C 
BRANCH   6   7
ATOM      7  C   UNL     1     -34.076 -46.379  -5.497  1.00  0.00     0.041 C 
ATOM      8  O   UNL     1     -34.726 -46.353  -4.419  1.00  0.00    -0.550 OA
ATOM      9  O   UNL     1     -33.944 -45.218  -6.248  1.00  0.00    -0.550 OA
ENDBRANCH   6   7
ENDBRANCH   5   6
ENDBRANCH   4   5
ENDBRANCH   3   4
ENDBRANCH   2   3
ENDBRANCH   1   2
BRANCH   1  10
ATOM     10  C   UNL     1     -31.485 -50.125  -8.762  1.00  0.00     0.000 C 
BRANCH  10  11
ATOM     11  C   UNL     1     -32.834 -49.601  -9.276  1.00  0.00    -0.000 C 
BRANCH  11  12
ATOM     12  C   UNL     1     -32.666 -48.239  -9.966  1.00  0.00    -0.000 C 
BRANCH  12  13
ATOM     13  C   UNL     1     -33.806 -47.263  -9.636  1.00  0.00    -0.000 C 
BRANCH  13  14
ATOM     14  C   UNL     1     -34.788 -47.084 -10.802  1.00  0.00    -0.000 C 
BRANCH  14  15
ATOM     15  C   UNL     1     -35.306 -45.641 -10.867  1.00  0.00    -0.000 C 
BRANCH  15  16
ATOM     16  C   UNL     1     -34.646 -44.771  -9.790  1.00  0.00    -0.003 C 
ATOM     17  C   UNL     1     -33.920 -43.582 -10.411  1.00  0.00     0.004 C 
ENDBRANCH  15  16
ENDBRANCH  14  15
ENDBRANCH  13  14
ENDBRANCH  12  13
ENDBRANCH  11  12
ENDBRANCH  10  11
ENDBRANCH   1  10
TORSDOF 13
ENDMDL
