MODEL 1
REMARK VINA RESULT:    -0.343      0.000      0.000
REMARK INTER + INTRA:          -0.721
REMARK INTER:                  -0.404
REMARK INTRA:                  -0.318
REMARK UNBOUND:                -0.318
REMARK SMILES O=c1cc(-c2ccc(O)c(O)c2)oc2cc(O)cc(O)c12
REMARK SMILES IDX 4 1 3 2 2 3 1 4 21 5 19 6 18 7 16 8 15 9 14 10 13 11 5 12
REMARK SMILES IDX 6 13 7 14 8 15 12 16 10 17 9 18 11 20 20 22 17 24
REMARK H PARENT 9 19 11 21 20 23 17 25
REMARK Flexibility Score: inf
ROOT
ATOM      1  C   UNL     1      25.696  25.884  47.045  1.00  0.00     0.138 A 
ATOM      2  C   UNL     1      25.718  27.285  47.005  1.00  0.00     0.100 A 
ATOM      3  C   UNL     1      24.516  27.994  46.978  1.00  0.00     0.197 A 
ATOM      4  O   UNL     1      24.568  29.247  46.879  1.00  0.00    -0.289 OA
ATOM      5  C   UNL     1      23.286  27.295  47.022  1.00  0.00     0.107 A 
ATOM      6  C   UNL     1      22.001  27.914  47.040  1.00  0.00     0.134 A 
ATOM      7  C   UNL     1      20.851  27.117  46.967  1.00  0.00     0.093 A 
ATOM      8  C   UNL     1      20.940  25.723  46.937  1.00  0.00     0.123 A 
ATOM      9  C   UNL     1      22.189  25.109  46.973  1.00  0.00     0.094 A 
ATOM     10  C   UNL     1      23.356  25.876  47.012  1.00  0.00     0.146 A 
ATOM     11  O   UNL     1      24.528  25.251  47.030  1.00  0.00    -0.456 OA
ENDROOT
BRANCH   1  12
ATOM     12  C   UNL     1      26.945  25.081  47.077  1.00  0.00     0.021 A 
ATOM     13  C   UNL     1      28.207  25.682  47.248  1.00  0.00     0.016 A 
ATOM     14  C   UNL     1      29.364  24.900  47.285  1.00  0.00     0.051 A 
ATOM     15  C   UNL     1      29.283  23.509  47.158  1.00  0.00     0.157 A 
ATOM     16  C   UNL     1      26.871  23.681  46.965  1.00  0.00     0.062 A 
ATOM     17  C   UNL     1      28.029  22.897  46.999  1.00  0.00     0.158 A 
BRANCH  15  18
ATOM     18  O   UNL     1      30.441  22.732  47.194  1.00  0.00    -0.504 OA
ATOM     19  H   UNL     1      30.488  21.829  46.738  1.00  0.00     0.293 HD
ENDBRANCH  15  18
BRANCH  17  20
ATOM     20  O   UNL     1      27.914  21.512  46.875  1.00  0.00    -0.504 OA
ATOM     21  H   UNL     1      27.096  21.009  47.196  1.00  0.00     0.293 HD
ENDBRANCH  17  20
ENDBRANCH   1  12
BRANCH   6  22
ATOM     22  O   UNL     1      21.799  29.292  47.153  1.00  0.00    -0.507 OA
ATOM     23  H   UNL     1      22.533  29.983  47.174  1.00  0.00     0.293 HD
ENDBRANCH   6  22
BRANCH   8  24
ATOM     24  O   UNL     1      19.790  24.938  46.879  1.00  0.00    -0.508 OA
ATOM     25  H   UNL     1      19.354  24.703  45.995  1.00  0.00     0.293 HD
ENDBRANCH   8  24
TORSDOF 5
ENDMDL
MODEL 2
REMARK VINA RESULT:    -0.304      2.121      2.761
REMARK INTER + INTRA:          -0.675
REMARK INTER:                  -0.357
REMARK INTRA:                  -0.318
REMARK UNBOUND:                -0.318
REMARK SMILES O=c1cc(-c2ccc(O)c(O)c2)oc2cc(O)cc(O)c12
REMARK SMILES IDX 4 1 3 2 2 3 1 4 21 5 19 6 18 7 16 8 15 9 14 10 13 11 5 12
REMARK SMILES IDX 6 13 7 14 8 15 12 16 10 17 9 18 11 20 20 22 17 24
REMARK H PARENT 9 19 11 21 20 23 17 25
REMARK Flexibility Score: inf
ROOT
ATOM      1  C   UNL     1      26.548  27.514  46.969  1.00  0.00     0.138 A 
ATOM      2  C   UNL     1      25.778  28.684  46.998  1.00  0.00     0.100 A 
ATOM      3  C   UNL     1      24.385  28.594  47.030  1.00  0.00     0.197 A 
ATOM      4  O   UNL     1      23.721  29.662  46.992  1.00  0.00    -0.289 OA
ATOM      5  C   UNL     1      23.763  27.324  47.064  1.00  0.00     0.107 A 
ATOM      6  C   UNL     1      22.354  27.112  47.139  1.00  0.00     0.134 A 
ATOM      7  C   UNL     1      21.848  25.809  47.050  1.00  0.00     0.093 A 
ATOM      8  C   UNL     1      22.702  24.709  46.949  1.00  0.00     0.123 A 
ATOM      9  C   UNL     1      24.081  24.903  46.930  1.00  0.00     0.094 A 
ATOM     10  C   UNL     1      24.616  26.191  46.982  1.00  0.00     0.146 A 
ATOM     11  O   UNL     1      25.937  26.333  46.946  1.00  0.00    -0.456 OA
ENDROOT
BRANCH   1  12
ATOM     12  C   UNL     1      28.032  27.551  46.935  1.00  0.00     0.021 A 
ATOM     13  C   UNL     1      28.741  28.768  46.928  1.00  0.00     0.016 A 
ATOM     14  C   UNL     1      30.137  28.773  46.907  1.00  0.00     0.051 A 
ATOM     15  C   UNL     1      30.850  27.568  46.900  1.00  0.00     0.157 A 
ATOM     16  C   UNL     1      28.756  26.345  46.943  1.00  0.00     0.062 A 
ATOM     17  C   UNL     1      30.154  26.348  46.919  1.00  0.00     0.158 A 
BRANCH  15  18
ATOM     18  O   UNL     1      32.245  27.578  46.878  1.00  0.00    -0.504 OA
ATOM     19  H   UNL     1      32.779  26.726  46.754  1.00  0.00     0.293 HD
ENDBRANCH  15  18
BRANCH  17  20
ATOM     20  O   UNL     1      30.835  25.131  46.917  1.00  0.00    -0.504 OA
ATOM     21  H   UNL     1      31.054  24.637  46.061  1.00  0.00     0.293 HD
ENDBRANCH  17  20
ENDBRANCH   1  12
BRANCH   6  22
ATOM     22  O   UNL     1      21.419  28.134  47.324  1.00  0.00    -0.507 OA
ATOM     23  H   UNL     1      20.549  28.218  46.821  1.00  0.00     0.293 HD
ENDBRANCH   6  22
BRANCH   8  24
ATOM     24  O   UNL     1      22.189  23.415  46.876  1.00  0.00    -0.508 OA
ATOM     25  H   UNL     1      21.223  23.214  47.105  1.00  0.00     0.293 HD
ENDBRANCH   8  24
TORSDOF 5
ENDMDL
MODEL 3
REMARK VINA RESULT:    -0.299      1.848      7.225
REMARK INTER + INTRA:          -0.669
REMARK INTER:                  -0.374
REMARK INTRA:                  -0.295
REMARK UNBOUND:                -0.318
REMARK SMILES O=c1cc(-c2ccc(O)c(O)c2)oc2cc(O)cc(O)c12
REMARK SMILES IDX 4 1 3 2 2 3 1 4 21 5 19 6 18 7 16 8 15 9 14 10 13 11 5 12
REMARK SMILES IDX 6 13 7 14 8 15 12 16 10 17 9 18 11 20 20 22 17 24
REMARK H PARENT 9 19 11 21 20 23 17 25
REMARK Flexibility Score: inf
ROOT
ATOM      1  C   UNL     1      23.614  27.862  47.005  1.00  0.00     0.138 A 
ATOM      2  C   UNL     1      24.422  29.007  47.012  1.00  0.00     0.100 A 
ATOM      3  C   UNL     1      25.811  28.871  47.049  1.00  0.00     0.197 A 
ATOM      4  O   UNL     1      26.507  29.917  47.117  1.00  0.00    -0.289 OA
ATOM      5  C   UNL     1      26.392  27.581  47.049  1.00  0.00     0.107 A 
ATOM      6  C   UNL     1      27.795  27.323  47.044  1.00  0.00     0.134 A 
ATOM      7  C   UNL     1      28.253  26.004  47.161  1.00  0.00     0.093 A 
ATOM      8  C   UNL     1      27.359  24.933  47.222  1.00  0.00     0.123 A 
ATOM      9  C   UNL     1      25.988  25.172  47.172  1.00  0.00     0.094 A 
ATOM     10  C   UNL     1      25.499  26.477  47.091  1.00  0.00     0.146 A 
ATOM     11  O   UNL     1      24.184  26.663  47.061  1.00  0.00    -0.456 OA
ENDROOT
BRANCH   1  12
ATOM     12  C   UNL     1      22.132  27.948  46.965  1.00  0.00     0.021 A 
ATOM     13  C   UNL     1      21.324  26.795  46.938  1.00  0.00     0.016 A 
ATOM     14  C   UNL     1      19.932  26.906  46.912  1.00  0.00     0.051 A 
ATOM     15  C   UNL     1      19.322  28.165  46.919  1.00  0.00     0.157 A 
ATOM     16  C   UNL     1      21.510  29.210  46.987  1.00  0.00     0.062 A 
ATOM     17  C   UNL     1      20.116  29.323  46.958  1.00  0.00     0.158 A 
BRANCH  15  18
ATOM     18  O   UNL     1      17.931  28.271  46.891  1.00  0.00    -0.504 OA
ATOM     19  H   UNL     1      17.405  28.564  47.705  1.00  0.00     0.293 HD
ENDBRANCH  15  18
BRANCH  17  20
ATOM     20  O   UNL     1      19.538  30.592  46.970  1.00  0.00    -0.504 OA
ATOM     21  H   UNL     1      18.545  30.731  47.108  1.00  0.00     0.293 HD
ENDBRANCH  17  20
ENDBRANCH   1  12
BRANCH   6  22
ATOM     22  O   UNL     1      28.771  28.313  46.903  1.00  0.00    -0.507 OA
ATOM     23  H   UNL     1      29.760  28.138  46.802  1.00  0.00     0.293 HD
ENDBRANCH   6  22
BRANCH   8  24
ATOM     24  O   UNL     1      27.825  23.623  47.324  1.00  0.00    -0.508 OA
ATOM     25  H   UNL     1      27.858  23.141  48.214  1.00  0.00     0.293 HD
ENDBRANCH   8  24
TORSDOF 5
ENDMDL
MODEL 4
REMARK VINA RESULT:    -0.244      2.316      6.256
REMARK INTER + INTRA:          -0.604
REMARK INTER:                  -0.288
REMARK INTRA:                  -0.316
REMARK UNBOUND:                -0.318
REMARK SMILES O=c1cc(-c2ccc(O)c(O)c2)oc2cc(O)cc(O)c12
REMARK SMILES IDX 4 1 3 2 2 3 1 4 21 5 19 6 18 7 16 8 15 9 14 10 13 11 5 12
REMARK SMILES IDX 6 13 7 14 8 15 12 16 10 17 9 18 11 20 20 22 17 24
REMARK H PARENT 9 19 11 21 20 23 17 25
REMARK Flexibility Score: inf
ROOT
ATOM      1  C   UNL     1      23.947  26.059  47.461  1.00  0.00     0.138 A 
ATOM      2  C   UNL     1      22.687  25.472  47.282  1.00  0.00     0.100 A 
ATOM      3  C   UNL     1      22.539  24.094  47.441  1.00  0.00     0.197 A 
ATOM      4  O   UNL     1      21.409  23.589  47.212  1.00  0.00    -0.289 OA
ATOM      5  C   UNL     1      23.653  23.304  47.811  1.00  0.00     0.107 A 
ATOM      6  C   UNL     1      23.610  21.897  48.041  1.00  0.00     0.134 A 
ATOM      7  C   UNL     1      24.801  21.202  48.290  1.00  0.00     0.093 A 
ATOM      8  C   UNL     1      26.022  21.874  48.377  1.00  0.00     0.123 A 
ATOM      9  C   UNL     1      26.066  23.256  48.208  1.00  0.00     0.094 A 
ATOM     10  C   UNL     1      24.901  23.972  47.924  1.00  0.00     0.146 A 
ATOM     11  O   UNL     1      24.989  25.287  47.755  1.00  0.00    -0.456 OA
ENDROOT
BRANCH   1  12
ATOM     12  C   UNL     1      24.162  27.520  47.305  1.00  0.00     0.021 A 
ATOM     13  C   UNL     1      23.084  28.425  47.262  1.00  0.00     0.016 A 
ATOM     14  C   UNL     1      23.316  29.796  47.125  1.00  0.00     0.051 A 
ATOM     15  C   UNL     1      24.623  30.288  47.038  1.00  0.00     0.157 A 
ATOM     16  C   UNL     1      25.473  28.024  47.232  1.00  0.00     0.062 A 
ATOM     17  C   UNL     1      25.707  29.396  47.093  1.00  0.00     0.158 A 
BRANCH  15  18
ATOM     18  O   UNL     1      24.850  31.657  46.900  1.00  0.00    -0.504 OA
ATOM     19  H   UNL     1      25.778  32.053  46.994  1.00  0.00     0.293 HD
ENDBRANCH  15  18
BRANCH  17  20
ATOM     20  O   UNL     1      27.021  29.855  47.012  1.00  0.00    -0.504 OA
ATOM     21  H   UNL     1      27.692  29.459  46.366  1.00  0.00     0.293 HD
ENDBRANCH  17  20
ENDBRANCH   1  12
BRANCH   6  22
ATOM     22  O   UNL     1      22.433  21.143  48.060  1.00  0.00    -0.507 OA
ATOM     23  H   UNL     1      21.888  20.944  48.886  1.00  0.00     0.293 HD
ENDBRANCH   6  22
BRANCH   8  24
ATOM     24  O   UNL     1      27.200  21.177  48.641  1.00  0.00    -0.508 OA
ATOM     25  H   UNL     1      27.278  20.549  49.432  1.00  0.00     0.293 HD
ENDBRANCH   8  24
TORSDOF 5
ENDMDL
MODEL 5
REMARK VINA RESULT:    -0.244      2.338      3.857
REMARK INTER + INTRA:          -0.604
REMARK INTER:                  -0.309
REMARK INTRA:                  -0.295
REMARK UNBOUND:                -0.318
REMARK SMILES O=c1cc(-c2ccc(O)c(O)c2)oc2cc(O)cc(O)c12
REMARK SMILES IDX 4 1 3 2 2 3 1 4 21 5 19 6 18 7 16 8 15 9 14 10 13 11 5 12
REMARK SMILES IDX 6 13 7 14 8 15 12 16 10 17 9 18 11 20 20 22 17 24
REMARK H PARENT 9 19 11 21 20 23 17 25
REMARK Flexibility Score: inf
ROOT
ATOM      1  C   UNL     1      25.574  27.548  47.288  1.00  0.00     0.138 A 
ATOM      2  C   UNL     1      25.267  26.182  47.348  1.00  0.00     0.100 A 
ATOM      3  C   UNL     1      23.935  25.770  47.276  1.00  0.00     0.197 A 
ATOM      4  O   UNL     1      23.688  24.542  47.396  1.00  0.00    -0.289 OA
ATOM      5  C   UNL     1      22.909  26.730  47.114  1.00  0.00     0.107 A 
ATOM      6  C   UNL     1      21.522  26.423  46.988  1.00  0.00     0.134 A 
ATOM      7  C   UNL     1      20.586  27.464  46.948  1.00  0.00     0.093 A 
ATOM      8  C   UNL     1      20.992  28.800  46.968  1.00  0.00     0.123 A 
ATOM      9  C   UNL     1      22.348  29.109  47.036  1.00  0.00     0.094 A 
ATOM     10  C   UNL     1      23.304  28.094  47.112  1.00  0.00     0.146 A 
ATOM     11  O   UNL     1      24.586  28.433  47.190  1.00  0.00    -0.456 OA
ENDROOT
BRANCH   1  12
ATOM     12  C   UNL     1      26.972  28.042  47.358  1.00  0.00     0.021 A 
ATOM     13  C   UNL     1      27.280  29.411  47.234  1.00  0.00     0.016 A 
ATOM     14  C   UNL     1      28.604  29.848  47.314  1.00  0.00     0.051 A 
ATOM     15  C   UNL     1      29.641  28.933  47.527  1.00  0.00     0.157 A 
ATOM     16  C   UNL     1      28.019  27.131  47.587  1.00  0.00     0.062 A 
ATOM     17  C   UNL     1      29.345  27.567  47.666  1.00  0.00     0.158 A 
BRANCH  15  18
ATOM     18  O   UNL     1      30.962  29.374  47.606  1.00  0.00    -0.504 OA
ATOM     19  H   UNL     1      31.738  28.723  47.637  1.00  0.00     0.293 HD
ENDBRANCH  15  18
BRANCH  17  20
ATOM     20  O   UNL     1      30.355  26.630  47.883  1.00  0.00    -0.504 OA
ATOM     21  H   UNL     1      31.047  26.410  47.178  1.00  0.00     0.293 HD
ENDBRANCH  17  20
ENDBRANCH   1  12
BRANCH   6  22
ATOM     22  O   UNL     1      21.016  25.125  46.875  1.00  0.00    -0.507 OA
ATOM     23  H   UNL     1      21.046  24.564  46.037  1.00  0.00     0.293 HD
ENDBRANCH   6  22
BRANCH   8  24
ATOM     24  O   UNL     1      20.054  29.829  46.913  1.00  0.00    -0.508 OA
ATOM     25  H   UNL     1      19.679  30.157  46.030  1.00  0.00     0.293 HD
ENDBRANCH   8  24
TORSDOF 5
ENDMDL
MODEL 6
REMARK VINA RESULT:    -0.242      3.199      6.339
REMARK INTER + INTRA:          -0.602
REMARK INTER:                  -0.287
REMARK INTRA:                  -0.315
REMARK UNBOUND:                -0.318
REMARK SMILES O=c1cc(-c2ccc(O)c(O)c2)oc2cc(O)cc(O)c12
REMARK SMILES IDX 4 1 3 2 2 3 1 4 21 5 19 6 18 7 16 8 15 9 14 10 13 11 5 12
REMARK SMILES IDX 6 13 7 14 8 15 12 16 10 17 9 18 11 20 20 22 17 24
REMARK H PARENT 9 19 11 21 20 23 17 25
REMARK Flexibility Score: inf
ROOT
ATOM      1  C   UNL     1      24.779  27.928  47.394  1.00  0.00     0.138 A 
ATOM      2  C   UNL     1      26.136  27.691  47.654  1.00  0.00     0.100 A 
ATOM      3  C   UNL     1      27.013  28.769  47.784  1.00  0.00     0.197 A 
ATOM      4  O   UNL     1      28.234  28.522  47.954  1.00  0.00    -0.289 OA
ATOM      5  C   UNL     1      26.521  30.092  47.683  1.00  0.00     0.107 A 
ATOM      6  C   UNL     1      27.314  31.267  47.838  1.00  0.00     0.134 A 
ATOM      7  C   UNL     1      26.740  32.523  47.602  1.00  0.00     0.093 A 
ATOM      8  C   UNL     1      25.388  32.647  47.274  1.00  0.00     0.123 A 
ATOM      9  C   UNL     1      24.593  31.508  47.174  1.00  0.00     0.094 A 
ATOM     10  C   UNL     1      25.143  30.240  47.370  1.00  0.00     0.146 A 
ATOM     11  O   UNL     1      24.353  29.178  47.249  1.00  0.00    -0.456 OA
ENDROOT
BRANCH   1  12
ATOM     12  C   UNL     1      23.803  26.818  47.248  1.00  0.00     0.021 A 
ATOM     13  C   UNL     1      24.219  25.481  47.107  1.00  0.00     0.016 A 
ATOM     14  C   UNL     1      23.278  24.456  46.982  1.00  0.00     0.051 A 
ATOM     15  C   UNL     1      21.909  24.745  47.003  1.00  0.00     0.157 A 
ATOM     16  C   UNL     1      22.425  27.098  47.284  1.00  0.00     0.062 A 
ATOM     17  C   UNL     1      21.481  26.074  47.156  1.00  0.00     0.158 A 
BRANCH  15  18
ATOM     18  O   UNL     1      20.973  23.719  46.877  1.00  0.00    -0.504 OA
ATOM     19  H   UNL     1      21.130  22.930  46.261  1.00  0.00     0.293 HD
ENDBRANCH  15  18
BRANCH  17  20
ATOM     20  O   UNL     1      20.124  26.395  47.186  1.00  0.00    -0.504 OA
ATOM     21  H   UNL     1      19.496  26.018  47.885  1.00  0.00     0.293 HD
ENDBRANCH  17  20
ENDBRANCH   1  12
BRANCH   6  22
ATOM     22  O   UNL     1      28.651  31.259  48.244  1.00  0.00    -0.507 OA
ATOM     23  H   UNL     1      29.363  31.886  47.900  1.00  0.00     0.293 HD
ENDBRANCH   6  22
BRANCH   8  24
ATOM     24  O   UNL     1      24.822  33.902  47.055  1.00  0.00    -0.508 OA
ATOM     25  H   UNL     1      25.052  34.696  47.640  1.00  0.00     0.293 HD
ENDBRANCH   8  24
TORSDOF 5
ENDMDL
MODEL 7
REMARK VINA RESULT:    -0.233      4.123      7.933
REMARK INTER + INTRA:          -0.591
REMARK INTER:                  -0.297
REMARK INTRA:                  -0.294
REMARK UNBOUND:                -0.318
REMARK SMILES O=c1cc(-c2ccc(O)c(O)c2)oc2cc(O)cc(O)c12
REMARK SMILES IDX 4 1 3 2 2 3 1 4 21 5 19 6 18 7 16 8 15 9 14 10 13 11 5 12
REMARK SMILES IDX 6 13 7 14 8 15 12 16 10 17 9 18 11 20 20 22 17 24
REMARK H PARENT 9 19 11 21 20 23 17 25
REMARK Flexibility Score: inf
ROOT
ATOM      1  C   UNL     1      24.135  31.064  47.056  1.00  0.00     0.138 A 
ATOM      2  C   UNL     1      22.806  30.621  47.028  1.00  0.00     0.100 A 
ATOM      3  C   UNL     1      22.534  29.253  47.006  1.00  0.00     0.197 A 
ATOM      4  O   UNL     1      21.333  28.888  46.918  1.00  0.00    -0.289 OA
ATOM      5  C   UNL     1      23.600  28.323  47.042  1.00  0.00     0.107 A 
ATOM      6  C   UNL     1      23.441  26.906  47.065  1.00  0.00     0.134 A 
ATOM      7  C   UNL     1      24.572  26.083  46.984  1.00  0.00     0.093 A 
ATOM      8  C   UNL     1      25.857  26.628  46.942  1.00  0.00     0.123 A 
ATOM      9  C   UNL     1      26.025  28.010  46.975  1.00  0.00     0.094 A 
ATOM     10  C   UNL     1      24.916  28.857  47.020  1.00  0.00     0.146 A 
ATOM     11  O   UNL     1      25.119  30.170  47.034  1.00  0.00    -0.456 OA
ENDROOT
BRANCH   1  12
ATOM     12  C   UNL     1      24.482  32.508  47.082  1.00  0.00     0.021 A 
ATOM     13  C   UNL     1      25.810  32.952  46.941  1.00  0.00     0.016 A 
ATOM     14  C   UNL     1      26.106  34.317  46.958  1.00  0.00     0.051 A 
ATOM     15  C   UNL     1      25.084  35.261  47.108  1.00  0.00     0.157 A 
ATOM     16  C   UNL     1      23.459  33.463  47.217  1.00  0.00     0.062 A 
ATOM     17  C   UNL     1      23.753  34.831  47.237  1.00  0.00     0.158 A 
BRANCH  15  18
ATOM     18  O   UNL     1      25.383  36.623  47.126  1.00  0.00    -0.504 OA
ATOM     19  H   UNL     1      25.307  37.172  47.974  1.00  0.00     0.293 HD
ENDBRANCH  15  18
BRANCH  17  20
ATOM     20  O   UNL     1      22.711  35.746  47.384  1.00  0.00    -0.504 OA
ATOM     21  H   UNL     1      22.308  36.235  46.594  1.00  0.00     0.293 HD
ENDBRANCH  17  20
ENDBRANCH   1  12
BRANCH   6  22
ATOM     22  O   UNL     1      22.207  26.260  47.190  1.00  0.00    -0.507 OA
ATOM     23  H   UNL     1      21.910  25.733  47.997  1.00  0.00     0.293 HD
ENDBRANCH   6  22
BRANCH   8  24
ATOM     24  O   UNL     1      26.978  25.801  46.876  1.00  0.00    -0.508 OA
ATOM     25  H   UNL     1      27.241  25.334  46.017  1.00  0.00     0.293 HD
ENDBRANCH   8  24
TORSDOF 5
ENDMDL
MODEL 8
REMARK VINA RESULT:    -0.201      3.448      4.719
REMARK INTER + INTRA:          -0.554
REMARK INTER:                  -0.259
REMARK INTRA:                  -0.295
REMARK UNBOUND:                -0.318
REMARK SMILES O=c1cc(-c2ccc(O)c(O)c2)oc2cc(O)cc(O)c12
REMARK SMILES IDX 4 1 3 2 2 3 1 4 21 5 19 6 18 7 16 8 15 9 14 10 13 11 5 12
REMARK SMILES IDX 6 13 7 14 8 15 12 16 10 17 9 18 11 20 20 22 17 24
REMARK H PARENT 9 19 11 21 20 23 17 25
REMARK Flexibility Score: inf
ROOT
ATOM      1  C   UNL     1      27.386  28.502  47.651  1.00  0.00     0.138 A 
ATOM      2  C   UNL     1      26.408  29.492  47.484  1.00  0.00     0.100 A 
ATOM      3  C   UNL     1      25.083  29.121  47.249  1.00  0.00     0.197 A 
ATOM      4  O   UNL     1      24.241  30.032  47.041  1.00  0.00    -0.289 OA
ATOM      5  C   UNL     1      24.732  27.751  47.211  1.00  0.00     0.107 A 
ATOM      6  C   UNL     1      23.408  27.257  47.020  1.00  0.00     0.134 A 
ATOM      7  C   UNL     1      23.199  25.879  46.885  1.00  0.00     0.093 A 
ATOM      8  C   UNL     1      24.258  24.975  46.996  1.00  0.00     0.123 A 
ATOM      9  C   UNL     1      25.546  25.445  47.237  1.00  0.00     0.094 A 
ATOM     10  C   UNL     1      25.793  26.815  47.342  1.00  0.00     0.146 A 
ATOM     11  O   UNL     1      27.039  27.223  47.557  1.00  0.00    -0.456 OA
ENDROOT
BRANCH   1  12
ATOM     12  C   UNL     1      28.809  28.840  47.905  1.00  0.00     0.021 A 
ATOM     13  C   UNL     1      29.794  27.843  48.036  1.00  0.00     0.016 A 
ATOM     14  C   UNL     1      31.128  28.190  48.264  1.00  0.00     0.051 A 
ATOM     15  C   UNL     1      31.503  29.535  48.358  1.00  0.00     0.157 A 
ATOM     16  C   UNL     1      29.197  30.190  47.986  1.00  0.00     0.062 A 
ATOM     17  C   UNL     1      30.532  30.540  48.217  1.00  0.00     0.158 A 
BRANCH  15  18
ATOM     18  O   UNL     1      32.836  29.878  48.586  1.00  0.00    -0.504 OA
ATOM     19  H   UNL     1      33.131  30.315  49.452  1.00  0.00     0.293 HD
ENDBRANCH  15  18
BRANCH  17  20
ATOM     20  O   UNL     1      30.874  31.889  48.301  1.00  0.00    -0.504 OA
ATOM     21  H   UNL     1      30.712  32.435  49.138  1.00  0.00     0.293 HD
ENDBRANCH  17  20
ENDBRANCH   1  12
BRANCH   6  22
ATOM     22  O   UNL     1      22.270  28.067  46.980  1.00  0.00    -0.507 OA
ATOM     23  H   UNL     1      22.195  28.932  46.466  1.00  0.00     0.293 HD
ENDBRANCH   6  22
BRANCH   8  24
ATOM     24  O   UNL     1      24.038  23.604  46.875  1.00  0.00    -0.508 OA
ATOM     25  H   UNL     1      24.806  22.952  46.767  1.00  0.00     0.293 HD
ENDBRANCH   8  24
TORSDOF 5
ENDMDL
MODEL 9
REMARK VINA RESULT:    -0.199      3.540      7.132
REMARK INTER + INTRA:          -0.552
REMARK INTER:                  -0.234
REMARK INTRA:                  -0.318
REMARK UNBOUND:                -0.318
REMARK SMILES O=c1cc(-c2ccc(O)c(O)c2)oc2cc(O)cc(O)c12
REMARK SMILES IDX 4 1 3 2 2 3 1 4 21 5 19 6 18 7 16 8 15 9 14 10 13 11 5 12
REMARK SMILES IDX 6 13 7 14 8 15 12 16 10 17 9 18 11 20 20 22 17 24
REMARK H PARENT 9 19 11 21 20 23 17 25
REMARK Flexibility Score: inf
ROOT
ATOM      1  C   UNL     1      24.590  30.004  47.665  1.00  0.00     0.138 A 
ATOM      2  C   UNL     1      23.262  29.562  47.731  1.00  0.00     0.100 A 
ATOM      3  C   UNL     1      22.983  28.198  47.644  1.00  0.00     0.197 A 
ATOM      4  O   UNL     1      21.777  27.838  47.644  1.00  0.00    -0.289 OA
ATOM      5  C   UNL     1      24.043  27.269  47.520  1.00  0.00     0.107 A 
ATOM      6  C   UNL     1      23.880  25.853  47.464  1.00  0.00     0.134 A 
ATOM      7  C   UNL     1      24.995  25.039  47.225  1.00  0.00     0.093 A 
ATOM      8  C   UNL     1      26.274  25.587  47.100  1.00  0.00     0.123 A 
ATOM      9  C   UNL     1      26.450  26.964  47.208  1.00  0.00     0.094 A 
ATOM     10  C   UNL     1      25.354  27.805  47.412  1.00  0.00     0.146 A 
ATOM     11  O   UNL     1      25.564  29.115  47.494  1.00  0.00    -0.456 OA
ENDROOT
BRANCH   1  12
ATOM     12  C   UNL     1      24.944  31.443  47.754  1.00  0.00     0.021 A 
ATOM     13  C   UNL     1      23.963  32.435  47.943  1.00  0.00     0.016 A 
ATOM     14  C   UNL     1      24.326  33.781  48.033  1.00  0.00     0.051 A 
ATOM     15  C   UNL     1      25.670  34.160  47.945  1.00  0.00     0.157 A 
ATOM     16  C   UNL     1      26.294  31.831  47.681  1.00  0.00     0.062 A 
ATOM     17  C   UNL     1      26.659  33.178  47.770  1.00  0.00     0.158 A 
BRANCH  15  18
ATOM     18  O   UNL     1      26.028  35.505  48.035  1.00  0.00    -0.504 OA
ATOM     19  H   UNL     1      25.784  36.169  47.310  1.00  0.00     0.293 HD
ENDBRANCH  15  18
BRANCH  17  20
ATOM     20  O   UNL     1      28.008  33.522  47.682  1.00  0.00    -0.504 OA
ATOM     21  H   UNL     1      28.342  34.235  47.046  1.00  0.00     0.293 HD
ENDBRANCH  17  20
ENDBRANCH   1  12
BRANCH   6  22
ATOM     22  O   UNL     1      22.661  25.198  47.660  1.00  0.00    -0.507 OA
ATOM     23  H   UNL     1      22.411  24.677  48.486  1.00  0.00     0.293 HD
ENDBRANCH   6  22
BRANCH   8  24
ATOM     24  O   UNL     1      27.379  24.768  46.876  1.00  0.00    -0.508 OA
ATOM     25  H   UNL     1      27.399  24.102  46.113  1.00  0.00     0.293 HD
ENDBRANCH   8  24
TORSDOF 5
ENDMDL
