MODEL 1
REMARK VINA RESULT:    -3.869      0.000      0.000
REMARK INTER + INTRA:          -4.217
REMARK INTER:                  -4.095
REMARK INTRA:                  -0.122
REMARK UNBOUND:                -0.122
REMARK SMILES C=C(C)[C@@H]1CC=C(C)CC1
REMARK SMILES IDX 8 1 7 2 6 3 5 4 4 5 10 6 9 7 2 8 1 9 3 10
REMARK H PARENT
REMARK Flexibility Score: inf
ROOT
ATOM      1  C   UNL     1       4.924   0.732  -0.753  1.00  0.00     0.039 C 
ATOM      2  C   UNL     1       4.190   1.593   0.237  1.00  0.00    -0.077 C 
ATOM      3  C   UNL     1       4.437   1.434   1.555  1.00  0.00    -0.027 C 
ATOM      4  C   UNL     1       3.792   2.284   2.622  1.00  0.00     0.035 C 
ATOM      5  C   UNL     1       2.478   2.922   2.140  1.00  0.00     0.018 C 
ATOM      6  C   UNL     1       2.688   3.576   0.766  1.00  0.00     0.013 C 
ATOM      7  C   UNL     1       3.098   2.518  -0.266  1.00  0.00     0.031 C 
ENDROOT
BRANCH   5   8
ATOM      8  C   UNL     1       1.940   3.920   3.158  1.00  0.00    -0.077 C 
ATOM      9  C   UNL     1       0.648   3.879   3.522  1.00  0.00     0.008 C 
ATOM     10  C   UNL     1       2.833   4.960   3.788  1.00  0.00     0.039 C 
ENDBRANCH   5   8
TORSDOF 1
ENDMDL
MODEL 2
REMARK VINA RESULT:    -3.763      8.072      9.117
REMARK INTER + INTRA:          -4.105
REMARK INTER:                  -3.983
REMARK INTRA:                  -0.122
REMARK UNBOUND:                -0.122
REMARK SMILES C=C(C)[C@@H]1CC=C(C)CC1
REMARK SMILES IDX 8 1 7 2 6 3 5 4 4 5 10 6 9 7 2 8 1 9 3 10
REMARK H PARENT
REMARK Flexibility Score: inf
ROOT
ATOM      1  C   UNL     1      -1.494   0.718  -3.358  1.00  0.00     0.039 C 
ATOM      2  C   UNL     1      -2.822   0.627  -2.659  1.00  0.00    -0.077 C 
ATOM      3  C   UNL     1      -3.861   1.352  -3.127  1.00  0.00    -0.027 C 
ATOM      4  C   UNL     1      -5.245   1.288  -2.529  1.00  0.00     0.035 C 
ATOM      5  C   UNL     1      -5.226   0.789  -1.073  1.00  0.00     0.018 C 
ATOM      6  C   UNL     1      -4.366  -0.480  -0.967  1.00  0.00     0.013 C 
ATOM      7  C   UNL     1      -2.920  -0.173  -1.373  1.00  0.00     0.031 C 
ENDROOT
BRANCH   5   8
ATOM      8  C   UNL     1      -6.637   0.554  -0.550  1.00  0.00    -0.077 C 
ATOM      9  C   UNL     1      -6.974   0.967   0.682  1.00  0.00     0.008 C 
ATOM     10  C   UNL     1      -7.685  -0.129  -1.393  1.00  0.00     0.039 C 
ENDBRANCH   5   8
TORSDOF 1
ENDMDL
MODEL 3
REMARK VINA RESULT:    -3.748      7.381      9.004
REMARK INTER + INTRA:          -4.089
REMARK INTER:                  -3.969
REMARK INTRA:                  -0.120
REMARK UNBOUND:                -0.122
REMARK SMILES C=C(C)[C@@H]1CC=C(C)CC1
REMARK SMILES IDX 8 1 7 2 6 3 5 4 4 5 10 6 9 7 2 8 1 9 3 10
REMARK H PARENT
REMARK Flexibility Score: inf
ROOT
ATOM      1  C   UNL     1      -5.976  -0.300   0.251  1.00  0.00     0.039 C 
ATOM      2  C   UNL     1      -4.983   0.049  -0.823  1.00  0.00    -0.077 C 
ATOM      3  C   UNL     1      -3.769  -0.542  -0.811  1.00  0.00    -0.027 C 
ATOM      4  C   UNL     1      -2.725  -0.300  -1.873  1.00  0.00     0.035 C 
ATOM      5  C   UNL     1      -2.943   1.034  -2.609  1.00  0.00     0.018 C 
ATOM      6  C   UNL     1      -4.413   1.157  -3.040  1.00  0.00     0.013 C 
ATOM      7  C   UNL     1      -5.327   1.149  -1.809  1.00  0.00     0.031 C 
ENDROOT
BRANCH   5   8
ATOM      8  C   UNL     1      -1.998   1.173  -3.795  1.00  0.00    -0.077 C 
ATOM      9  C   UNL     1      -0.979   2.046  -3.744  1.00  0.00     0.008 C 
ATOM     10  C   UNL     1      -2.170   0.339  -5.040  1.00  0.00     0.039 C 
ENDBRANCH   5   8
TORSDOF 1
ENDMDL
MODEL 4
REMARK VINA RESULT:    -3.742      0.800      4.434
REMARK INTER + INTRA:          -4.083
REMARK INTER:                  -3.953
REMARK INTRA:                  -0.129
REMARK UNBOUND:                -0.122
REMARK SMILES C=C(C)[C@@H]1CC=C(C)CC1
REMARK SMILES IDX 8 1 7 2 6 3 5 4 4 5 10 6 9 7 2 8 1 9 3 10
REMARK H PARENT
REMARK Flexibility Score: inf
ROOT
ATOM      1  C   UNL     1       1.456   4.000   2.910  1.00  0.00     0.039 C 
ATOM      2  C   UNL     1       2.379   3.257   1.984  1.00  0.00    -0.077 C 
ATOM      3  C   UNL     1       3.209   2.322   2.496  1.00  0.00    -0.027 C 
ATOM      4  C   UNL     1       4.132   1.486   1.644  1.00  0.00     0.035 C 
ATOM      5  C   UNL     1       4.438   2.154   0.292  1.00  0.00     0.018 C 
ATOM      6  C   UNL     1       3.132   2.629  -0.363  1.00  0.00     0.013 C 
ATOM      7  C   UNL     1       2.444   3.672   0.527  1.00  0.00     0.031 C 
ENDROOT
BRANCH   5   8
ATOM      8  C   UNL     1       5.215   1.218  -0.625  1.00  0.00    -0.077 C 
ATOM      9  C   UNL     1       4.782  -0.036  -0.829  1.00  0.00     0.008 C 
ATOM     10  C   UNL     1       6.470   1.671  -1.330  1.00  0.00     0.039 C 
ENDBRANCH   5   8
TORSDOF 1
ENDMDL
MODEL 5
REMARK VINA RESULT:    -3.731      1.448      4.993
REMARK INTER + INTRA:          -4.070
REMARK INTER:                  -3.942
REMARK INTRA:                  -0.128
REMARK UNBOUND:                -0.122
REMARK SMILES C=C(C)[C@@H]1CC=C(C)CC1
REMARK SMILES IDX 8 1 7 2 6 3 5 4 4 5 10 6 9 7 2 8 1 9 3 10
REMARK H PARENT
REMARK Flexibility Score: inf
ROOT
ATOM      1  C   UNL     1       1.023   6.108   6.228  1.00  0.00     0.039 C 
ATOM      2  C   UNL     1       1.476   5.278   5.058  1.00  0.00    -0.077 C 
ATOM      3  C   UNL     1       2.697   5.504   4.528  1.00  0.00    -0.027 C 
ATOM      4  C   UNL     1       3.264   4.690   3.390  1.00  0.00     0.035 C 
ATOM      5  C   UNL     1       2.162   4.001   2.565  1.00  0.00     0.018 C 
ATOM      6  C   UNL     1       1.176   3.289   3.502  1.00  0.00     0.013 C 
ATOM      7  C   UNL     1       0.497   4.306   4.427  1.00  0.00     0.031 C 
ENDROOT
BRANCH   5   8
ATOM      8  C   UNL     1       2.756   3.041   1.542  1.00  0.00    -0.077 C 
ATOM      9  C   UNL     1       3.291   1.878   1.943  1.00  0.00     0.008 C 
ATOM     10  C   UNL     1       2.749   3.361   0.067  1.00  0.00     0.039 C 
ENDBRANCH   5   8
TORSDOF 1
ENDMDL
MODEL 6
REMARK VINA RESULT:    -3.635      7.875      8.736
REMARK INTER + INTRA:          -3.969
REMARK INTER:                  -3.848
REMARK INTRA:                  -0.121
REMARK UNBOUND:                -0.122
REMARK SMILES C=C(C)[C@@H]1CC=C(C)CC1
REMARK SMILES IDX 8 1 7 2 6 3 5 4 4 5 10 6 9 7 2 8 1 9 3 10
REMARK H PARENT
REMARK Flexibility Score: inf
ROOT
ATOM      1  C   UNL     1      -1.542   0.879  -3.503  1.00  0.00     0.039 C 
ATOM      2  C   UNL     1      -2.744   0.658  -2.626  1.00  0.00    -0.077 C 
ATOM      3  C   UNL     1      -2.665  -0.239  -1.620  1.00  0.00    -0.027 C 
ATOM      4  C   UNL     1      -3.795  -0.493  -0.653  1.00  0.00     0.035 C 
ATOM      5  C   UNL     1      -5.159  -0.079  -1.233  1.00  0.00     0.018 C 
ATOM      6  C   UNL     1      -5.065   1.332  -1.834  1.00  0.00     0.013 C 
ATOM      7  C   UNL     1      -4.046   1.351  -2.980  1.00  0.00     0.031 C 
ENDROOT
BRANCH   5   8
ATOM      8  C   UNL     1      -6.258  -0.168  -0.182  1.00  0.00    -0.077 C 
ATOM      9  C   UNL     1      -6.828  -1.351   0.097  1.00  0.00     0.008 C 
ATOM     10  C   UNL     1      -6.724   1.052   0.573  1.00  0.00     0.039 C 
ENDBRANCH   5   8
TORSDOF 1
ENDMDL
MODEL 7
REMARK VINA RESULT:    -3.616      7.494      9.105
REMARK INTER + INTRA:          -3.949
REMARK INTER:                  -3.828
REMARK INTRA:                  -0.121
REMARK UNBOUND:                -0.122
REMARK SMILES C=C(C)[C@@H]1CC=C(C)CC1
REMARK SMILES IDX 8 1 7 2 6 3 5 4 4 5 10 6 9 7 2 8 1 9 3 10
REMARK H PARENT
REMARK Flexibility Score: inf
ROOT
ATOM      1  C   UNL     1      -5.501  -0.764   0.736  1.00  0.00     0.039 C 
ATOM      2  C   UNL     1      -4.759  -0.210  -0.450  1.00  0.00    -0.077 C 
ATOM      3  C   UNL     1      -5.355   0.728  -1.217  1.00  0.00    -0.027 C 
ATOM      4  C   UNL     1      -4.674   1.383  -2.393  1.00  0.00     0.035 C 
ATOM      5  C   UNL     1      -3.525   0.525  -2.950  1.00  0.00     0.018 C 
ATOM      6  C   UNL     1      -2.621   0.054  -1.801  1.00  0.00     0.013 C 
ATOM      7  C   UNL     1      -3.420  -0.816  -0.823  1.00  0.00     0.031 C 
ENDROOT
BRANCH   5   8
ATOM      8  C   UNL     1      -2.734   1.280  -4.011  1.00  0.00    -0.077 C 
ATOM      9  C   UNL     1      -3.210   1.377  -5.262  1.00  0.00     0.008 C 
ATOM     10  C   UNL     1      -1.417   1.942  -3.688  1.00  0.00     0.039 C 
ENDBRANCH   5   8
TORSDOF 1
ENDMDL
MODEL 8
REMARK VINA RESULT:    -3.495      7.327      8.590
REMARK INTER + INTRA:          -3.821
REMARK INTER:                  -3.695
REMARK INTRA:                  -0.126
REMARK UNBOUND:                -0.122
REMARK SMILES C=C(C)[C@@H]1CC=C(C)CC1
REMARK SMILES IDX 8 1 7 2 6 3 5 4 4 5 10 6 9 7 2 8 1 9 3 10
REMARK H PARENT
REMARK Flexibility Score: inf
ROOT
ATOM      1  C   UNL     1      -3.504   3.077  -5.939  1.00  0.00     0.039 C 
ATOM      2  C   UNL     1      -3.302   2.139  -4.781  1.00  0.00    -0.077 C 
ATOM      3  C   UNL     1      -4.338   1.380  -4.363  1.00  0.00    -0.027 C 
ATOM      4  C   UNL     1      -4.222   0.371  -3.247  1.00  0.00     0.035 C 
ATOM      5  C   UNL     1      -3.043   0.678  -2.307  1.00  0.00     0.018 C 
ATOM      6  C   UNL     1      -1.775   0.949  -3.131  1.00  0.00     0.013 C 
ATOM      7  C   UNL     1      -1.982   2.171  -4.034  1.00  0.00     0.031 C 
ENDROOT
BRANCH   5   8
ATOM      8  C   UNL     1      -2.828  -0.446  -1.302  1.00  0.00    -0.077 C 
ATOM      9  C   UNL     1      -3.834  -0.835  -0.503  1.00  0.00     0.008 C 
ATOM     10  C   UNL     1      -1.500  -1.153  -1.184  1.00  0.00     0.039 C 
ENDBRANCH   5   8
TORSDOF 1
ENDMDL
MODEL 9
REMARK VINA RESULT:    -3.433      7.585      8.550
REMARK INTER + INTRA:          -3.755
REMARK INTER:                  -3.626
REMARK INTRA:                  -0.130
REMARK UNBOUND:                -0.122
REMARK SMILES C=C(C)[C@@H]1CC=C(C)CC1
REMARK SMILES IDX 8 1 7 2 6 3 5 4 4 5 10 6 9 7 2 8 1 9 3 10
REMARK H PARENT
REMARK Flexibility Score: inf
ROOT
ATOM      1  C   UNL     1      -2.771   2.030  -4.737  1.00  0.00     0.039 C 
ATOM      2  C   UNL     1      -3.225   1.335  -3.483  1.00  0.00    -0.077 C 
ATOM      3  C   UNL     1      -2.346   0.568  -2.803  1.00  0.00    -0.027 C 
ATOM      4  C   UNL     1      -2.689  -0.125  -1.508  1.00  0.00     0.035 C 
ATOM      5  C   UNL     1      -4.205  -0.333  -1.344  1.00  0.00     0.018 C 
ATOM      6  C   UNL     1      -4.947   0.977  -1.646  1.00  0.00     0.013 C 
ATOM      7  C   UNL     1      -4.690   1.409  -3.095  1.00  0.00     0.031 C 
ENDROOT
BRANCH   5   8
ATOM      8  C   UNL     1      -4.545  -0.863   0.043  1.00  0.00    -0.077 C 
ATOM      9  C   UNL     1      -3.673  -1.647   0.696  1.00  0.00     0.008 C 
ATOM     10  C   UNL     1      -5.849  -0.516   0.719  1.00  0.00     0.039 C 
ENDBRANCH   5   8
TORSDOF 1
ENDMDL
