MODEL 1
REMARK VINA RESULT:    77.884      0.000      0.000
REMARK INTER + INTRA:         147.711
REMARK INTER:                 148.456
REMARK INTRA:                  -0.745
REMARK UNBOUND:                -0.745
REMARK SMILES C[C@@H]1O[C@H](O[C@@H]2[C@@H](O)[C@H](OCCc3ccc(O)c(O)c3)O[C@H](CO)[C@H]2OC(=O)C=Cc2ccc(O)c(O)c2)[C@H](O)[C@@H](O)[C@H]1O
REMARK SMILES IDX 6 1 7 2 9 3 21 4 22 5 25 6 5 7 4 8 1 9 2 10 43 11 3 12 41 13
REMARK SMILES IDX 39 14 44 15 42 17 40 19 8 21 26 23 27 24 28 25 29 26 30 27
REMARK SMILES IDX 31 28 38 29 32 30 36 31 33 32 34 33 37 34 35 36 10 38 11 39
REMARK SMILES IDX 12 40 13 41 20 42 14 43 18 44 15 45 16 46 19 47 17 49 23 51
REMARK SMILES IDX 24 52
REMARK H PARENT 44 16 42 18 40 20 8 22 37 35 35 37 19 48 17 50 24 53
REMARK Flexibility Score: inf
ROOT
ATOM      1  C   UNL     1       1.603  -1.194  13.172  1.00  0.00     0.199 C 
ATOM      2  C   UNL     1       2.289  -0.617  11.891  1.00  0.00     0.203 C 
ATOM      3  C   UNL     1       3.752  -1.124  11.758  1.00  0.00     0.282 C 
ATOM      4  O   UNL     1       4.007  -2.431  12.266  1.00  0.00    -0.340 OA
ATOM      5  C   UNL     1       2.872  -3.279  12.300  1.00  0.00     0.190 C 
ATOM      6  C   UNL     1       1.745  -2.732  13.227  1.00  0.00     0.240 C 
ENDROOT
BRANCH   1   7
ATOM      7  O   UNL     1       0.230  -0.882  13.461  1.00  0.00    -0.340 OA
BRANCH   7   8
ATOM      8  C   UNL     1      -0.628  -1.946  13.813  1.00  0.00     0.282 C 
ATOM      9  C   UNL     1      -2.069   0.250  15.445  1.00  0.00     0.041 C 
ATOM     10  C   UNL     1      -2.146  -1.275  15.560  1.00  0.00     0.150 C 
ATOM     11  C   UNL     1      -3.391  -1.890  14.863  1.00  0.00     0.174 C 
ATOM     12  O   UNL     1      -0.930  -1.917  15.205  1.00  0.00    -0.344 OA
ATOM     13  C   UNL     1      -3.061  -2.623  13.550  1.00  0.00     0.179 C 
ATOM     14  C   UNL     1      -1.853  -1.989  12.856  1.00  0.00     0.202 C 
BRANCH  11  15
ATOM     15  O   UNL     1      -4.050  -2.771  15.747  1.00  0.00    -0.388 OA
ATOM     16  H   UNL     1      -4.342  -2.237  16.528  1.00  0.00     0.211 HD
ENDBRANCH  11  15
BRANCH  13  17
ATOM     17  O   UNL     1      -2.861  -4.007  13.747  1.00  0.00    -0.387 OA
ATOM     18  H   UNL     1      -3.373  -4.493  13.049  1.00  0.00     0.211 HD
ENDBRANCH  13  17
BRANCH  14  19
ATOM     19  O   UNL     1      -2.211  -0.712  12.377  1.00  0.00    -0.385 OA
ATOM     20  H   UNL     1      -2.512  -0.840  11.438  1.00  0.00     0.211 HD
ENDBRANCH  14  19
ENDBRANCH   7   8
ENDBRANCH   1   7
BRANCH   2  21
ATOM     21  O   UNL     1       2.320   0.793  11.890  1.00  0.00    -0.385 OA
ATOM     22  H   UNL     1       1.440   1.128  12.203  1.00  0.00     0.211 HD
ENDBRANCH   2  21
BRANCH   6  23
ATOM     23  O   UNL     1       1.984  -3.090  14.595  1.00  0.00    -0.453 OA
BRANCH  23  24
ATOM     24  C   UNL     1       1.613  -4.298  15.218  1.00  0.00     0.331 C 
ATOM     25  O   UNL     1       0.438  -4.697  15.064  1.00  0.00    -0.247 OA
BRANCH  24  26
ATOM     26  C   UNL     1       2.524  -5.095  16.075  1.00  0.00     0.094 C 
ATOM     27  C   UNL     1       3.123  -4.588  17.160  1.00  0.00     0.016 C 
BRANCH  27  28
ATOM     28  C   UNL     1       4.089  -5.346  18.003  1.00  0.00    -0.021 A 
ATOM     29  C   UNL     1       3.736  -6.522  18.698  1.00  0.00     0.058 A 
ATOM     30  C   UNL     1       5.418  -4.894  18.071  1.00  0.00     0.012 A 
ATOM     31  C   UNL     1       4.692  -7.215  19.455  1.00  0.00     0.157 A 
ATOM     32  C   UNL     1       6.368  -5.569  18.828  1.00  0.00     0.051 A 
ATOM     33  C   UNL     1       6.008  -6.740  19.511  1.00  0.00     0.157 A 
BRANCH  31  34
ATOM     34  O   UNL     1       4.349  -8.374  20.148  1.00  0.00    -0.504 OA
ATOM     35  H   UNL     1       3.592  -8.381  20.822  1.00  0.00     0.293 HD
ENDBRANCH  31  34
BRANCH  33  36
ATOM     36  O   UNL     1       6.952  -7.442  20.243  1.00  0.00    -0.504 OA
ATOM     37  H   UNL     1       7.654  -8.012  19.788  1.00  0.00     0.293 HD
ENDBRANCH  33  36
ENDBRANCH  27  28
ENDBRANCH  24  26
ENDBRANCH  23  24
ENDBRANCH   6  23
BRANCH   3  38
ATOM     38  O   UNL     1       4.125  -1.064  10.393  1.00  0.00    -0.350 OA
BRANCH  38  39
ATOM     39  C   UNL     1       5.263  -1.848  10.124  1.00  0.00     0.168 C 
BRANCH  39  40
ATOM     40  C   UNL     1       5.003  -2.737   8.898  1.00  0.00     0.064 C 
BRANCH  40  41
ATOM     41  C   UNL     1       6.015  -2.590   7.779  1.00  0.00    -0.042 A 
ATOM     42  C   UNL     1       5.579  -2.068   6.548  1.00  0.00     0.054 A 
ATOM     43  C   UNL     1       7.353  -3.014   7.886  1.00  0.00     0.008 A 
ATOM     44  C   UNL     1       6.445  -1.956   5.455  1.00  0.00     0.157 A 
ATOM     45  C   UNL     1       8.227  -2.890   6.804  1.00  0.00     0.050 A 
ATOM     46  C   UNL     1       7.790  -2.368   5.580  1.00  0.00     0.157 A 
BRANCH  44  47
ATOM     47  O   UNL     1       5.926  -1.432   4.272  1.00  0.00    -0.504 OA
ATOM     48  H   UNL     1       5.554  -1.999   3.530  1.00  0.00     0.293 HD
ENDBRANCH  44  47
BRANCH  46  49
ATOM     49  O   UNL     1       8.711  -2.286   4.532  1.00  0.00    -0.504 OA
ATOM     50  H   UNL     1       9.709  -2.180   4.654  1.00  0.00     0.293 HD
ENDBRANCH  46  49
ENDBRANCH  40  41
ENDBRANCH  39  40
ENDBRANCH  38  39
ENDBRANCH   3  38
BRANCH   5  51
ATOM     51  C   UNL     1       2.469  -3.730  10.866  1.00  0.00     0.192 C 
BRANCH  51  52
ATOM     52  O   UNL     1       2.186  -5.105  10.817  1.00  0.00    -0.394 OA
ATOM     53  H   UNL     1       1.339  -5.234  11.322  1.00  0.00     0.210 HD
ENDBRANCH  51  52
ENDBRANCH   5  51
TORSDOF 20
ENDMDL
MODEL 2
REMARK VINA RESULT:    77.976      7.262     10.977
REMARK INTER + INTRA:         147.887
REMARK INTER:                 137.766
REMARK INTRA:                  10.121
REMARK UNBOUND:                -0.745
REMARK SMILES C[C@@H]1O[C@H](O[C@@H]2[C@@H](O)[C@H](OCCc3ccc(O)c(O)c3)O[C@H](CO)[C@H]2OC(=O)C=Cc2ccc(O)c(O)c2)[C@H](O)[C@@H](O)[C@H]1O
REMARK SMILES IDX 6 1 7 2 9 3 21 4 22 5 25 6 5 7 4 8 1 9 2 10 43 11 3 12 41 13
REMARK SMILES IDX 39 14 44 15 42 17 40 19 8 21 26 23 27 24 28 25 29 26 30 27
REMARK SMILES IDX 31 28 38 29 32 30 36 31 33 32 34 33 37 34 35 36 10 38 11 39
REMARK SMILES IDX 12 40 13 41 20 42 14 43 18 44 15 45 16 46 19 47 17 49 23 51
REMARK SMILES IDX 24 52
REMARK H PARENT 44 16 42 18 40 20 8 22 37 35 35 37 19 48 17 50 24 53
REMARK Flexibility Score: inf
ROOT
ATOM      1  C   UNL     1       9.490  -0.322  16.836  1.00  0.00     0.199 C 
ATOM      2  C   UNL     1      10.557   0.814  16.706  1.00  0.00     0.203 C 
ATOM      3  C   UNL     1      11.694   0.410  15.728  1.00  0.00     0.282 C 
ATOM      4  O   UNL     1      11.315  -0.441  14.648  1.00  0.00    -0.340 OA
ATOM      5  C   UNL     1       9.948  -0.354  14.285  1.00  0.00     0.190 C 
ATOM      6  C   UNL     1       8.994  -0.773  15.443  1.00  0.00     0.240 C 
ENDROOT
BRANCH   1   7
ATOM      7  O   UNL     1       8.329  -0.133  17.662  1.00  0.00    -0.340 OA
BRANCH   7   8
ATOM      8  C   UNL     1       8.239  -0.886  18.853  1.00  0.00     0.282 C 
ATOM      9  C   UNL     1      11.325  -0.857  18.663  1.00  0.00     0.041 C 
ATOM     10  C   UNL     1      10.395  -1.768  19.470  1.00  0.00     0.150 C 
ATOM     11  C   UNL     1      10.258  -1.354  20.961  1.00  0.00     0.174 C 
ATOM     12  O   UNL     1       9.146  -1.985  18.830  1.00  0.00    -0.344 OA
ATOM     13  C   UNL     1       8.902  -0.707  21.297  1.00  0.00     0.179 C 
ATOM     14  C   UNL     1       8.341   0.049  20.091  1.00  0.00     0.202 C 
BRANCH  11  15
ATOM     15  O   UNL     1      10.468  -2.476  21.790  1.00  0.00    -0.388 OA
ATOM     16  H   UNL     1      11.218  -2.992  21.401  1.00  0.00     0.211 HD
ENDBRANCH  11  15
BRANCH  13  17
ATOM     17  O   UNL     1       7.967  -1.646  21.783  1.00  0.00    -0.387 OA
ATOM     18  H   UNL     1       7.728  -2.255  21.035  1.00  0.00     0.211 HD
ENDBRANCH  13  17
BRANCH  14  19
ATOM     19  O   UNL     1       9.138   1.187  19.844  1.00  0.00    -0.385 OA
ATOM     20  H   UNL     1      10.080   0.872  19.836  1.00  0.00     0.211 HD
ENDBRANCH  14  19
ENDBRANCH   7   8
ENDBRANCH   1   7
BRANCH   2  21
ATOM     21  O   UNL     1      11.149   1.136  17.944  1.00  0.00    -0.385 OA
ATOM     22  H   UNL     1      10.795   2.014  18.244  1.00  0.00     0.211 HD
ENDBRANCH   2  21
BRANCH   6  23
ATOM     23  O   UNL     1       8.833  -2.197  15.489  1.00  0.00    -0.453 OA
BRANCH  23  24
ATOM     24  C   UNL     1       7.738  -2.930  14.987  1.00  0.00     0.331 C 
ATOM     25  O   UNL     1       7.311  -2.633  13.850  1.00  0.00    -0.247 OA
BRANCH  24  26
ATOM     26  C   UNL     1       7.047  -3.999  15.747  1.00  0.00     0.094 C 
ATOM     27  C   UNL     1       6.747  -3.883  17.046  1.00  0.00     0.016 C 
BRANCH  27  28
ATOM     28  C   UNL     1       6.108  -4.963  17.849  1.00  0.00    -0.021 A 
ATOM     29  C   UNL     1       6.846  -5.844  18.667  1.00  0.00     0.058 A 
ATOM     30  C   UNL     1       4.707  -5.078  17.824  1.00  0.00     0.012 A 
ATOM     31  C   UNL     1       6.193  -6.825  19.427  1.00  0.00     0.157 A 
ATOM     32  C   UNL     1       4.053  -6.054  18.565  1.00  0.00     0.051 A 
ATOM     33  C   UNL     1       4.796  -6.922  19.379  1.00  0.00     0.157 A 
BRANCH  31  34
ATOM     34  O   UNL     1       6.915  -7.702  20.233  1.00  0.00    -0.504 OA
ATOM     35  H   UNL     1       7.693  -8.239  19.864  1.00  0.00     0.293 HD
ENDBRANCH  31  34
BRANCH  33  36
ATOM     36  O   UNL     1       4.157  -7.880  20.149  1.00  0.00    -0.504 OA
ATOM     37  H   UNL     1       4.442  -8.065  21.103  1.00  0.00     0.293 HD
ENDBRANCH  33  36
ENDBRANCH  27  28
ENDBRANCH  24  26
ENDBRANCH  23  24
ENDBRANCH   6  23
BRANCH   3  38
ATOM     38  O   UNL     1      12.286   1.590  15.216  1.00  0.00    -0.350 OA
BRANCH  38  39
ATOM     39  C   UNL     1      12.641   2.488  16.242  1.00  0.00     0.168 C 
BRANCH  39  40
ATOM     40  C   UNL     1      11.372   3.022  16.925  1.00  0.00     0.064 C 
BRANCH  40  41
ATOM     41  C   UNL     1      11.475   3.175  18.430  1.00  0.00    -0.042 A 
ATOM     42  C   UNL     1      10.783   4.234  19.044  1.00  0.00     0.054 A 
ATOM     43  C   UNL     1      12.286   2.353  19.236  1.00  0.00     0.008 A 
ATOM     44  C   UNL     1      10.879   4.468  20.419  1.00  0.00     0.157 A 
ATOM     45  C   UNL     1      12.373   2.571  20.612  1.00  0.00     0.050 A 
ATOM     46  C   UNL     1      11.681   3.625  21.220  1.00  0.00     0.157 A 
BRANCH  44  47
ATOM     47  O   UNL     1      10.162   5.543  20.942  1.00  0.00    -0.504 OA
ATOM     48  H   UNL     1      10.542   6.469  21.040  1.00  0.00     0.293 HD
ENDBRANCH  44  47
BRANCH  46  49
ATOM     49  O   UNL     1      11.824   3.799  22.601  1.00  0.00    -0.504 OA
ATOM     50  H   UNL     1      11.069   4.041  23.228  1.00  0.00     0.293 HD
ENDBRANCH  46  49
ENDBRANCH  40  41
ENDBRANCH  39  40
ENDBRANCH  38  39
ENDBRANCH   3  38
BRANCH   5  51
ATOM     51  C   UNL     1       9.649   0.989  13.556  1.00  0.00     0.192 C 
BRANCH  51  52
ATOM     52  O   UNL     1      10.366   1.094  12.353  1.00  0.00    -0.394 OA
ATOM     53  H   UNL     1      10.968   1.879  12.454  1.00  0.00     0.210 HD
ENDBRANCH  51  52
ENDBRANCH   5  51
TORSDOF 20
ENDMDL
MODEL 3
REMARK VINA RESULT:    79.664      6.429     12.143
REMARK INTER + INTRA:         151.105
REMARK INTER:                 152.246
REMARK INTRA:                  -1.141
REMARK UNBOUND:                -0.745
REMARK SMILES C[C@@H]1O[C@H](O[C@@H]2[C@@H](O)[C@H](OCCc3ccc(O)c(O)c3)O[C@H](CO)[C@H]2OC(=O)C=Cc2ccc(O)c(O)c2)[C@H](O)[C@@H](O)[C@H]1O
REMARK SMILES IDX 6 1 7 2 9 3 21 4 22 5 25 6 5 7 4 8 1 9 2 10 43 11 3 12 41 13
REMARK SMILES IDX 39 14 44 15 42 17 40 19 8 21 26 23 27 24 28 25 29 26 30 27
REMARK SMILES IDX 31 28 38 29 32 30 36 31 33 32 34 33 37 34 35 36 10 38 11 39
REMARK SMILES IDX 12 40 13 41 20 42 14 43 18 44 15 45 16 46 19 47 17 49 23 51
REMARK SMILES IDX 24 52
REMARK H PARENT 44 16 42 18 40 20 8 22 37 35 35 37 19 48 17 50 24 53
REMARK Flexibility Score: inf
ROOT
ATOM      1  C   UNL     1       7.505  -6.464  16.878  1.00  0.00     0.199 C 
ATOM      2  C   UNL     1       6.717  -7.099  18.070  1.00  0.00     0.203 C 
ATOM      3  C   UNL     1       6.513  -6.076  19.220  1.00  0.00     0.282 C 
ATOM      4  O   UNL     1       6.377  -4.713  18.825  1.00  0.00    -0.340 OA
ATOM      5  C   UNL     1       5.898  -4.530  17.504  1.00  0.00     0.190 C 
ATOM      6  C   UNL     1       6.852  -5.136  16.432  1.00  0.00     0.240 C 
ENDROOT
BRANCH   1   7
ATOM      7  O   UNL     1       7.765  -7.232  15.690  1.00  0.00    -0.340 OA
BRANCH   7   8
ATOM      8  C   UNL     1       8.977  -6.997  15.007  1.00  0.00     0.282 C 
ATOM      9  C   UNL     1       8.879 -10.054  14.552  1.00  0.00     0.041 C 
ATOM     10  C   UNL     1      10.053  -9.078  14.439  1.00  0.00     0.150 C 
ATOM     11  C   UNL     1      10.363  -8.644  12.980  1.00  0.00     0.174 C 
ATOM     12  O   UNL     1       9.949  -7.985  15.340  1.00  0.00    -0.344 OA
ATOM     13  C   UNL     1       9.934  -7.199  12.663  1.00  0.00     0.179 C 
ATOM     14  C   UNL     1       8.709  -6.798  13.488  1.00  0.00     0.202 C 
BRANCH  11  15
ATOM     15  O   UNL     1      11.741  -8.799  12.717  1.00  0.00    -0.388 OA
ATOM     16  H   UNL     1      12.220  -8.124  13.259  1.00  0.00     0.211 HD
ENDBRANCH  11  15
BRANCH  13  17
ATOM     17  O   UNL     1      10.987  -6.277  12.844  1.00  0.00    -0.387 OA
ATOM     18  H   UNL     1      11.845  -6.764  12.726  1.00  0.00     0.211 HD
ENDBRANCH  13  17
BRANCH  14  19
ATOM     19  O   UNL     1       7.587  -7.525  13.037  1.00  0.00    -0.385 OA
ATOM     20  H   UNL     1       7.195  -7.960  13.841  1.00  0.00     0.211 HD
ENDBRANCH  14  19
ENDBRANCH   7   8
ENDBRANCH   1   7
BRANCH   2  21
ATOM     21  O   UNL     1       7.376  -8.225  18.607  1.00  0.00    -0.385 OA
ATOM     22  H   UNL     1       7.715  -8.779  17.857  1.00  0.00     0.211 HD
ENDBRANCH   2  21
BRANCH   6  23
ATOM     23  O   UNL     1       7.913  -4.225  16.113  1.00  0.00    -0.453 OA
BRANCH  23  24
ATOM     24  C   UNL     1       7.770  -2.939  15.555  1.00  0.00     0.331 C 
ATOM     25  O   UNL     1       7.294  -2.854  14.402  1.00  0.00    -0.247 OA
BRANCH  24  26
ATOM     26  C   UNL     1       8.187  -1.694  16.243  1.00  0.00     0.094 C 
ATOM     27  C   UNL     1       9.458  -1.445  16.578  1.00  0.00     0.016 C 
BRANCH  27  28
ATOM     28  C   UNL     1       9.897  -0.231  17.322  1.00  0.00    -0.021 A 
ATOM     29  C   UNL     1      10.597   0.829  16.708  1.00  0.00     0.058 A 
ATOM     30  C   UNL     1       9.559  -0.119  18.682  1.00  0.00     0.012 A 
ATOM     31  C   UNL     1      10.961   1.964  17.448  1.00  0.00     0.157 A 
ATOM     32  C   UNL     1       9.925   0.997  19.424  1.00  0.00     0.051 A 
ATOM     33  C   UNL     1      10.617   2.047  18.803  1.00  0.00     0.157 A 
BRANCH  31  34
ATOM     34  O   UNL     1      11.656   3.012  16.849  1.00  0.00    -0.504 OA
ATOM     35  H   UNL     1      12.525   3.360  17.240  1.00  0.00     0.293 HD
ENDBRANCH  31  34
BRANCH  33  36
ATOM     36  O   UNL     1      10.961   3.181  19.521  1.00  0.00    -0.504 OA
ATOM     37  H   UNL     1      11.521   3.122  20.362  1.00  0.00     0.293 HD
ENDBRANCH  33  36
ENDBRANCH  27  28
ENDBRANCH  24  26
ENDBRANCH  23  24
ENDBRANCH   6  23
BRANCH   3  38
ATOM     38  O   UNL     1       5.378  -6.467  19.972  1.00  0.00    -0.350 OA
BRANCH  38  39
ATOM     39  C   UNL     1       4.902  -7.734  19.584  1.00  0.00     0.168 C 
BRANCH  39  40
ATOM     40  C   UNL     1       3.983  -8.300  20.679  1.00  0.00     0.064 C 
BRANCH  40  41
ATOM     41  C   UNL     1       2.663  -7.571  20.841  1.00  0.00    -0.042 A 
ATOM     42  C   UNL     1       2.556  -6.602  21.854  1.00  0.00     0.054 A 
ATOM     43  C   UNL     1       1.519  -7.865  20.077  1.00  0.00     0.008 A 
ATOM     44  C   UNL     1       1.353  -5.931  22.098  1.00  0.00     0.157 A 
ATOM     45  C   UNL     1       0.319  -7.188  20.303  1.00  0.00     0.050 A 
ATOM     46  C   UNL     1       0.216  -6.222  21.312  1.00  0.00     0.157 A 
BRANCH  44  47
ATOM     47  O   UNL     1       1.336  -4.989  23.125  1.00  0.00    -0.504 OA
ATOM     48  H   UNL     1       2.159  -4.697  23.624  1.00  0.00     0.293 HD
ENDBRANCH  44  47
BRANCH  46  49
ATOM     49  O   UNL     1      -1.018  -5.592  21.497  1.00  0.00    -0.504 OA
ATOM     50  H   UNL     1      -1.276  -5.069  22.323  1.00  0.00     0.293 HD
ENDBRANCH  46  49
ENDBRANCH  40  41
ENDBRANCH  39  40
ENDBRANCH  38  39
ENDBRANCH   3  38
BRANCH   5  51
ATOM     51  C   UNL     1       4.386  -4.887  17.405  1.00  0.00     0.192 C 
BRANCH  51  52
ATOM     52  O   UNL     1       3.686  -4.493  18.558  1.00  0.00    -0.394 OA
ATOM     53  H   UNL     1       4.201  -4.848  19.332  1.00  0.00     0.210 HD
ENDBRANCH  51  52
ENDBRANCH   5  51
TORSDOF 20
ENDMDL
MODEL 4
REMARK VINA RESULT:    80.383      3.092      5.618
REMARK INTER + INTRA:         152.475
REMARK INTER:                 154.143
REMARK INTRA:                  -1.668
REMARK UNBOUND:                -0.745
REMARK SMILES C[C@@H]1O[C@H](O[C@@H]2[C@@H](O)[C@H](OCCc3ccc(O)c(O)c3)O[C@H](CO)[C@H]2OC(=O)C=Cc2ccc(O)c(O)c2)[C@H](O)[C@@H](O)[C@H]1O
REMARK SMILES IDX 6 1 7 2 9 3 21 4 22 5 25 6 5 7 4 8 1 9 2 10 43 11 3 12 41 13
REMARK SMILES IDX 39 14 44 15 42 17 40 19 8 21 26 23 27 24 28 25 29 26 30 27
REMARK SMILES IDX 31 28 38 29 32 30 36 31 33 32 34 33 37 34 35 36 10 38 11 39
REMARK SMILES IDX 12 40 13 41 20 42 14 43 18 44 15 45 16 46 19 47 17 49 23 51
REMARK SMILES IDX 24 52
REMARK H PARENT 44 16 42 18 40 20 8 22 37 35 35 37 19 48 17 50 24 53
REMARK Flexibility Score: inf
ROOT
ATOM      1  C   UNL     1       2.719  -0.806  12.265  1.00  0.00     0.199 C 
ATOM      2  C   UNL     1       3.578  -0.606  10.973  1.00  0.00     0.203 C 
ATOM      3  C   UNL     1       4.745  -1.628  10.908  1.00  0.00     0.282 C 
ATOM      4  O   UNL     1       4.491  -2.903  11.494  1.00  0.00    -0.340 OA
ATOM      5  C   UNL     1       3.122  -3.263  11.545  1.00  0.00     0.190 C 
ATOM      6  C   UNL     1       2.277  -2.280  12.409  1.00  0.00     0.240 C 
ENDROOT
BRANCH   1   7
ATOM      7  O   UNL     1       1.561   0.012  12.499  1.00  0.00    -0.340 OA
BRANCH   7   8
ATOM      8  C   UNL     1       0.417  -0.224  11.706  1.00  0.00     0.282 C 
ATOM      9  C   UNL     1      -0.409   2.575  12.730  1.00  0.00     0.041 C 
ATOM     10  C   UNL     1      -1.256   1.466  12.099  1.00  0.00     0.150 C 
ATOM     11  C   UNL     1      -1.545   1.685  10.589  1.00  0.00     0.174 C 
ATOM     12  O   UNL     1      -0.768   0.165  12.395  1.00  0.00    -0.344 OA
ATOM     13  C   UNL     1      -0.744   0.748   9.667  1.00  0.00     0.179 C 
ATOM     14  C   UNL     1       0.608   0.390  10.290  1.00  0.00     0.202 C 
BRANCH  11  15
ATOM     15  O   UNL     1      -2.925   1.533  10.338  1.00  0.00    -0.388 OA
ATOM     16  H   UNL     1      -3.031   1.388   9.364  1.00  0.00     0.211 HD
ENDBRANCH  11  15
BRANCH  13  17
ATOM     17  O   UNL     1      -1.467  -0.416   9.329  1.00  0.00    -0.387 OA
ATOM     18  H   UNL     1      -1.050  -0.813   8.520  1.00  0.00     0.211 HD
ENDBRANCH  13  17
BRANCH  14  19
ATOM     19  O   UNL     1       1.431   1.535  10.303  1.00  0.00    -0.385 OA
ATOM     20  H   UNL     1       2.183   1.332  10.921  1.00  0.00     0.211 HD
ENDBRANCH  14  19
ENDBRANCH   7   8
ENDBRANCH   1   7
BRANCH   2  21
ATOM     21  O   UNL     1       4.133   0.687  10.895  1.00  0.00    -0.385 OA
ATOM     22  H   UNL     1       3.449   1.303  10.525  1.00  0.00     0.211 HD
ENDBRANCH   2  21
BRANCH   6  23
ATOM     23  O   UNL     1       2.358  -2.616  13.800  1.00  0.00    -0.453 OA
BRANCH  23  24
ATOM     24  C   UNL     1       1.542  -3.539  14.485  1.00  0.00     0.331 C 
ATOM     25  O   UNL     1       2.090  -4.548  14.978  1.00  0.00    -0.247 OA
BRANCH  24  26
ATOM     26  C   UNL     1       0.072  -3.396  14.617  1.00  0.00     0.094 C 
ATOM     27  C   UNL     1      -0.556  -2.224  14.469  1.00  0.00     0.016 C 
BRANCH  27  28
ATOM     28  C   UNL     1      -2.023  -2.040  14.654  1.00  0.00    -0.021 A 
ATOM     29  C   UNL     1      -2.956  -3.073  14.423  1.00  0.00     0.058 A 
ATOM     30  C   UNL     1      -2.490  -0.800  15.123  1.00  0.00     0.012 A 
ATOM     31  C   UNL     1      -4.325  -2.857  14.642  1.00  0.00     0.157 A 
ATOM     32  C   UNL     1      -3.845  -0.574  15.331  1.00  0.00     0.051 A 
ATOM     33  C   UNL     1      -4.764  -1.609  15.103  1.00  0.00     0.157 A 
BRANCH  31  34
ATOM     34  O   UNL     1      -5.253  -3.870  14.411  1.00  0.00    -0.504 OA
ATOM     35  H   UNL     1      -5.019  -4.845  14.564  1.00  0.00     0.293 HD
ENDBRANCH  31  34
BRANCH  33  36
ATOM     36  O   UNL     1      -6.115  -1.410  15.337  1.00  0.00    -0.504 OA
ATOM     37  H   UNL     1      -6.733  -1.078  14.607  1.00  0.00     0.293 HD
ENDBRANCH  33  36
ENDBRANCH  27  28
ENDBRANCH  24  26
ENDBRANCH  23  24
ENDBRANCH   6  23
BRANCH   3  38
ATOM     38  O   UNL     1       5.120  -1.796   9.552  1.00  0.00    -0.350 OA
BRANCH  38  39
ATOM     39  C   UNL     1       6.414  -2.337   9.428  1.00  0.00     0.168 C 
BRANCH  39  40
ATOM     40  C   UNL     1       6.411  -3.451   8.369  1.00  0.00     0.064 C 
BRANCH  40  41
ATOM     41  C   UNL     1       6.465  -2.965   6.934  1.00  0.00    -0.042 A 
ATOM     42  C   UNL     1       7.724  -2.699   6.366  1.00  0.00     0.054 A 
ATOM     43  C   UNL     1       5.318  -2.699   6.163  1.00  0.00     0.008 A 
ATOM     44  C   UNL     1       7.847  -2.195   5.067  1.00  0.00     0.157 A 
ATOM     45  C   UNL     1       5.433  -2.212   4.860  1.00  0.00     0.050 A 
ATOM     46  C   UNL     1       6.688  -1.950   4.297  1.00  0.00     0.157 A 
BRANCH  44  47
ATOM     47  O   UNL     1       9.133  -1.957   4.586  1.00  0.00    -0.504 OA
ATOM     48  H   UNL     1       9.449  -1.057   4.267  1.00  0.00     0.293 HD
ENDBRANCH  44  47
BRANCH  46  49
ATOM     49  O   UNL     1       6.734  -1.447   2.993  1.00  0.00    -0.504 OA
ATOM     50  H   UNL     1       7.413  -0.776   2.662  1.00  0.00     0.293 HD
ENDBRANCH  46  49
ENDBRANCH  40  41
ENDBRANCH  39  40
ENDBRANCH  38  39
ENDBRANCH   3  38
BRANCH   5  51
ATOM     51  C   UNL     1       2.586  -3.618  10.127  1.00  0.00     0.192 C 
BRANCH  51  52
ATOM     52  O   UNL     1       1.925  -4.858  10.120  1.00  0.00    -0.394 OA
ATOM     53  H   UNL     1       1.754  -5.089  11.073  1.00  0.00     0.210 HD
ENDBRANCH  51  52
ENDBRANCH   5  51
TORSDOF 20
ENDMDL
