MODEL 1
REMARK VINA RESULT:    -3.774      0.000      0.000
REMARK INTER + INTRA:          -5.193
REMARK INTER:                  -5.097
REMARK INTRA:                  -0.096
REMARK UNBOUND:                -0.096
REMARK SMILES C=C1C(=O)O[C@H]2[C@H]1CCC(C)=CCC[C@@]1(C)O[C@@H]21
REMARK SMILES IDX 6 1 7 2 2 3 1 4 3 5 4 6 5 7 8 8 9 9 10 10 11 11 12 12 18 14
REMARK SMILES IDX 15 15 17 16 16 17 14 18 13 19
REMARK H PARENT
REMARK Flexibility Score: 70.00
ROOT
ATOM      1  C   UNL     1      -2.908 -10.460  41.839  1.00  0.00     0.216 C 
ATOM      2  C   UNL     1      -3.971 -10.017  40.752  1.00  0.00     0.070 C 
ATOM      3  C   UNL     1      -3.160  -9.149  39.831  1.00  0.00     0.037 C 
ATOM      4  C   UNL     1      -3.552  -8.681  38.645  1.00  0.00     0.021 C 
ATOM      5  C   UNL     1      -1.885  -8.906  40.449  1.00  0.00     0.334 C 
ATOM      6  O   UNL     1      -0.987  -8.137  40.011  1.00  0.00    -0.247 OA
ATOM      7  O   UNL     1      -1.777  -9.615  41.622  1.00  0.00    -0.455 OA
ENDROOT
BRANCH   2   8
ATOM      8  C   UNL     1      -5.175  -9.188  41.292  1.00  0.00     0.017 C 
BRANCH   8   9
ATOM      9  C   UNL     1      -5.834  -9.617  42.624  1.00  0.00     0.031 C 
BRANCH   9  10
ATOM     10  C   UNL     1      -7.026 -10.567  42.531  1.00  0.00    -0.077 C 
ATOM     11  C   UNL     1      -8.410  -9.983  42.719  1.00  0.00     0.039 C 
ATOM     12  C   UNL     1      -6.952 -11.920  42.432  1.00  0.00    -0.028 CG0
ATOM     13  G   UNL     1      -5.780 -12.745  41.956  1.00  0.00     0.000 G0
ENDBRANCH   9  10
ENDBRANCH   8   9
ENDBRANCH   2   8
BRANCH   1  14
ATOM     14  C   UNL     1      -2.403 -11.929  41.739  1.00  0.00     0.192 C 
ATOM     15  C   UNL     1      -3.218 -13.072  42.273  1.00  0.00     0.096 C 
ATOM     16  O   UNL     1      -3.185 -12.751  40.898  1.00  0.00    -0.362 OA
ATOM     17  C   UNL     1      -2.479 -14.380  42.558  1.00  0.00     0.045 C 
BRANCH  15  18
ATOM     18  C   UNL     1      -4.594 -12.847  42.949  1.00  0.00     0.042 C 
BRANCH  18  19
ATOM     19  C   UNL     1      -5.777 -12.745  41.963  1.00  0.00     0.030 CG0
ATOM     20  G   UNL     1      -6.952 -11.924  42.434  1.00  0.00     0.000 G0
ENDBRANCH  18  19
ENDBRANCH  15  18
ENDBRANCH   1  14
TORSDOF 0
ENDMDL
MODEL 2
REMARK VINA RESULT:    -3.756      1.792      2.034
REMARK INTER + INTRA:          -5.169
REMARK INTER:                  -4.950
REMARK INTRA:                  -0.220
REMARK UNBOUND:                -0.096
REMARK SMILES C=C1C(=O)O[C@H]2[C@H]1CCC(C)=CCC[C@@]1(C)O[C@@H]21
REMARK SMILES IDX 6 1 7 2 2 3 1 4 3 5 4 6 5 7 8 8 9 9 10 10 11 11 12 12 18 14
REMARK SMILES IDX 15 15 17 16 16 17 14 18 13 19
REMARK H PARENT
REMARK Flexibility Score: 70.00
ROOT
ATOM      1  C   UNL     1      -2.617 -12.415  42.387  1.00  0.00     0.216 C 
ATOM      2  C   UNL     1      -3.715 -11.947  41.346  1.00  0.00     0.070 C 
ATOM      3  C   UNL     1      -2.895 -11.271  40.283  1.00  0.00     0.037 C 
ATOM      4  C   UNL     1      -3.335 -10.869  39.090  1.00  0.00     0.021 C 
ATOM      5  C   UNL     1      -1.550 -11.129  40.773  1.00  0.00     0.334 C 
ATOM      6  O   UNL     1      -0.613 -10.519  40.191  1.00  0.00    -0.247 OA
ATOM      7  O   UNL     1      -1.421 -11.737  42.000  1.00  0.00    -0.455 OA
ENDROOT
BRANCH   2   8
ATOM      8  C   UNL     1      -4.764 -10.931  41.891  1.00  0.00     0.017 C 
BRANCH   8   9
ATOM      9  C   UNL     1      -5.240 -11.071  43.356  1.00  0.00     0.031 C 
BRANCH   9  10
ATOM     10  C   UNL     1      -6.525 -11.862  43.593  1.00  0.00    -0.077 C 
ATOM     11  C   UNL     1      -7.790 -11.083  43.883  1.00  0.00     0.039 C 
ATOM     12  C   UNL     1      -6.611 -13.214  43.705  1.00  0.00    -0.028 CG0
ATOM     13  G   UNL     1      -5.627 -14.243  43.205  1.00  0.00     0.000 G0
ENDBRANCH   9  10
ENDBRANCH   8   9
ENDBRANCH   2   8
BRANCH   1  14
ATOM     14  C   UNL     1      -2.292 -13.937  42.397  1.00  0.00     0.192 C 
ATOM     15  C   UNL     1      -3.129 -14.907  43.181  1.00  0.00     0.096 C 
ATOM     16  O   UNL     1      -3.281 -14.741  41.786  1.00  0.00    -0.362 OA
ATOM     17  C   UNL     1      -2.498 -16.260  43.515  1.00  0.00     0.045 C 
BRANCH  15  18
ATOM     18  C   UNL     1      -4.348 -14.444  44.017  1.00  0.00     0.042 C 
BRANCH  18  19
ATOM     19  C   UNL     1      -5.646 -14.264  43.200  1.00  0.00     0.030 CG0
ATOM     20  G   UNL     1      -6.609 -13.227  43.724  1.00  0.00     0.000 G0
ENDBRANCH  18  19
ENDBRANCH  15  18
ENDBRANCH   1  14
TORSDOF 0
ENDMDL
MODEL 3
REMARK VINA RESULT:    -3.578      3.147      5.452
REMARK INTER + INTRA:          -4.928
REMARK INTER:                  -4.677
REMARK INTRA:                  -0.251
REMARK UNBOUND:                -0.096
REMARK SMILES C=C1C(=O)O[C@H]2[C@H]1CCC(C)=CCC[C@@]1(C)O[C@@H]21
REMARK SMILES IDX 6 1 7 2 2 3 1 4 3 5 4 6 5 7 8 8 9 9 10 10 11 11 12 12 18 14
REMARK SMILES IDX 15 15 17 16 16 17 14 18 13 19
REMARK H PARENT
REMARK Flexibility Score: 70.00
ROOT
ATOM      1  C   UNL     1      -3.976 -10.474  39.721  1.00  0.00     0.216 C 
ATOM      2  C   UNL     1      -4.553  -9.001  39.647  1.00  0.00     0.070 C 
ATOM      3  C   UNL     1      -6.031  -9.215  39.812  1.00  0.00     0.037 C 
ATOM      4  C   UNL     1      -6.945  -8.265  40.009  1.00  0.00     0.021 C 
ATOM      5  C   UNL     1      -6.295 -10.626  39.718  1.00  0.00     0.334 C 
ATOM      6  O   UNL     1      -7.434 -11.165  39.710  1.00  0.00    -0.247 OA
ATOM      7  O   UNL     1      -5.117 -11.328  39.609  1.00  0.00    -0.455 OA
ENDROOT
BRANCH   2   8
ATOM      8  C   UNL     1      -4.302  -8.250  38.304  1.00  0.00     0.017 C 
BRANCH   8   9
ATOM      9  C   UNL     1      -3.061  -7.334  38.188  1.00  0.00     0.031 C 
BRANCH   9  10
ATOM     10  C   UNL     1      -1.829  -7.922  37.503  1.00  0.00    -0.077 C 
ATOM     11  C   UNL     1      -1.602  -7.582  36.045  1.00  0.00     0.039 C 
ATOM     12  C   UNL     1      -0.986  -8.841  38.045  1.00  0.00    -0.028 CG0
ATOM     13  G   UNL     1      -0.783  -9.152  39.508  1.00  0.00     0.000 G0
ENDBRANCH   9  10
ENDBRANCH   8   9
ENDBRANCH   2   8
BRANCH   1  14
ATOM     14  C   UNL     1      -3.251 -10.857  41.043  1.00  0.00     0.192 C 
ATOM     15  C   UNL     1      -1.753 -10.938  41.115  1.00  0.00     0.096 C 
ATOM     16  O   UNL     1      -2.468  -9.817  41.592  1.00  0.00    -0.362 OA
ATOM     17  C   UNL     1      -1.154 -11.748  42.266  1.00  0.00     0.045 C 
BRANCH  15  18
ATOM     18  C   UNL     1      -0.860 -10.650  39.882  1.00  0.00     0.042 C 
BRANCH  18  19
ATOM     19  C   UNL     1      -0.766  -9.157  39.502  1.00  0.00     0.030 CG0
ATOM     20  G   UNL     1      -0.987  -8.839  38.043  1.00  0.00     0.000 G0
ENDBRANCH  18  19
ENDBRANCH  15  18
ENDBRANCH   1  14
TORSDOF 0
ENDMDL
MODEL 4
REMARK VINA RESULT:    -3.573      1.977      4.145
REMARK INTER + INTRA:          -4.921
REMARK INTER:                  -4.788
REMARK INTRA:                  -0.133
REMARK UNBOUND:                -0.096
REMARK SMILES C=C1C(=O)O[C@H]2[C@H]1CCC(C)=CCC[C@@]1(C)O[C@@H]21
REMARK SMILES IDX 6 1 7 2 2 3 1 4 3 5 4 6 5 7 8 8 9 9 10 10 11 11 12 12 18 14
REMARK SMILES IDX 15 15 17 16 16 17 14 18 13 19
REMARK H PARENT
REMARK Flexibility Score: 70.00
ROOT
ATOM      1  C   UNL     1      -4.016 -11.771  41.297  1.00  0.00     0.216 C 
ATOM      2  C   UNL     1      -3.054 -12.454  42.354  1.00  0.00     0.070 C 
ATOM      3  C   UNL     1      -1.735 -11.791  42.078  1.00  0.00     0.037 C 
ATOM      4  C   UNL     1      -0.636 -11.884  42.828  1.00  0.00     0.021 C 
ATOM      5  C   UNL     1      -1.856 -11.037  40.859  1.00  0.00     0.334 C 
ATOM      6  O   UNL     1      -0.920 -10.433  40.268  1.00  0.00    -0.247 OA
ATOM      7  O   UNL     1      -3.149 -11.081  40.395  1.00  0.00    -0.455 OA
ENDROOT
BRANCH   2   8
ATOM      8  C   UNL     1      -2.881 -13.996  42.204  1.00  0.00     0.017 C 
BRANCH   8   9
ATOM      9  C   UNL     1      -4.135 -14.860  41.929  1.00  0.00     0.031 C 
BRANCH   9  10
ATOM     10  C   UNL     1      -4.862 -15.430  43.145  1.00  0.00    -0.077 C 
ATOM     11  C   UNL     1      -4.627 -16.885  43.489  1.00  0.00     0.039 C 
ATOM     12  C   UNL     1      -5.814 -14.785  43.871  1.00  0.00    -0.028 CG0
ATOM     13  G   UNL     1      -6.055 -13.298  43.956  1.00  0.00     0.000 G0
ENDBRANCH   9  10
ENDBRANCH   8   9
ENDBRANCH   2   8
BRANCH   1  14
ATOM     14  C   UNL     1      -5.012 -10.718  41.864  1.00  0.00     0.192 C 
ATOM     15  C   UNL     1      -6.284 -11.135  42.544  1.00  0.00     0.096 C 
ATOM     16  O   UNL     1      -5.138 -10.743  43.271  1.00  0.00    -0.362 OA
ATOM     17  C   UNL     1      -7.395 -10.089  42.646  1.00  0.00     0.045 C 
BRANCH  15  18
ATOM     18  C   UNL     1      -6.668 -12.627  42.712  1.00  0.00     0.042 C 
BRANCH  18  19
ATOM     19  C   UNL     1      -6.065 -13.300  43.963  1.00  0.00     0.030 CG0
ATOM     20  G   UNL     1      -5.835 -14.788  43.858  1.00  0.00     0.000 G0
ENDBRANCH  18  19
ENDBRANCH  15  18
ENDBRANCH   1  14
TORSDOF 0
ENDMDL
MODEL 5
REMARK VINA RESULT:    -3.541      2.422      4.948
REMARK INTER + INTRA:          -4.879
REMARK INTER:                  -4.626
REMARK INTRA:                  -0.253
REMARK UNBOUND:                -0.096
REMARK SMILES C=C1C(=O)O[C@H]2[C@H]1CCC(C)=CCC[C@@]1(C)O[C@@H]21
REMARK SMILES IDX 6 1 7 2 2 3 1 4 3 5 4 6 5 7 8 8 9 9 10 10 11 11 12 12 18 14
REMARK SMILES IDX 15 15 17 16 16 17 14 18 13 19
REMARK H PARENT
REMARK Flexibility Score: 70.00
ROOT
ATOM      1  C   UNL     1      -4.236 -13.163  41.720  1.00  0.00     0.216 C 
ATOM      2  C   UNL     1      -2.959 -13.230  42.653  1.00  0.00     0.070 C 
ATOM      3  C   UNL     1      -2.045 -12.210  42.036  1.00  0.00     0.037 C 
ATOM      4  C   UNL     1      -0.909 -11.751  42.564  1.00  0.00     0.021 C 
ATOM      5  C   UNL     1      -2.603 -11.811  40.772  1.00  0.00     0.334 C 
ATOM      6  O   UNL     1      -2.057 -11.045  39.932  1.00  0.00    -0.247 OA
ATOM      7  O   UNL     1      -3.827 -12.407  40.579  1.00  0.00    -0.455 OA
ENDROOT
BRANCH   2   8
ATOM      8  C   UNL     1      -2.225 -14.606  42.686  1.00  0.00     0.017 C 
BRANCH   8   9
ATOM      9  C   UNL     1      -2.586 -15.612  43.804  1.00  0.00     0.031 C 
BRANCH   9  10
ATOM     10  C   UNL     1      -3.571 -16.722  43.444  1.00  0.00    -0.077 C 
ATOM     11  C   UNL     1      -3.004 -18.083  43.099  1.00  0.00     0.039 C 
ATOM     12  C   UNL     1      -4.909 -16.564  43.269  1.00  0.00    -0.028 CG0
ATOM     13  G   UNL     1      -5.781 -15.449  43.793  1.00  0.00     0.000 G0
ENDBRANCH   9  10
ENDBRANCH   8   9
ENDBRANCH   2   8
BRANCH   1  14
ATOM     14  C   UNL     1      -5.480 -12.444  42.318  1.00  0.00     0.192 C 
ATOM     15  C   UNL     1      -6.662 -13.221  42.823  1.00  0.00     0.096 C 
ATOM     16  O   UNL     1      -5.683 -12.694  43.694  1.00  0.00    -0.362 OA
ATOM     17  C   UNL     1      -7.987 -12.469  42.952  1.00  0.00     0.045 C 
BRANCH  15  18
ATOM     18  C   UNL     1      -6.703 -14.770  42.771  1.00  0.00     0.042 C 
BRANCH  18  19
ATOM     19  C   UNL     1      -5.797 -15.464  43.810  1.00  0.00     0.030 CG0
ATOM     20  G   UNL     1      -4.926 -16.576  43.278  1.00  0.00     0.000 G0
ENDBRANCH  18  19
ENDBRANCH  15  18
ENDBRANCH   1  14
TORSDOF 0
ENDMDL
MODEL 6
REMARK VINA RESULT:    -3.367      4.389      6.563
REMARK INTER + INTRA:          -4.644
REMARK INTER:                  -4.394
REMARK INTRA:                  -0.250
REMARK UNBOUND:                -0.096
REMARK SMILES C=C1C(=O)O[C@H]2[C@H]1CCC(C)=CCC[C@@]1(C)O[C@@H]21
REMARK SMILES IDX 6 1 7 2 2 3 1 4 3 5 4 6 5 7 8 8 9 9 10 10 11 11 12 12 18 14
REMARK SMILES IDX 15 15 17 16 16 17 14 18 13 19
REMARK H PARENT
REMARK Flexibility Score: 70.00
ROOT
ATOM      1  C   UNL     1      -3.309  -7.666  36.916  1.00  0.00     0.216 C 
ATOM      2  C   UNL     1      -3.324  -7.694  38.500  1.00  0.00     0.070 C 
ATOM      3  C   UNL     1      -1.931  -8.144  38.836  1.00  0.00     0.037 C 
ATOM      4  C   UNL     1      -1.378  -8.147  40.050  1.00  0.00     0.021 C 
ATOM      5  C   UNL     1      -1.291  -8.575  37.622  1.00  0.00     0.334 C 
ATOM      6  O   UNL     1      -0.153  -9.109  37.537  1.00  0.00    -0.247 OA
ATOM      7  O   UNL     1      -2.111  -8.349  36.542  1.00  0.00    -0.455 OA
ENDROOT
BRANCH   2   8
ATOM      8  C   UNL     1      -4.340  -8.688  39.141  1.00  0.00     0.017 C 
BRANCH   8   9
ATOM      9  C   UNL     1      -5.725  -8.155  39.577  1.00  0.00     0.031 C 
BRANCH   9  10
ATOM     10  C   UNL     1      -6.890  -8.387  38.616  1.00  0.00    -0.077 C 
ATOM     11  C   UNL     1      -7.814  -9.552  38.897  1.00  0.00     0.039 C 
ATOM     12  C   UNL     1      -7.093  -7.724  37.447  1.00  0.00    -0.028 CG0
ATOM     13  G   UNL     1      -6.540  -6.379  37.044  1.00  0.00     0.000 G0
ENDBRANCH   9  10
ENDBRANCH   8   9
ENDBRANCH   2   8
BRANCH   1  14
ATOM     14  C   UNL     1      -3.250  -6.255  36.261  1.00  0.00     0.192 C 
ATOM     15  C   UNL     1      -4.473  -5.624  35.660  1.00  0.00     0.096 C 
ATOM     16  O   UNL     1      -4.000  -5.272  36.944  1.00  0.00    -0.362 OA
ATOM     17  C   UNL     1      -4.250  -4.493  34.655  1.00  0.00     0.045 C 
BRANCH  15  18
ATOM     18  C   UNL     1      -5.846  -6.341  35.661  1.00  0.00     0.042 C 
BRANCH  18  19
ATOM     19  C   UNL     1      -6.544  -6.377  37.037  1.00  0.00     0.030 CG0
ATOM     20  G   UNL     1      -7.095  -7.718  37.456  1.00  0.00     0.000 G0
ENDBRANCH  18  19
ENDBRANCH  15  18
ENDBRANCH   1  14
TORSDOF 0
ENDMDL
MODEL 7
REMARK VINA RESULT:    -3.335      2.608      4.063
REMARK INTER + INTRA:          -4.600
REMARK INTER:                  -4.314
REMARK INTRA:                  -0.285
REMARK UNBOUND:                -0.096
REMARK SMILES C=C1C(=O)O[C@H]2[C@H]1CCC(C)=CCC[C@@]1(C)O[C@@H]21
REMARK SMILES IDX 6 1 7 2 2 3 1 4 3 5 4 6 5 7 8 8 9 9 10 10 11 11 12 12 18 14
REMARK SMILES IDX 15 15 17 16 16 17 14 18 13 19
REMARK H PARENT
REMARK Flexibility Score: 70.00
ROOT
ATOM      1  C   UNL     1      -3.044  -8.306  38.507  1.00  0.00     0.216 C 
ATOM      2  C   UNL     1      -4.564  -8.728  38.369  1.00  0.00     0.070 C 
ATOM      3  C   UNL     1      -5.108  -7.701  37.416  1.00  0.00     0.037 C 
ATOM      4  C   UNL     1      -6.305  -7.730  36.829  1.00  0.00     0.021 C 
ATOM      5  C   UNL     1      -4.115  -6.675  37.245  1.00  0.00     0.334 C 
ATOM      6  O   UNL     1      -4.263  -5.605  36.595  1.00  0.00    -0.247 OA
ATOM      7  O   UNL     1      -2.963  -7.006  37.919  1.00  0.00    -0.455 OA
ENDROOT
BRANCH   2   8
ATOM      8  C   UNL     1      -5.395  -8.679  39.687  1.00  0.00     0.017 C 
BRANCH   8   9
ATOM      9  C   UNL     1      -5.671 -10.001  40.440  1.00  0.00     0.031 C 
BRANCH   9  10
ATOM     10  C   UNL     1      -4.776 -10.314  41.638  1.00  0.00    -0.077 C 
ATOM     11  C   UNL     1      -5.343 -10.079  43.022  1.00  0.00     0.039 C 
ATOM     12  C   UNL     1      -3.462 -10.655  41.575  1.00  0.00    -0.028 CG0
ATOM     13  G   UNL     1      -2.715 -11.225  40.393  1.00  0.00     0.000 G0
ENDBRANCH   9  10
ENDBRANCH   8   9
ENDBRANCH   2   8
BRANCH   1  14
ATOM     14  C   UNL     1      -2.017  -9.206  37.761  1.00  0.00     0.192 C 
ATOM     15  C   UNL     1      -1.229 -10.257  38.488  1.00  0.00     0.096 C 
ATOM     16  O   UNL     1      -2.372 -10.573  37.720  1.00  0.00    -0.362 OA
ATOM     17  C   UNL     1       0.050 -10.758  37.817  1.00  0.00     0.045 C 
BRANCH  15  18
ATOM     18  C   UNL     1      -1.397 -10.495  40.010  1.00  0.00     0.042 C 
BRANCH  18  19
ATOM     19  C   UNL     1      -2.691 -11.242  40.397  1.00  0.00     0.030 CG0
ATOM     20  G   UNL     1      -3.459 -10.659  41.559  1.00  0.00     0.000 G0
ENDBRANCH  18  19
ENDBRANCH  15  18
ENDBRANCH   1  14
TORSDOF 0
ENDMDL
MODEL 8
REMARK VINA RESULT:    -3.324      6.970      9.024
REMARK INTER + INTRA:          -4.585
REMARK INTER:                  -4.316
REMARK INTRA:                  -0.269
REMARK UNBOUND:                -0.096
REMARK SMILES C=C1C(=O)O[C@H]2[C@H]1CCC(C)=CCC[C@@]1(C)O[C@@H]21
REMARK SMILES IDX 6 1 7 2 2 3 1 4 3 5 4 6 5 7 8 8 9 9 10 10 11 11 12 12 18 14
REMARK SMILES IDX 15 15 17 16 16 17 14 18 13 19
REMARK H PARENT
REMARK Flexibility Score: 70.00
ROOT
ATOM      1  C   UNL     1      -3.126  -7.850  34.423  1.00  0.00     0.216 C 
ATOM      2  C   UNL     1      -2.653  -7.055  35.708  1.00  0.00     0.070 C 
ATOM      3  C   UNL     1      -1.688  -8.010  36.351  1.00  0.00     0.037 C 
ATOM      4  C   UNL     1      -0.871  -7.735  37.369  1.00  0.00     0.021 C 
ATOM      5  C   UNL     1      -1.796  -9.278  35.682  1.00  0.00     0.334 C 
ATOM      6  O   UNL     1      -1.209 -10.342  36.018  1.00  0.00    -0.247 OA
ATOM      7  O   UNL     1      -2.663  -9.187  34.619  1.00  0.00    -0.455 OA
ENDROOT
BRANCH   2   8
ATOM      8  C   UNL     1      -3.777  -6.712  36.733  1.00  0.00     0.017 C 
BRANCH   8   9
ATOM      9  C   UNL     1      -4.386  -5.290  36.717  1.00  0.00     0.031 C 
BRANCH   9  10
ATOM     10  C   UNL     1      -5.719  -5.118  35.991  1.00  0.00    -0.077 C 
ATOM     11  C   UNL     1      -6.977  -5.057  36.831  1.00  0.00     0.039 C 
ATOM     12  C   UNL     1      -5.895  -5.152  34.644  1.00  0.00    -0.028 CG0
ATOM     13  G   UNL     1      -4.855  -4.921  33.574  1.00  0.00     0.000 G0
ENDBRANCH   9  10
ENDBRANCH   8   9
ENDBRANCH   2   8
BRANCH   1  14
ATOM     14  C   UNL     1      -2.539  -7.361  33.066  1.00  0.00     0.192 C 
ATOM     15  C   UNL     1      -3.339  -6.490  32.140  1.00  0.00     0.096 C 
ATOM     16  O   UNL     1      -2.343  -5.964  32.993  1.00  0.00    -0.362 OA
ATOM     17  C   UNL     1      -2.900  -6.443  30.676  1.00  0.00     0.045 C 
BRANCH  15  18
ATOM     18  C   UNL     1      -4.780  -6.038  32.486  1.00  0.00     0.042 C 
BRANCH  18  19
ATOM     19  C   UNL     1      -4.858  -4.930  33.557  1.00  0.00     0.030 CG0
ATOM     20  G   UNL     1      -5.888  -5.139  34.640  1.00  0.00     0.000 G0
ENDBRANCH  18  19
ENDBRANCH  15  18
ENDBRANCH   1  14
TORSDOF 0
ENDMDL
MODEL 9
REMARK VINA RESULT:    -3.298      5.380      8.106
REMARK INTER + INTRA:          -4.551
REMARK INTER:                  -4.292
REMARK INTRA:                  -0.259
REMARK UNBOUND:                -0.096
REMARK SMILES C=C1C(=O)O[C@H]2[C@H]1CCC(C)=CCC[C@@]1(C)O[C@@H]21
REMARK SMILES IDX 6 1 7 2 2 3 1 4 3 5 4 6 5 7 8 8 9 9 10 10 11 11 12 12 18 14
REMARK SMILES IDX 15 15 17 16 16 17 14 18 13 19
REMARK H PARENT
REMARK Flexibility Score: 70.00
ROOT
ATOM      1  C   UNL     1      -4.031  -7.093  36.322  1.00  0.00     0.216 C 
ATOM      2  C   UNL     1      -3.385  -6.121  35.251  1.00  0.00     0.070 C 
ATOM      3  C   UNL     1      -4.382  -4.999  35.179  1.00  0.00     0.037 C 
ATOM      4  C   UNL     1      -4.209  -3.833  34.555  1.00  0.00     0.021 C 
ATOM      5  C   UNL     1      -5.562  -5.398  35.898  1.00  0.00     0.334 C 
ATOM      6  O   UNL     1      -6.641  -4.749  35.964  1.00  0.00    -0.247 OA
ATOM      7  O   UNL     1      -5.368  -6.620  36.498  1.00  0.00    -0.455 OA
ENDROOT
BRANCH   2   8
ATOM      8  C   UNL     1      -3.204  -6.723  33.824  1.00  0.00     0.017 C 
BRANCH   8   9
ATOM      9  C   UNL     1      -1.826  -7.309  33.436  1.00  0.00     0.031 C 
BRANCH   9  10
ATOM     10  C   UNL     1      -1.669  -8.826  33.529  1.00  0.00    -0.077 C 
ATOM     11  C   UNL     1      -1.781  -9.626  32.250  1.00  0.00     0.039 C 
ATOM     12  C   UNL     1      -1.574  -9.540  34.682  1.00  0.00    -0.028 CG0
ATOM     13  G   UNL     1      -1.164  -9.038  36.044  1.00  0.00     0.000 G0
ENDBRANCH   9  10
ENDBRANCH   8   9
ENDBRANCH   2   8
BRANCH   1  14
ATOM     14  C   UNL     1      -3.363  -7.098  37.727  1.00  0.00     0.192 C 
ATOM     15  C   UNL     1      -2.442  -8.207  38.148  1.00  0.00     0.096 C 
ATOM     16  O   UNL     1      -1.958  -6.958  37.697  1.00  0.00    -0.362 OA
ATOM     17  C   UNL     1      -2.208  -8.386  39.649  1.00  0.00     0.045 C 
BRANCH  15  18
ATOM     18  C   UNL     1      -2.113  -9.396  37.210  1.00  0.00     0.042 C 
BRANCH  18  19
ATOM     19  C   UNL     1      -1.152  -9.046  36.054  1.00  0.00     0.030 CG0
ATOM     20  G   UNL     1      -1.572  -9.528  34.687  1.00  0.00     0.000 G0
ENDBRANCH  18  19
ENDBRANCH  15  18
ENDBRANCH   1  14
TORSDOF 0
ENDMDL
