MODEL 1
REMARK VINA RESULT:    -4.550      0.000      0.000
REMARK INTER + INTRA:          -7.260
REMARK INTER:                  -6.146
REMARK INTRA:                  -1.114
REMARK UNBOUND:                -1.114
REMARK SMILES CC(=O)CCC=C(C)CCC=C(C)C
REMARK SMILES IDX 7 1 6 2 8 3 9 4 10 5 11 6 13 7 12 8 14 9 5 10 4 11 2 12 3 13
REMARK SMILES IDX 1 14
REMARK H PARENT
REMARK Flexibility Score: inf
ROOT
ATOM      1  C   UNL     1      11.020 -12.541 -45.170  1.00  0.00    -0.077 C 
ATOM      2  C   UNL     1      10.156 -12.017 -46.069  1.00  0.00    -0.028 C 
ATOM      3  C   UNL     1      12.190 -13.339 -45.687  1.00  0.00     0.039 C 
ENDROOT
BRANCH   1   4
ATOM      4  C   UNL     1      10.878 -12.335 -43.672  1.00  0.00     0.034 C 
BRANCH   4   5
ATOM      5  C   UNL     1      11.704 -11.140 -43.175  1.00  0.00     0.032 C 
BRANCH   5   6
ATOM      6  C   UNL     1      10.825  -9.942 -42.899  1.00  0.00    -0.028 C 
ATOM      7  C   UNL     1       9.972  -7.637 -43.193  1.00  0.00     0.039 C 
ATOM      8  C   UNL     1      10.850  -8.790 -43.607  1.00  0.00    -0.080 C 
ATOM      9  C   UNL     1      11.751  -8.599 -44.802  1.00  0.00     0.039 C 
ENDBRANCH   5   6
ENDBRANCH   4   5
ENDBRANCH   1   4
BRANCH   2  10
ATOM     10  C   UNL     1       8.910 -11.243 -45.718  1.00  0.00     0.035 C 
BRANCH  10  11
ATOM     11  C   UNL     1       7.779 -11.563 -46.699  1.00  0.00     0.079 C 
BRANCH  11  12
ATOM     12  C   UNL     1       7.526 -13.047 -46.753  1.00  0.00     0.130 C 
ATOM     13  O   UNL     1       7.693 -13.648 -47.803  1.00  0.00    -0.300 OA
ATOM     14  C   UNL     1       7.080 -13.807 -45.539  1.00  0.00     0.087 C 
ENDBRANCH  11  12
ENDBRANCH  10  11
ENDBRANCH   2  10
TORSDOF 6
ENDMDL
MODEL 2
REMARK VINA RESULT:    -4.393      1.428      3.697
REMARK INTER + INTRA:          -7.049
REMARK INTER:                  -6.067
REMARK INTRA:                  -0.982
REMARK UNBOUND:                -1.114
REMARK SMILES CC(=O)CCC=C(C)CCC=C(C)C
REMARK SMILES IDX 7 1 6 2 8 3 9 4 10 5 11 6 13 7 12 8 14 9 5 10 4 11 2 12 3 13
REMARK SMILES IDX 1 14
REMARK H PARENT
REMARK Flexibility Score: inf
ROOT
ATOM      1  C   UNL     1      10.128  -9.023 -44.197  1.00  0.00    -0.077 C 
ATOM      2  C   UNL     1       9.058  -9.591 -44.798  1.00  0.00    -0.028 C 
ATOM      3  C   UNL     1       9.932  -7.708 -43.487  1.00  0.00     0.039 C 
ENDROOT
BRANCH   1   4
ATOM      4  C   UNL     1      11.505  -9.666 -44.182  1.00  0.00     0.034 C 
BRANCH   4   5
ATOM      5  C   UNL     1      11.679 -10.624 -42.995  1.00  0.00     0.032 C 
BRANCH   5   6
ATOM      6  C   UNL     1      12.198 -11.970 -43.447  1.00  0.00    -0.028 C 
ATOM      7  C   UNL     1      12.290 -14.440 -43.576  1.00  0.00     0.039 C 
ATOM      8  C   UNL     1      11.640 -13.158 -43.121  1.00  0.00    -0.080 C 
ATOM      9  C   UNL     1      10.387 -13.258 -42.288  1.00  0.00     0.039 C 
ENDBRANCH   5   6
ENDBRANCH   4   5
ENDBRANCH   1   4
BRANCH   2  10
ATOM     10  C   UNL     1       9.095 -10.872 -45.594  1.00  0.00     0.035 C 
BRANCH  10  11
ATOM     11  C   UNL     1       7.681 -11.301 -45.996  1.00  0.00     0.079 C 
BRANCH  11  12
ATOM     12  C   UNL     1       7.472 -12.767 -45.723  1.00  0.00     0.130 C 
ATOM     13  O   UNL     1       6.338 -13.216 -45.679  1.00  0.00    -0.300 OA
ATOM     14  C   UNL     1       8.633 -13.694 -45.511  1.00  0.00     0.087 C 
ENDBRANCH  11  12
ENDBRANCH  10  11
ENDBRANCH   2  10
TORSDOF 6
ENDMDL
MODEL 3
REMARK VINA RESULT:    -4.368      1.598      3.593
REMARK INTER + INTRA:          -7.015
REMARK INTER:                  -6.251
REMARK INTRA:                  -0.764
REMARK UNBOUND:                -1.114
REMARK SMILES CC(=O)CCC=C(C)CCC=C(C)C
REMARK SMILES IDX 7 1 6 2 8 3 9 4 10 5 11 6 13 7 12 8 14 9 5 10 4 11 2 12 3 13
REMARK SMILES IDX 1 14
REMARK H PARENT
REMARK Flexibility Score: inf
ROOT
ATOM      1  C   UNL     1      10.186  -9.162 -44.258  1.00  0.00    -0.077 C 
ATOM      2  C   UNL     1       9.099  -9.643 -44.904  1.00  0.00    -0.028 C 
ATOM      3  C   UNL     1      10.059  -7.849 -43.528  1.00  0.00     0.039 C 
ENDROOT
BRANCH   1   4
ATOM      4  C   UNL     1      11.513  -9.901 -44.212  1.00  0.00     0.034 C 
BRANCH   4   5
ATOM      5  C   UNL     1      11.602 -10.849 -43.008  1.00  0.00     0.032 C 
BRANCH   5   6
ATOM      6  C   UNL     1      11.927 -12.260 -43.442  1.00  0.00    -0.028 C 
ATOM      7  C   UNL     1      13.375 -14.147 -44.125  1.00  0.00     0.039 C 
ATOM      8  C   UNL     1      13.179 -12.740 -43.623  1.00  0.00    -0.080 C 
ATOM      9  C   UNL     1      14.407 -11.905 -43.358  1.00  0.00     0.039 C 
ENDBRANCH   5   6
ENDBRANCH   4   5
ENDBRANCH   1   4
BRANCH   2  10
ATOM     10  C   UNL     1       9.072 -10.909 -45.723  1.00  0.00     0.035 C 
BRANCH  10  11
ATOM     11  C   UNL     1       7.633 -11.386 -45.935  1.00  0.00     0.079 C 
BRANCH  11  12
ATOM     12  C   UNL     1       7.514 -12.859 -45.646  1.00  0.00     0.130 C 
ATOM     13  O   UNL     1       6.422 -13.401 -45.720  1.00  0.00    -0.300 OA
ATOM     14  C   UNL     1       8.713 -13.681 -45.274  1.00  0.00     0.087 C 
ENDBRANCH  11  12
ENDBRANCH  10  11
ENDBRANCH   2  10
TORSDOF 6
ENDMDL
MODEL 4
REMARK VINA RESULT:    -4.341      2.530      4.358
REMARK INTER + INTRA:          -6.978
REMARK INTER:                  -5.890
REMARK INTRA:                  -1.088
REMARK UNBOUND:                -1.114
REMARK SMILES CC(=O)CCC=C(C)CCC=C(C)C
REMARK SMILES IDX 7 1 6 2 8 3 9 4 10 5 11 6 13 7 12 8 14 9 5 10 4 11 2 12 3 13
REMARK SMILES IDX 1 14
REMARK H PARENT
REMARK Flexibility Score: inf
ROOT
ATOM      1  C   UNL     1      10.734 -12.432 -45.265  1.00  0.00    -0.077 C 
ATOM      2  C   UNL     1      11.361 -13.326 -46.065  1.00  0.00    -0.028 C 
ATOM      3  C   UNL     1       9.669 -11.556 -45.874  1.00  0.00     0.039 C 
ENDROOT
BRANCH   1   4
ATOM      4  C   UNL     1      11.034 -12.298 -43.782  1.00  0.00     0.034 C 
BRANCH   4   5
ATOM      5  C   UNL     1      11.843 -11.030 -43.472  1.00  0.00     0.032 C 
BRANCH   5   6
ATOM      6  C   UNL     1      10.947  -9.907 -43.003  1.00  0.00    -0.028 C 
ATOM      7  C   UNL     1       9.978  -7.630 -42.995  1.00  0.00     0.039 C 
ATOM      8  C   UNL     1      10.858  -8.695 -43.597  1.00  0.00    -0.080 C 
ATOM      9  C   UNL     1      11.632  -8.351 -44.845  1.00  0.00     0.039 C 
ENDBRANCH   5   6
ENDBRANCH   4   5
ENDBRANCH   1   4
BRANCH   2  10
ATOM     10  C   UNL     1      12.481 -14.235 -45.628  1.00  0.00     0.035 C 
BRANCH  10  11
ATOM     11  C   UNL     1      13.841 -13.635 -45.997  1.00  0.00     0.079 C 
BRANCH  11  12
ATOM     12  C   UNL     1      14.571 -13.175 -44.763  1.00  0.00     0.130 C 
ATOM     13  O   UNL     1      14.551 -13.869 -43.758  1.00  0.00    -0.300 OA
ATOM     14  C   UNL     1      15.332 -11.882 -44.742  1.00  0.00     0.087 C 
ENDBRANCH  11  12
ENDBRANCH  10  11
ENDBRANCH   2  10
TORSDOF 6
ENDMDL
MODEL 5
REMARK VINA RESULT:    -4.318      2.475      4.766
REMARK INTER + INTRA:          -6.946
REMARK INTER:                  -5.573
REMARK INTRA:                  -1.373
REMARK UNBOUND:                -1.114
REMARK SMILES CC(=O)CCC=C(C)CCC=C(C)C
REMARK SMILES IDX 7 1 6 2 8 3 9 4 10 5 11 6 13 7 12 8 14 9 5 10 4 11 2 12 3 13
REMARK SMILES IDX 1 14
REMARK H PARENT
REMARK Flexibility Score: inf
ROOT
ATOM      1  C   UNL     1      12.829 -12.657 -43.614  1.00  0.00    -0.077 C 
ATOM      2  C   UNL     1      12.438 -11.362 -43.635  1.00  0.00    -0.028 C 
ATOM      3  C   UNL     1      14.218 -12.990 -44.095  1.00  0.00     0.039 C 
ENDROOT
BRANCH   1   4
ATOM      4  C   UNL     1      11.943 -13.779 -43.101  1.00  0.00     0.034 C 
BRANCH   4   5
ATOM      5  C   UNL     1      11.305 -14.577 -44.247  1.00  0.00     0.032 C 
BRANCH   5   6
ATOM      6  C   UNL     1       9.902 -14.095 -44.538  1.00  0.00    -0.028 C 
ATOM      7  C   UNL     1       8.126 -12.898 -45.778  1.00  0.00     0.039 C 
ATOM      8  C   UNL     1       9.545 -13.383 -45.632  1.00  0.00    -0.080 C 
ATOM      9  C   UNL     1      10.529 -13.029 -46.718  1.00  0.00     0.039 C 
ENDBRANCH   5   6
ENDBRANCH   4   5
ENDBRANCH   1   4
BRANCH   2  10
ATOM     10  C   UNL     1      11.069 -10.868 -43.241  1.00  0.00     0.035 C 
BRANCH  10  11
ATOM     11  C   UNL     1      10.433 -10.067 -44.381  1.00  0.00     0.079 C 
BRANCH  11  12
ATOM     12  C   UNL     1      10.758  -8.603 -44.247  1.00  0.00     0.130 C 
ATOM     13  O   UNL     1      11.575  -8.096 -45.000  1.00  0.00    -0.300 OA
ATOM     14  C   UNL     1      10.092  -7.747 -43.210  1.00  0.00     0.087 C 
ENDBRANCH  11  12
ENDBRANCH  10  11
ENDBRANCH   2  10
TORSDOF 6
ENDMDL
MODEL 6
REMARK VINA RESULT:    -4.217     11.741     13.455
REMARK INTER + INTRA:          -6.811
REMARK INTER:                  -5.066
REMARK INTRA:                  -1.745
REMARK UNBOUND:                -1.114
REMARK SMILES CC(=O)CCC=C(C)CCC=C(C)C
REMARK SMILES IDX 7 1 6 2 8 3 9 4 10 5 11 6 13 7 12 8 14 9 5 10 4 11 2 12 3 13
REMARK SMILES IDX 1 14
REMARK H PARENT
REMARK Flexibility Score: inf
ROOT
ATOM      1  C   UNL     1       9.827 -23.454 -36.903  1.00  0.00    -0.077 C 
ATOM      2  C   UNL     1      10.342 -22.968 -38.056  1.00  0.00    -0.028 C 
ATOM      3  C   UNL     1       9.003 -24.715 -36.966  1.00  0.00     0.039 C 
ENDROOT
BRANCH   1   4
ATOM      4  C   UNL     1      10.069 -22.804 -35.551  1.00  0.00     0.034 C 
BRANCH   4   5
ATOM      5  C   UNL     1       8.759 -22.379 -34.874  1.00  0.00     0.032 C 
BRANCH   5   6
ATOM      6  C   UNL     1       8.319 -21.010 -35.341  1.00  0.00    -0.028 C 
ATOM      7  C   UNL     1       6.996 -19.374 -36.643  1.00  0.00     0.039 C 
ATOM      8  C   UNL     1       7.297 -20.781 -36.197  1.00  0.00    -0.080 C 
ATOM      9  C   UNL     1       6.446 -21.896 -36.752  1.00  0.00     0.039 C 
ENDBRANCH   5   6
ENDBRANCH   4   5
ENDBRANCH   1   4
BRANCH   2  10
ATOM     10  C   UNL     1      11.140 -21.695 -38.174  1.00  0.00     0.035 C 
BRANCH  10  11
ATOM     11  C   UNL     1      10.227 -20.512 -38.509  1.00  0.00     0.079 C 
BRANCH  11  12
ATOM     12  C   UNL     1      10.623 -19.294 -37.717  1.00  0.00     0.130 C 
ATOM     13  O   UNL     1      10.116 -18.215 -37.980  1.00  0.00    -0.300 OA
ATOM     14  C   UNL     1      11.625 -19.379 -36.604  1.00  0.00     0.087 C 
ENDBRANCH  11  12
ENDBRANCH  10  11
ENDBRANCH   2  10
TORSDOF 6
ENDMDL
MODEL 7
REMARK VINA RESULT:    -4.201      2.623      5.096
REMARK INTER + INTRA:          -6.789
REMARK INTER:                  -5.668
REMARK INTRA:                  -1.121
REMARK UNBOUND:                -1.114
REMARK SMILES CC(=O)CCC=C(C)CCC=C(C)C
REMARK SMILES IDX 7 1 6 2 8 3 9 4 10 5 11 6 13 7 12 8 14 9 5 10 4 11 2 12 3 13
REMARK SMILES IDX 1 14
REMARK H PARENT
REMARK Flexibility Score: inf
ROOT
ATOM      1  C   UNL     1       9.006 -11.504 -45.764  1.00  0.00    -0.077 C 
ATOM      2  C   UNL     1       9.223 -10.387 -45.033  1.00  0.00    -0.028 C 
ATOM      3  C   UNL     1       7.604 -12.052 -45.830  1.00  0.00     0.039 C 
ENDROOT
BRANCH   1   4
ATOM      4  C   UNL     1      10.106 -12.207 -46.542  1.00  0.00     0.034 C 
BRANCH   4   5
ATOM      5  C   UNL     1      10.699 -13.387 -45.760  1.00  0.00     0.032 C 
BRANCH   5   6
ATOM      6  C   UNL     1      12.080 -13.061 -45.238  1.00  0.00    -0.028 C 
ATOM      7  C   UNL     1      13.810 -12.607 -43.527  1.00  0.00     0.039 C 
ATOM      8  C   UNL     1      12.415 -13.011 -43.928  1.00  0.00    -0.080 C 
ATOM      9  C   UNL     1      11.428 -13.328 -42.832  1.00  0.00     0.039 C 
ENDBRANCH   5   6
ENDBRANCH   4   5
ENDBRANCH   1   4
BRANCH   2  10
ATOM     10  C   UNL     1      10.569  -9.743 -44.820  1.00  0.00     0.035 C 
BRANCH  10  11
ATOM     11  C   UNL     1      10.938  -9.737 -43.333  1.00  0.00     0.079 C 
BRANCH  11  12
ATOM     12  C   UNL     1      10.442  -8.481 -42.667  1.00  0.00     0.130 C 
ATOM     13  O   UNL     1      10.574  -8.348 -41.460  1.00  0.00    -0.300 OA
ATOM     14  C   UNL     1       9.793  -7.383 -43.457  1.00  0.00     0.087 C 
ENDBRANCH  11  12
ENDBRANCH  10  11
ENDBRANCH   2  10
TORSDOF 6
ENDMDL
MODEL 8
REMARK VINA RESULT:    -4.165      2.272      5.360
REMARK INTER + INTRA:          -6.740
REMARK INTER:                  -5.752
REMARK INTRA:                  -0.989
REMARK UNBOUND:                -1.114
REMARK SMILES CC(=O)CCC=C(C)CCC=C(C)C
REMARK SMILES IDX 7 1 6 2 8 3 9 4 10 5 11 6 13 7 12 8 14 9 5 10 4 11 2 12 3 13
REMARK SMILES IDX 1 14
REMARK H PARENT
REMARK Flexibility Score: inf
ROOT
ATOM      1  C   UNL     1      10.440  -9.523 -44.062  1.00  0.00    -0.077 C 
ATOM      2  C   UNL     1      11.073 -10.182 -43.064  1.00  0.00    -0.028 C 
ATOM      3  C   UNL     1      10.174  -8.050 -43.888  1.00  0.00     0.039 C 
ENDROOT
BRANCH   1   4
ATOM      4  C   UNL     1      10.016 -10.196 -45.356  1.00  0.00     0.034 C 
BRANCH   4   5
ATOM      5  C   UNL     1       8.507 -10.475 -45.392  1.00  0.00     0.032 C 
BRANCH   5   6
ATOM      6  C   UNL     1       8.154 -11.450 -46.492  1.00  0.00    -0.028 C 
ATOM      7  C   UNL     1       7.882 -13.668 -47.557  1.00  0.00     0.039 C 
ATOM      8  C   UNL     1       8.189 -12.797 -46.366  1.00  0.00    -0.080 C 
ATOM      9  C   UNL     1       8.551 -13.475 -45.068  1.00  0.00     0.039 C 
ENDBRANCH   5   6
ENDBRANCH   4   5
ENDBRANCH   1   4
BRANCH   2  10
ATOM     10  C   UNL     1      11.366 -11.661 -43.056  1.00  0.00     0.035 C 
BRANCH  10  11
ATOM     11  C   UNL     1      12.867 -11.917 -43.221  1.00  0.00     0.079 C 
BRANCH  11  12
ATOM     12  C   UNL     1      13.108 -13.106 -44.113  1.00  0.00     0.130 C 
ATOM     13  O   UNL     1      13.991 -13.901 -43.830  1.00  0.00    -0.300 OA
ATOM     14  C   UNL     1      12.281 -13.340 -45.343  1.00  0.00     0.087 C 
ENDBRANCH  11  12
ENDBRANCH  10  11
ENDBRANCH   2  10
TORSDOF 6
ENDMDL
MODEL 9
REMARK VINA RESULT:    -4.158      2.595      4.522
REMARK INTER + INTRA:          -6.731
REMARK INTER:                  -5.422
REMARK INTRA:                  -1.309
REMARK UNBOUND:                -1.114
REMARK SMILES CC(=O)CCC=C(C)CCC=C(C)C
REMARK SMILES IDX 7 1 6 2 8 3 9 4 10 5 11 6 13 7 12 8 14 9 5 10 4 11 2 12 3 13
REMARK SMILES IDX 1 14
REMARK H PARENT
REMARK Flexibility Score: inf
ROOT
ATOM      1  C   UNL     1      10.037 -13.006 -45.713  1.00  0.00    -0.077 C 
ATOM      2  C   UNL     1       9.995 -11.667 -45.898  1.00  0.00    -0.028 C 
ATOM      3  C   UNL     1      10.266 -13.886 -46.915  1.00  0.00     0.039 C 
ENDROOT
BRANCH   1   4
ATOM      4  C   UNL     1       9.893 -13.655 -44.346  1.00  0.00     0.034 C 
BRANCH   4   5
ATOM      5  C   UNL     1      11.200 -14.315 -43.883  1.00  0.00     0.032 C 
BRANCH   5   6
ATOM      6  C   UNL     1      12.185 -13.287 -43.375  1.00  0.00    -0.028 C 
ATOM      7  C   UNL     1      14.267 -11.949 -43.368  1.00  0.00     0.039 C 
ATOM      8  C   UNL     1      13.328 -12.939 -44.009  1.00  0.00    -0.080 C 
ATOM      9  C   UNL     1      13.722 -13.527 -45.341  1.00  0.00     0.039 C 
ENDBRANCH   5   6
ENDBRANCH   4   5
ENDBRANCH   1   4
BRANCH   2  10
ATOM     10  C   UNL     1       9.722 -10.654 -44.815  1.00  0.00     0.035 C 
BRANCH  10  11
ATOM     11  C   UNL     1      11.023  -9.992 -44.351  1.00  0.00     0.079 C 
BRANCH  11  12
ATOM     12  C   UNL     1      10.891  -8.492 -44.367  1.00  0.00     0.130 C 
ATOM     13  O   UNL     1      11.621  -7.831 -45.089  1.00  0.00    -0.300 OA
ATOM     14  C   UNL     1       9.874  -7.789 -43.517  1.00  0.00     0.087 C 
ENDBRANCH  11  12
ENDBRANCH  10  11
ENDBRANCH   2  10
TORSDOF 6
ENDMDL
