MODEL 1
REMARK VINA RESULT:    -3.300      0.000      0.000
REMARK INTER + INTRA:          -5.160
REMARK INTER:                  -4.458
REMARK INTRA:                  -0.702
REMARK UNBOUND:                -0.702
REMARK SMILES C[C@@H](O)[C@@H](O)[C@@H](O)[C@@H](O)C=O
REMARK SMILES IDX 4 1 2 2 1 3 3 4 6 6 8 7 10 8 11 9 9 10 7 12 5 14
REMARK H PARENT 3 5 9 11 7 13 5 15
REMARK Flexibility Score: inf
ROOT
ATOM      1  C   UNL     1      57.529  17.889  50.774  1.00  0.00     0.174 C 
ENDROOT
BRANCH   1   2
ATOM      2  C   UNL     1      58.171  17.680  49.376  1.00  0.00     0.142 C 
ATOM      3  C   UNL     1      59.478  16.877  49.464  1.00  0.00     0.041 C 
BRANCH   2   4
ATOM      4  O   UNL     1      57.279  17.048  48.493  1.00  0.00    -0.391 OA
ATOM      5  H   UNL     1      57.772  16.867  47.649  1.00  0.00     0.211 HD
ENDBRANCH   2   4
ENDBRANCH   1   2
BRANCH   1   6
ATOM      6  C   UNL     1      56.316  18.884  50.783  1.00  0.00     0.181 C 
BRANCH   6   7
ATOM      7  C   UNL     1      56.032  19.481  52.184  1.00  0.00     0.209 C 
BRANCH   7   8
ATOM      8  C   UNL     1      54.561  19.670  52.451  1.00  0.00     0.258 C 
ATOM      9  O   UNL     1      53.884  20.368  51.714  1.00  0.00    -0.300 OA
ENDBRANCH   7   8
BRANCH   7  10
ATOM     10  O   UNL     1      56.706  20.705  52.345  1.00  0.00    -0.383 OA
ATOM     11  H   UNL     1      57.121  20.709  53.247  1.00  0.00     0.211 HD
ENDBRANCH   7  10
ENDBRANCH   6   7
BRANCH   6  12
ATOM     12  O   UNL     1      55.149  18.298  50.261  1.00  0.00    -0.387 OA
ATOM     13  H   UNL     1      55.155  18.468  49.283  1.00  0.00     0.211 HD
ENDBRANCH   6  12
ENDBRANCH   1   6
BRANCH   1  14
ATOM     14  O   UNL     1      58.518  18.369  51.650  1.00  0.00    -0.388 OA
ATOM     15  H   UNL     1      59.312  18.591  51.097  1.00  0.00     0.211 HD
ENDBRANCH   1  14
TORSDOF 8
ENDMDL
MODEL 2
REMARK VINA RESULT:    -3.209     21.377     22.516
REMARK INTER + INTRA:          -5.037
REMARK INTER:                  -4.318
REMARK INTRA:                  -0.719
REMARK UNBOUND:                -0.702
REMARK SMILES C[C@@H](O)[C@@H](O)[C@@H](O)[C@@H](O)C=O
REMARK SMILES IDX 4 1 2 2 1 3 3 4 6 6 8 7 10 8 11 9 9 10 7 12 5 14
REMARK H PARENT 3 5 9 11 7 13 5 15
REMARK Flexibility Score: inf
ROOT
ATOM      1  C   UNL     1      72.184  31.664  60.107  1.00  0.00     0.174 C 
ENDROOT
BRANCH   1   2
ATOM      2  C   UNL     1      72.343  31.014  61.508  1.00  0.00     0.142 C 
ATOM      3  C   UNL     1      73.059  29.657  61.428  1.00  0.00     0.041 C 
BRANCH   2   4
ATOM      4  O   UNL     1      73.028  31.866  62.392  1.00  0.00    -0.391 OA
ATOM      5  H   UNL     1      73.867  31.407  62.660  1.00  0.00     0.211 HD
ENDBRANCH   2   4
ENDBRANCH   1   2
BRANCH   1   6
ATOM      6  C   UNL     1      71.327  32.978  60.100  1.00  0.00     0.181 C 
BRANCH   6   7
ATOM      7  C   UNL     1      70.788  33.342  58.694  1.00  0.00     0.209 C 
BRANCH   7   8
ATOM      8  C   UNL     1      70.760  34.828  58.447  1.00  0.00     0.258 C 
ATOM      9  O   UNL     1      70.022  35.549  59.099  1.00  0.00    -0.300 OA
ENDBRANCH   7   8
BRANCH   7  10
ATOM     10  O   UNL     1      69.504  32.804  58.502  1.00  0.00    -0.383 OA
ATOM     11  H   UNL     1      69.104  33.243  57.706  1.00  0.00     0.211 HD
ENDBRANCH   7  10
ENDBRANCH   6   7
BRANCH   6  12
ATOM     12  O   UNL     1      72.027  34.067  60.649  1.00  0.00    -0.387 OA
ATOM     13  H   UNL     1      71.668  34.886  60.217  1.00  0.00     0.211 HD
ENDBRANCH   6  12
ENDBRANCH   1   6
BRANCH   1  14
ATOM     14  O   UNL     1      71.587  30.726  59.247  1.00  0.00    -0.388 OA
ATOM     15  H   UNL     1      72.319  30.171  58.869  1.00  0.00     0.211 HD
ENDBRANCH   1  14
TORSDOF 8
ENDMDL
MODEL 3
REMARK VINA RESULT:    -3.155     21.578     22.951
REMARK INTER + INTRA:          -4.964
REMARK INTER:                  -4.139
REMARK INTRA:                  -0.824
REMARK UNBOUND:                -0.702
REMARK SMILES C[C@@H](O)[C@@H](O)[C@@H](O)[C@@H](O)C=O
REMARK SMILES IDX 4 1 2 2 1 3 3 4 6 6 8 7 10 8 11 9 9 10 7 12 5 14
REMARK H PARENT 3 5 9 11 7 13 5 15
REMARK Flexibility Score: inf
ROOT
ATOM      1  C   UNL     1      70.194  35.835  58.055  1.00  0.00     0.174 C 
ENDROOT
BRANCH   1   2
ATOM      2  C   UNL     1      68.693  36.230  58.033  1.00  0.00     0.142 C 
ATOM      3  C   UNL     1      67.837  35.176  57.314  1.00  0.00     0.041 C 
BRANCH   2   4
ATOM      4  O   UNL     1      68.200  36.443  59.332  1.00  0.00    -0.391 OA
ATOM      5  H   UNL     1      68.474  35.664  59.886  1.00  0.00     0.211 HD
ENDBRANCH   2   4
ENDBRANCH   1   2
BRANCH   1   6
ATOM      6  C   UNL     1      70.486  34.453  58.737  1.00  0.00     0.181 C 
BRANCH   6   7
ATOM      7  C   UNL     1      71.158  34.594  60.127  1.00  0.00     0.209 C 
BRANCH   7   8
ATOM      8  C   UNL     1      71.653  33.279  60.671  1.00  0.00     0.258 C 
ATOM      9  O   UNL     1      71.040  32.247  60.447  1.00  0.00    -0.300 OA
ENDBRANCH   7   8
BRANCH   7  10
ATOM     10  O   UNL     1      70.272  35.185  61.045  1.00  0.00    -0.383 OA
ATOM     11  H   UNL     1      69.347  34.953  60.770  1.00  0.00     0.211 HD
ENDBRANCH   7  10
ENDBRANCH   6   7
BRANCH   6  12
ATOM     12  O   UNL     1      71.251  33.609  57.912  1.00  0.00    -0.387 OA
ATOM     13  H   UNL     1      72.183  33.643  58.252  1.00  0.00     0.211 HD
ENDBRANCH   6  12
ENDBRANCH   1   6
BRANCH   1  14
ATOM     14  O   UNL     1      70.907  36.839  58.734  1.00  0.00    -0.388 OA
ATOM     15  H   UNL     1      70.270  37.275  59.358  1.00  0.00     0.211 HD
ENDBRANCH   1  14
TORSDOF 8
ENDMDL
MODEL 4
REMARK VINA RESULT:    -3.138     21.624     22.700
REMARK INTER + INTRA:          -4.940
REMARK INTER:                  -4.430
REMARK INTRA:                  -0.510
REMARK UNBOUND:                -0.702
REMARK SMILES C[C@@H](O)[C@@H](O)[C@@H](O)[C@@H](O)C=O
REMARK SMILES IDX 4 1 2 2 1 3 3 4 6 6 8 7 10 8 11 9 9 10 7 12 5 14
REMARK H PARENT 3 5 9 11 7 13 5 15
REMARK Flexibility Score: inf
ROOT
ATOM      1  C   UNL     1      71.225  33.175  60.431  1.00  0.00     0.174 C 
ENDROOT
BRANCH   1   2
ATOM      2  C   UNL     1      71.490  31.668  60.696  1.00  0.00     0.142 C 
ATOM      3  C   UNL     1      72.990  31.340  60.667  1.00  0.00     0.041 C 
BRANCH   2   4
ATOM      4  O   UNL     1      70.933  31.259  61.920  1.00  0.00    -0.391 OA
ATOM      5  H   UNL     1      69.977  31.527  61.918  1.00  0.00     0.211 HD
ENDBRANCH   2   4
ENDBRANCH   1   2
BRANCH   1   6
ATOM      6  C   UNL     1      71.094  33.548  58.913  1.00  0.00     0.181 C 
BRANCH   6   7
ATOM      7  C   UNL     1      70.400  34.915  58.683  1.00  0.00     0.209 C 
BRANCH   7   8
ATOM      8  C   UNL     1      70.727  35.517  57.342  1.00  0.00     0.258 C 
ATOM      9  O   UNL     1      71.494  34.949  56.580  1.00  0.00    -0.300 OA
ENDBRANCH   7   8
BRANCH   7  10
ATOM     10  O   UNL     1      70.739  35.818  59.706  1.00  0.00    -0.383 OA
ATOM     11  H   UNL     1      71.651  35.591  60.025  1.00  0.00     0.211 HD
ENDBRANCH   7  10
ENDBRANCH   6   7
BRANCH   6  12
ATOM     12  O   UNL     1      70.442  32.543  58.177  1.00  0.00    -0.387 OA
ATOM     13  H   UNL     1      69.544  32.426  58.584  1.00  0.00     0.211 HD
ENDBRANCH   6  12
ENDBRANCH   1   6
BRANCH   1  14
ATOM     14  O   UNL     1      72.278  33.916  60.994  1.00  0.00    -0.388 OA
ATOM     15  H   UNL     1      72.034  34.095  61.940  1.00  0.00     0.211 HD
ENDBRANCH   1  14
TORSDOF 8
ENDMDL
MODEL 5
REMARK VINA RESULT:    -3.127      1.408      2.553
REMARK INTER + INTRA:          -4.926
REMARK INTER:                  -4.402
REMARK INTRA:                  -0.523
REMARK UNBOUND:                -0.702
REMARK SMILES C[C@@H](O)[C@@H](O)[C@@H](O)[C@@H](O)C=O
REMARK SMILES IDX 4 1 2 2 1 3 3 4 6 6 8 7 10 8 11 9 9 10 7 12 5 14
REMARK H PARENT 3 5 9 11 7 13 5 15
REMARK Flexibility Score: inf
ROOT
ATOM      1  C   UNL     1      56.024  19.150  50.633  1.00  0.00     0.174 C 
ENDROOT
BRANCH   1   2
ATOM      2  C   UNL     1      57.506  18.776  50.360  1.00  0.00     0.142 C 
ATOM      3  C   UNL     1      57.745  17.264  50.491  1.00  0.00     0.041 C 
BRANCH   2   4
ATOM      4  O   UNL     1      57.921  19.219  49.092  1.00  0.00    -0.391 OA
ATOM      5  H   UNL     1      57.171  19.737  48.697  1.00  0.00     0.211 HD
ENDBRANCH   2   4
ENDBRANCH   1   2
BRANCH   1   6
ATOM      6  C   UNL     1      55.648  19.226  52.154  1.00  0.00     0.181 C 
BRANCH   6   7
ATOM      7  C   UNL     1      54.380  20.075  52.422  1.00  0.00     0.209 C 
BRANCH   7   8
ATOM      8  C   UNL     1      53.775  19.807  53.776  1.00  0.00     0.258 C 
ATOM      9  O   UNL     1      54.184  18.887  54.465  1.00  0.00    -0.300 OA
ENDBRANCH   7   8
BRANCH   7  10
ATOM     10  O   UNL     1      53.419  19.857  51.420  1.00  0.00    -0.383 OA
ATOM     11  H   UNL     1      53.818  19.255  50.739  1.00  0.00     0.211 HD
ENDBRANCH   7  10
ENDBRANCH   6   7
BRANCH   6  12
ATOM     12  O   UNL     1      56.718  19.691  52.939  1.00  0.00    -0.387 OA
ATOM     13  H   UNL     1      57.454  19.032  52.840  1.00  0.00     0.211 HD
ENDBRANCH   6  12
ENDBRANCH   1   6
BRANCH   1  14
ATOM     14  O   UNL     1      55.203  18.195  50.008  1.00  0.00    -0.388 OA
ATOM     15  H   UNL     1      55.783  17.671  49.394  1.00  0.00     0.211 HD
ENDBRANCH   1  14
TORSDOF 8
ENDMDL
MODEL 6
REMARK VINA RESULT:    -3.126     13.620     14.909
REMARK INTER + INTRA:          -4.924
REMARK INTER:                  -4.167
REMARK INTRA:                  -0.758
REMARK UNBOUND:                -0.702
REMARK SMILES C[C@@H](O)[C@@H](O)[C@@H](O)[C@@H](O)C=O
REMARK SMILES IDX 4 1 2 2 1 3 3 4 6 6 8 7 10 8 11 9 9 10 7 12 5 14
REMARK H PARENT 3 5 9 11 7 13 5 15
REMARK Flexibility Score: inf
ROOT
ATOM      1  C   UNL     1      54.407  25.968  63.830  1.00  0.00     0.174 C 
ENDROOT
BRANCH   1   2
ATOM      2  C   UNL     1      54.823  24.730  64.670  1.00  0.00     0.142 C 
ATOM      3  C   UNL     1      53.958  23.504  64.344  1.00  0.00     0.041 C 
BRANCH   2   4
ATOM      4  O   UNL     1      56.182  24.421  64.486  1.00  0.00    -0.391 OA
ATOM      5  H   UNL     1      56.482  23.907  65.282  1.00  0.00     0.211 HD
ENDBRANCH   2   4
ENDBRANCH   1   2
BRANCH   1   6
ATOM      6  C   UNL     1      55.497  26.449  62.810  1.00  0.00     0.181 C 
BRANCH   6   7
ATOM      7  C   UNL     1      55.211  27.861  62.239  1.00  0.00     0.209 C 
BRANCH   7   8
ATOM      8  C   UNL     1      55.783  28.061  60.860  1.00  0.00     0.258 C 
ATOM      9  O   UNL     1      56.986  27.971  60.671  1.00  0.00    -0.300 OA
ENDBRANCH   7   8
BRANCH   7  10
ATOM     10  O   UNL     1      55.703  28.853  63.106  1.00  0.00    -0.383 OA
ATOM     11  H   UNL     1      54.959  29.479  63.308  1.00  0.00     0.211 HD
ENDBRANCH   7  10
ENDBRANCH   6   7
BRANCH   6  12
ATOM     12  O   UNL     1      55.680  25.531  61.761  1.00  0.00    -0.387 OA
ATOM     13  H   UNL     1      55.224  24.691  62.031  1.00  0.00     0.211 HD
ENDBRANCH   6  12
ENDBRANCH   1   6
BRANCH   1  14
ATOM     14  O   UNL     1      54.110  27.022  64.711  1.00  0.00    -0.388 OA
ATOM     15  H   UNL     1      54.353  26.715  65.624  1.00  0.00     0.211 HD
ENDBRANCH   1  14
TORSDOF 8
ENDMDL
MODEL 7
REMARK VINA RESULT:    -3.113     21.977     23.271
REMARK INTER + INTRA:          -4.907
REMARK INTER:                  -4.513
REMARK INTRA:                  -0.394
REMARK UNBOUND:                -0.702
REMARK SMILES C[C@@H](O)[C@@H](O)[C@@H](O)[C@@H](O)C=O
REMARK SMILES IDX 4 1 2 2 1 3 3 4 6 6 8 7 10 8 11 9 9 10 7 12 5 14
REMARK H PARENT 3 5 9 11 7 13 5 15
REMARK Flexibility Score: inf
ROOT
ATOM      1  C   UNL     1      70.951  33.721  58.938  1.00  0.00     0.174 C 
ENDROOT
BRANCH   1   2
ATOM      2  C   UNL     1      71.328  33.435  60.417  1.00  0.00     0.142 C 
ATOM      3  C   UNL     1      72.106  32.118  60.562  1.00  0.00     0.041 C 
BRANCH   2   4
ATOM      4  O   UNL     1      72.071  34.493  60.969  1.00  0.00    -0.391 OA
ATOM      5  H   UNL     1      71.429  35.115  61.402  1.00  0.00     0.211 HD
ENDBRANCH   2   4
ENDBRANCH   1   2
BRANCH   1   6
ATOM      6  C   UNL     1      70.061  34.996  58.736  1.00  0.00     0.181 C 
BRANCH   6   7
ATOM      7  C   UNL     1      70.679  36.015  57.746  1.00  0.00     0.209 C 
BRANCH   7   8
ATOM      8  C   UNL     1      71.708  35.395  56.837  1.00  0.00     0.258 C 
ATOM      9  O   UNL     1      72.622  36.068  56.388  1.00  0.00    -0.300 OA
ENDBRANCH   7   8
BRANCH   7  10
ATOM     10  O   UNL     1      71.248  37.096  58.442  1.00  0.00    -0.383 OA
ATOM     11  H   UNL     1      72.054  37.392  57.941  1.00  0.00     0.211 HD
ENDBRANCH   7  10
ENDBRANCH   6   7
BRANCH   6  12
ATOM     12  O   UNL     1      69.759  35.628  59.956  1.00  0.00    -0.387 OA
ATOM     13  H   UNL     1      70.209  36.513  59.941  1.00  0.00     0.211 HD
ENDBRANCH   6  12
ENDBRANCH   1   6
BRANCH   1  14
ATOM     14  O   UNL     1      70.267  32.603  58.431  1.00  0.00    -0.388 OA
ATOM     15  H   UNL     1      69.847  32.883  57.576  1.00  0.00     0.211 HD
ENDBRANCH   1  14
TORSDOF 8
ENDMDL
MODEL 8
REMARK VINA RESULT:    -3.064      1.269      4.231
REMARK INTER + INTRA:          -4.842
REMARK INTER:                  -4.145
REMARK INTRA:                  -0.696
REMARK UNBOUND:                -0.702
REMARK SMILES C[C@@H](O)[C@@H](O)[C@@H](O)[C@@H](O)C=O
REMARK SMILES IDX 4 1 2 2 1 3 3 4 6 6 8 7 10 8 11 9 9 10 7 12 5 14
REMARK H PARENT 3 5 9 11 7 13 5 15
REMARK Flexibility Score: inf
ROOT
ATOM      1  C   UNL     1      57.151  18.977  50.640  1.00  0.00     0.174 C 
ENDROOT
BRANCH   1   2
ATOM      2  C   UNL     1      55.714  18.717  51.165  1.00  0.00     0.142 C 
ATOM      3  C   UNL     1      55.257  19.811  52.142  1.00  0.00     0.041 C 
BRANCH   2   4
ATOM      4  O   UNL     1      54.795  18.606  50.107  1.00  0.00    -0.391 OA
ATOM      5  H   UNL     1      55.148  19.140  49.347  1.00  0.00     0.211 HD
ENDBRANCH   2   4
ENDBRANCH   1   2
BRANCH   1   6
ATOM      6  C   UNL     1      57.832  17.727  49.981  1.00  0.00     0.181 C 
BRANCH   6   7
ATOM      7  C   UNL     1      59.312  17.976  49.597  1.00  0.00     0.209 C 
BRANCH   7   8
ATOM      8  C   UNL     1      60.279  17.317  50.546  1.00  0.00     0.258 C 
ATOM      9  O   UNL     1      60.250  17.578  51.738  1.00  0.00    -0.300 OA
ENDBRANCH   7   8
BRANCH   7  10
ATOM     10  O   UNL     1      59.579  19.354  49.526  1.00  0.00    -0.383 OA
ATOM     11  H   UNL     1      60.099  19.607  50.334  1.00  0.00     0.211 HD
ENDBRANCH   7  10
ENDBRANCH   6   7
BRANCH   6  12
ATOM     12  O   UNL     1      57.113  17.263  48.864  1.00  0.00    -0.387 OA
ATOM     13  H   UNL     1      56.164  17.186  49.145  1.00  0.00     0.211 HD
ENDBRANCH   6  12
ENDBRANCH   1   6
BRANCH   1  14
ATOM     14  O   UNL     1      57.944  19.413  51.716  1.00  0.00    -0.388 OA
ATOM     15  H   UNL     1      57.332  19.828  52.379  1.00  0.00     0.211 HD
ENDBRANCH   1  14
TORSDOF 8
ENDMDL
MODEL 9
REMARK VINA RESULT:    -3.027      9.346     10.604
REMARK INTER + INTRA:          -4.791
REMARK INTER:                  -3.943
REMARK INTRA:                  -0.848
REMARK UNBOUND:                -0.702
REMARK SMILES C[C@@H](O)[C@@H](O)[C@@H](O)[C@@H](O)C=O
REMARK SMILES IDX 4 1 2 2 1 3 3 4 6 6 8 7 10 8 11 9 9 10 7 12 5 14
REMARK H PARENT 3 5 9 11 7 13 5 15
REMARK Flexibility Score: inf
ROOT
ATOM      1  C   UNL     1      59.141  27.092  49.774  1.00  0.00     0.174 C 
ENDROOT
BRANCH   1   2
ATOM      2  C   UNL     1      57.685  27.463  50.164  1.00  0.00     0.142 C 
ATOM      3  C   UNL     1      56.862  26.222  50.538  1.00  0.00     0.041 C 
BRANCH   2   4
ATOM      4  O   UNL     1      57.660  28.391  51.221  1.00  0.00    -0.391 OA
ATOM      5  H   UNL     1      58.400  29.036  51.070  1.00  0.00     0.211 HD
ENDBRANCH   2   4
ENDBRANCH   1   2
BRANCH   1   6
ATOM      6  C   UNL     1      59.912  28.225  49.011  1.00  0.00     0.181 C 
BRANCH   6   7
ATOM      7  C   UNL     1      61.156  28.736  49.780  1.00  0.00     0.209 C 
BRANCH   7   8
ATOM      8  C   UNL     1      60.924  30.065  50.450  1.00  0.00     0.258 C 
ATOM      9  O   UNL     1      60.014  30.202  51.252  1.00  0.00    -0.300 OA
ENDBRANCH   7   8
BRANCH   7  10
ATOM     10  O   UNL     1      62.266  28.824  48.921  1.00  0.00    -0.383 OA
ATOM     11  H   UNL     1      62.097  28.232  48.142  1.00  0.00     0.211 HD
ENDBRANCH   7  10
ENDBRANCH   6   7
BRANCH   6  12
ATOM     12  O   UNL     1      59.072  29.303  48.679  1.00  0.00    -0.387 OA
ATOM     13  H   UNL     1      58.497  28.999  47.929  1.00  0.00     0.211 HD
ENDBRANCH   6  12
ENDBRANCH   1   6
BRANCH   1  14
ATOM     14  O   UNL     1      59.105  25.942  48.966  1.00  0.00    -0.388 OA
ATOM     15  H   UNL     1      58.226  25.941  48.504  1.00  0.00     0.211 HD
ENDBRANCH   1  14
TORSDOF 8
ENDMDL
