MODEL 1
REMARK VINA RESULT:    -3.586      0.000      0.000
REMARK INTER + INTRA:          -5.461
REMARK INTER:                  -5.053
REMARK INTRA:                  -0.408
REMARK UNBOUND:                -0.408
REMARK SMILES CCCCCCCCC(=O)[O-]
REMARK SMILES IDX 6 1 7 2 8 3 9 4 10 5 11 6 5 7 4 8 3 9 2 10 1 11
REMARK H PARENT
REMARK Flexibility Score: inf
ROOT
ATOM      1  C   UNL     1     120.925 109.633 108.213  1.00  0.00     0.000 C 
ENDROOT
BRANCH   1   2
ATOM      2  C   UNL     1     121.054 109.007 106.819  1.00  0.00     0.006 C 
BRANCH   2   3
ATOM      3  C   UNL     1     119.832 108.148 106.487  1.00  0.00     0.053 C 
BRANCH   3   4
ATOM      4  C   UNL     1     120.238 106.943 105.697  1.00  0.00     0.041 C 
ATOM      5  O   UNL     1     120.586 105.887 106.286  1.00  0.00    -0.550 OA
ATOM      6  O   UNL     1     120.279 107.003 104.309  1.00  0.00    -0.550 OA
ENDBRANCH   3   4
ENDBRANCH   2   3
ENDBRANCH   1   2
BRANCH   1   7
ATOM      7  C   UNL     1     120.323 111.041 108.131  1.00  0.00     0.000 C 
BRANCH   7   8
ATOM      8  C   UNL     1     119.462 111.344 109.364  1.00  0.00    -0.000 C 
BRANCH   8   9
ATOM      9  C   UNL     1     119.250 110.081 110.211  1.00  0.00    -0.000 C 
BRANCH   9  10
ATOM     10  C   UNL     1     119.187 110.382 111.716  1.00  0.00    -0.003 C 
ATOM     11  C   UNL     1     120.491 110.050 112.442  1.00  0.00     0.004 C 
ENDBRANCH   9  10
ENDBRANCH   8   9
ENDBRANCH   7   8
ENDBRANCH   1   7
TORSDOF 7
ENDMDL
MODEL 2
REMARK VINA RESULT:    -3.577      3.680      6.174
REMARK INTER + INTRA:          -5.449
REMARK INTER:                  -5.229
REMARK INTRA:                  -0.220
REMARK UNBOUND:                -0.408
REMARK SMILES CCCCCCCCC(=O)[O-]
REMARK SMILES IDX 6 1 7 2 8 3 9 4 10 5 11 6 5 7 4 8 3 9 2 10 1 11
REMARK H PARENT
REMARK Flexibility Score: inf
ROOT
ATOM      1  C   UNL     1     120.104 109.646 109.195  1.00  0.00     0.000 C 
ENDROOT
BRANCH   1   2
ATOM      2  C   UNL     1     119.373 110.744 109.977  1.00  0.00     0.006 C 
BRANCH   2   3
ATOM      3  C   UNL     1     119.024 110.272 111.391  1.00  0.00     0.053 C 
BRANCH   3   4
ATOM      4  C   UNL     1     120.061 110.730 112.368  1.00  0.00     0.041 C 
ATOM      5  O   UNL     1     120.819 109.895 112.925  1.00  0.00    -0.550 OA
ATOM      6  O   UNL     1     120.155 112.076 112.701  1.00  0.00    -0.550 OA
ENDBRANCH   3   4
ENDBRANCH   2   3
ENDBRANCH   1   2
BRANCH   1   7
ATOM      7  C   UNL     1     120.127 109.960 107.695  1.00  0.00     0.000 C 
BRANCH   7   8
ATOM      8  C   UNL     1     120.491 108.715 106.877  1.00  0.00    -0.000 C 
BRANCH   8   9
ATOM      9  C   UNL     1     119.232 107.927 106.486  1.00  0.00    -0.000 C 
BRANCH   9  10
ATOM     10  C   UNL     1     119.556 106.648 105.698  1.00  0.00    -0.003 C 
ATOM     11  C   UNL     1     120.468 106.907 104.499  1.00  0.00     0.004 C 
ENDBRANCH   9  10
ENDBRANCH   8   9
ENDBRANCH   7   8
ENDBRANCH   1   7
TORSDOF 7
ENDMDL
MODEL 3
REMARK VINA RESULT:    -3.505      1.407      2.041
REMARK INTER + INTRA:          -5.347
REMARK INTER:                  -4.930
REMARK INTRA:                  -0.418
REMARK UNBOUND:                -0.408
REMARK SMILES CCCCCCCCC(=O)[O-]
REMARK SMILES IDX 6 1 7 2 8 3 9 4 10 5 11 6 5 7 4 8 3 9 2 10 1 11
REMARK H PARENT
REMARK Flexibility Score: inf
ROOT
ATOM      1  C   UNL     1     120.952 109.285 109.871  1.00  0.00     0.000 C 
ENDROOT
BRANCH   1   2
ATOM      2  C   UNL     1     121.479 109.218 108.433  1.00  0.00     0.006 C 
BRANCH   2   3
ATOM      3  C   UNL     1     120.330 109.267 107.423  1.00  0.00     0.053 C 
BRANCH   3   4
ATOM      4  C   UNL     1     120.439 108.135 106.449  1.00  0.00     0.041 C 
ATOM      5  O   UNL     1     121.559 107.814 105.973  1.00  0.00    -0.550 OA
ATOM      6  O   UNL     1     119.295 107.467 106.029  1.00  0.00    -0.550 OA
ENDBRANCH   3   4
ENDBRANCH   2   3
ENDBRANCH   1   2
BRANCH   1   7
ATOM      7  C   UNL     1     119.546 109.894 109.914  1.00  0.00     0.000 C 
BRANCH   7   8
ATOM      8  C   UNL     1     119.148 110.260 111.350  1.00  0.00    -0.000 C 
BRANCH   8   9
ATOM      9  C   UNL     1     120.275 109.920 112.336  1.00  0.00    -0.000 C 
BRANCH   9  10
ATOM     10  C   UNL     1     120.642 111.103 113.245  1.00  0.00    -0.003 C 
ATOM     11  C   UNL     1     120.100 112.436 112.728  1.00  0.00     0.004 C 
ENDBRANCH   9  10
ENDBRANCH   8   9
ENDBRANCH   7   8
ENDBRANCH   1   7
TORSDOF 7
ENDMDL
MODEL 4
REMARK VINA RESULT:    -3.430      3.027      5.380
REMARK INTER + INTRA:          -5.241
REMARK INTER:                  -4.698
REMARK INTRA:                  -0.543
REMARK UNBOUND:                -0.408
REMARK SMILES CCCCCCCCC(=O)[O-]
REMARK SMILES IDX 6 1 7 2 8 3 9 4 10 5 11 6 5 7 4 8 3 9 2 10 1 11
REMARK H PARENT
REMARK Flexibility Score: inf
ROOT
ATOM      1  C   UNL     1     121.859 109.383 109.118  1.00  0.00     0.000 C 
ENDROOT
BRANCH   1   2
ATOM      2  C   UNL     1     120.813 109.309 110.237  1.00  0.00     0.006 C 
BRANCH   2   3
ATOM      3  C   UNL     1     119.493 109.949 109.800  1.00  0.00     0.053 C 
BRANCH   3   4
ATOM      4  C   UNL     1     119.724 111.342 109.305  1.00  0.00     0.041 C 
ATOM      5  O   UNL     1     119.967 112.271 110.118  1.00  0.00    -0.550 OA
ATOM      6  O   UNL     1     119.619 111.625 107.948  1.00  0.00    -0.550 OA
ENDBRANCH   3   4
ENDBRANCH   2   3
ENDBRANCH   1   2
BRANCH   1   7
ATOM      7  C   UNL     1     121.726 108.194 108.160  1.00  0.00     0.000 C 
BRANCH   7   8
ATOM      8  C   UNL     1     121.252 108.652 106.775  1.00  0.00    -0.000 C 
BRANCH   8   9
ATOM      9  C   UNL     1     119.808 108.201 106.512  1.00  0.00    -0.000 C 
BRANCH   9  10
ATOM     10  C   UNL     1     119.734 106.842 105.798  1.00  0.00    -0.003 C 
ATOM     11  C   UNL     1     120.428 106.851 104.436  1.00  0.00     0.004 C 
ENDBRANCH   9  10
ENDBRANCH   8   9
ENDBRANCH   7   8
ENDBRANCH   1   7
TORSDOF 7
ENDMDL
MODEL 5
REMARK VINA RESULT:    -3.419      4.228      6.430
REMARK INTER + INTRA:          -5.225
REMARK INTER:                  -4.814
REMARK INTRA:                  -0.411
REMARK UNBOUND:                -0.408
REMARK SMILES CCCCCCCCC(=O)[O-]
REMARK SMILES IDX 6 1 7 2 8 3 9 4 10 5 11 6 5 7 4 8 3 9 2 10 1 11
REMARK H PARENT
REMARK Flexibility Score: inf
ROOT
ATOM      1  C   UNL     1     119.354 109.888 110.113  1.00  0.00     0.000 C 
ENDROOT
BRANCH   1   2
ATOM      2  C   UNL     1     119.131 110.310 111.570  1.00  0.00     0.006 C 
BRANCH   2   3
ATOM      3  C   UNL     1     120.379 110.049 112.416  1.00  0.00     0.053 C 
BRANCH   3   4
ATOM      4  C   UNL     1     120.678 111.227 113.289  1.00  0.00     0.041 C 
ATOM      5  O   UNL     1     120.663 112.391 112.810  1.00  0.00    -0.550 OA
ATOM      6  O   UNL     1     121.022 111.035 114.622  1.00  0.00    -0.550 OA
ENDBRANCH   3   4
ENDBRANCH   2   3
ENDBRANCH   1   2
BRANCH   1   7
ATOM      7  C   UNL     1     120.754 109.294 109.919  1.00  0.00     0.000 C 
BRANCH   7   8
ATOM      8  C   UNL     1     121.204 109.410 108.458  1.00  0.00    -0.000 C 
BRANCH   8   9
ATOM      9  C   UNL     1     120.006 109.298 107.503  1.00  0.00    -0.000 C 
BRANCH   9  10
ATOM     10  C   UNL     1     120.163 108.155 106.489  1.00  0.00    -0.003 C 
ATOM     11  C   UNL     1     121.491 107.411 106.637  1.00  0.00     0.004 C 
ENDBRANCH   9  10
ENDBRANCH   8   9
ENDBRANCH   7   8
ENDBRANCH   1   7
TORSDOF 7
ENDMDL
MODEL 6
REMARK VINA RESULT:    -3.402      4.395      6.219
REMARK INTER + INTRA:          -5.202
REMARK INTER:                  -4.718
REMARK INTRA:                  -0.484
REMARK UNBOUND:                -0.408
REMARK SMILES CCCCCCCCC(=O)[O-]
REMARK SMILES IDX 6 1 7 2 8 3 9 4 10 5 11 6 5 7 4 8 3 9 2 10 1 11
REMARK H PARENT
REMARK Flexibility Score: inf
ROOT
ATOM      1  C   UNL     1     119.419 109.937 110.020  1.00  0.00     0.000 C 
ENDROOT
BRANCH   1   2
ATOM      2  C   UNL     1     119.099 110.296 111.476  1.00  0.00     0.006 C 
BRANCH   2   3
ATOM      3  C   UNL     1     120.295 110.014 112.388  1.00  0.00     0.053 C 
BRANCH   3   4
ATOM      4  C   UNL     1     120.575 111.194 113.266  1.00  0.00     0.041 C 
ATOM      5  O   UNL     1     121.088 111.029 114.404  1.00  0.00    -0.550 OA
ATOM      6  O   UNL     1     120.223 112.471 112.847  1.00  0.00    -0.550 OA
ENDBRANCH   3   4
ENDBRANCH   2   3
ENDBRANCH   1   2
BRANCH   1   7
ATOM      7  C   UNL     1     120.776 109.233 109.912  1.00  0.00     0.000 C 
BRANCH   7   8
ATOM      8  C   UNL     1     121.141 108.963 108.447  1.00  0.00    -0.000 C 
BRANCH   8   9
ATOM      9  C   UNL     1     120.382 109.911 107.508  1.00  0.00    -0.000 C 
BRANCH   9  10
ATOM     10  C   UNL     1     121.262 111.060 106.991  1.00  0.00    -0.003 C 
ATOM     11  C   UNL     1     120.710 112.438 107.357  1.00  0.00     0.004 C 
ENDBRANCH   9  10
ENDBRANCH   8   9
ENDBRANCH   7   8
ENDBRANCH   1   7
TORSDOF 7
ENDMDL
MODEL 7
REMARK VINA RESULT:    -3.349      3.982      6.015
REMARK INTER + INTRA:          -5.127
REMARK INTER:                  -4.858
REMARK INTRA:                  -0.268
REMARK UNBOUND:                -0.408
REMARK SMILES CCCCCCCCC(=O)[O-]
REMARK SMILES IDX 6 1 7 2 8 3 9 4 10 5 11 6 5 7 4 8 3 9 2 10 1 11
REMARK H PARENT
REMARK Flexibility Score: inf
ROOT
ATOM      1  C   UNL     1     120.284 109.612 109.588  1.00  0.00     0.000 C 
ENDROOT
BRANCH   1   2
ATOM      2  C   UNL     1     119.125 110.427 110.175  1.00  0.00     0.006 C 
BRANCH   2   3
ATOM      3  C   UNL     1     118.993 110.188 111.681  1.00  0.00     0.053 C 
BRANCH   3   4
ATOM      4  C   UNL     1     120.143 110.806 112.413  1.00  0.00     0.041 C 
ATOM      5  O   UNL     1     120.321 112.051 112.377  1.00  0.00    -0.550 OA
ATOM      6  O   UNL     1     121.047 110.000 113.094  1.00  0.00    -0.550 OA
ENDBRANCH   3   4
ENDBRANCH   2   3
ENDBRANCH   1   2
BRANCH   1   7
ATOM      7  C   UNL     1     120.193 109.548 108.059  1.00  0.00     0.000 C 
BRANCH   7   8
ATOM      8  C   UNL     1     121.222 110.479 107.406  1.00  0.00    -0.000 C 
BRANCH   8   9
ATOM      9  C   UNL     1     120.636 111.883 107.195  1.00  0.00    -0.000 C 
BRANCH   9  10
ATOM     10  C   UNL     1     121.540 112.777 106.332  1.00  0.00    -0.003 C 
ATOM     11  C   UNL     1     120.797 113.975 105.741  1.00  0.00     0.004 C 
ENDBRANCH   9  10
ENDBRANCH   8   9
ENDBRANCH   7   8
ENDBRANCH   1   7
TORSDOF 7
ENDMDL
MODEL 8
REMARK VINA RESULT:    -3.312      4.452      5.414
REMARK INTER + INTRA:          -5.075
REMARK INTER:                  -4.746
REMARK INTRA:                  -0.329
REMARK UNBOUND:                -0.408
REMARK SMILES CCCCCCCCC(=O)[O-]
REMARK SMILES IDX 6 1 7 2 8 3 9 4 10 5 11 6 5 7 4 8 3 9 2 10 1 11
REMARK H PARENT
REMARK Flexibility Score: inf
ROOT
ATOM      1  C   UNL     1     121.935 111.715 106.949  1.00  0.00     0.000 C 
ENDROOT
BRANCH   1   2
ATOM      2  C   UNL     1     121.974 112.901 105.978  1.00  0.00     0.006 C 
BRANCH   2   3
ATOM      3  C   UNL     1     120.674 113.707 106.041  1.00  0.00     0.053 C 
BRANCH   3   4
ATOM      4  C   UNL     1     120.967 115.174 106.079  1.00  0.00     0.041 C 
ATOM      5  O   UNL     1     120.160 115.995 105.571  1.00  0.00    -0.550 OA
ATOM      6  O   UNL     1     122.158 115.631 106.631  1.00  0.00    -0.550 OA
ENDBRANCH   3   4
ENDBRANCH   2   3
ENDBRANCH   1   2
BRANCH   1   7
ATOM      7  C   UNL     1     120.553 111.579 107.598  1.00  0.00     0.000 C 
BRANCH   7   8
ATOM      8  C   UNL     1     120.109 110.111 107.647  1.00  0.00    -0.000 C 
BRANCH   8   9
ATOM      9  C   UNL     1     120.110 109.585 109.090  1.00  0.00    -0.000 C 
BRANCH   9  10
ATOM     10  C   UNL     1     119.286 110.467 110.041  1.00  0.00    -0.003 C 
ATOM     11  C   UNL     1     119.572 110.176 111.514  1.00  0.00     0.004 C 
ENDBRANCH   9  10
ENDBRANCH   8   9
ENDBRANCH   7   8
ENDBRANCH   1   7
TORSDOF 7
ENDMDL
MODEL 9
REMARK VINA RESULT:    -3.278      3.379      3.933
REMARK INTER + INTRA:          -5.026
REMARK INTER:                  -4.668
REMARK INTRA:                  -0.358
REMARK UNBOUND:                -0.408
REMARK SMILES CCCCCCCCC(=O)[O-]
REMARK SMILES IDX 6 1 7 2 8 3 9 4 10 5 11 6 5 7 4 8 3 9 2 10 1 11
REMARK H PARENT
REMARK Flexibility Score: inf
ROOT
ATOM      1  C   UNL     1     120.944 109.290 108.354  1.00  0.00     0.000 C 
ENDROOT
BRANCH   1   2
ATOM      2  C   UNL     1     120.373 110.530 107.655  1.00  0.00     0.006 C 
BRANCH   2   3
ATOM      3  C   UNL     1     121.464 111.276 106.882  1.00  0.00     0.053 C 
BRANCH   3   4
ATOM      4  C   UNL     1     121.208 112.750 106.905  1.00  0.00     0.041 C 
ATOM      5  O   UNL     1     121.159 113.368 108.000  1.00  0.00    -0.550 OA
ATOM      6  O   UNL     1     120.974 113.433 105.717  1.00  0.00    -0.550 OA
ENDBRANCH   3   4
ENDBRANCH   2   3
ENDBRANCH   1   2
BRANCH   1   7
ATOM      7  C   UNL     1     120.621 109.305 109.853  1.00  0.00     0.000 C 
BRANCH   7   8
ATOM      8  C   UNL     1     119.331 110.086 110.131  1.00  0.00    -0.000 C 
BRANCH   8   9
ATOM      9  C   UNL     1     119.184 110.389 111.629  1.00  0.00    -0.000 C 
BRANCH   9  10
ATOM     10  C   UNL     1     120.436 110.008 112.434  1.00  0.00    -0.003 C 
ATOM     11  C   UNL     1     120.792 111.043 113.501  1.00  0.00     0.004 C 
ENDBRANCH   9  10
ENDBRANCH   8   9
ENDBRANCH   7   8
ENDBRANCH   1   7
TORSDOF 7
ENDMDL
