MODEL 1
REMARK VINA RESULT:    -7.022      0.000      0.000
REMARK INTER + INTRA:          -8.538
REMARK INTER:                  -8.253
REMARK INTRA:                  -0.286
REMARK UNBOUND:                -0.286
REMARK SMILES O=c1cc(-c2ccc(O)c(O)c2)oc2cc(O)cc(O)c12
REMARK SMILES IDX 4 1 3 2 2 3 1 4 21 5 19 6 18 7 16 8 15 9 14 10 13 11 5 12
REMARK SMILES IDX 6 13 7 14 8 15 12 16 10 17 9 18 11 20 20 22 17 24
REMARK H PARENT 9 19 11 21 20 23 17 25
REMARK Flexibility Score: inf
ROOT
ATOM      1  C   UNL     1     -12.583 -40.894 -17.558  1.00  0.00     0.138 A 
ATOM      2  C   UNL     1     -12.677 -40.046 -16.443  1.00  0.00     0.100 A 
ATOM      3  C   UNL     1     -13.801 -40.117 -15.618  1.00  0.00     0.197 A 
ATOM      4  O   UNL     1     -13.875 -39.353 -14.618  1.00  0.00    -0.289 OA
ATOM      5  C   UNL     1     -14.823 -41.040 -15.915  1.00  0.00     0.107 A 
ATOM      6  C   UNL     1     -15.995 -41.176 -15.134  1.00  0.00     0.134 A 
ATOM      7  C   UNL     1     -16.964 -42.124 -15.494  1.00  0.00     0.093 A 
ATOM      8  C   UNL     1     -16.784 -42.936 -16.615  1.00  0.00     0.123 A 
ATOM      9  C   UNL     1     -15.628 -42.806 -17.392  1.00  0.00     0.094 A 
ATOM     10  C   UNL     1     -14.651 -41.867 -17.051  1.00  0.00     0.146 A 
ATOM     11  O   UNL     1     -13.562 -41.762 -17.805  1.00  0.00    -0.456 OA
ENDROOT
BRANCH   1  12
ATOM     12  C   UNL     1     -11.410 -40.863 -18.469  1.00  0.00     0.021 A 
ATOM     13  C   UNL     1     -10.960 -42.017 -19.136  1.00  0.00     0.016 A 
ATOM     14  C   UNL     1      -9.847 -41.960 -19.980  1.00  0.00     0.051 A 
ATOM     15  C   UNL     1      -9.161 -40.753 -20.164  1.00  0.00     0.157 A 
ATOM     16  C   UNL     1     -10.706 -39.658 -18.650  1.00  0.00     0.062 A 
ATOM     17  C   UNL     1      -9.592 -39.598 -19.494  1.00  0.00     0.158 A 
BRANCH  15  18
ATOM     18  O   UNL     1      -8.052 -40.700 -21.007  1.00  0.00    -0.504 OA
ATOM     19  H   UNL     1      -8.144 -40.485 -21.993  1.00  0.00     0.293 HD
ENDBRANCH  15  18
BRANCH  17  20
ATOM     20  O   UNL     1      -8.928 -38.382 -19.653  1.00  0.00    -0.504 OA
ATOM     21  H   UNL     1      -7.964 -38.331 -19.959  1.00  0.00     0.293 HD
ENDBRANCH  17  20
ENDBRANCH   1  12
BRANCH   6  22
ATOM     22  O   UNL     1     -16.202 -40.380 -14.007  1.00  0.00    -0.507 OA
ATOM     23  H   UNL     1     -16.884 -40.625 -13.298  1.00  0.00     0.293 HD
ENDBRANCH   6  22
BRANCH   8  24
ATOM     24  O   UNL     1     -17.763 -43.870 -16.950  1.00  0.00    -0.508 OA
ATOM     25  H   UNL     1     -18.573 -44.023 -16.361  1.00  0.00     0.293 HD
ENDBRANCH   8  24
TORSDOF 5
ENDMDL
MODEL 2
REMARK VINA RESULT:    -6.938      1.719      7.211
REMARK INTER + INTRA:          -8.440
REMARK INTER:                  -8.150
REMARK INTRA:                  -0.290
REMARK UNBOUND:                -0.286
REMARK SMILES O=c1cc(-c2ccc(O)c(O)c2)oc2cc(O)cc(O)c12
REMARK SMILES IDX 4 1 3 2 2 3 1 4 21 5 19 6 18 7 16 8 15 9 14 10 13 11 5 12
REMARK SMILES IDX 6 13 7 14 8 15 12 16 10 17 9 18 11 20 20 22 17 24
REMARK H PARENT 9 19 11 21 20 23 17 25
REMARK Flexibility Score: inf
ROOT
ATOM      1  C   UNL     1     -11.194 -41.261 -18.585  1.00  0.00     0.138 A 
ATOM      2  C   UNL     1     -10.455 -40.078 -18.749  1.00  0.00     0.100 A 
ATOM      3  C   UNL     1      -9.452 -40.024 -19.719  1.00  0.00     0.197 A 
ATOM      4  O   UNL     1      -8.796 -38.957 -19.861  1.00  0.00    -0.289 OA
ATOM      5  C   UNL     1      -9.198 -41.155 -20.520  1.00  0.00     0.107 A 
ATOM      6  C   UNL     1      -8.202 -41.186 -21.524  1.00  0.00     0.134 A 
ATOM      7  C   UNL     1      -8.015 -42.350 -22.283  1.00  0.00     0.093 A 
ATOM      8  C   UNL     1      -8.805 -43.481 -22.059  1.00  0.00     0.123 A 
ATOM      9  C   UNL     1      -9.792 -43.456 -21.068  1.00  0.00     0.094 A 
ATOM     10  C   UNL     1      -9.993 -42.307 -20.301  1.00  0.00     0.146 A 
ATOM     11  O   UNL     1     -10.936 -42.308 -19.364  1.00  0.00    -0.456 OA
ENDROOT
BRANCH   1  12
ATOM     12  C   UNL     1     -12.273 -41.374 -17.570  1.00  0.00     0.021 A 
ATOM     13  C   UNL     1     -13.304 -42.325 -17.690  1.00  0.00     0.016 A 
ATOM     14  C   UNL     1     -14.312 -42.402 -16.724  1.00  0.00     0.051 A 
ATOM     15  C   UNL     1     -14.312 -41.528 -15.630  1.00  0.00     0.157 A 
ATOM     16  C   UNL     1     -12.289 -40.492 -16.475  1.00  0.00     0.062 A 
ATOM     17  C   UNL     1     -13.296 -40.568 -15.506  1.00  0.00     0.158 A 
BRANCH  15  18
ATOM     18  O   UNL     1     -15.319 -41.609 -14.669  1.00  0.00    -0.504 OA
ATOM     19  H   UNL     1     -16.052 -40.913 -14.608  1.00  0.00     0.293 HD
ENDBRANCH  15  18
BRANCH  17  20
ATOM     20  O   UNL     1     -13.270 -39.680 -14.431  1.00  0.00    -0.504 OA
ATOM     21  H   UNL     1     -12.409 -39.260 -14.102  1.00  0.00     0.293 HD
ENDBRANCH  17  20
ENDBRANCH   1  12
BRANCH   6  22
ATOM     22  O   UNL     1      -7.398 -40.072 -21.771  1.00  0.00    -0.507 OA
ATOM     23  H   UNL     1      -6.506 -39.944 -21.306  1.00  0.00     0.293 HD
ENDBRANCH   6  22
BRANCH   8  24
ATOM     24  O   UNL     1      -8.599 -44.625 -22.828  1.00  0.00    -0.508 OA
ATOM     25  H   UNL     1      -8.996 -44.717 -23.756  1.00  0.00     0.293 HD
ENDBRANCH   8  24
TORSDOF 5
ENDMDL
MODEL 3
REMARK VINA RESULT:    -6.730      2.668      3.459
REMARK INTER + INTRA:          -8.196
REMARK INTER:                  -7.932
REMARK INTRA:                  -0.264
REMARK UNBOUND:                -0.286
REMARK SMILES O=c1cc(-c2ccc(O)c(O)c2)oc2cc(O)cc(O)c12
REMARK SMILES IDX 4 1 3 2 2 3 1 4 21 5 19 6 18 7 16 8 15 9 14 10 13 11 5 12
REMARK SMILES IDX 6 13 7 14 8 15 12 16 10 17 9 18 11 20 20 22 17 24
REMARK H PARENT 9 19 11 21 20 23 17 25
REMARK Flexibility Score: inf
ROOT
ATOM      1  C   UNL     1     -11.304 -40.929 -18.527  1.00  0.00     0.138 A 
ATOM      2  C   UNL     1     -11.161 -41.287 -17.176  1.00  0.00     0.100 A 
ATOM      3  C   UNL     1     -12.061 -40.784 -16.235  1.00  0.00     0.197 A 
ATOM      4  O   UNL     1     -11.926 -41.112 -15.025  1.00  0.00    -0.289 OA
ATOM      5  C   UNL     1     -13.100 -39.929 -16.653  1.00  0.00     0.107 A 
ATOM      6  C   UNL     1     -14.052 -39.375 -15.765  1.00  0.00     0.134 A 
ATOM      7  C   UNL     1     -15.060 -38.536 -16.262  1.00  0.00     0.093 A 
ATOM      8  C   UNL     1     -15.135 -38.242 -17.625  1.00  0.00     0.123 A 
ATOM      9  C   UNL     1     -14.196 -38.786 -18.508  1.00  0.00     0.094 A 
ATOM     10  C   UNL     1     -13.183 -39.623 -18.033  1.00  0.00     0.146 A 
ATOM     11  O   UNL     1     -12.302 -40.128 -18.891  1.00  0.00    -0.456 OA
ENDROOT
BRANCH   1  12
ATOM     12  C   UNL     1     -10.377 -41.435 -19.572  1.00  0.00     0.021 A 
ATOM     13  C   UNL     1      -9.447 -40.591 -20.208  1.00  0.00     0.016 A 
ATOM     14  C   UNL     1      -8.594 -41.093 -21.195  1.00  0.00     0.051 A 
ATOM     15  C   UNL     1      -8.661 -42.441 -21.570  1.00  0.00     0.157 A 
ATOM     16  C   UNL     1     -10.446 -42.784 -19.964  1.00  0.00     0.062 A 
ATOM     17  C   UNL     1      -9.593 -43.289 -20.952  1.00  0.00     0.158 A 
BRANCH  15  18
ATOM     18  O   UNL     1      -7.808 -42.937 -22.554  1.00  0.00    -0.504 OA
ATOM     19  H   UNL     1      -8.064 -43.733 -23.127  1.00  0.00     0.293 HD
ENDBRANCH  15  18
BRANCH  17  20
ATOM     20  O   UNL     1      -9.687 -44.635 -21.305  1.00  0.00    -0.504 OA
ATOM     21  H   UNL     1      -9.785 -44.933 -22.268  1.00  0.00     0.293 HD
ENDBRANCH  17  20
ENDBRANCH   1  12
BRANCH   6  22
ATOM     22  O   UNL     1     -14.004 -39.652 -14.398  1.00  0.00    -0.507 OA
ATOM     23  H   UNL     1     -14.080 -40.597 -14.042  1.00  0.00     0.293 HD
ENDBRANCH   6  22
BRANCH   8  24
ATOM     24  O   UNL     1     -16.147 -37.406 -18.093  1.00  0.00    -0.508 OA
ATOM     25  H   UNL     1     -16.267 -36.467 -17.731  1.00  0.00     0.293 HD
ENDBRANCH   8  24
TORSDOF 5
ENDMDL
MODEL 4
REMARK VINA RESULT:    -6.686      2.322      3.190
REMARK INTER + INTRA:          -8.144
REMARK INTER:                  -7.868
REMARK INTRA:                  -0.276
REMARK UNBOUND:                -0.286
REMARK SMILES O=c1cc(-c2ccc(O)c(O)c2)oc2cc(O)cc(O)c12
REMARK SMILES IDX 4 1 3 2 2 3 1 4 21 5 19 6 18 7 16 8 15 9 14 10 13 11 5 12
REMARK SMILES IDX 6 13 7 14 8 15 12 16 10 17 9 18 11 20 20 22 17 24
REMARK H PARENT 9 19 11 21 20 23 17 25
REMARK Flexibility Score: inf
ROOT
ATOM      1  C   UNL     1     -11.442 -39.526 -18.230  1.00  0.00     0.138 A 
ATOM      2  C   UNL     1     -10.568 -39.942 -17.213  1.00  0.00     0.100 A 
ATOM      3  C   UNL     1     -11.028 -40.818 -16.228  1.00  0.00     0.197 A 
ATOM      4  O   UNL     1     -10.236 -41.188 -15.320  1.00  0.00    -0.289 OA
ATOM      5  C   UNL     1     -12.361 -41.274 -16.270  1.00  0.00     0.107 A 
ATOM      6  C   UNL     1     -12.908 -42.160 -15.313  1.00  0.00     0.134 A 
ATOM      7  C   UNL     1     -14.243 -42.572 -15.429  1.00  0.00     0.093 A 
ATOM      8  C   UNL     1     -15.040 -42.116 -16.481  1.00  0.00     0.123 A 
ATOM      9  C   UNL     1     -14.506 -41.239 -17.432  1.00  0.00     0.094 A 
ATOM     10  C   UNL     1     -13.178 -40.817 -17.333  1.00  0.00     0.146 A 
ATOM     11  O   UNL     1     -12.692 -39.983 -18.247  1.00  0.00    -0.456 OA
ENDROOT
BRANCH   1  12
ATOM     12  C   UNL     1     -11.007 -38.597 -19.304  1.00  0.00     0.021 A 
ATOM     13  C   UNL     1     -11.820 -37.532 -19.735  1.00  0.00     0.016 A 
ATOM     14  C   UNL     1     -11.388 -36.678 -20.755  1.00  0.00     0.051 A 
ATOM     15  C   UNL     1     -10.144 -36.880 -21.366  1.00  0.00     0.157 A 
ATOM     16  C   UNL     1      -9.765 -38.799 -19.933  1.00  0.00     0.062 A 
ATOM     17  C   UNL     1      -9.331 -37.946 -20.954  1.00  0.00     0.158 A 
BRANCH  15  18
ATOM     18  O   UNL     1      -9.717 -36.026 -22.383  1.00  0.00    -0.504 OA
ATOM     19  H   UNL     1      -8.841 -35.521 -22.319  1.00  0.00     0.293 HD
ENDBRANCH  15  18
BRANCH  17  20
ATOM     20  O   UNL     1      -8.088 -38.176 -21.545  1.00  0.00    -0.504 OA
ATOM     21  H   UNL     1      -7.256 -37.676 -21.258  1.00  0.00     0.293 HD
ENDBRANCH  17  20
ENDBRANCH   1  12
BRANCH   6  22
ATOM     22  O   UNL     1     -12.136 -42.634 -14.250  1.00  0.00    -0.507 OA
ATOM     23  H   UNL     1     -11.443 -42.052 -13.794  1.00  0.00     0.293 HD
ENDBRANCH   6  22
BRANCH   8  24
ATOM     24  O   UNL     1     -16.364 -42.541 -16.573  1.00  0.00    -0.508 OA
ATOM     25  H   UNL     1     -16.986 -42.183 -17.289  1.00  0.00     0.293 HD
ENDBRANCH   8  24
TORSDOF 5
ENDMDL
MODEL 5
REMARK VINA RESULT:    -6.660      3.387      7.121
REMARK INTER + INTRA:          -8.113
REMARK INTER:                  -7.798
REMARK INTRA:                  -0.316
REMARK UNBOUND:                -0.286
REMARK SMILES O=c1cc(-c2ccc(O)c(O)c2)oc2cc(O)cc(O)c12
REMARK SMILES IDX 4 1 3 2 2 3 1 4 21 5 19 6 18 7 16 8 15 9 14 10 13 11 5 12
REMARK SMILES IDX 6 13 7 14 8 15 12 16 10 17 9 18 11 20 20 22 17 24
REMARK H PARENT 9 19 11 21 20 23 17 25
REMARK Flexibility Score: inf
ROOT
ATOM      1  C   UNL     1     -11.538 -39.890 -18.511  1.00  0.00     0.138 A 
ATOM      2  C   UNL     1     -12.643 -39.846 -19.377  1.00  0.00     0.100 A 
ATOM      3  C   UNL     1     -12.580 -39.068 -20.533  1.00  0.00     0.197 A 
ATOM      4  O   UNL     1     -13.576 -39.036 -21.305  1.00  0.00    -0.289 OA
ATOM      5  C   UNL     1     -11.407 -38.340 -20.818  1.00  0.00     0.107 A 
ATOM      6  C   UNL     1     -11.259 -37.527 -21.966  1.00  0.00     0.134 A 
ATOM      7  C   UNL     1     -10.057 -36.838 -22.180  1.00  0.00     0.093 A 
ATOM      8  C   UNL     1      -9.001 -36.948 -21.272  1.00  0.00     0.123 A 
ATOM      9  C   UNL     1      -9.141 -37.750 -20.135  1.00  0.00     0.094 A 
ATOM     10  C   UNL     1     -10.332 -38.443 -19.902  1.00  0.00     0.146 A 
ATOM     11  O   UNL     1     -10.442 -39.199 -18.814  1.00  0.00    -0.456 OA
ENDROOT
BRANCH   1  12
ATOM     12  C   UNL     1     -11.549 -40.701 -17.268  1.00  0.00     0.021 A 
ATOM     13  C   UNL     1     -12.546 -41.664 -17.021  1.00  0.00     0.016 A 
ATOM     14  C   UNL     1     -12.537 -42.406 -15.836  1.00  0.00     0.051 A 
ATOM     15  C   UNL     1     -11.539 -42.194 -14.877  1.00  0.00     0.157 A 
ATOM     16  C   UNL     1     -10.559 -40.486 -16.292  1.00  0.00     0.062 A 
ATOM     17  C   UNL     1     -10.547 -41.229 -15.106  1.00  0.00     0.158 A 
BRANCH  15  18
ATOM     18  O   UNL     1     -11.533 -42.938 -13.697  1.00  0.00    -0.504 OA
ATOM     19  H   UNL     1     -11.702 -43.937 -13.699  1.00  0.00     0.293 HD
ENDBRANCH  15  18
BRANCH  17  20
ATOM     20  O   UNL     1      -9.542 -40.991 -14.168  1.00  0.00    -0.504 OA
ATOM     21  H   UNL     1      -8.660 -40.562 -14.422  1.00  0.00     0.293 HD
ENDBRANCH  17  20
ENDBRANCH   1  12
BRANCH   6  22
ATOM     22  O   UNL     1     -12.296 -37.398 -22.893  1.00  0.00    -0.507 OA
ATOM     23  H   UNL     1     -12.363 -36.598 -23.510  1.00  0.00     0.293 HD
ENDBRANCH   6  22
BRANCH   8  24
ATOM     24  O   UNL     1      -7.817 -36.253 -21.509  1.00  0.00    -0.508 OA
ATOM     25  H   UNL     1      -6.913 -36.660 -21.298  1.00  0.00     0.293 HD
ENDBRANCH   8  24
TORSDOF 5
ENDMDL
MODEL 6
REMARK VINA RESULT:    -6.646     12.550     15.048
REMARK INTER + INTRA:          -8.098
REMARK INTER:                  -7.821
REMARK INTRA:                  -0.277
REMARK UNBOUND:                -0.286
REMARK SMILES O=c1cc(-c2ccc(O)c(O)c2)oc2cc(O)cc(O)c12
REMARK SMILES IDX 4 1 3 2 2 3 1 4 21 5 19 6 18 7 16 8 15 9 14 10 13 11 5 12
REMARK SMILES IDX 6 13 7 14 8 15 12 16 10 17 9 18 11 20 20 22 17 24
REMARK H PARENT 9 19 11 21 20 23 17 25
REMARK Flexibility Score: inf
ROOT
ATOM      1  C   UNL     1      -0.378 -47.737 -19.009  1.00  0.00     0.138 A 
ATOM      2  C   UNL     1       0.711 -48.036 -18.175  1.00  0.00     0.100 A 
ATOM      3  C   UNL     1       1.147 -47.089 -17.247  1.00  0.00     0.197 A 
ATOM      4  O   UNL     1       2.124 -47.368 -16.502  1.00  0.00    -0.289 OA
ATOM      5  C   UNL     1       0.486 -45.847 -17.158  1.00  0.00     0.107 A 
ATOM      6  C   UNL     1       0.863 -44.832 -16.249  1.00  0.00     0.134 A 
ATOM      7  C   UNL     1       0.150 -43.625 -16.219  1.00  0.00     0.093 A 
ATOM      8  C   UNL     1      -0.931 -43.415 -17.079  1.00  0.00     0.123 A 
ATOM      9  C   UNL     1      -1.309 -44.415 -17.981  1.00  0.00     0.094 A 
ATOM     10  C   UNL     1      -0.610 -45.624 -18.027  1.00  0.00     0.146 A 
ATOM     11  O   UNL     1      -0.987 -46.559 -18.893  1.00  0.00    -0.456 OA
ENDROOT
BRANCH   1  12
ATOM     12  C   UNL     1      -0.885 -48.707 -20.013  1.00  0.00     0.021 A 
ATOM     13  C   UNL     1      -1.258 -48.304 -21.309  1.00  0.00     0.016 A 
ATOM     14  C   UNL     1      -1.742 -49.238 -22.230  1.00  0.00     0.051 A 
ATOM     15  C   UNL     1      -1.869 -50.586 -21.870  1.00  0.00     0.157 A 
ATOM     16  C   UNL     1      -1.029 -50.060 -19.656  1.00  0.00     0.062 A 
ATOM     17  C   UNL     1      -1.512 -50.997 -20.576  1.00  0.00     0.158 A 
BRANCH  15  18
ATOM     18  O   UNL     1      -2.350 -51.514 -22.792  1.00  0.00    -0.504 OA
ATOM     19  H   UNL     1      -2.638 -52.444 -22.508  1.00  0.00     0.293 HD
ENDBRANCH  15  18
BRANCH  17  20
ATOM     20  O   UNL     1      -1.630 -52.331 -20.186  1.00  0.00    -0.504 OA
ATOM     21  H   UNL     1      -1.463 -53.096 -20.827  1.00  0.00     0.293 HD
ENDBRANCH  17  20
ENDBRANCH   1  12
BRANCH   6  22
ATOM     22  O   UNL     1       1.938 -45.013 -15.377  1.00  0.00    -0.507 OA
ATOM     23  H   UNL     1       2.599 -45.772 -15.495  1.00  0.00     0.293 HD
ENDBRANCH   6  22
BRANCH   8  24
ATOM     24  O   UNL     1      -1.623 -42.207 -17.028  1.00  0.00    -0.508 OA
ATOM     25  H   UNL     1      -2.517 -42.128 -16.558  1.00  0.00     0.293 HD
ENDBRANCH   8  24
TORSDOF 5
ENDMDL
MODEL 7
REMARK VINA RESULT:    -6.626      1.648      7.230
REMARK INTER + INTRA:          -8.074
REMARK INTER:                  -7.766
REMARK INTRA:                  -0.307
REMARK UNBOUND:                -0.286
REMARK SMILES O=c1cc(-c2ccc(O)c(O)c2)oc2cc(O)cc(O)c12
REMARK SMILES IDX 4 1 3 2 2 3 1 4 21 5 19 6 18 7 16 8 15 9 14 10 13 11 5 12
REMARK SMILES IDX 6 13 7 14 8 15 12 16 10 17 9 18 11 20 20 22 17 24
REMARK H PARENT 9 19 11 21 20 23 17 25
REMARK Flexibility Score: inf
ROOT
ATOM      1  C   UNL     1     -12.712 -40.704 -17.798  1.00  0.00     0.138 A 
ATOM      2  C   UNL     1     -12.006 -41.733 -18.442  1.00  0.00     0.100 A 
ATOM      3  C   UNL     1     -11.055 -41.410 -19.411  1.00  0.00     0.197 A 
ATOM      4  O   UNL     1     -10.425 -42.340 -19.983  1.00  0.00    -0.289 OA
ATOM      5  C   UNL     1     -10.814 -40.058 -19.726  1.00  0.00     0.107 A 
ATOM      6  C   UNL     1      -9.870 -39.643 -20.695  1.00  0.00     0.134 A 
ATOM      7  C   UNL     1      -9.687 -38.276 -20.947  1.00  0.00     0.093 A 
ATOM      8  C   UNL     1     -10.425 -37.318 -20.249  1.00  0.00     0.123 A 
ATOM      9  C   UNL     1     -11.361 -37.721 -19.290  1.00  0.00     0.094 A 
ATOM     10  C   UNL     1     -11.560 -39.078 -19.026  1.00  0.00     0.146 A 
ATOM     11  O   UNL     1     -12.455 -39.437 -18.111  1.00  0.00    -0.456 OA
ENDROOT
BRANCH   1  12
ATOM     12  C   UNL     1     -13.734 -40.989 -16.758  1.00  0.00     0.021 A 
ATOM     13  C   UNL     1     -14.496 -42.173 -16.773  1.00  0.00     0.016 A 
ATOM     14  C   UNL     1     -15.458 -42.410 -15.787  1.00  0.00     0.051 A 
ATOM     15  C   UNL     1     -15.682 -41.467 -14.777  1.00  0.00     0.157 A 
ATOM     16  C   UNL     1     -13.976 -40.042 -15.747  1.00  0.00     0.062 A 
ATOM     17  C   UNL     1     -14.938 -40.276 -14.758  1.00  0.00     0.158 A 
BRANCH  15  18
ATOM     18  O   UNL     1     -16.642 -41.707 -13.795  1.00  0.00    -0.504 OA
ATOM     19  H   UNL     1     -16.432 -42.258 -12.970  1.00  0.00     0.293 HD
ENDBRANCH  15  18
BRANCH  17  20
ATOM     20  O   UNL     1     -15.140 -39.315 -13.768  1.00  0.00    -0.504 OA
ATOM     21  H   UNL     1     -14.891 -39.479 -12.801  1.00  0.00     0.293 HD
ENDBRANCH  17  20
ENDBRANCH   1  12
BRANCH   6  22
ATOM     22  O   UNL     1      -9.116 -40.577 -21.407  1.00  0.00    -0.507 OA
ATOM     23  H   UNL     1      -8.605 -41.317 -20.940  1.00  0.00     0.293 HD
ENDBRANCH   6  22
BRANCH   8  24
ATOM     24  O   UNL     1     -10.223 -35.965 -20.518  1.00  0.00    -0.508 OA
ATOM     25  H   UNL     1      -9.613 -35.660 -21.268  1.00  0.00     0.293 HD
ENDBRANCH   8  24
TORSDOF 5
ENDMDL
