MODEL 1
REMARK VINA RESULT:    -4.973      0.000      0.000
REMARK INTER + INTRA:          -5.621
REMARK INTER:                  -5.409
REMARK INTRA:                  -0.212
REMARK UNBOUND:                -0.212
REMARK SMILES CC1=CCC[C@]2(C)CC[C@H](C(C)(C)O)C[C@H]12
REMARK SMILES IDX 11 1 12 2 13 3 10 4 1 5 2 6 3 7 16 8 4 9 6 10 15 11 5 12
REMARK SMILES IDX 7 13 8 14 9 15 14 16
REMARK H PARENT 14 17
REMARK Flexibility Score: inf
ROOT
ATOM      1  C   UNL     1     146.392 138.630 146.707  1.00  0.00     0.062 C 
ATOM      2  C   UNL     1     146.890 140.065 146.976  1.00  0.00     0.042 C 
ATOM      3  C   UNL     1     147.403 137.641 147.332  1.00  0.00     0.042 C 
ENDROOT
BRANCH   1   4
ATOM      4  C   UNL     1     146.193 138.337 145.173  1.00  0.00     0.021 C 
ATOM      5  C   UNL     1     148.759 140.270 141.792  1.00  0.00     0.039 C 
ATOM      6  C   UNL     1     147.263 140.134 141.903  1.00  0.00    -0.074 C 
ATOM      7  C   UNL     1     146.481 141.067 141.319  1.00  0.00    -0.028 C 
ATOM      8  C   UNL     1     146.678 139.014 142.752  1.00  0.00     0.021 C 
ATOM      9  C   UNL     1     144.977 140.981 141.259  1.00  0.00     0.028 C 
ATOM     10  C   UNL     1     145.219 138.654 142.324  1.00  0.00    -0.026 C 
ATOM     11  C   UNL     1     146.783 139.418 144.242  1.00  0.00     0.015 C 
ATOM     12  C   UNL     1     144.373 139.952 142.228  1.00  0.00     0.011 C 
ATOM     13  C   UNL     1     145.240 137.943 140.946  1.00  0.00     0.012 C 
ATOM     14  C   UNL     1     144.578 137.664 143.339  1.00  0.00     0.008 C 
ATOM     15  C   UNL     1     144.714 138.101 144.803  1.00  0.00     0.007 C 
ENDBRANCH   1   4
BRANCH   1  16
ATOM     16  O   UNL     1     145.162 138.483 147.378  1.00  0.00    -0.390 OA
ATOM     17  H   UNL     1     144.439 138.762 146.758  1.00  0.00     0.211 HD
ENDBRANCH   1  16
TORSDOF 2
ENDMDL
MODEL 2
REMARK VINA RESULT:    -4.942      1.929      5.234
REMARK INTER + INTRA:          -5.587
REMARK INTER:                  -5.382
REMARK INTRA:                  -0.205
REMARK UNBOUND:                -0.212
REMARK SMILES CC1=CCC[C@]2(C)CC[C@H](C(C)(C)O)C[C@H]12
REMARK SMILES IDX 11 1 12 2 13 3 10 4 1 5 2 6 3 7 16 8 4 9 6 10 15 11 5 12
REMARK SMILES IDX 7 13 8 14 9 15 14 16
REMARK H PARENT 14 17
REMARK Flexibility Score: inf
ROOT
ATOM      1  C   UNL     1     144.917 138.825 141.266  1.00  0.00     0.062 C 
ATOM      2  C   UNL     1     144.672 137.646 140.302  1.00  0.00     0.042 C 
ATOM      3  C   UNL     1     145.268 140.074 140.426  1.00  0.00     0.042 C 
ENDROOT
BRANCH   1   4
ATOM      4  C   UNL     1     146.046 138.519 142.320  1.00  0.00     0.021 C 
ATOM      5  C   UNL     1     145.256 136.679 146.532  1.00  0.00     0.039 C 
ATOM      6  C   UNL     1     146.088 137.874 146.148  1.00  0.00    -0.074 C 
ATOM      7  C   UNL     1     146.224 138.883 147.034  1.00  0.00    -0.028 C 
ATOM      8  C   UNL     1     146.664 137.959 144.741  1.00  0.00     0.021 C 
ATOM      9  C   UNL     1     147.122 140.075 146.815  1.00  0.00     0.028 C 
ATOM     10  C   UNL     1     147.913 138.894 144.673  1.00  0.00    -0.026 C 
ATOM     11  C   UNL     1     145.537 138.392 143.772  1.00  0.00     0.015 C 
ATOM     12  C   UNL     1     147.584 140.248 145.360  1.00  0.00     0.011 C 
ATOM     13  C   UNL     1     149.109 138.221 145.396  1.00  0.00     0.012 C 
ATOM     14  C   UNL     1     148.345 139.127 143.197  1.00  0.00     0.008 C 
ATOM     15  C   UNL     1     147.195 139.547 142.272  1.00  0.00     0.007 C 
ENDBRANCH   1   4
BRANCH   1  16
ATOM     16  O   UNL     1     143.703 139.073 141.937  1.00  0.00    -0.390 OA
ATOM     17  H   UNL     1     143.590 140.057 142.014  1.00  0.00     0.211 HD
ENDBRANCH   1  16
TORSDOF 2
ENDMDL
MODEL 3
REMARK VINA RESULT:    -4.937      2.175      4.109
REMARK INTER + INTRA:          -5.582
REMARK INTER:                  -5.373
REMARK INTRA:                  -0.208
REMARK UNBOUND:                -0.212
REMARK SMILES CC1=CCC[C@]2(C)CC[C@H](C(C)(C)O)C[C@H]12
REMARK SMILES IDX 11 1 12 2 13 3 10 4 1 5 2 6 3 7 16 8 4 9 6 10 15 11 5 12
REMARK SMILES IDX 7 13 8 14 9 15 14 16
REMARK H PARENT 14 17
REMARK Flexibility Score: inf
ROOT
ATOM      1  C   UNL     1     144.183 135.432 146.651  1.00  0.00     0.062 C 
ATOM      2  C   UNL     1     143.544 134.986 145.320  1.00  0.00     0.042 C 
ATOM      3  C   UNL     1     143.074 135.492 147.726  1.00  0.00     0.042 C 
ENDROOT
BRANCH   1   4
ATOM      4  C   UNL     1     144.926 136.815 146.530  1.00  0.00     0.021 C 
ATOM      5  C   UNL     1     144.270 139.832 143.033  1.00  0.00     0.039 C 
ATOM      6  C   UNL     1     145.555 139.316 143.628  1.00  0.00    -0.074 C 
ATOM      7  C   UNL     1     146.645 139.225 142.838  1.00  0.00    -0.028 C 
ATOM      8  C   UNL     1     145.562 138.818 145.067  1.00  0.00     0.021 C 
ATOM      9  C   UNL     1     148.013 138.836 143.341  1.00  0.00     0.028 C 
ATOM     10  C   UNL     1     146.989 138.868 145.699  1.00  0.00    -0.026 C 
ATOM     11  C   UNL     1     144.940 137.402 145.101  1.00  0.00     0.015 C 
ATOM     12  C   UNL     1     148.005 138.194 144.736  1.00  0.00     0.011 C 
ATOM     13  C   UNL     1     147.403 140.344 145.939  1.00  0.00     0.012 C 
ATOM     14  C   UNL     1     147.002 138.160 147.083  1.00  0.00     0.008 C 
ATOM     15  C   UNL     1     146.369 136.763 147.071  1.00  0.00     0.007 C 
ENDBRANCH   1   4
BRANCH   1  16
ATOM     16  O   UNL     1     145.105 134.435 147.025  1.00  0.00    -0.390 OA
ATOM     17  H   UNL     1     145.286 133.870 146.230  1.00  0.00     0.211 HD
ENDBRANCH   1  16
TORSDOF 2
ENDMDL
MODEL 4
REMARK VINA RESULT:    -4.918     13.391     15.555
REMARK INTER + INTRA:          -5.561
REMARK INTER:                  -5.326
REMARK INTRA:                  -0.235
REMARK UNBOUND:                -0.212
REMARK SMILES CC1=CCC[C@]2(C)CC[C@H](C(C)(C)O)C[C@H]12
REMARK SMILES IDX 11 1 12 2 13 3 10 4 1 5 2 6 3 7 16 8 4 9 6 10 15 11 5 12
REMARK SMILES IDX 7 13 8 14 9 15 14 16
REMARK H PARENT 14 17
REMARK Flexibility Score: inf
ROOT
ATOM      1  C   UNL     1     130.249 140.316 138.254  1.00  0.00     0.062 C 
ATOM      2  C   UNL     1     130.801 141.137 139.437  1.00  0.00     0.042 C 
ATOM      3  C   UNL     1     129.541 139.064 138.820  1.00  0.00     0.042 C 
ENDROOT
BRANCH   1   4
ATOM      4  C   UNL     1     131.370 139.913 137.225  1.00  0.00     0.021 C 
ATOM      5  C   UNL     1     132.353 135.514 136.027  1.00  0.00     0.039 C 
ATOM      6  C   UNL     1     133.281 136.627 136.437  1.00  0.00    -0.074 C 
ATOM      7  C   UNL     1     134.435 136.312 137.062  1.00  0.00    -0.028 C 
ATOM      8  C   UNL     1     132.847 138.072 136.233  1.00  0.00     0.021 C 
ATOM      9  C   UNL     1     135.498 137.322 137.417  1.00  0.00     0.028 C 
ATOM     10  C   UNL     1     134.066 139.046 136.156  1.00  0.00    -0.026 C 
ATOM     11  C   UNL     1     131.847 138.450 137.351  1.00  0.00     0.015 C 
ATOM     12  C   UNL     1     135.016 138.780 137.356  1.00  0.00     0.011 C 
ATOM     13  C   UNL     1     134.832 138.820 134.826  1.00  0.00     0.012 C 
ATOM     14  C   UNL     1     133.588 140.526 136.161  1.00  0.00     0.008 C 
ATOM     15  C   UNL     1     132.592 140.852 137.282  1.00  0.00     0.007 C 
ENDBRANCH   1   4
BRANCH   1  16
ATOM     16  O   UNL     1     129.283 141.113 137.609  1.00  0.00    -0.390 OA
ATOM     17  H   UNL     1     129.036 140.667 136.757  1.00  0.00     0.211 HD
ENDBRANCH   1  16
TORSDOF 2
ENDMDL
MODEL 5
REMARK VINA RESULT:    -4.892     13.261     15.383
REMARK INTER + INTRA:          -5.533
REMARK INTER:                  -5.333
REMARK INTRA:                  -0.200
REMARK UNBOUND:                -0.212
REMARK SMILES CC1=CCC[C@]2(C)CC[C@H](C(C)(C)O)C[C@H]12
REMARK SMILES IDX 11 1 12 2 13 3 10 4 1 5 2 6 3 7 16 8 4 9 6 10 15 11 5 12
REMARK SMILES IDX 7 13 8 14 9 15 14 16
REMARK H PARENT 14 17
REMARK Flexibility Score: inf
ROOT
ATOM      1  C   UNL     1     129.773 139.612 137.503  1.00  0.00     0.062 C 
ATOM      2  C   UNL     1     129.154 138.929 138.740  1.00  0.00     0.042 C 
ATOM      3  C   UNL     1     128.894 139.281 136.275  1.00  0.00     0.042 C 
ENDROOT
BRANCH   1   4
ATOM      4  C   UNL     1     131.267 139.179 137.259  1.00  0.00     0.021 C 
ATOM      5  C   UNL     1     134.877 140.738 139.767  1.00  0.00     0.039 C 
ATOM      6  C   UNL     1     134.718 140.640 138.272  1.00  0.00    -0.074 C 
ATOM      7  C   UNL     1     135.368 141.528 137.491  1.00  0.00    -0.028 C 
ATOM      8  C   UNL     1     133.753 139.616 137.692  1.00  0.00     0.021 C 
ATOM      9  C   UNL     1     135.384 141.463 135.984  1.00  0.00     0.028 C 
ATOM     10  C   UNL     1     134.109 139.243 136.217  1.00  0.00    -0.026 C 
ATOM     11  C   UNL     1     132.311 140.157 137.842  1.00  0.00     0.015 C 
ATOM     12  C   UNL     1     134.308 140.542 135.389  1.00  0.00     0.011 C 
ATOM     13  C   UNL     1     135.414 138.405 136.191  1.00  0.00     0.012 C 
ATOM     14  C   UNL     1     132.990 138.365 135.587  1.00  0.00     0.008 C 
ATOM     15  C   UNL     1     131.578 138.936 135.768  1.00  0.00     0.007 C 
ENDBRANCH   1   4
BRANCH   1  16
ATOM     16  O   UNL     1     129.716 141.002 137.722  1.00  0.00    -0.390 OA
ATOM     17  H   UNL     1     129.257 141.157 138.589  1.00  0.00     0.211 HD
ENDBRANCH   1  16
TORSDOF 2
ENDMDL
MODEL 6
REMARK VINA RESULT:    -4.842      1.253      2.656
REMARK INTER + INTRA:          -5.478
REMARK INTER:                  -5.245
REMARK INTRA:                  -0.233
REMARK UNBOUND:                -0.212
REMARK SMILES CC1=CCC[C@]2(C)CC[C@H](C(C)(C)O)C[C@H]12
REMARK SMILES IDX 11 1 12 2 13 3 10 4 1 5 2 6 3 7 16 8 4 9 6 10 15 11 5 12
REMARK SMILES IDX 7 13 8 14 9 15 14 16
REMARK H PARENT 14 17
REMARK Flexibility Score: inf
ROOT
ATOM      1  C   UNL     1     146.262 138.537 146.762  1.00  0.00     0.062 C 
ATOM      2  C   UNL     1     147.342 137.548 147.247  1.00  0.00     0.042 C 
ATOM      3  C   UNL     1     144.920 137.778 146.657  1.00  0.00     0.042 C 
ENDROOT
BRANCH   1   4
ATOM      4  C   UNL     1     146.636 139.214 145.391  1.00  0.00     0.021 C 
ATOM      5  C   UNL     1     143.764 141.989 142.981  1.00  0.00     0.039 C 
ATOM      6  C   UNL     1     144.593 140.823 142.509  1.00  0.00    -0.074 C 
ATOM      7  C   UNL     1     144.151 140.095 141.462  1.00  0.00    -0.028 C 
ATOM      8  C   UNL     1     145.844 140.436 143.285  1.00  0.00     0.021 C 
ATOM      9  C   UNL     1     144.943 138.981 140.823  1.00  0.00     0.028 C 
ATOM     10  C   UNL     1     146.860 139.642 142.402  1.00  0.00    -0.026 C 
ATOM     11  C   UNL     1     145.417 139.660 144.553  1.00  0.00     0.015 C 
ATOM     12  C   UNL     1     146.121 138.486 141.676  1.00  0.00     0.011 C 
ATOM     13  C   UNL     1     147.495 140.593 141.354  1.00  0.00     0.012 C 
ATOM     14  C   UNL     1     148.021 139.081 143.272  1.00  0.00     0.008 C 
ATOM     15  C   UNL     1     147.551 138.327 144.522  1.00  0.00     0.007 C 
ENDBRANCH   1   4
BRANCH   1  16
ATOM     16  O   UNL     1     146.129 139.528 147.755  1.00  0.00    -0.390 OA
ATOM     17  H   UNL     1     145.769 139.097 148.573  1.00  0.00     0.211 HD
ENDBRANCH   1  16
TORSDOF 2
ENDMDL
MODEL 7
REMARK VINA RESULT:    -4.806      5.438      7.479
REMARK INTER + INTRA:          -5.439
REMARK INTER:                  -5.232
REMARK INTRA:                  -0.207
REMARK UNBOUND:                -0.212
REMARK SMILES CC1=CCC[C@]2(C)CC[C@H](C(C)(C)O)C[C@H]12
REMARK SMILES IDX 11 1 12 2 13 3 10 4 1 5 2 6 3 7 16 8 4 9 6 10 15 11 5 12
REMARK SMILES IDX 7 13 8 14 9 15 14 16
REMARK H PARENT 14 17
REMARK Flexibility Score: inf
ROOT
ATOM      1  C   UNL     1     138.829 139.880 142.663  1.00  0.00     0.062 C 
ATOM      2  C   UNL     1     138.703 138.929 141.455  1.00  0.00     0.042 C 
ATOM      3  C   UNL     1     137.417 140.114 143.246  1.00  0.00     0.042 C 
ENDROOT
BRANCH   1   4
ATOM      4  C   UNL     1     139.516 141.246 142.286  1.00  0.00     0.021 C 
ATOM      5  C   UNL     1     144.048 142.148 142.917  1.00  0.00     0.039 C 
ATOM      6  C   UNL     1     142.845 142.978 143.281  1.00  0.00    -0.074 C 
ATOM      7  C   UNL     1     142.923 143.802 144.346  1.00  0.00    -0.028 C 
ATOM      8  C   UNL     1     141.548 142.788 142.506  1.00  0.00     0.021 C 
ATOM      9  C   UNL     1     141.832 144.766 144.741  1.00  0.00     0.028 C 
ATOM     10  C   UNL     1     140.626 144.046 142.588  1.00  0.00    -0.026 C 
ATOM     11  C   UNL     1     140.854 141.502 143.013  1.00  0.00     0.015 C 
ATOM     12  C   UNL     1     140.479 144.483 144.072  1.00  0.00     0.011 C 
ATOM     13  C   UNL     1     141.247 145.204 141.764  1.00  0.00     0.012 C 
ATOM     14  C   UNL     1     139.230 143.745 141.972  1.00  0.00     0.008 C 
ATOM     15  C   UNL     1     138.584 142.457 142.498  1.00  0.00     0.007 C 
ENDBRANCH   1   4
BRANCH   1  16
ATOM     16  O   UNL     1     139.602 139.218 143.636  1.00  0.00    -0.390 OA
ATOM     17  H   UNL     1     139.779 138.296 143.312  1.00  0.00     0.211 HD
ENDBRANCH   1  16
TORSDOF 2
ENDMDL
MODEL 8
REMARK VINA RESULT:    -4.797      7.360     10.098
REMARK INTER + INTRA:          -5.430
REMARK INTER:                  -5.190
REMARK INTRA:                  -0.239
REMARK UNBOUND:                -0.212
REMARK SMILES CC1=CCC[C@]2(C)CC[C@H](C(C)(C)O)C[C@H]12
REMARK SMILES IDX 11 1 12 2 13 3 10 4 1 5 2 6 3 7 16 8 4 9 6 10 15 11 5 12
REMARK SMILES IDX 7 13 8 14 9 15 14 16
REMARK H PARENT 14 17
REMARK Flexibility Score: inf
ROOT
ATOM      1  C   UNL     1     138.138 136.640 144.014  1.00  0.00     0.062 C 
ATOM      2  C   UNL     1     139.249 137.551 143.452  1.00  0.00     0.042 C 
ATOM      3  C   UNL     1     137.096 137.530 144.729  1.00  0.00     0.042 C 
ENDROOT
BRANCH   1   4
ATOM      4  C   UNL     1     138.698 135.536 144.987  1.00  0.00     0.021 C 
ATOM      5  C   UNL     1     136.395 133.928 148.710  1.00  0.00     0.039 C 
ATOM      6  C   UNL     1     137.822 134.395 148.592  1.00  0.00    -0.074 C 
ATOM      7  C   UNL     1     138.417 134.943 149.673  1.00  0.00    -0.028 C 
ATOM      8  C   UNL     1     138.517 134.332 147.239  1.00  0.00     0.021 C 
ATOM      9  C   UNL     1     139.871 135.341 149.717  1.00  0.00     0.028 C 
ATOM     10  C   UNL     1     140.072 134.290 147.379  1.00  0.00    -0.026 C 
ATOM     11  C   UNL     1     138.024 135.518 146.376  1.00  0.00     0.015 C 
ATOM     12  C   UNL     1     140.536 135.424 148.334  1.00  0.00     0.011 C 
ATOM     13  C   UNL     1     140.509 132.916 147.952  1.00  0.00     0.012 C 
ATOM     14  C   UNL     1     140.753 134.441 145.989  1.00  0.00     0.008 C 
ATOM     15  C   UNL     1     140.228 135.624 145.166  1.00  0.00     0.007 C 
ENDBRANCH   1   4
BRANCH   1  16
ATOM     16  O   UNL     1     137.510 136.023 142.915  1.00  0.00    -0.390 OA
ATOM     17  H   UNL     1     138.152 135.382 142.513  1.00  0.00     0.211 HD
ENDBRANCH   1  16
TORSDOF 2
ENDMDL
MODEL 9
REMARK VINA RESULT:    -4.754      5.859      8.070
REMARK INTER + INTRA:          -5.382
REMARK INTER:                  -5.157
REMARK INTRA:                  -0.226
REMARK UNBOUND:                -0.212
REMARK SMILES CC1=CCC[C@]2(C)CC[C@H](C(C)(C)O)C[C@H]12
REMARK SMILES IDX 11 1 12 2 13 3 10 4 1 5 2 6 3 7 16 8 4 9 6 10 15 11 5 12
REMARK SMILES IDX 7 13 8 14 9 15 14 16
REMARK H PARENT 14 17
REMARK Flexibility Score: inf
ROOT
ATOM      1  C   UNL     1     142.494 140.929 142.704  1.00  0.00     0.062 C 
ATOM      2  C   UNL     1     143.675 141.910 142.855  1.00  0.00     0.042 C 
ATOM      3  C   UNL     1     142.550 140.317 141.286  1.00  0.00     0.042 C 
ENDROOT
BRANCH   1   4
ATOM      4  C   UNL     1     141.101 141.616 142.967  1.00  0.00     0.021 C 
ATOM      5  C   UNL     1     137.122 139.276 143.633  1.00  0.00     0.039 C 
ATOM      6  C   UNL     1     137.407 140.447 142.728  1.00  0.00    -0.074 C 
ATOM      7  C   UNL     1     136.696 140.574 141.588  1.00  0.00    -0.028 C 
ATOM      8  C   UNL     1     138.553 141.389 143.070  1.00  0.00     0.021 C 
ATOM      9  C   UNL     1     136.806 141.759 140.661  1.00  0.00     0.028 C 
ATOM     10  C   UNL     1     138.369 142.797 142.419  1.00  0.00    -0.026 C 
ATOM     11  C   UNL     1     139.885 140.713 142.667  1.00  0.00     0.015 C 
ATOM     12  C   UNL     1     138.046 142.630 140.908  1.00  0.00     0.011 C 
ATOM     13  C   UNL     1     137.205 143.548 143.118  1.00  0.00     0.012 C 
ATOM     14  C   UNL     1     139.648 143.661 142.607  1.00  0.00     0.008 C 
ATOM     15  C   UNL     1     140.944 142.947 142.204  1.00  0.00     0.007 C 
ENDBRANCH   1   4
BRANCH   1  16
ATOM     16  O   UNL     1     142.691 139.894 143.638  1.00  0.00    -0.390 OA
ATOM     17  H   UNL     1     142.312 139.059 143.256  1.00  0.00     0.211 HD
ENDBRANCH   1  16
TORSDOF 2
ENDMDL
