MODEL 1
REMARK VINA RESULT:    -3.553      0.000      0.000
REMARK INTER + INTRA:          -9.501
REMARK INTER:                  -6.877
REMARK INTRA:                  -2.624
REMARK UNBOUND:                -2.624
REMARK SMILES CCCCCCCCCCCCCCCCCC(=O)[O-]
REMARK SMILES IDX 10 1 11 2 12 3 13 4 14 5 15 6 16 7 17 8 18 9 19 10 20 11
REMARK SMILES IDX 9 12 8 13 7 14 6 15 5 16 4 17 3 18 2 19 1 20
REMARK H PARENT
REMARK Flexibility Score: inf
ROOT
ATOM      1  C   UNL     1     -93.965 148.152 236.984  1.00  0.00     0.000 C 
ENDROOT
BRANCH   1   2
ATOM      2  C   UNL     1     -94.725 147.269 237.988  1.00  0.00     0.000 C 
BRANCH   2   3
ATOM      3  C   UNL     1     -95.594 148.093 238.954  1.00  0.00     0.000 C 
BRANCH   3   4
ATOM      4  C   UNL     1     -95.559 149.599 238.641  1.00  0.00     0.000 C 
BRANCH   4   5
ATOM      5  C   UNL     1     -96.820 150.330 239.127  1.00  0.00     0.000 C 
BRANCH   5   6
ATOM      6  C   UNL     1     -97.666 149.474 240.086  1.00  0.00     0.000 C 
BRANCH   6   7
ATOM      7  C   UNL     1     -98.731 150.296 240.828  1.00  0.00     0.006 C 
BRANCH   7   8
ATOM      8  C   UNL     1     -98.800 149.957 242.323  1.00  0.00     0.053 C 
BRANCH   8   9
ATOM      9  C   UNL     1     -99.267 151.144 243.106  1.00  0.00     0.041 C 
ATOM     10  O   UNL     1    -100.440 151.577 242.960  1.00  0.00    -0.550 OA
ATOM     11  O   UNL     1     -98.391 151.800 243.962  1.00  0.00    -0.550 OA
ENDBRANCH   8   9
ENDBRANCH   7   8
ENDBRANCH   6   7
ENDBRANCH   5   6
ENDBRANCH   4   5
ENDBRANCH   3   4
ENDBRANCH   2   3
ENDBRANCH   1   2
BRANCH   1  12
ATOM     12  C   UNL     1     -93.847 147.502 235.596  1.00  0.00     0.000 C 
BRANCH  12  13
ATOM     13  C   UNL     1     -94.857 148.072 234.584  1.00  0.00    -0.000 C 
BRANCH  13  14
ATOM     14  C   UNL     1     -95.460 149.413 235.034  1.00  0.00    -0.000 C 
BRANCH  14  15
ATOM     15  C   UNL     1     -96.999 149.399 235.034  1.00  0.00    -0.000 C 
BRANCH  15  16
ATOM     16  C   UNL     1     -97.574 148.076 235.565  1.00  0.00    -0.000 C 
BRANCH  16  17
ATOM     17  C   UNL     1     -98.599 148.289 236.692  1.00  0.00    -0.000 C 
BRANCH  17  18
ATOM     18  C   UNL     1     -99.736 149.247 236.291  1.00  0.00    -0.000 C 
BRANCH  18  19
ATOM     19  C   UNL     1     -99.839 150.519 237.152  1.00  0.00    -0.003 C 
ATOM     20  C   UNL     1     -99.741 151.805 236.332  1.00  0.00     0.004 C 
ENDBRANCH  18  19
ENDBRANCH  17  18
ENDBRANCH  16  17
ENDBRANCH  15  16
ENDBRANCH  14  15
ENDBRANCH  13  14
ENDBRANCH  12  13
ENDBRANCH   1  12
TORSDOF 16
ENDMDL
MODEL 2
REMARK VINA RESULT:    -3.449      4.370      6.780
REMARK INTER + INTRA:          -9.300
REMARK INTER:                  -7.511
REMARK INTRA:                  -1.789
REMARK UNBOUND:                -2.624
REMARK SMILES CCCCCCCCCCCCCCCCCC(=O)[O-]
REMARK SMILES IDX 10 1 11 2 12 3 13 4 14 5 15 6 16 7 17 8 18 9 19 10 20 11
REMARK SMILES IDX 9 12 8 13 7 14 6 15 5 16 4 17 3 18 2 19 1 20
REMARK H PARENT
REMARK Flexibility Score: inf
ROOT
ATOM      1  C   UNL     1     -96.853 149.302 235.174  1.00  0.00     0.000 C 
ENDROOT
BRANCH   1   2
ATOM      2  C   UNL     1     -97.205 149.906 233.803  1.00  0.00     0.000 C 
BRANCH   2   3
ATOM      3  C   UNL     1     -96.310 149.365 232.676  1.00  0.00     0.000 C 
BRANCH   3   4
ATOM      4  C   UNL     1     -95.528 150.477 231.957  1.00  0.00     0.000 C 
BRANCH   4   5
ATOM      5  C   UNL     1     -95.722 151.853 232.616  1.00  0.00     0.000 C 
BRANCH   5   6
ATOM      6  C   UNL     1     -96.525 152.822 231.731  1.00  0.00     0.000 C 
BRANCH   6   7
ATOM      7  C   UNL     1     -97.702 153.467 232.479  1.00  0.00     0.006 C 
BRANCH   7   8
ATOM      8  C   UNL     1     -97.251 154.566 233.451  1.00  0.00     0.053 C 
BRANCH   8   9
ATOM      9  C   UNL     1     -98.042 155.816 233.228  1.00  0.00     0.041 C 
ATOM     10  O   UNL     1     -97.455 156.900 232.974  1.00  0.00    -0.550 OA
ATOM     11  O   UNL     1     -99.426 155.793 233.349  1.00  0.00    -0.550 OA
ENDBRANCH   8   9
ENDBRANCH   7   8
ENDBRANCH   6   7
ENDBRANCH   5   6
ENDBRANCH   4   5
ENDBRANCH   3   4
ENDBRANCH   2   3
ENDBRANCH   1   2
BRANCH   1  12
ATOM     12  C   UNL     1     -95.374 149.497 235.543  1.00  0.00     0.000 C 
BRANCH  12  13
ATOM     13  C   UNL     1     -94.591 148.173 235.581  1.00  0.00    -0.000 C 
BRANCH  13  14
ATOM     14  C   UNL     1     -93.799 147.987 236.886  1.00  0.00    -0.000 C 
BRANCH  14  15
ATOM     15  C   UNL     1     -94.436 148.725 238.076  1.00  0.00    -0.000 C 
BRANCH  15  16
ATOM     16  C   UNL     1     -95.405 147.833 238.869  1.00  0.00    -0.000 C 
BRANCH  16  17
ATOM     17  C   UNL     1     -96.652 148.597 239.350  1.00  0.00    -0.000 C 
BRANCH  17  18
ATOM     18  C   UNL     1     -96.591 150.100 239.024  1.00  0.00    -0.000 C 
BRANCH  18  19
ATOM     19  C   UNL     1     -97.954 150.815 239.033  1.00  0.00    -0.003 C 
ATOM     20  C   UNL     1     -98.958 150.202 238.058  1.00  0.00     0.004 C 
ENDBRANCH  18  19
ENDBRANCH  17  18
ENDBRANCH  16  17
ENDBRANCH  15  16
ENDBRANCH  14  15
ENDBRANCH  13  14
ENDBRANCH  12  13
ENDBRANCH   1  12
TORSDOF 16
ENDMDL
MODEL 3
REMARK VINA RESULT:    -3.325      4.047      6.636
REMARK INTER + INTRA:          -9.059
REMARK INTER:                  -7.065
REMARK INTRA:                  -1.994
REMARK UNBOUND:                -2.624
REMARK SMILES CCCCCCCCCCCCCCCCCC(=O)[O-]
REMARK SMILES IDX 10 1 11 2 12 3 13 4 14 5 15 6 16 7 17 8 18 9 19 10 20 11
REMARK SMILES IDX 9 12 8 13 7 14 6 15 5 16 4 17 3 18 2 19 1 20
REMARK H PARENT
REMARK Flexibility Score: inf
ROOT
ATOM      1  C   UNL     1     -95.105 149.306 235.709  1.00  0.00     0.000 C 
ENDROOT
BRANCH   1   2
ATOM      2  C   UNL     1     -96.538 149.019 235.227  1.00  0.00     0.000 C 
BRANCH   2   3
ATOM      3  C   UNL     1     -96.943 149.903 234.035  1.00  0.00     0.000 C 
BRANCH   3   4
ATOM      4  C   UNL     1     -95.757 150.691 233.453  1.00  0.00     0.000 C 
BRANCH   4   5
ATOM      5  C   UNL     1     -95.489 150.346 231.979  1.00  0.00     0.000 C 
BRANCH   5   6
ATOM      6  C   UNL     1     -96.485 151.027 231.024  1.00  0.00     0.000 C 
BRANCH   6   7
ATOM      7  C   UNL     1     -96.329 152.555 230.999  1.00  0.00     0.006 C 
BRANCH   7   8
ATOM      8  C   UNL     1     -97.649 153.286 231.278  1.00  0.00     0.053 C 
BRANCH   8   9
ATOM      9  C   UNL     1     -97.783 153.584 232.738  1.00  0.00     0.041 C 
ATOM     10  O   UNL     1     -96.979 154.374 233.299  1.00  0.00    -0.550 OA
ATOM     11  O   UNL     1     -98.766 152.951 233.488  1.00  0.00    -0.550 OA
ENDBRANCH   8   9
ENDBRANCH   7   8
ENDBRANCH   6   7
ENDBRANCH   5   6
ENDBRANCH   4   5
ENDBRANCH   3   4
ENDBRANCH   2   3
ENDBRANCH   1   2
BRANCH   1  12
ATOM     12  C   UNL     1     -94.247 148.034 235.801  1.00  0.00     0.000 C 
BRANCH  12  13
ATOM     13  C   UNL     1     -93.865 147.677 237.249  1.00  0.00    -0.000 C 
BRANCH  13  14
ATOM     14  C   UNL     1     -94.603 148.535 238.289  1.00  0.00    -0.000 C 
BRANCH  14  15
ATOM     15  C   UNL     1     -95.662 147.738 239.071  1.00  0.00    -0.000 C 
BRANCH  15  16
ATOM     16  C   UNL     1     -96.851 148.612 239.506  1.00  0.00    -0.000 C 
BRANCH  16  17
ATOM     17  C   UNL     1     -96.684 150.084 239.089  1.00  0.00    -0.000 C 
BRANCH  17  18
ATOM     18  C   UNL     1     -98.029 150.796 238.864  1.00  0.00    -0.000 C 
BRANCH  18  19
ATOM     19  C   UNL     1     -98.901 150.186 237.751  1.00  0.00    -0.003 C 
ATOM     20  C   UNL     1     -99.574 151.241 236.874  1.00  0.00     0.004 C 
ENDBRANCH  18  19
ENDBRANCH  17  18
ENDBRANCH  16  17
ENDBRANCH  15  16
ENDBRANCH  14  15
ENDBRANCH  13  14
ENDBRANCH  12  13
ENDBRANCH   1  12
TORSDOF 16
ENDMDL
MODEL 4
REMARK VINA RESULT:    -3.310      3.378      6.093
REMARK INTER + INTRA:          -9.031
REMARK INTER:                  -6.911
REMARK INTRA:                  -2.120
REMARK UNBOUND:                -2.624
REMARK SMILES CCCCCCCCCCCCCCCCCC(=O)[O-]
REMARK SMILES IDX 10 1 11 2 12 3 13 4 14 5 15 6 16 7 17 8 18 9 19 10 20 11
REMARK SMILES IDX 9 12 8 13 7 14 6 15 5 16 4 17 3 18 2 19 1 20
REMARK H PARENT
REMARK Flexibility Score: inf
ROOT
ATOM      1  C   UNL     1     -96.888 149.713 234.231  1.00  0.00     0.000 C 
ENDROOT
BRANCH   1   2
ATOM      2  C   UNL     1     -96.630 150.043 232.751  1.00  0.00     0.000 C 
BRANCH   2   3
ATOM      3  C   UNL     1     -95.459 151.021 232.562  1.00  0.00     0.000 C 
BRANCH   3   4
ATOM      4  C   UNL     1     -95.778 152.137 231.553  1.00  0.00     0.000 C 
BRANCH   4   5
ATOM      5  C   UNL     1     -97.164 152.761 231.784  1.00  0.00     0.000 C 
BRANCH   5   6
ATOM      6  C   UNL     1     -97.171 153.765 232.950  1.00  0.00     0.000 C 
BRANCH   6   7
ATOM      7  C   UNL     1     -98.500 153.765 233.721  1.00  0.00     0.006 C 
BRANCH   7   8
ATOM      8  C   UNL     1     -99.331 152.501 233.462  1.00  0.00     0.053 C 
BRANCH   8   9
ATOM      9  C   UNL     1     -99.892 151.974 234.745  1.00  0.00     0.041 C 
ATOM     10  O   UNL     1     -99.922 152.704 235.770  1.00  0.00    -0.550 OA
ATOM     11  O   UNL     1    -100.338 150.660 234.819  1.00  0.00    -0.550 OA
ENDBRANCH   8   9
ENDBRANCH   7   8
ENDBRANCH   6   7
ENDBRANCH   5   6
ENDBRANCH   4   5
ENDBRANCH   3   4
ENDBRANCH   2   3
ENDBRANCH   1   2
BRANCH   1  12
ATOM     12  C   UNL     1     -95.588 149.550 235.035  1.00  0.00     0.000 C 
BRANCH  12  13
ATOM     13  C   UNL     1     -95.038 148.113 234.992  1.00  0.00    -0.000 C 
BRANCH  13  14
ATOM     14  C   UNL     1     -93.985 147.846 236.079  1.00  0.00    -0.000 C 
BRANCH  14  15
ATOM     15  C   UNL     1     -94.254 148.638 237.372  1.00  0.00    -0.000 C 
BRANCH  15  16
ATOM     16  C   UNL     1     -94.880 147.766 238.474  1.00  0.00    -0.000 C 
BRANCH  16  17
ATOM     17  C   UNL     1     -96.147 148.399 239.076  1.00  0.00    -0.000 C 
BRANCH  17  18
ATOM     18  C   UNL     1     -96.214 149.921 238.858  1.00  0.00    -0.000 C 
BRANCH  18  19
ATOM     19  C   UNL     1     -97.617 150.534 239.026  1.00  0.00    -0.003 C 
ATOM     20  C   UNL     1     -98.555 150.204 237.866  1.00  0.00     0.004 C 
ENDBRANCH  18  19
ENDBRANCH  17  18
ENDBRANCH  16  17
ENDBRANCH  15  16
ENDBRANCH  14  15
ENDBRANCH  13  14
ENDBRANCH  12  13
ENDBRANCH   1  12
TORSDOF 16
ENDMDL
MODEL 5
REMARK VINA RESULT:    -3.255      1.327      2.958
REMARK INTER + INTRA:          -8.923
REMARK INTER:                  -6.725
REMARK INTRA:                  -2.198
REMARK UNBOUND:                -2.624
REMARK SMILES CCCCCCCCCCCCCCCCCC(=O)[O-]
REMARK SMILES IDX 10 1 11 2 12 3 13 4 14 5 15 6 16 7 17 8 18 9 19 10 20 11
REMARK SMILES IDX 9 12 8 13 7 14 6 15 5 16 4 17 3 18 2 19 1 20
REMARK H PARENT
REMARK Flexibility Score: inf
ROOT
ATOM      1  C   UNL     1     -96.305 148.548 239.026  1.00  0.00     0.000 C 
ENDROOT
BRANCH   1   2
ATOM      2  C   UNL     1     -96.383 150.082 238.943  1.00  0.00     0.000 C 
BRANCH   2   3
ATOM      3  C   UNL     1     -97.746 150.626 239.406  1.00  0.00     0.000 C 
BRANCH   3   4
ATOM      4  C   UNL     1     -98.372 149.775 240.524  1.00  0.00     0.000 C 
BRANCH   4   5
ATOM      5  C   UNL     1     -99.876 150.042 240.694  1.00  0.00     0.000 C 
BRANCH   5   6
ATOM      6  C   UNL     1    -100.223 150.591 242.089  1.00  0.00     0.000 C 
BRANCH   6   7
ATOM      7  C   UNL     1     -98.978 150.827 242.957  1.00  0.00     0.006 C 
BRANCH   7   8
ATOM      8  C   UNL     1     -99.031 152.162 243.712  1.00  0.00     0.053 C 
BRANCH   8   9
ATOM      9  C   UNL     1     -99.470 151.945 245.126  1.00  0.00     0.041 C 
ATOM     10  O   UNL     1     -99.521 150.780 245.601  1.00  0.00    -0.550 OA
ATOM     11  O   UNL     1     -99.869 153.026 245.903  1.00  0.00    -0.550 OA
ENDBRANCH   8   9
ENDBRANCH   7   8
ENDBRANCH   6   7
ENDBRANCH   5   6
ENDBRANCH   4   5
ENDBRANCH   3   4
ENDBRANCH   2   3
ENDBRANCH   1   2
BRANCH   1  12
ATOM     12  C   UNL     1     -94.890 148.013 238.753  1.00  0.00     0.000 C 
BRANCH  12  13
ATOM     13  C   UNL     1     -94.212 148.705 237.557  1.00  0.00    -0.000 C 
BRANCH  13  14
ATOM     14  C   UNL     1     -93.881 147.731 236.415  1.00  0.00    -0.000 C 
BRANCH  14  15
ATOM     15  C   UNL     1     -94.613 148.081 235.107  1.00  0.00    -0.000 C 
BRANCH  15  16
ATOM     16  C   UNL     1     -95.408 149.394 235.214  1.00  0.00    -0.000 C 
BRANCH  16  17
ATOM     17  C   UNL     1     -96.863 149.241 234.736  1.00  0.00    -0.000 C 
BRANCH  17  18
ATOM     18  C   UNL     1     -97.687 148.296 235.629  1.00  0.00    -0.000 C 
BRANCH  18  19
ATOM     19  C   UNL     1     -98.887 148.958 236.331  1.00  0.00    -0.003 C 
ATOM     20  C   UNL     1     -99.607 148.017 237.296  1.00  0.00     0.004 C 
ENDBRANCH  18  19
ENDBRANCH  17  18
ENDBRANCH  16  17
ENDBRANCH  15  16
ENDBRANCH  14  15
ENDBRANCH  13  14
ENDBRANCH  12  13
ENDBRANCH   1  12
TORSDOF 16
ENDMDL
MODEL 6
REMARK VINA RESULT:    -3.244      3.817      6.459
REMARK INTER + INTRA:          -8.902
REMARK INTER:                  -7.192
REMARK INTRA:                  -1.710
REMARK UNBOUND:                -2.624
REMARK SMILES CCCCCCCCCCCCCCCCCC(=O)[O-]
REMARK SMILES IDX 10 1 11 2 12 3 13 4 14 5 15 6 16 7 17 8 18 9 19 10 20 11
REMARK SMILES IDX 9 12 8 13 7 14 6 15 5 16 4 17 3 18 2 19 1 20
REMARK H PARENT
REMARK Flexibility Score: inf
ROOT
ATOM      1  C   UNL     1     -93.924 147.560 236.496  1.00  0.00     0.000 C 
ENDROOT
BRANCH   1   2
ATOM      2  C   UNL     1     -94.583 148.008 235.180  1.00  0.00     0.000 C 
BRANCH   2   3
ATOM      3  C   UNL     1     -95.353 149.331 235.330  1.00  0.00     0.000 C 
BRANCH   3   4
ATOM      4  C   UNL     1     -96.873 149.148 235.188  1.00  0.00     0.000 C 
BRANCH   4   5
ATOM      5  C   UNL     1     -97.482 150.085 234.132  1.00  0.00     0.000 C 
BRANCH   5   6
ATOM      6  C   UNL     1     -96.522 150.356 232.961  1.00  0.00     0.000 C 
BRANCH   6   7
ATOM      7  C   UNL     1     -97.056 151.425 231.995  1.00  0.00     0.006 C 
BRANCH   7   8
ATOM      8  C   UNL     1     -96.462 152.814 232.269  1.00  0.00     0.053 C 
BRANCH   8   9
ATOM      9  C   UNL     1     -97.505 153.725 232.834  1.00  0.00     0.041 C 
ATOM     10  O   UNL     1     -97.167 154.744 233.492  1.00  0.00    -0.550 OA
ATOM     11  O   UNL     1     -98.852 153.423 232.674  1.00  0.00    -0.550 OA
ENDBRANCH   8   9
ENDBRANCH   7   8
ENDBRANCH   6   7
ENDBRANCH   5   6
ENDBRANCH   4   5
ENDBRANCH   3   4
ENDBRANCH   2   3
ENDBRANCH   1   2
BRANCH   1  12
ATOM     12  C   UNL     1     -94.205 148.527 237.657  1.00  0.00     0.000 C 
BRANCH  12  13
ATOM     13  C   UNL     1     -95.008 147.874 238.796  1.00  0.00    -0.000 C 
BRANCH  13  14
ATOM     14  C   UNL     1     -96.382 148.530 239.008  1.00  0.00    -0.000 C 
BRANCH  14  15
ATOM     15  C   UNL     1     -96.316 150.067 238.967  1.00  0.00    -0.000 C 
BRANCH  15  16
ATOM     16  C   UNL     1     -97.702 150.718 239.118  1.00  0.00    -0.000 C 
BRANCH  16  17
ATOM     17  C   UNL     1     -98.836 149.680 239.182  1.00  0.00    -0.000 C 
BRANCH  17  18
ATOM     18  C   UNL     1     -99.580 149.693 240.530  1.00  0.00    -0.000 C 
BRANCH  18  19
ATOM     19  C   UNL     1     -98.681 149.919 241.758  1.00  0.00    -0.003 C 
ATOM     20  C   UNL     1     -99.079 151.150 242.571  1.00  0.00     0.004 C 
ENDBRANCH  18  19
ENDBRANCH  17  18
ENDBRANCH  16  17
ENDBRANCH  15  16
ENDBRANCH  14  15
ENDBRANCH  13  14
ENDBRANCH  12  13
ENDBRANCH   1  12
TORSDOF 16
ENDMDL
MODEL 7
REMARK VINA RESULT:    -3.223      3.468      6.072
REMARK INTER + INTRA:          -8.861
REMARK INTER:                  -5.888
REMARK INTRA:                  -2.974
REMARK UNBOUND:                -2.624
REMARK SMILES CCCCCCCCCCCCCCCCCC(=O)[O-]
REMARK SMILES IDX 10 1 11 2 12 3 13 4 14 5 15 6 16 7 17 8 18 9 19 10 20 11
REMARK SMILES IDX 9 12 8 13 7 14 6 15 5 16 4 17 3 18 2 19 1 20
REMARK H PARENT
REMARK Flexibility Score: inf
ROOT
ATOM      1  C   UNL     1     -95.546 147.588 238.986  1.00  0.00     0.000 C 
ENDROOT
BRANCH   1   2
ATOM      2  C   UNL     1     -95.171 148.877 238.234  1.00  0.00     0.000 C 
BRANCH   2   3
ATOM      3  C   UNL     1     -93.886 148.720 237.404  1.00  0.00     0.000 C 
BRANCH   3   4
ATOM      4  C   UNL     1     -93.633 147.264 236.977  1.00  0.00     0.000 C 
BRANCH   4   5
ATOM      5  C   UNL     1     -93.526 147.108 235.452  1.00  0.00     0.000 C 
BRANCH   5   6
ATOM      6  C   UNL     1     -94.891 147.216 234.751  1.00  0.00     0.000 C 
BRANCH   6   7
ATOM      7  C   UNL     1     -95.006 148.473 233.874  1.00  0.00     0.006 C 
BRANCH   7   8
ATOM      8  C   UNL     1     -95.945 149.527 234.476  1.00  0.00     0.053 C 
BRANCH   8   9
ATOM      9  C   UNL     1     -97.198 149.634 233.665  1.00  0.00     0.041 C 
ATOM     10  O   UNL     1     -98.125 148.796 233.819  1.00  0.00    -0.550 OA
ATOM     11  O   UNL     1     -97.322 150.631 232.706  1.00  0.00    -0.550 OA
ENDBRANCH   8   9
ENDBRANCH   7   8
ENDBRANCH   6   7
ENDBRANCH   5   6
ENDBRANCH   4   5
ENDBRANCH   3   4
ENDBRANCH   2   3
ENDBRANCH   1   2
BRANCH   1  12
ATOM     12  C   UNL     1     -96.976 147.118 238.677  1.00  0.00     0.000 C 
BRANCH  12  13
ATOM     13  C   UNL     1     -97.441 147.514 237.264  1.00  0.00    -0.000 C 
BRANCH  13  14
ATOM     14  C   UNL     1     -98.751 148.318 237.272  1.00  0.00    -0.000 C 
BRANCH  14  15
ATOM     15  C   UNL     1     -98.512 149.839 237.258  1.00  0.00    -0.000 C 
BRANCH  15  16
ATOM     16  C   UNL     1     -99.078 150.533 238.508  1.00  0.00    -0.000 C 
BRANCH  16  17
ATOM     17  C   UNL     1     -98.048 150.626 239.647  1.00  0.00    -0.000 C 
BRANCH  17  18
ATOM     18  C   UNL     1     -98.652 150.305 241.026  1.00  0.00    -0.000 C 
BRANCH  18  19
ATOM     19  C   UNL     1     -98.393 148.871 241.523  1.00  0.00    -0.003 C 
ATOM     20  C   UNL     1     -99.542 147.914 241.212  1.00  0.00     0.004 C 
ENDBRANCH  18  19
ENDBRANCH  17  18
ENDBRANCH  16  17
ENDBRANCH  15  16
ENDBRANCH  14  15
ENDBRANCH  13  14
ENDBRANCH  12  13
ENDBRANCH   1  12
TORSDOF 16
ENDMDL
MODEL 8
REMARK VINA RESULT:    -3.171      3.676      6.461
REMARK INTER + INTRA:          -8.762
REMARK INTER:                  -6.176
REMARK INTRA:                  -2.586
REMARK UNBOUND:                -2.624
REMARK SMILES CCCCCCCCCCCCCCCCCC(=O)[O-]
REMARK SMILES IDX 10 1 11 2 12 3 13 4 14 5 15 6 16 7 17 8 18 9 19 10 20 11
REMARK SMILES IDX 9 12 8 13 7 14 6 15 5 16 4 17 3 18 2 19 1 20
REMARK H PARENT
REMARK Flexibility Score: inf
ROOT
ATOM      1  C   UNL     1     -98.184 150.930 238.712  1.00  0.00     0.000 C 
ENDROOT
BRANCH   1   2
ATOM      2  C   UNL     1     -99.455 150.063 238.706  1.00  0.00     0.000 C 
BRANCH   2   3
ATOM      3  C   UNL     1    -100.404 150.421 237.550  1.00  0.00     0.000 C 
BRANCH   3   4
ATOM      4  C   UNL     1     -99.878 151.586 236.694  1.00  0.00     0.000 C 
BRANCH   4   5
ATOM      5  C   UNL     1    -100.686 151.777 235.400  1.00  0.00     0.000 C 
BRANCH   5   6
ATOM      6  C   UNL     1    -100.149 150.921 234.239  1.00  0.00     0.000 C 
BRANCH   6   7
ATOM      7  C   UNL     1     -99.659 151.771 233.056  1.00  0.00     0.006 C 
BRANCH   7   8
ATOM      8  C   UNL     1     -98.241 152.317 233.272  1.00  0.00     0.053 C 
BRANCH   8   9
ATOM      9  C   UNL     1     -98.272 153.803 233.435  1.00  0.00     0.041 C 
ATOM     10  O   UNL     1     -99.372 154.416 233.448  1.00  0.00    -0.550 OA
ATOM     11  O   UNL     1     -97.084 154.518 233.525  1.00  0.00    -0.550 OA
ENDBRANCH   8   9
ENDBRANCH   7   8
ENDBRANCH   6   7
ENDBRANCH   5   6
ENDBRANCH   4   5
ENDBRANCH   3   4
ENDBRANCH   2   3
ENDBRANCH   1   2
BRANCH   1  12
ATOM     12  C   UNL     1     -96.988 150.220 239.366  1.00  0.00     0.000 C 
BRANCH  12  13
ATOM     13  C   UNL     1     -97.114 148.687 239.332  1.00  0.00    -0.000 C 
BRANCH  13  14
ATOM     14  C   UNL     1     -95.828 147.994 238.853  1.00  0.00    -0.000 C 
BRANCH  14  15
ATOM     15  C   UNL     1     -94.734 148.995 238.443  1.00  0.00    -0.000 C 
BRANCH  15  16
ATOM     16  C   UNL     1     -93.904 148.500 237.246  1.00  0.00    -0.000 C 
BRANCH  16  17
ATOM     17  C   UNL     1     -94.769 148.221 236.004  1.00  0.00    -0.000 C 
BRANCH  17  18
ATOM     18  C   UNL     1     -95.476 149.482 235.475  1.00  0.00    -0.000 C 
BRANCH  18  19
ATOM     19  C   UNL     1     -96.833 149.222 234.797  1.00  0.00    -0.003 C 
ATOM     20  C   UNL     1     -97.821 148.485 235.701  1.00  0.00     0.004 C 
ENDBRANCH  18  19
ENDBRANCH  17  18
ENDBRANCH  16  17
ENDBRANCH  15  16
ENDBRANCH  14  15
ENDBRANCH  13  14
ENDBRANCH  12  13
ENDBRANCH   1  12
TORSDOF 16
ENDMDL
MODEL 9
REMARK VINA RESULT:    -3.156      3.814      6.085
REMARK INTER + INTRA:          -8.732
REMARK INTER:                  -6.575
REMARK INTRA:                  -2.158
REMARK UNBOUND:                -2.624
REMARK SMILES CCCCCCCCCCCCCCCCCC(=O)[O-]
REMARK SMILES IDX 10 1 11 2 12 3 13 4 14 5 15 6 16 7 17 8 18 9 19 10 20 11
REMARK SMILES IDX 9 12 8 13 7 14 6 15 5 16 4 17 3 18 2 19 1 20
REMARK H PARENT
REMARK Flexibility Score: inf
ROOT
ATOM      1  C   UNL     1     -93.947 147.573 236.528  1.00  0.00     0.000 C 
ENDROOT
BRANCH   1   2
ATOM      2  C   UNL     1     -94.627 147.848 235.175  1.00  0.00     0.000 C 
BRANCH   2   3
ATOM      3  C   UNL     1     -95.353 149.204 235.148  1.00  0.00     0.000 C 
BRANCH   3   4
ATOM      4  C   UNL     1     -96.881 149.054 235.057  1.00  0.00     0.000 C 
BRANCH   4   5
ATOM      5  C   UNL     1     -97.506 150.014 234.031  1.00  0.00     0.000 C 
BRANCH   5   6
ATOM      6  C   UNL     1     -96.568 150.303 232.847  1.00  0.00     0.000 C 
BRANCH   6   7
ATOM      7  C   UNL     1     -97.116 151.392 231.912  1.00  0.00     0.006 C 
BRANCH   7   8
ATOM      8  C   UNL     1     -96.548 152.781 232.229  1.00  0.00     0.053 C 
BRANCH   8   9
ATOM      9  C   UNL     1     -97.599 153.647 232.847  1.00  0.00     0.041 C 
ATOM     10  O   UNL     1     -98.818 153.412 232.636  1.00  0.00    -0.550 OA
ATOM     11  O   UNL     1     -97.232 154.744 233.617  1.00  0.00    -0.550 OA
ENDBRANCH   8   9
ENDBRANCH   7   8
ENDBRANCH   6   7
ENDBRANCH   5   6
ENDBRANCH   4   5
ENDBRANCH   3   4
ENDBRANCH   2   3
ENDBRANCH   1   2
BRANCH   1  12
ATOM     12  C   UNL     1     -94.144 148.720 237.532  1.00  0.00     0.000 C 
BRANCH  12  13
ATOM     13  C   UNL     1     -94.924 148.286 238.786  1.00  0.00    -0.000 C 
BRANCH  13  14
ATOM     14  C   UNL     1     -96.404 148.698 238.739  1.00  0.00    -0.000 C 
BRANCH  14  15
ATOM     15  C   UNL     1     -96.611 150.196 239.025  1.00  0.00    -0.000 C 
BRANCH  15  16
ATOM     16  C   UNL     1     -98.047 150.658 238.723  1.00  0.00    -0.000 C 
BRANCH  16  17
ATOM     17  C   UNL     1     -98.941 149.511 238.218  1.00  0.00    -0.000 C 
BRANCH  17  18
ATOM     18  C   UNL     1     -99.840 149.931 237.041  1.00  0.00    -0.000 C 
BRANCH  18  19
ATOM     19  C   UNL     1    -100.306 151.398 237.079  1.00  0.00    -0.003 C 
ATOM     20  C   UNL     1     -99.773 152.225 235.910  1.00  0.00     0.004 C 
ENDBRANCH  18  19
ENDBRANCH  17  18
ENDBRANCH  16  17
ENDBRANCH  15  16
ENDBRANCH  14  15
ENDBRANCH  13  14
ENDBRANCH  12  13
ENDBRANCH   1  12
TORSDOF 16
ENDMDL
