MODEL 1
REMARK VINA RESULT:    -4.016      0.000      0.000
REMARK INTER + INTRA:          -9.243
REMARK INTER:                  -7.302
REMARK INTRA:                  -1.940
REMARK UNBOUND:                -1.940
REMARK SMILES CCCCCCCCCCCCCCCC(=O)[O-]
REMARK SMILES IDX 9 1 10 2 11 3 12 4 13 5 14 6 15 7 16 8 17 9 18 10 8 11 7 12
REMARK SMILES IDX 6 13 5 14 4 15 3 16 2 17 1 18
REMARK H PARENT
REMARK Flexibility Score: inf
ROOT
ATOM      1  C   UNL     1      19.953  84.225  29.180  1.00  0.00     0.000 C 
ENDROOT
BRANCH   1   2
ATOM      2  C   UNL     1      18.721  84.643  28.362  1.00  0.00     0.000 C 
BRANCH   2   3
ATOM      3  C   UNL     1      18.596  86.169  28.215  1.00  0.00     0.000 C 
BRANCH   3   4
ATOM      4  C   UNL     1      19.921  86.891  28.551  1.00  0.00     0.000 C 
BRANCH   4   5
ATOM      5  C   UNL     1      19.741  88.075  29.519  1.00  0.00     0.000 C 
BRANCH   5   6
ATOM      6  C   UNL     1      19.395  87.665  30.966  1.00  0.00     0.006 C 
BRANCH   6   7
ATOM      7  C   UNL     1      18.112  88.319  31.505  1.00  0.00     0.053 C 
BRANCH   7   8
ATOM      8  C   UNL     1      17.088  87.312  31.924  1.00  0.00     0.041 C 
ATOM      9  O   UNL     1      16.320  87.554  32.892  1.00  0.00    -0.550 OA
ATOM     10  O   UNL     1      16.980  86.105  31.246  1.00  0.00    -0.550 OA
ENDBRANCH   7   8
ENDBRANCH   6   7
ENDBRANCH   5   6
ENDBRANCH   4   5
ENDBRANCH   3   4
ENDBRANCH   2   3
ENDBRANCH   1   2
BRANCH   1  11
ATOM     11  C   UNL     1      20.112  82.696  29.268  1.00  0.00     0.000 C 
BRANCH  11  12
ATOM     12  C   UNL     1      19.639  81.980  27.994  1.00  0.00    -0.000 C 
BRANCH  12  13
ATOM     13  C   UNL     1      20.803  81.368  27.197  1.00  0.00    -0.000 C 
BRANCH  13  14
ATOM     14  C   UNL     1      20.802  81.792  25.718  1.00  0.00    -0.000 C 
BRANCH  14  15
ATOM     15  C   UNL     1      19.744  82.865  25.384  1.00  0.00    -0.000 C 
BRANCH  15  16
ATOM     16  C   UNL     1      20.353  84.071  24.647  1.00  0.00    -0.000 C 
BRANCH  16  17
ATOM     17  C   UNL     1      21.050  85.055  25.600  1.00  0.00    -0.003 C 
ATOM     18  C   UNL     1      22.571  85.045  25.451  1.00  0.00     0.004 C 
ENDBRANCH  16  17
ENDBRANCH  15  16
ENDBRANCH  14  15
ENDBRANCH  13  14
ENDBRANCH  12  13
ENDBRANCH  11  12
ENDBRANCH   1  11
TORSDOF 14
ENDMDL
MODEL 2
REMARK VINA RESULT:    -3.983     12.903     14.986
REMARK INTER + INTRA:          -9.184
REMARK INTER:                  -6.991
REMARK INTRA:                  -2.193
REMARK UNBOUND:                -1.940
REMARK SMILES CCCCCCCCCCCCCCCC(=O)[O-]
REMARK SMILES IDX 9 1 10 2 11 3 12 4 13 5 14 6 15 7 16 8 17 9 18 10 8 11 7 12
REMARK SMILES IDX 6 13 5 14 4 15 3 16 2 17 1 18
REMARK H PARENT
REMARK Flexibility Score: inf
ROOT
ATOM      1  C   UNL     1      13.810  99.626  22.561  1.00  0.00     0.000 C 
ENDROOT
BRANCH   1   2
ATOM      2  C   UNL     1      15.106  99.633  23.386  1.00  0.00     0.000 C 
BRANCH   2   3
ATOM      3  C   UNL     1      16.338 100.022  22.552  1.00  0.00     0.000 C 
BRANCH   3   4
ATOM      4  C   UNL     1      17.658  99.618  23.250  1.00  0.00     0.000 C 
BRANCH   4   5
ATOM      5  C   UNL     1      17.532  98.339  24.098  1.00  0.00     0.000 C 
BRANCH   5   6
ATOM      6  C   UNL     1      18.492  97.205  23.681  1.00  0.00     0.006 C 
BRANCH   6   7
ATOM      7  C   UNL     1      19.355  96.668  24.835  1.00  0.00     0.053 C 
BRANCH   7   8
ATOM      8  C   UNL     1      18.902  95.325  25.313  1.00  0.00     0.041 C 
ATOM      9  O   UNL     1      19.535  94.287  24.983  1.00  0.00    -0.550 OA
ATOM     10  O   UNL     1      17.778  95.216  26.122  1.00  0.00    -0.550 OA
ENDBRANCH   7   8
ENDBRANCH   6   7
ENDBRANCH   5   6
ENDBRANCH   4   5
ENDBRANCH   3   4
ENDBRANCH   2   3
ENDBRANCH   1   2
BRANCH   1  11
ATOM     11  C   UNL     1      12.622  99.022  23.332  1.00  0.00     0.000 C 
BRANCH  11  12
ATOM     12  C   UNL     1      11.753  98.108  22.455  1.00  0.00    -0.000 C 
BRANCH  12  13
ATOM     13  C   UNL     1      11.767  98.525  20.975  1.00  0.00    -0.000 C 
BRANCH  13  14
ATOM     14  C   UNL     1      12.174  97.378  20.035  1.00  0.00    -0.000 C 
BRANCH  14  15
ATOM     15  C   UNL     1      13.174  96.386  20.668  1.00  0.00    -0.000 C 
BRANCH  15  16
ATOM     16  C   UNL     1      14.632  96.731  20.321  1.00  0.00    -0.000 C 
BRANCH  16  17
ATOM     17  C   UNL     1      15.600  96.436  21.477  1.00  0.00    -0.003 C 
ATOM     18  C   UNL     1      14.882  95.984  22.749  1.00  0.00     0.004 C 
ENDBRANCH  16  17
ENDBRANCH  15  16
ENDBRANCH  14  15
ENDBRANCH  13  14
ENDBRANCH  12  13
ENDBRANCH  11  12
ENDBRANCH   1  11
TORSDOF 14
ENDMDL
MODEL 3
REMARK VINA RESULT:    -3.944      1.786      2.475
REMARK INTER + INTRA:          -9.112
REMARK INTER:                  -7.376
REMARK INTRA:                  -1.735
REMARK UNBOUND:                -1.940
REMARK SMILES CCCCCCCCCCCCCCCC(=O)[O-]
REMARK SMILES IDX 9 1 10 2 11 3 12 4 13 5 14 6 15 7 16 8 17 9 18 10 8 11 7 12
REMARK SMILES IDX 6 13 5 14 4 15 3 16 2 17 1 18
REMARK H PARENT
REMARK Flexibility Score: inf
ROOT
ATOM      1  C   UNL     1      19.314  83.284  28.862  1.00  0.00     0.000 C 
ENDROOT
BRANCH   1   2
ATOM      2  C   UNL     1      19.522  84.717  29.375  1.00  0.00     0.000 C 
BRANCH   2   3
ATOM      3  C   UNL     1      18.215  85.527  29.418  1.00  0.00     0.000 C 
BRANCH   3   4
ATOM      4  C   UNL     1      17.514  85.419  30.792  1.00  0.00     0.000 C 
BRANCH   4   5
ATOM      5  C   UNL     1      16.727  86.685  31.177  1.00  0.00     0.000 C 
BRANCH   5   6
ATOM      6  C   UNL     1      17.145  87.306  32.526  1.00  0.00     0.006 C 
BRANCH   6   7
ATOM      7  C   UNL     1      17.730  88.722  32.401  1.00  0.00     0.053 C 
BRANCH   7   8
ATOM      8  C   UNL     1      18.755  88.825  31.315  1.00  0.00     0.041 C 
ATOM      9  O   UNL     1      19.806  88.134  31.367  1.00  0.00    -0.550 OA
ATOM     10  O   UNL     1      18.551  89.685  30.244  1.00  0.00    -0.550 OA
ENDBRANCH   7   8
ENDBRANCH   6   7
ENDBRANCH   5   6
ENDBRANCH   4   5
ENDBRANCH   3   4
ENDBRANCH   2   3
ENDBRANCH   1   2
BRANCH   1  11
ATOM     11  C   UNL     1      18.483  83.235  27.567  1.00  0.00     0.000 C 
BRANCH  11  12
ATOM     12  C   UNL     1      19.151  82.393  26.469  1.00  0.00    -0.000 C 
BRANCH  12  13
ATOM     13  C   UNL     1      20.686  82.426  26.554  1.00  0.00    -0.000 C 
BRANCH  13  14
ATOM     14  C   UNL     1      21.313  83.480  25.625  1.00  0.00    -0.000 C 
BRANCH  14  15
ATOM     15  C   UNL     1      20.395  83.897  24.457  1.00  0.00    -0.000 C 
BRANCH  15  16
ATOM     16  C   UNL     1      20.001  85.382  24.529  1.00  0.00    -0.000 C 
BRANCH  16  17
ATOM     17  C   UNL     1      20.502  86.064  25.812  1.00  0.00    -0.003 C 
ATOM     18  C   UNL     1      19.513  87.093  26.360  1.00  0.00     0.004 C 
ENDBRANCH  16  17
ENDBRANCH  15  16
ENDBRANCH  14  15
ENDBRANCH  13  14
ENDBRANCH  12  13
ENDBRANCH  11  12
ENDBRANCH   1  11
TORSDOF 14
ENDMDL
MODEL 4
REMARK VINA RESULT:    -3.916     13.308     15.491
REMARK INTER + INTRA:          -9.062
REMARK INTER:                  -6.775
REMARK INTRA:                  -2.287
REMARK UNBOUND:                -1.940
REMARK SMILES CCCCCCCCCCCCCCCC(=O)[O-]
REMARK SMILES IDX 9 1 10 2 11 3 12 4 13 5 14 6 15 7 16 8 17 9 18 10 8 11 7 12
REMARK SMILES IDX 6 13 5 14 4 15 3 16 2 17 1 18
REMARK H PARENT
REMARK Flexibility Score: inf
ROOT
ATOM      1  C   UNL     1      13.603  96.990  20.140  1.00  0.00     0.000 C 
ENDROOT
BRANCH   1   2
ATOM      2  C   UNL     1      14.649  96.344  21.061  1.00  0.00     0.000 C 
BRANCH   2   3
ATOM      3  C   UNL     1      14.130  96.136  22.494  1.00  0.00     0.000 C 
BRANCH   3   4
ATOM      4  C   UNL     1      15.286  95.976  23.509  1.00  0.00     0.000 C 
BRANCH   4   5
ATOM      5  C   UNL     1      16.676  96.227  22.895  1.00  0.00     0.000 C 
BRANCH   5   6
ATOM      6  C   UNL     1      17.843  96.107  23.897  1.00  0.00     0.006 C 
BRANCH   6   7
ATOM      7  C   UNL     1      18.674  97.393  24.039  1.00  0.00     0.053 C 
BRANCH   7   8
ATOM      8  C   UNL     1      18.633  97.951  25.426  1.00  0.00     0.041 C 
ATOM      9  O   UNL     1      17.620  98.584  25.826  1.00  0.00    -0.550 OA
ATOM     10  O   UNL     1      19.713  97.774  26.281  1.00  0.00    -0.550 OA
ENDBRANCH   7   8
ENDBRANCH   6   7
ENDBRANCH   5   6
ENDBRANCH   4   5
ENDBRANCH   3   4
ENDBRANCH   2   3
ENDBRANCH   1   2
BRANCH   1  11
ATOM     11  C   UNL     1      12.192  96.414  20.353  1.00  0.00     0.000 C 
BRANCH  11  12
ATOM     12  C   UNL     1      11.140  97.507  20.594  1.00  0.00    -0.000 C 
BRANCH  12  13
ATOM     13  C   UNL     1      11.750  98.797  21.167  1.00  0.00    -0.000 C 
BRANCH  13  14
ATOM     14  C   UNL     1      11.541  98.934  22.684  1.00  0.00    -0.000 C 
BRANCH  14  15
ATOM     15  C   UNL     1      12.614  99.799  23.380  1.00  0.00    -0.000 C 
BRANCH  15  16
ATOM     16  C   UNL     1      13.923  99.859  22.575  1.00  0.00    -0.000 C 
BRANCH  16  17
ATOM     17  C   UNL     1      15.165  99.621  23.448  1.00  0.00    -0.003 C 
ATOM     18  C   UNL     1      16.468  99.977  22.732  1.00  0.00     0.004 C 
ENDBRANCH  16  17
ENDBRANCH  15  16
ENDBRANCH  14  15
ENDBRANCH  13  14
ENDBRANCH  12  13
ENDBRANCH  11  12
ENDBRANCH   1  11
TORSDOF 14
ENDMDL
MODEL 5
REMARK VINA RESULT:    -3.909     13.359     15.400
REMARK INTER + INTRA:          -9.048
REMARK INTER:                  -6.829
REMARK INTRA:                  -2.218
REMARK UNBOUND:                -1.940
REMARK SMILES CCCCCCCCCCCCCCCC(=O)[O-]
REMARK SMILES IDX 9 1 10 2 11 3 12 4 13 5 14 6 15 7 16 8 17 9 18 10 8 11 7 12
REMARK SMILES IDX 6 13 5 14 4 15 3 16 2 17 1 18
REMARK H PARENT
REMARK Flexibility Score: inf
ROOT
ATOM      1  C   UNL     1      12.294  99.413  23.730  1.00  0.00     0.000 C 
ENDROOT
BRANCH   1   2
ATOM      2  C   UNL     1      13.542 100.093  23.148  1.00  0.00     0.000 C 
BRANCH   2   3
ATOM      3  C   UNL     1      14.849  99.548  23.748  1.00  0.00     0.000 C 
BRANCH   3   4
ATOM      4  C   UNL     1      16.085  99.975  22.922  1.00  0.00     0.000 C 
BRANCH   4   5
ATOM      5  C   UNL     1      17.397  99.340  23.416  1.00  0.00     0.000 C 
BRANCH   5   6
ATOM      6  C   UNL     1      17.243  98.469  24.680  1.00  0.00     0.006 C 
BRANCH   6   7
ATOM      7  C   UNL     1      18.178  98.875  25.831  1.00  0.00     0.053 C 
BRANCH   7   8
ATOM      8  C   UNL     1      19.326  97.929  25.999  1.00  0.00     0.041 C 
ATOM      9  O   UNL     1      19.420  96.911  25.264  1.00  0.00    -0.550 OA
ATOM     10  O   UNL     1      20.292  98.171  26.967  1.00  0.00    -0.550 OA
ENDBRANCH   7   8
ENDBRANCH   6   7
ENDBRANCH   5   6
ENDBRANCH   4   5
ENDBRANCH   3   4
ENDBRANCH   2   3
ENDBRANCH   1   2
BRANCH   1  11
ATOM     11  C   UNL     1      11.379  98.825  22.641  1.00  0.00     0.000 C 
BRANCH  11  12
ATOM     12  C   UNL     1      12.060  98.775  21.264  1.00  0.00    -0.000 C 
BRANCH  12  13
ATOM     13  C   UNL     1      11.802  97.451  20.526  1.00  0.00    -0.000 C 
BRANCH  13  14
ATOM     14  C   UNL     1      13.098  96.707  20.164  1.00  0.00    -0.000 C 
BRANCH  14  15
ATOM     15  C   UNL     1      14.360  97.309  20.819  1.00  0.00    -0.000 C 
BRANCH  15  16
ATOM     16  C   UNL     1      15.072  96.304  21.741  1.00  0.00    -0.000 C 
BRANCH  16  17
ATOM     17  C   UNL     1      14.089  95.401  22.502  1.00  0.00    -0.003 C 
ATOM     18  C   UNL     1      13.786  95.912  23.910  1.00  0.00     0.004 C 
ENDBRANCH  16  17
ENDBRANCH  15  16
ENDBRANCH  14  15
ENDBRANCH  13  14
ENDBRANCH  12  13
ENDBRANCH  11  12
ENDBRANCH   1  11
TORSDOF 14
ENDMDL
MODEL 6
REMARK VINA RESULT:    -3.898     12.902     14.912
REMARK INTER + INTRA:          -9.029
REMARK INTER:                  -6.861
REMARK INTRA:                  -2.167
REMARK UNBOUND:                -1.940
REMARK SMILES CCCCCCCCCCCCCCCC(=O)[O-]
REMARK SMILES IDX 9 1 10 2 11 3 12 4 13 5 14 6 15 7 16 8 17 9 18 10 8 11 7 12
REMARK SMILES IDX 6 13 5 14 4 15 3 16 2 17 1 18
REMARK H PARENT
REMARK Flexibility Score: inf
ROOT
ATOM      1  C   UNL     1      14.531 100.007  22.950  1.00  0.00     0.000 C 
ENDROOT
BRANCH   1   2
ATOM      2  C   UNL     1      15.855  99.522  22.340  1.00  0.00     0.000 C 
BRANCH   2   3
ATOM      3  C   UNL     1      17.051  99.713  23.288  1.00  0.00     0.000 C 
BRANCH   3   4
ATOM      4  C   UNL     1      17.591  98.363  23.815  1.00  0.00     0.000 C 
BRANCH   4   5
ATOM      5  C   UNL     1      17.519  98.234  25.348  1.00  0.00     0.000 C 
BRANCH   5   6
ATOM      6  C   UNL     1      16.108  97.931  25.893  1.00  0.00     0.006 C 
BRANCH   6   7
ATOM      7  C   UNL     1      15.510  96.615  25.368  1.00  0.00     0.053 C 
BRANCH   7   8
ATOM      8  C   UNL     1      16.355  95.428  25.706  1.00  0.00     0.041 C 
ATOM      9  O   UNL     1      16.989  94.823  24.801  1.00  0.00    -0.550 OA
ATOM     10  O   UNL     1      16.443  94.986  27.019  1.00  0.00    -0.550 OA
ENDBRANCH   7   8
ENDBRANCH   6   7
ENDBRANCH   5   6
ENDBRANCH   4   5
ENDBRANCH   3   4
ENDBRANCH   2   3
ENDBRANCH   1   2
BRANCH   1  11
ATOM     11  C   UNL     1      13.531  98.859  23.177  1.00  0.00     0.000 C 
BRANCH  11  12
ATOM     12  C   UNL     1      12.172  99.121  22.509  1.00  0.00    -0.000 C 
BRANCH  12  13
ATOM     13  C   UNL     1      11.566  97.850  21.890  1.00  0.00    -0.000 C 
BRANCH  13  14
ATOM     14  C   UNL     1      11.518  97.899  20.354  1.00  0.00    -0.000 C 
BRANCH  14  15
ATOM     15  C   UNL     1      12.470  96.892  19.674  1.00  0.00    -0.000 C 
BRANCH  15  16
ATOM     16  C   UNL     1      13.365  96.162  20.690  1.00  0.00    -0.000 C 
BRANCH  16  17
ATOM     17  C   UNL     1      14.855  96.493  20.511  1.00  0.00    -0.003 C 
ATOM     18  C   UNL     1      15.731  95.892  21.610  1.00  0.00     0.004 C 
ENDBRANCH  16  17
ENDBRANCH  15  16
ENDBRANCH  14  15
ENDBRANCH  13  14
ENDBRANCH  12  13
ENDBRANCH  11  12
ENDBRANCH   1  11
TORSDOF 14
ENDMDL
MODEL 7
REMARK VINA RESULT:    -3.862     13.293     15.373
REMARK INTER + INTRA:          -8.964
REMARK INTER:                  -6.839
REMARK INTRA:                  -2.124
REMARK UNBOUND:                -1.940
REMARK SMILES CCCCCCCCCCCCCCCC(=O)[O-]
REMARK SMILES IDX 9 1 10 2 11 3 12 4 13 5 14 6 15 7 16 8 17 9 18 10 8 11 7 12
REMARK SMILES IDX 6 13 5 14 4 15 3 16 2 17 1 18
REMARK H PARENT
REMARK Flexibility Score: inf
ROOT
ATOM      1  C   UNL     1      15.107  96.729  21.709  1.00  0.00     0.000 C 
ENDROOT
BRANCH   1   2
ATOM      2  C   UNL     1      13.990  95.718  22.010  1.00  0.00     0.000 C 
BRANCH   2   3
ATOM      3  C   UNL     1      12.975  95.596  20.861  1.00  0.00     0.000 C 
BRANCH   3   4
ATOM      4  C   UNL     1      12.882  96.898  20.032  1.00  0.00     0.000 C 
BRANCH   4   5
ATOM      5  C   UNL     1      11.658  97.761  20.387  1.00  0.00     0.000 C 
BRANCH   5   6
ATOM      6  C   UNL     1      11.930  98.834  21.463  1.00  0.00     0.006 C 
BRANCH   6   7
ATOM      7  C   UNL     1      10.970  98.767  22.662  1.00  0.00     0.053 C 
BRANCH   7   8
ATOM      8  C   UNL     1      11.454  97.839  23.731  1.00  0.00     0.041 C 
ATOM      9  O   UNL     1      11.066  96.641  23.754  1.00  0.00    -0.550 OA
ATOM     10  O   UNL     1      12.332  98.295  24.705  1.00  0.00    -0.550 OA
ENDBRANCH   7   8
ENDBRANCH   6   7
ENDBRANCH   5   6
ENDBRANCH   4   5
ENDBRANCH   3   4
ENDBRANCH   2   3
ENDBRANCH   1   2
BRANCH   1  11
ATOM     11  C   UNL     1      15.239  97.805  22.802  1.00  0.00     0.000 C 
BRANCH  11  12
ATOM     12  C   UNL     1      15.539  99.198  22.225  1.00  0.00    -0.000 C 
BRANCH  12  13
ATOM     13  C   UNL     1      16.471 100.022  23.128  1.00  0.00    -0.000 C 
BRANCH  13  14
ATOM     14  C   UNL     1      17.827  99.337  23.369  1.00  0.00    -0.000 C 
BRANCH  14  15
ATOM     15  C   UNL     1      18.039  98.883  24.829  1.00  0.00    -0.000 C 
BRANCH  15  16
ATOM     16  C   UNL     1      18.662  97.480  24.917  1.00  0.00    -0.000 C 
BRANCH  16  17
ATOM     17  C   UNL     1      18.785  96.801  23.544  1.00  0.00    -0.003 C 
ATOM     18  C   UNL     1      18.073  95.450  23.485  1.00  0.00     0.004 C 
ENDBRANCH  16  17
ENDBRANCH  15  16
ENDBRANCH  14  15
ENDBRANCH  13  14
ENDBRANCH  12  13
ENDBRANCH  11  12
ENDBRANCH   1  11
TORSDOF 14
ENDMDL
MODEL 8
REMARK VINA RESULT:    -3.844     10.698     13.147
REMARK INTER + INTRA:          -8.930
REMARK INTER:                  -6.448
REMARK INTRA:                  -2.482
REMARK UNBOUND:                -1.940
REMARK SMILES CCCCCCCCCCCCCCCC(=O)[O-]
REMARK SMILES IDX 9 1 10 2 11 3 12 4 13 5 14 6 15 7 16 8 17 9 18 10 8 11 7 12
REMARK SMILES IDX 6 13 5 14 4 15 3 16 2 17 1 18
REMARK H PARENT
REMARK Flexibility Score: inf
ROOT
ATOM      1  C   UNL     1      13.045  93.202  24.366  1.00  0.00     0.000 C 
ENDROOT
BRANCH   1   2
ATOM      2  C   UNL     1      12.774  92.224  23.212  1.00  0.00     0.000 C 
BRANCH   2   3
ATOM      3  C   UNL     1      12.563  90.780  23.696  1.00  0.00     0.000 C 
BRANCH   3   4
ATOM      4  C   UNL     1      11.435  90.069  22.913  1.00  0.00     0.000 C 
BRANCH   4   5
ATOM      5  C   UNL     1      11.253  90.607  21.482  1.00  0.00     0.000 C 
BRANCH   5   6
ATOM      6  C   UNL     1      12.001  89.799  20.401  1.00  0.00     0.006 C 
BRANCH   6   7
ATOM      7  C   UNL     1      13.113  90.591  19.693  1.00  0.00     0.053 C 
BRANCH   7   8
ATOM      8  C   UNL     1      14.476  90.039  19.970  1.00  0.00     0.041 C 
ATOM      9  O   UNL     1      14.939  90.053  21.141  1.00  0.00    -0.550 OA
ATOM     10  O   UNL     1      15.236  89.508  18.936  1.00  0.00    -0.550 OA
ENDBRANCH   7   8
ENDBRANCH   6   7
ENDBRANCH   5   6
ENDBRANCH   4   5
ENDBRANCH   3   4
ENDBRANCH   2   3
ENDBRANCH   1   2
BRANCH   1  11
ATOM     11  C   UNL     1      11.758  93.862  24.895  1.00  0.00     0.000 C 
BRANCH  11  12
ATOM     12  C   UNL     1      10.683  94.012  23.807  1.00  0.00    -0.000 C 
BRANCH  12  13
ATOM     13  C   UNL     1       9.267  93.731  24.335  1.00  0.00    -0.000 C 
BRANCH  13  14
ATOM     14  C   UNL     1       8.802  92.291  24.059  1.00  0.00    -0.000 C 
BRANCH  14  15
ATOM     15  C   UNL     1       8.396  91.518  25.332  1.00  0.00    -0.000 C 
BRANCH  15  16
ATOM     16  C   UNL     1       9.579  90.752  25.949  1.00  0.00    -0.000 C 
BRANCH  16  17
ATOM     17  C   UNL     1      10.175  91.470  27.170  1.00  0.00    -0.003 C 
ATOM     18  C   UNL     1      11.623  91.066  27.445  1.00  0.00     0.004 C 
ENDBRANCH  16  17
ENDBRANCH  15  16
ENDBRANCH  14  15
ENDBRANCH  13  14
ENDBRANCH  12  13
ENDBRANCH  11  12
ENDBRANCH   1  11
TORSDOF 14
ENDMDL
MODEL 9
REMARK VINA RESULT:    -3.793     11.112     13.474
REMARK INTER + INTRA:          -8.838
REMARK INTER:                  -6.734
REMARK INTRA:                  -2.104
REMARK UNBOUND:                -1.940
REMARK SMILES CCCCCCCCCCCCCCCC(=O)[O-]
REMARK SMILES IDX 9 1 10 2 11 3 12 4 13 5 14 6 15 7 16 8 17 9 18 10 8 11 7 12
REMARK SMILES IDX 6 13 5 14 4 15 3 16 2 17 1 18
REMARK H PARENT
REMARK Flexibility Score: inf
ROOT
ATOM      1  C   UNL     1      11.966  92.593  19.413  1.00  0.00     0.000 C 
ENDROOT
BRANCH   1   2
ATOM      2  C   UNL     1      10.840  91.608  19.762  1.00  0.00     0.000 C 
BRANCH   2   3
ATOM      3  C   UNL     1      11.367  90.218  20.154  1.00  0.00     0.000 C 
BRANCH   3   4
ATOM      4  C   UNL     1      12.841  90.020  19.730  1.00  0.00     0.000 C 
BRANCH   4   5
ATOM      5  C   UNL     1      13.782  89.732  20.914  1.00  0.00     0.000 C 
BRANCH   5   6
ATOM      6  C   UNL     1      15.257  90.110  20.658  1.00  0.00     0.006 C 
BRANCH   6   7
ATOM      7  C   UNL     1      15.832  89.517  19.362  1.00  0.00     0.053 C 
BRANCH   7   8
ATOM      8  C   UNL     1      17.305  89.267  19.451  1.00  0.00     0.041 C 
ATOM      9  O   UNL     1      17.808  88.243  18.917  1.00  0.00    -0.550 OA
ATOM     10  O   UNL     1      18.124  90.162  20.126  1.00  0.00    -0.550 OA
ENDBRANCH   7   8
ENDBRANCH   6   7
ENDBRANCH   5   6
ENDBRANCH   4   5
ENDBRANCH   3   4
ENDBRANCH   2   3
ENDBRANCH   1   2
BRANCH   1  11
ATOM     11  C   UNL     1      12.124  93.706  20.465  1.00  0.00     0.000 C 
BRANCH  11  12
ATOM     12  C   UNL     1      13.042  93.293  21.626  1.00  0.00    -0.000 C 
BRANCH  12  13
ATOM     13  C   UNL     1      12.307  93.266  22.977  1.00  0.00    -0.000 C 
BRANCH  13  14
ATOM     14  C   UNL     1      12.087  91.839  23.507  1.00  0.00    -0.000 C 
BRANCH  14  15
ATOM     15  C   UNL     1      10.615  91.378  23.446  1.00  0.00    -0.000 C 
BRANCH  15  16
ATOM     16  C   UNL     1       9.636  92.563  23.398  1.00  0.00    -0.000 C 
BRANCH  16  17
ATOM     17  C   UNL     1       8.988  92.850  24.762  1.00  0.00    -0.003 C 
ATOM     18  C   UNL     1       9.701  93.960  25.534  1.00  0.00     0.004 C 
ENDBRANCH  16  17
ENDBRANCH  15  16
ENDBRANCH  14  15
ENDBRANCH  13  14
ENDBRANCH  12  13
ENDBRANCH  11  12
ENDBRANCH   1  11
TORSDOF 14
ENDMDL
