MODEL 1
REMARK VINA RESULT:    -3.316      0.000      0.000
REMARK INTER + INTRA:          -7.950
REMARK INTER:                  -5.835
REMARK INTRA:                  -2.114
REMARK UNBOUND:                -2.114
REMARK SMILES CCCCCCCCCCCCCCC(=O)[O-]
REMARK SMILES IDX 9 1 10 2 11 3 12 4 13 5 14 6 15 7 16 8 17 9 8 10 7 11 6 12
REMARK SMILES IDX 5 13 4 14 3 15 2 16 1 17
REMARK H PARENT
REMARK Flexibility Score: inf
ROOT
ATOM      1  C   UNL     1      -5.627 -65.462  -6.816  1.00  0.00     0.000 C 
ENDROOT
BRANCH   1   2
ATOM      2  C   UNL     1      -5.437 -64.132  -7.568  1.00  0.00     0.000 C 
BRANCH   2   3
ATOM      3  C   UNL     1      -3.974 -63.748  -7.853  1.00  0.00     0.000 C 
BRANCH   3   4
ATOM      4  C   UNL     1      -3.277 -63.102  -6.646  1.00  0.00     0.000 C 
BRANCH   4   5
ATOM      5  C   UNL     1      -2.102 -63.961  -6.164  1.00  0.00     0.006 C 
BRANCH   5   6
ATOM      6  C   UNL     1      -1.148 -64.285  -7.318  1.00  0.00     0.053 C 
BRANCH   6   7
ATOM      7  C   UNL     1       0.266 -64.324  -6.834  1.00  0.00     0.041 C 
ATOM      8  O   UNL     1       1.055 -63.381  -7.106  1.00  0.00    -0.550 OA
ATOM      9  O   UNL     1       0.700 -65.377  -6.040  1.00  0.00    -0.550 OA
ENDBRANCH   6   7
ENDBRANCH   5   6
ENDBRANCH   4   5
ENDBRANCH   3   4
ENDBRANCH   2   3
ENDBRANCH   1   2
BRANCH   1  10
ATOM     10  C   UNL     1      -4.594 -66.527  -7.212  1.00  0.00     0.000 C 
BRANCH  10  11
ATOM     11  C   UNL     1      -4.537 -67.652  -6.171  1.00  0.00    -0.000 C 
BRANCH  11  12
ATOM     12  C   UNL     1      -3.579 -67.293  -5.025  1.00  0.00    -0.000 C 
BRANCH  12  13
ATOM     13  C   UNL     1      -4.316 -66.813  -3.765  1.00  0.00    -0.000 C 
BRANCH  13  14
ATOM     14  C   UNL     1      -4.082 -65.322  -3.474  1.00  0.00    -0.000 C 
BRANCH  14  15
ATOM     15  C   UNL     1      -5.394 -64.625  -3.092  1.00  0.00    -0.000 C 
BRANCH  15  16
ATOM     16  C   UNL     1      -5.505 -63.254  -3.770  1.00  0.00    -0.003 C 
ATOM     17  C   UNL     1      -6.918 -63.011  -4.291  1.00  0.00     0.004 C 
ENDBRANCH  15  16
ENDBRANCH  14  15
ENDBRANCH  13  14
ENDBRANCH  12  13
ENDBRANCH  11  12
ENDBRANCH  10  11
ENDBRANCH   1  10
TORSDOF 13
ENDMDL
MODEL 2
REMARK VINA RESULT:    -3.214      7.916     10.111
REMARK INTER + INTRA:          -7.770
REMARK INTER:                  -6.378
REMARK INTRA:                  -1.392
REMARK UNBOUND:                -2.114
REMARK SMILES CCCCCCCCCCCCCCC(=O)[O-]
REMARK SMILES IDX 9 1 10 2 11 3 12 4 13 5 14 6 15 7 16 8 17 9 8 10 7 11 6 12
REMARK SMILES IDX 5 13 4 14 3 15 2 16 1 17
REMARK H PARENT
REMARK Flexibility Score: inf
ROOT
ATOM      1  C   UNL     1      -4.173 -69.689 -10.608  1.00  0.00     0.000 C 
ENDROOT
BRANCH   1   2
ATOM      2  C   UNL     1      -4.247 -69.448 -12.127  1.00  0.00     0.000 C 
BRANCH   2   3
ATOM      3  C   UNL     1      -4.532 -70.703 -12.972  1.00  0.00     0.000 C 
BRANCH   3   4
ATOM      4  C   UNL     1      -4.068 -72.001 -12.295  1.00  0.00     0.000 C 
BRANCH   4   5
ATOM      5  C   UNL     1      -5.236 -72.981 -12.129  1.00  0.00     0.006 C 
BRANCH   5   6
ATOM      6  C   UNL     1      -4.756 -74.317 -11.554  1.00  0.00     0.053 C 
BRANCH   6   7
ATOM      7  C   UNL     1      -5.873 -75.310 -11.530  1.00  0.00     0.041 C 
ATOM      8  O   UNL     1      -5.689 -76.483 -11.951  1.00  0.00    -0.550 OA
ATOM      9  O   UNL     1      -7.105 -74.957 -10.995  1.00  0.00    -0.550 OA
ENDBRANCH   6   7
ENDBRANCH   5   6
ENDBRANCH   4   5
ENDBRANCH   3   4
ENDBRANCH   2   3
ENDBRANCH   1   2
BRANCH   1  10
ATOM     10  C   UNL     1      -5.513 -69.450  -9.897  1.00  0.00     0.000 C 
BRANCH  10  11
ATOM     11  C   UNL     1      -6.188 -68.173 -10.413  1.00  0.00    -0.000 C 
BRANCH  11  12
ATOM     12  C   UNL     1      -7.605 -68.470 -10.928  1.00  0.00    -0.000 C 
BRANCH  12  13
ATOM     13  C   UNL     1      -8.000 -69.945 -10.760  1.00  0.00    -0.000 C 
BRANCH  13  14
ATOM     14  C   UNL     1      -9.332 -70.120 -10.016  1.00  0.00    -0.000 C 
BRANCH  14  15
ATOM     15  C   UNL     1      -9.153 -70.995  -8.768  1.00  0.00    -0.000 C 
BRANCH  15  16
ATOM     16  C   UNL     1      -8.834 -72.445  -9.154  1.00  0.00    -0.003 C 
ATOM     17  C   UNL     1      -9.978 -73.066  -9.951  1.00  0.00     0.004 C 
ENDBRANCH  15  16
ENDBRANCH  14  15
ENDBRANCH  13  14
ENDBRANCH  12  13
ENDBRANCH  11  12
ENDBRANCH  10  11
ENDBRANCH   1  10
TORSDOF 13
ENDMDL
MODEL 3
REMARK VINA RESULT:    -3.213      4.735      6.801
REMARK INTER + INTRA:          -7.769
REMARK INTER:                  -6.664
REMARK INTRA:                  -1.106
REMARK UNBOUND:                -2.114
REMARK SMILES CCCCCCCCCCCCCCC(=O)[O-]
REMARK SMILES IDX 9 1 10 2 11 3 12 4 13 5 14 6 15 7 16 8 17 9 8 10 7 11 6 12
REMARK SMILES IDX 5 13 4 14 3 15 2 16 1 17
REMARK H PARENT
REMARK Flexibility Score: inf
ROOT
ATOM      1  C   UNL     1      -4.660 -66.510  -3.073  1.00  0.00     0.000 C 
ENDROOT
BRANCH   1   2
ATOM      2  C   UNL     1      -4.167 -65.088  -3.398  1.00  0.00     0.000 C 
BRANCH   2   3
ATOM      3  C   UNL     1      -5.151 -63.960  -3.038  1.00  0.00     0.000 C 
BRANCH   3   4
ATOM      4  C   UNL     1      -5.939 -64.239  -1.749  1.00  0.00     0.000 C 
BRANCH   4   5
ATOM      5  C   UNL     1      -7.427 -63.919  -1.935  1.00  0.00     0.006 C 
BRANCH   5   6
ATOM      6  C   UNL     1      -8.306 -65.017  -1.329  1.00  0.00     0.053 C 
BRANCH   6   7
ATOM      7  C   UNL     1      -9.033 -64.504  -0.128  1.00  0.00     0.041 C 
ATOM      8  O   UNL     1      -9.803 -63.511  -0.229  1.00  0.00    -0.550 OA
ATOM      9  O   UNL     1      -8.903 -65.150   1.094  1.00  0.00    -0.550 OA
ENDBRANCH   6   7
ENDBRANCH   5   6
ENDBRANCH   4   5
ENDBRANCH   3   4
ENDBRANCH   2   3
ENDBRANCH   1   2
BRANCH   1  10
ATOM     10  C   UNL     1      -4.494 -67.484  -4.248  1.00  0.00     0.000 C 
BRANCH  10  11
ATOM     11  C   UNL     1      -3.764 -66.815  -5.419  1.00  0.00    -0.000 C 
BRANCH  11  12
ATOM     12  C   UNL     1      -4.700 -66.643  -6.625  1.00  0.00    -0.000 C 
BRANCH  12  13
ATOM     13  C   UNL     1      -4.924 -65.168  -6.996  1.00  0.00    -0.000 C 
BRANCH  13  14
ATOM     14  C   UNL     1      -6.402 -64.756  -6.919  1.00  0.00    -0.000 C 
BRANCH  14  15
ATOM     15  C   UNL     1      -7.127 -65.066  -8.236  1.00  0.00    -0.000 C 
BRANCH  15  16
ATOM     16  C   UNL     1      -8.646 -64.941  -8.069  1.00  0.00    -0.003 C 
ATOM     17  C   UNL     1      -8.999 -64.186  -6.791  1.00  0.00     0.004 C 
ENDBRANCH  15  16
ENDBRANCH  14  15
ENDBRANCH  13  14
ENDBRANCH  12  13
ENDBRANCH  11  12
ENDBRANCH  10  11
ENDBRANCH   1  10
TORSDOF 13
ENDMDL
MODEL 4
REMARK VINA RESULT:    -3.171     11.714     13.699
REMARK INTER + INTRA:          -7.695
REMARK INTER:                  -6.084
REMARK INTRA:                  -1.611
REMARK UNBOUND:                -2.114
REMARK SMILES CCCCCCCCCCCCCCC(=O)[O-]
REMARK SMILES IDX 9 1 10 2 11 3 12 4 13 5 14 6 15 7 16 8 17 9 8 10 7 11 6 12
REMARK SMILES IDX 5 13 4 14 3 15 2 16 1 17
REMARK H PARENT
REMARK Flexibility Score: inf
ROOT
ATOM      1  C   UNL     1     -13.171 -73.679 -12.968  1.00  0.00     0.000 C 
ENDROOT
BRANCH   1   2
ATOM      2  C   UNL     1     -12.509 -72.327 -12.649  1.00  0.00     0.000 C 
BRANCH   2   3
ATOM      3  C   UNL     1     -11.872 -72.227 -11.251  1.00  0.00     0.000 C 
BRANCH   3   4
ATOM      4  C   UNL     1     -10.957 -73.416 -10.922  1.00  0.00     0.000 C 
BRANCH   4   5
ATOM      5  C   UNL     1     -10.412 -73.312  -9.492  1.00  0.00     0.006 C 
BRANCH   5   6
ATOM      6  C   UNL     1      -8.915 -72.987  -9.497  1.00  0.00     0.053 C 
BRANCH   6   7
ATOM      7  C   UNL     1      -8.669 -71.638  -8.901  1.00  0.00     0.041 C 
ATOM      8  O   UNL     1      -7.576 -71.045  -9.103  1.00  0.00    -0.550 OA
ATOM      9  O   UNL     1      -9.666 -71.010  -8.166  1.00  0.00    -0.550 OA
ENDBRANCH   6   7
ENDBRANCH   5   6
ENDBRANCH   4   5
ENDBRANCH   3   4
ENDBRANCH   2   3
ENDBRANCH   1   2
BRANCH   1  10
ATOM     10  C   UNL     1     -14.699 -73.650 -12.811  1.00  0.00     0.000 C 
BRANCH  10  11
ATOM     11  C   UNL     1     -15.172 -74.732 -11.832  1.00  0.00    -0.000 C 
BRANCH  11  12
ATOM     12  C   UNL     1     -15.300 -74.168 -10.409  1.00  0.00    -0.000 C 
BRANCH  12  13
ATOM     13  C   UNL     1     -14.192 -74.672  -9.471  1.00  0.00    -0.000 C 
BRANCH  13  14
ATOM     14  C   UNL     1     -13.499 -75.937  -9.999  1.00  0.00    -0.000 C 
BRANCH  14  15
ATOM     15  C   UNL     1     -13.833 -77.152  -9.124  1.00  0.00    -0.000 C 
BRANCH  15  16
ATOM     16  C   UNL     1     -13.537 -76.864  -7.647  1.00  0.00    -0.003 C 
ATOM     17  C   UNL     1     -14.709 -77.275  -6.760  1.00  0.00     0.004 C 
ENDBRANCH  15  16
ENDBRANCH  14  15
ENDBRANCH  13  14
ENDBRANCH  12  13
ENDBRANCH  11  12
ENDBRANCH  10  11
ENDBRANCH   1  10
TORSDOF 13
ENDMDL
MODEL 5
REMARK VINA RESULT:    -3.166     13.401     15.207
REMARK INTER + INTRA:          -7.686
REMARK INTER:                  -5.736
REMARK INTRA:                  -1.950
REMARK UNBOUND:                -2.114
REMARK SMILES CCCCCCCCCCCCCCC(=O)[O-]
REMARK SMILES IDX 9 1 10 2 11 3 12 4 13 5 14 6 15 7 16 8 17 9 8 10 7 11 6 12
REMARK SMILES IDX 5 13 4 14 3 15 2 16 1 17
REMARK H PARENT
REMARK Flexibility Score: inf
ROOT
ATOM      1  C   UNL     1     -13.960 -76.034 -10.308  1.00  0.00     0.000 C 
ENDROOT
BRANCH   1   2
ATOM      2  C   UNL     1     -15.034 -75.236 -11.069  1.00  0.00     0.000 C 
BRANCH   2   3
ATOM      3  C   UNL     1     -15.332 -73.837 -10.499  1.00  0.00     0.000 C 
BRANCH   3   4
ATOM      4  C   UNL     1     -14.343 -73.413  -9.403  1.00  0.00     0.000 C 
BRANCH   4   5
ATOM      5  C   UNL     1     -13.232 -72.525  -9.978  1.00  0.00     0.006 C 
BRANCH   5   6
ATOM      6  C   UNL     1     -11.883 -72.840  -9.326  1.00  0.00     0.053 C 
BRANCH   6   7
ATOM      7  C   UNL     1     -10.952 -73.457 -10.319  1.00  0.00     0.041 C 
ATOM      8  O   UNL     1     -11.372 -73.795 -11.458  1.00  0.00    -0.550 OA
ATOM      9  O   UNL     1      -9.607 -73.612 -10.009  1.00  0.00    -0.550 OA
ENDBRANCH   6   7
ENDBRANCH   5   6
ENDBRANCH   4   5
ENDBRANCH   3   4
ENDBRANCH   2   3
ENDBRANCH   1   2
BRANCH   1  10
ATOM     10  C   UNL     1     -14.245 -77.543 -10.278  1.00  0.00     0.000 C 
BRANCH  10  11
ATOM     11  C   UNL     1     -14.007 -78.119  -8.877  1.00  0.00    -0.000 C 
BRANCH  11  12
ATOM     12  C   UNL     1     -13.772 -76.998  -7.853  1.00  0.00    -0.000 C 
BRANCH  12  13
ATOM     13  C   UNL     1     -14.785 -77.028  -6.698  1.00  0.00    -0.000 C 
BRANCH  13  14
ATOM     14  C   UNL     1     -16.235 -77.164  -7.187  1.00  0.00    -0.000 C 
BRANCH  14  15
ATOM     15  C   UNL     1     -16.765 -75.823  -7.711  1.00  0.00    -0.000 C 
BRANCH  15  16
ATOM     16  C   UNL     1     -17.055 -74.857  -6.557  1.00  0.00    -0.003 C 
ATOM     17  C   UNL     1     -17.375 -73.458  -7.077  1.00  0.00     0.004 C 
ENDBRANCH  15  16
ENDBRANCH  14  15
ENDBRANCH  13  14
ENDBRANCH  12  13
ENDBRANCH  11  12
ENDBRANCH  10  11
ENDBRANCH   1  10
TORSDOF 13
ENDMDL
MODEL 6
REMARK VINA RESULT:    -3.164     12.218     14.069
REMARK INTER + INTRA:          -7.682
REMARK INTER:                  -6.112
REMARK INTRA:                  -1.570
REMARK UNBOUND:                -2.114
REMARK SMILES CCCCCCCCCCCCCCC(=O)[O-]
REMARK SMILES IDX 9 1 10 2 11 3 12 4 13 5 14 6 15 7 16 8 17 9 8 10 7 11 6 12
REMARK SMILES IDX 5 13 4 14 3 15 2 16 1 17
REMARK H PARENT
REMARK Flexibility Score: inf
ROOT
ATOM      1  C   UNL     1     -13.892 -76.376  -9.393  1.00  0.00     0.000 C 
ENDROOT
BRANCH   1   2
ATOM      2  C   UNL     1     -13.201 -75.141  -9.998  1.00  0.00     0.000 C 
BRANCH   2   3
ATOM      3  C   UNL     1     -12.489 -74.229  -8.982  1.00  0.00     0.000 C 
BRANCH   3   4
ATOM      4  C   UNL     1     -12.172 -72.836  -9.545  1.00  0.00     0.000 C 
BRANCH   4   5
ATOM      5  C   UNL     1     -10.881 -72.858 -10.372  1.00  0.00     0.006 C 
BRANCH   5   6
ATOM      6  C   UNL     1      -9.670 -73.181  -9.493  1.00  0.00     0.053 C 
BRANCH   6   7
ATOM      7  C   UNL     1      -8.934 -71.930  -9.133  1.00  0.00     0.041 C 
ATOM      8  O   UNL     1      -7.862 -71.632  -9.724  1.00  0.00    -0.550 OA
ATOM      9  O   UNL     1      -9.458 -71.064  -8.182  1.00  0.00    -0.550 OA
ENDBRANCH   6   7
ENDBRANCH   5   6
ENDBRANCH   4   5
ENDBRANCH   3   4
ENDBRANCH   2   3
ENDBRANCH   1   2
BRANCH   1  10
ATOM     10  C   UNL     1     -13.450 -76.663  -7.951  1.00  0.00     0.000 C 
BRANCH  10  11
ATOM     11  C   UNL     1     -14.650 -77.036  -7.072  1.00  0.00    -0.000 C 
BRANCH  11  12
ATOM     12  C   UNL     1     -15.974 -76.709  -7.780  1.00  0.00    -0.000 C 
BRANCH  12  13
ATOM     13  C   UNL     1     -16.653 -75.451  -7.217  1.00  0.00    -0.000 C 
BRANCH  13  14
ATOM     14  C   UNL     1     -17.127 -74.490  -8.318  1.00  0.00    -0.000 C 
BRANCH  14  15
ATOM     15  C   UNL     1     -16.140 -73.329  -8.496  1.00  0.00    -0.000 C 
BRANCH  15  16
ATOM     16  C   UNL     1     -16.128 -72.836  -9.948  1.00  0.00    -0.003 C 
ATOM     17  C   UNL     1     -17.545 -72.579 -10.453  1.00  0.00     0.004 C 
ENDBRANCH  15  16
ENDBRANCH  14  15
ENDBRANCH  13  14
ENDBRANCH  12  13
ENDBRANCH  11  12
ENDBRANCH  10  11
ENDBRANCH   1  10
TORSDOF 13
ENDMDL
MODEL 7
REMARK VINA RESULT:    -3.129     13.663     15.477
REMARK INTER + INTRA:          -7.620
REMARK INTER:                  -5.845
REMARK INTRA:                  -1.775
REMARK UNBOUND:                -2.114
REMARK SMILES CCCCCCCCCCCCCCC(=O)[O-]
REMARK SMILES IDX 9 1 10 2 11 3 12 4 13 5 14 6 15 7 16 8 17 9 8 10 7 11 6 12
REMARK SMILES IDX 5 13 4 14 3 15 2 16 1 17
REMARK H PARENT
REMARK Flexibility Score: inf
ROOT
ATOM      1  C   UNL     1     -13.561 -76.530  -7.927  1.00  0.00     0.000 C 
ENDROOT
BRANCH   1   2
ATOM      2  C   UNL     1     -13.817 -76.744  -9.430  1.00  0.00     0.000 C 
BRANCH   2   3
ATOM      3  C   UNL     1     -14.660 -75.649 -10.109  1.00  0.00     0.000 C 
BRANCH   3   4
ATOM      4  C   UNL     1     -14.586 -74.298  -9.382  1.00  0.00     0.000 C 
BRANCH   4   5
ATOM      5  C   UNL     1     -14.313 -73.157 -10.370  1.00  0.00     0.006 C 
BRANCH   5   6
ATOM      6  C   UNL     1     -12.999 -72.445 -10.038  1.00  0.00     0.053 C 
BRANCH   6   7
ATOM      7  C   UNL     1     -11.833 -73.337 -10.321  1.00  0.00     0.041 C 
ATOM      8  O   UNL     1     -11.649 -73.790 -11.482  1.00  0.00    -0.550 OA
ATOM      9  O   UNL     1     -10.919 -73.628  -9.317  1.00  0.00    -0.550 OA
ENDBRANCH   6   7
ENDBRANCH   5   6
ENDBRANCH   4   5
ENDBRANCH   3   4
ENDBRANCH   2   3
ENDBRANCH   1   2
BRANCH   1  10
ATOM     10  C   UNL     1     -14.395 -77.465  -7.039  1.00  0.00     0.000 C 
BRANCH  10  11
ATOM     11  C   UNL     1     -15.571 -76.714  -6.402  1.00  0.00    -0.000 C 
BRANCH  11  12
ATOM     12  C   UNL     1     -16.829 -76.815  -7.278  1.00  0.00    -0.000 C 
BRANCH  12  13
ATOM     13  C   UNL     1     -17.782 -75.625  -7.087  1.00  0.00    -0.000 C 
BRANCH  13  14
ATOM     14  C   UNL     1     -17.247 -74.594  -6.083  1.00  0.00    -0.000 C 
BRANCH  14  15
ATOM     15  C   UNL     1     -17.803 -73.195  -6.383  1.00  0.00    -0.000 C 
BRANCH  15  16
ATOM     16  C   UNL     1     -17.011 -72.519  -7.509  1.00  0.00    -0.003 C 
ATOM     17  C   UNL     1     -17.901 -72.238  -8.716  1.00  0.00     0.004 C 
ENDBRANCH  15  16
ENDBRANCH  14  15
ENDBRANCH  13  14
ENDBRANCH  12  13
ENDBRANCH  11  12
ENDBRANCH  10  11
ENDBRANCH   1  10
TORSDOF 13
ENDMDL
MODEL 8
REMARK VINA RESULT:    -3.097      5.479      7.746
REMARK INTER + INTRA:          -7.565
REMARK INTER:                  -5.298
REMARK INTRA:                  -2.267
REMARK UNBOUND:                -2.114
REMARK SMILES CCCCCCCCCCCCCCC(=O)[O-]
REMARK SMILES IDX 9 1 10 2 11 3 12 4 13 5 14 6 15 7 16 8 17 9 8 10 7 11 6 12
REMARK SMILES IDX 5 13 4 14 3 15 2 16 1 17
REMARK H PARENT
REMARK Flexibility Score: inf
ROOT
ATOM      1  C   UNL     1      -8.861 -65.477   0.758  1.00  0.00     0.000 C 
ENDROOT
BRANCH   1   2
ATOM      2  C   UNL     1      -9.303 -64.078   0.293  1.00  0.00     0.000 C 
BRANCH   2   3
ATOM      3  C   UNL     1      -8.264 -63.310  -0.543  1.00  0.00     0.000 C 
BRANCH   3   4
ATOM      4  C   UNL     1      -7.152 -64.214  -1.097  1.00  0.00     0.000 C 
BRANCH   4   5
ATOM      5  C   UNL     1      -5.773 -63.576  -0.894  1.00  0.00     0.006 C 
BRANCH   5   6
ATOM      6  C   UNL     1      -4.683 -64.646  -0.780  1.00  0.00     0.053 C 
BRANCH   6   7
ATOM      7  C   UNL     1      -3.564 -64.359  -1.728  1.00  0.00     0.041 C 
ATOM      8  O   UNL     1      -2.630 -63.583  -1.391  1.00  0.00    -0.550 OA
ATOM      9  O   UNL     1      -3.523 -64.986  -2.967  1.00  0.00    -0.550 OA
ENDBRANCH   6   7
ENDBRANCH   5   6
ENDBRANCH   4   5
ENDBRANCH   3   4
ENDBRANCH   2   3
ENDBRANCH   1   2
BRANCH   1  10
ATOM     10  C   UNL     1      -9.271 -65.785   2.205  1.00  0.00     0.000 C 
BRANCH  10  11
ATOM     11  C   UNL     1      -8.198 -65.313   3.194  1.00  0.00    -0.000 C 
BRANCH  11  12
ATOM     12  C   UNL     1      -6.788 -65.546   2.628  1.00  0.00    -0.000 C 
BRANCH  12  13
ATOM     13  C   UNL     1      -5.906 -64.290   2.702  1.00  0.00    -0.000 C 
BRANCH  13  14
ATOM     14  C   UNL     1      -6.563 -63.150   3.495  1.00  0.00    -0.000 C 
BRANCH  14  15
ATOM     15  C   UNL     1      -6.924 -61.978   2.574  1.00  0.00    -0.000 C 
BRANCH  15  16
ATOM     16  C   UNL     1      -8.257 -61.344   2.988  1.00  0.00    -0.003 C 
ATOM     17  C   UNL     1      -8.912 -60.624   1.812  1.00  0.00     0.004 C 
ENDBRANCH  15  16
ENDBRANCH  14  15
ENDBRANCH  13  14
ENDBRANCH  12  13
ENDBRANCH  11  12
ENDBRANCH  10  11
ENDBRANCH   1  10
TORSDOF 13
ENDMDL
MODEL 9
REMARK VINA RESULT:    -3.056     11.938     13.704
REMARK INTER + INTRA:          -7.492
REMARK INTER:                  -5.952
REMARK INTRA:                  -1.540
REMARK UNBOUND:                -2.114
REMARK SMILES CCCCCCCCCCCCCCC(=O)[O-]
REMARK SMILES IDX 9 1 10 2 11 3 12 4 13 5 14 6 15 7 16 8 17 9 8 10 7 11 6 12
REMARK SMILES IDX 5 13 4 14 3 15 2 16 1 17
REMARK H PARENT
REMARK Flexibility Score: inf
ROOT
ATOM      1  C   UNL     1     -12.746 -74.692  -9.000  1.00  0.00     0.000 C 
ENDROOT
BRANCH   1   2
ATOM      2  C   UNL     1     -12.697 -73.192  -9.341  1.00  0.00     0.000 C 
BRANCH   2   3
ATOM      3  C   UNL     1     -13.016 -72.846 -10.807  1.00  0.00     0.000 C 
BRANCH   3   4
ATOM      4  C   UNL     1     -11.855 -72.142 -11.525  1.00  0.00     0.000 C 
BRANCH   4   5
ATOM      5  C   UNL     1     -10.550 -72.288 -10.732  1.00  0.00     0.006 C 
BRANCH   5   6
ATOM      6  C   UNL     1      -9.900 -70.923 -10.488  1.00  0.00     0.053 C 
BRANCH   6   7
ATOM      7  C   UNL     1      -9.003 -70.976  -9.293  1.00  0.00     0.041 C 
ATOM      8  O   UNL     1      -9.494 -71.009  -8.133  1.00  0.00    -0.550 OA
ATOM      9  O   UNL     1      -7.626 -71.041  -9.458  1.00  0.00    -0.550 OA
ENDBRANCH   6   7
ENDBRANCH   5   6
ENDBRANCH   4   5
ENDBRANCH   3   4
ENDBRANCH   2   3
ENDBRANCH   1   2
BRANCH   1  10
ATOM     10  C   UNL     1     -13.528 -75.516 -10.034  1.00  0.00     0.000 C 
BRANCH  10  11
ATOM     11  C   UNL     1     -13.908 -76.890  -9.469  1.00  0.00    -0.000 C 
BRANCH  11  12
ATOM     12  C   UNL     1     -13.516 -77.004  -7.987  1.00  0.00    -0.000 C 
BRANCH  12  13
ATOM     13  C   UNL     1     -14.706 -77.370  -7.086  1.00  0.00    -0.000 C 
BRANCH  13  14
ATOM     14  C   UNL     1     -16.054 -76.937  -7.681  1.00  0.00    -0.000 C 
BRANCH  14  15
ATOM     15  C   UNL     1     -16.524 -75.611  -7.067  1.00  0.00    -0.000 C 
BRANCH  15  16
ATOM     16  C   UNL     1     -17.247 -74.749  -8.109  1.00  0.00    -0.003 C 
ATOM     17  C   UNL     1     -16.370 -73.587  -8.566  1.00  0.00     0.004 C 
ENDBRANCH  15  16
ENDBRANCH  14  15
ENDBRANCH  13  14
ENDBRANCH  12  13
ENDBRANCH  11  12
ENDBRANCH  10  11
ENDBRANCH   1  10
TORSDOF 13
ENDMDL
