MODEL 1
REMARK VINA RESULT:    -5.547      0.000      0.000
REMARK INTER + INTRA:          -6.957
REMARK INTER:                  -6.520
REMARK INTRA:                  -0.437
REMARK UNBOUND:                -0.437
REMARK SMILES C=C(C)[C@@H]1CC[C@@]2(CO)CC[C@@]3(C)[C@H](CC[C@@H]4[C@]5(C)CC[C@@H](O)C(C)(C)[C@@H]5CC[C@]43C)[C@@H]12
REMARK SMILES IDX 4 1 5 2 6 3 7 4 32 5 14 6 15 7 16 8 17 9 18 10 20 11 21 12
REMARK SMILES IDX 22 13 24 14 27 15 28 16 29 17 30 18 12 19 11 20 10 21 13 22
REMARK SMILES IDX 31 23 25 24 26 25 19 26 2 27 3 28 1 29 8 30 9 31 23 33
REMARK H PARENT 9 32 23 34
REMARK Flexibility Score: inf
ROOT
ATOM      1  C   UNL     1     -10.221 -27.300 -43.260  1.00  0.00     0.018 C 
ATOM      2  C   UNL     1     -11.302 -26.783 -44.208  1.00  0.00     0.009 C 
ATOM      3  C   UNL     1     -12.054 -25.705 -43.430  1.00  0.00     0.010 C 
ATOM      4  C   UNL     1     -11.035 -25.069 -42.463  1.00  0.00    -0.003 C 
ATOM      5  C   UNL     1      -9.942 -26.161 -42.243  1.00  0.00     0.008 C 
ATOM      6  C   UNL     1      -9.776 -26.664 -40.760  1.00  0.00    -0.000 C 
ATOM      7  C   UNL     1      -8.780 -25.725 -40.038  1.00  0.00     0.005 C 
ATOM      8  C   UNL     1      -8.501 -26.130 -38.599  1.00  0.00     0.005 C 
ATOM      9  C   UNL     1      -9.801 -26.191 -37.765  1.00  0.00     0.002 C 
ATOM     10  C   UNL     1      -9.557 -26.199 -36.166  1.00  0.00    -0.026 C 
ATOM     11  C   UNL     1      -8.201 -26.873 -35.778  1.00  0.00     0.010 C 
ATOM     12  C   UNL     1      -7.867 -26.871 -34.268  1.00  0.00     0.033 C 
ATOM     13  C   UNL     1      -9.074 -26.961 -33.306  1.00  0.00     0.120 C 
ATOM     14  C   UNL     1     -10.337 -27.610 -33.961  1.00  0.00    -0.006 C 
ATOM     15  C   UNL     1     -10.757 -26.839 -35.299  1.00  0.00     0.003 C 
ATOM     16  C   UNL     1     -11.830 -27.654 -36.077  1.00  0.00     0.005 C 
ATOM     17  C   UNL     1     -12.078 -27.166 -37.491  1.00  0.00     0.008 C 
ATOM     18  C   UNL     1     -10.794 -27.235 -38.378  1.00  0.00    -0.024 C 
ATOM     19  C   UNL     1     -11.122 -26.885 -39.936  1.00  0.00    -0.024 C 
ATOM     20  C   UNL     1     -12.070 -25.633 -40.089  1.00  0.00     0.008 C 
ATOM     21  C   UNL     1     -11.711 -24.583 -41.151  1.00  0.00     0.010 C 
ATOM     22  C   UNL     1     -11.899 -28.095 -40.554  1.00  0.00     0.012 C 
ATOM     23  C   UNL     1     -10.182 -28.673 -38.285  1.00  0.00     0.012 C 
ATOM     24  C   UNL     1     -10.021 -29.125 -34.183  1.00  0.00     0.014 C 
ATOM     25  C   UNL     1     -11.507 -27.574 -32.936  1.00  0.00     0.014 C 
ATOM     26  C   UNL     1      -9.405 -24.681 -35.795  1.00  0.00     0.012 C 
ENDROOT
BRANCH   1  27
ATOM     27  C   UNL     1      -8.967 -27.821 -43.968  1.00  0.00    -0.077 C 
ATOM     28  C   UNL     1      -7.578 -27.449 -43.520  1.00  0.00     0.039 C 
ATOM     29  C   UNL     1      -9.086 -28.679 -44.996  1.00  0.00     0.008 C 
ENDBRANCH   1  27
BRANCH   4  30
ATOM     30  C   UNL     1     -10.425 -23.789 -43.124  1.00  0.00     0.163 C 
BRANCH  30  31
ATOM     31  O   UNL     1     -11.365 -23.100 -43.900  1.00  0.00    -0.396 OA
ATOM     32  H   UNL     1     -11.651 -22.318 -43.360  1.00  0.00     0.210 HD
ENDBRANCH  30  31
ENDBRANCH   4  30
BRANCH  13  33
ATOM     33  O   UNL     1      -9.310 -25.714 -32.687  1.00  0.00    -0.393 OA
ATOM     34  H   UNL     1      -8.539 -25.113 -32.824  1.00  0.00     0.210 HD
ENDBRANCH  13  33
TORSDOF 4
ENDMDL
MODEL 2
REMARK VINA RESULT:    -5.242      5.513      9.523
REMARK INTER + INTRA:          -6.599
REMARK INTER:                  -6.215
REMARK INTRA:                  -0.383
REMARK UNBOUND:                -0.437
REMARK SMILES C=C(C)[C@@H]1CC[C@@]2(CO)CC[C@@]3(C)[C@H](CC[C@@H]4[C@]5(C)CC[C@@H](O)C(C)(C)[C@@H]5CC[C@]43C)[C@@H]12
REMARK SMILES IDX 4 1 5 2 6 3 7 4 32 5 14 6 15 7 16 8 17 9 18 10 20 11 21 12
REMARK SMILES IDX 22 13 24 14 27 15 28 16 29 17 30 18 12 19 11 20 10 21 13 22
REMARK SMILES IDX 31 23 25 24 26 25 19 26 2 27 3 28 1 29 8 30 9 31 23 33
REMARK H PARENT 9 32 23 34
REMARK Flexibility Score: inf
ROOT
ATOM      1  C   UNL     1     -15.139 -23.832 -39.421  1.00  0.00     0.018 C 
ATOM      2  C   UNL     1     -15.004 -22.375 -38.981  1.00  0.00     0.009 C 
ATOM      3  C   UNL     1     -14.809 -21.572 -40.265  1.00  0.00     0.010 C 
ATOM      4  C   UNL     1     -15.568 -22.326 -41.375  1.00  0.00    -0.003 C 
ATOM      5  C   UNL     1     -15.639 -23.808 -40.891  1.00  0.00     0.008 C 
ATOM      6  C   UNL     1     -14.925 -24.860 -41.819  1.00  0.00    -0.000 C 
ATOM      7  C   UNL     1     -15.934 -25.316 -42.901  1.00  0.00     0.005 C 
ATOM      8  C   UNL     1     -15.375 -26.370 -43.843  1.00  0.00     0.005 C 
ATOM      9  C   UNL     1     -14.095 -25.873 -44.554  1.00  0.00     0.002 C 
ATOM     10  C   UNL     1     -13.686 -26.743 -45.855  1.00  0.00    -0.026 C 
ATOM     11  C   UNL     1     -14.131 -28.236 -45.732  1.00  0.00     0.010 C 
ATOM     12  C   UNL     1     -13.825 -29.122 -46.962  1.00  0.00     0.033 C 
ATOM     13  C   UNL     1     -12.549 -28.763 -47.757  1.00  0.00     0.120 C 
ATOM     14  C   UNL     1     -11.491 -27.984 -46.907  1.00  0.00    -0.006 C 
ATOM     15  C   UNL     1     -12.126 -26.665 -46.261  1.00  0.00     0.003 C 
ATOM     16  C   UNL     1     -11.154 -26.059 -45.207  1.00  0.00     0.005 C 
ATOM     17  C   UNL     1     -11.775 -24.990 -44.330  1.00  0.00     0.008 C 
ATOM     18  C   UNL     1     -12.987 -25.527 -43.503  1.00  0.00    -0.024 C 
ATOM     19  C   UNL     1     -13.521 -24.420 -42.432  1.00  0.00    -0.024 C 
ATOM     20  C   UNL     1     -13.624 -22.975 -43.058  1.00  0.00     0.008 C 
ATOM     21  C   UNL     1     -14.887 -22.151 -42.761  1.00  0.00     0.010 C 
ATOM     22  C   UNL     1     -12.474 -24.317 -41.275  1.00  0.00     0.012 C 
ATOM     23  C   UNL     1     -12.553 -26.823 -42.738  1.00  0.00     0.012 C 
ATOM     24  C   UNL     1     -10.913 -28.983 -45.853  1.00  0.00     0.014 C 
ATOM     25  C   UNL     1     -10.293 -27.604 -47.824  1.00  0.00     0.014 C 
ATOM     26  C   UNL     1     -14.551 -26.129 -47.013  1.00  0.00     0.012 C 
ENDROOT
BRANCH   1  27
ATOM     27  C   UNL     1     -15.998 -24.690 -38.487  1.00  0.00    -0.077 C 
ATOM     28  C   UNL     1     -16.410 -26.095 -38.838  1.00  0.00     0.039 C 
ATOM     29  C   UNL     1     -16.368 -24.208 -37.289  1.00  0.00     0.008 C 
ENDBRANCH   1  27
BRANCH   4  30
ATOM     30  C   UNL     1     -17.000 -21.716 -41.528  1.00  0.00     0.163 C 
BRANCH  30  31
ATOM     31  O   UNL     1     -17.125 -20.494 -40.856  1.00  0.00    -0.396 OA
ATOM     32  H   UNL     1     -16.531 -19.854 -41.329  1.00  0.00     0.210 HD
ENDBRANCH  30  31
ENDBRANCH   4  30
BRANCH  13  33
ATOM     33  O   UNL     1     -12.883 -28.147 -48.983  1.00  0.00    -0.393 OA
ATOM     34  H   UNL     1     -12.880 -27.164 -48.883  1.00  0.00     0.210 HD
ENDBRANCH  13  33
TORSDOF 4
ENDMDL
MODEL 3
REMARK VINA RESULT:    -5.154      3.936     10.179
REMARK INTER + INTRA:          -6.495
REMARK INTER:                  -6.002
REMARK INTRA:                  -0.493
REMARK UNBOUND:                -0.437
REMARK SMILES C=C(C)[C@@H]1CC[C@@]2(CO)CC[C@@]3(C)[C@H](CC[C@@H]4[C@]5(C)CC[C@@H](O)C(C)(C)[C@@H]5CC[C@]43C)[C@@H]12
REMARK SMILES IDX 4 1 5 2 6 3 7 4 32 5 14 6 15 7 16 8 17 9 18 10 20 11 21 12
REMARK SMILES IDX 22 13 24 14 27 15 28 16 29 17 30 18 12 19 11 20 10 21 13 22
REMARK SMILES IDX 31 23 25 24 26 25 19 26 2 27 3 28 1 29 8 30 9 31 23 33
REMARK H PARENT 9 32 23 34
REMARK Flexibility Score: inf
ROOT
ATOM      1  C   UNL     1     -11.033 -26.870 -41.045  1.00  0.00     0.018 C 
ATOM      2  C   UNL     1     -10.197 -25.768 -40.393  1.00  0.00     0.009 C 
ATOM      3  C   UNL     1     -10.448 -24.512 -41.226  1.00  0.00     0.010 C 
ATOM      4  C   UNL     1     -11.883 -24.631 -41.779  1.00  0.00    -0.003 C 
ATOM      5  C   UNL     1     -12.189 -26.161 -41.801  1.00  0.00     0.008 C 
ATOM      6  C   UNL     1     -12.484 -26.773 -43.221  1.00  0.00    -0.000 C 
ATOM      7  C   UNL     1     -13.995 -26.613 -43.515  1.00  0.00     0.005 C 
ATOM      8  C   UNL     1     -14.419 -27.205 -44.849  1.00  0.00     0.005 C 
ATOM      9  C   UNL     1     -13.628 -26.581 -46.023  1.00  0.00     0.002 C 
ATOM     10  C   UNL     1     -14.294 -26.838 -47.474  1.00  0.00    -0.026 C 
ATOM     11  C   UNL     1     -15.086 -28.185 -47.531  1.00  0.00     0.010 C 
ATOM     12  C   UNL     1     -15.801 -28.477 -48.871  1.00  0.00     0.033 C 
ATOM     13  C   UNL     1     -15.105 -27.940 -50.142  1.00  0.00     0.120 C 
ATOM     14  C   UNL     1     -13.568 -27.716 -49.957  1.00  0.00    -0.006 C 
ATOM     15  C   UNL     1     -13.269 -26.749 -48.717  1.00  0.00     0.003 C 
ATOM     16  C   UNL     1     -11.751 -26.761 -48.378  1.00  0.00     0.005 C 
ATOM     17  C   UNL     1     -11.405 -26.120 -47.048  1.00  0.00     0.008 C 
ATOM     18  C   UNL     1     -12.094 -26.838 -45.845  1.00  0.00    -0.024 C 
ATOM     19  C   UNL     1     -11.565 -26.255 -44.416  1.00  0.00    -0.024 C 
ATOM     20  C   UNL     1     -11.482 -24.680 -44.400  1.00  0.00     0.008 C 
ATOM     21  C   UNL     1     -12.024 -23.943 -43.165  1.00  0.00     0.010 C 
ATOM     22  C   UNL     1     -10.105 -26.769 -44.191  1.00  0.00     0.012 C 
ATOM     23  C   UNL     1     -11.796 -28.373 -45.922  1.00  0.00     0.012 C 
ATOM     24  C   UNL     1     -12.905 -29.125 -49.829  1.00  0.00     0.014 C 
ATOM     25  C   UNL     1     -12.991 -27.098 -51.264  1.00  0.00     0.014 C 
ATOM     26  C   UNL     1     -15.368 -25.701 -47.609  1.00  0.00     0.012 C 
ENDROOT
BRANCH   1  27
ATOM     27  C   UNL     1     -11.501 -27.955 -40.072  1.00  0.00    -0.077 C 
ATOM     28  C   UNL     1     -10.587 -29.050 -39.587  1.00  0.00     0.039 C 
ATOM     29  C   UNL     1     -12.753 -27.922 -39.584  1.00  0.00     0.008 C 
ENDBRANCH   1  27
BRANCH   4  30
ATOM     30  C   UNL     1     -12.868 -23.875 -40.829  1.00  0.00     0.163 C 
BRANCH  30  31
ATOM     31  O   UNL     1     -13.866 -23.197 -41.539  1.00  0.00    -0.396 OA
ATOM     32  H   UNL     1     -14.299 -23.872 -42.124  1.00  0.00     0.210 HD
ENDBRANCH  30  31
ENDBRANCH   4  30
BRANCH  13  33
ATOM     33  O   UNL     1     -15.802 -26.823 -50.656  1.00  0.00    -0.393 OA
ATOM     34  H   UNL     1     -16.773 -26.933 -50.516  1.00  0.00     0.210 HD
ENDBRANCH  13  33
TORSDOF 4
ENDMDL
MODEL 4
REMARK VINA RESULT:    -5.131      1.698      3.698
REMARK INTER + INTRA:          -6.468
REMARK INTER:                  -5.968
REMARK INTRA:                  -0.500
REMARK UNBOUND:                -0.437
REMARK SMILES C=C(C)[C@@H]1CC[C@@]2(CO)CC[C@@]3(C)[C@H](CC[C@@H]4[C@]5(C)CC[C@@H](O)C(C)(C)[C@@H]5CC[C@]43C)[C@@H]12
REMARK SMILES IDX 4 1 5 2 6 3 7 4 32 5 14 6 15 7 16 8 17 9 18 10 20 11 21 12
REMARK SMILES IDX 22 13 24 14 27 15 28 16 29 17 30 18 12 19 11 20 10 21 13 22
REMARK SMILES IDX 31 23 25 24 26 25 19 26 2 27 3 28 1 29 8 30 9 31 23 33
REMARK H PARENT 9 32 23 34
REMARK Flexibility Score: inf
ROOT
ATOM      1  C   UNL     1     -10.569 -25.425 -41.945  1.00  0.00     0.018 C 
ATOM      2  C   UNL     1      -9.886 -26.123 -43.120  1.00  0.00     0.009 C 
ATOM      3  C   UNL     1      -9.697 -27.575 -42.686  1.00  0.00     0.010 C 
ATOM      4  C   UNL     1     -10.863 -27.904 -41.731  1.00  0.00    -0.003 C 
ATOM      5  C   UNL     1     -11.313 -26.529 -41.145  1.00  0.00     0.008 C 
ATOM      6  C   UNL     1     -11.176 -26.380 -39.584  1.00  0.00    -0.000 C 
ATOM      7  C   UNL     1     -12.470 -26.920 -38.929  1.00  0.00     0.005 C 
ATOM      8  C   UNL     1     -12.480 -26.794 -37.414  1.00  0.00     0.005 C 
ATOM      9  C   UNL     1     -11.275 -27.522 -36.777  1.00  0.00     0.002 C 
ATOM     10  C   UNL     1     -11.434 -27.793 -35.191  1.00  0.00    -0.026 C 
ATOM     11  C   UNL     1     -12.306 -26.702 -34.489  1.00  0.00     0.010 C 
ATOM     12  C   UNL     1     -12.552 -26.921 -32.978  1.00  0.00     0.033 C 
ATOM     13  C   UNL     1     -11.411 -27.612 -32.197  1.00  0.00     0.120 C 
ATOM     14  C   UNL     1     -10.013 -27.457 -32.881  1.00  0.00    -0.006 C 
ATOM     15  C   UNL     1     -10.045 -27.986 -34.392  1.00  0.00     0.003 C 
ATOM     16  C   UNL     1      -8.743 -27.572 -35.136  1.00  0.00     0.005 C 
ATOM     17  C   UNL     1      -8.798 -27.762 -36.639  1.00  0.00     0.008 C 
ATOM     18  C   UNL     1      -9.930 -26.916 -37.304  1.00  0.00    -0.024 C 
ATOM     19  C   UNL     1      -9.855 -26.987 -38.931  1.00  0.00    -0.024 C 
ATOM     20  C   UNL     1      -9.606 -28.451 -39.462  1.00  0.00     0.008 C 
ATOM     21  C   UNL     1     -10.448 -28.940 -40.650  1.00  0.00     0.010 C 
ATOM     22  C   UNL     1      -8.625 -26.141 -39.399  1.00  0.00     0.012 C 
ATOM     23  C   UNL     1      -9.799 -25.426 -36.842  1.00  0.00     0.012 C 
ATOM     24  C   UNL     1      -9.595 -25.956 -32.751  1.00  0.00     0.014 C 
ATOM     25  C   UNL     1      -8.961 -28.257 -32.060  1.00  0.00     0.014 C 
ATOM     26  C   UNL     1     -12.263 -29.124 -35.111  1.00  0.00     0.012 C 
ENDROOT
BRANCH   1  27
ATOM     27  C   UNL     1     -11.459 -24.246 -42.350  1.00  0.00    -0.077 C 
ATOM     28  C   UNL     1     -12.671 -23.842 -41.553  1.00  0.00     0.039 C 
ATOM     29  C   UNL     1     -11.138 -23.505 -43.424  1.00  0.00     0.008 C 
ENDBRANCH   1  27
BRANCH   4  30
ATOM     30  C   UNL     1     -12.020 -28.575 -42.540  1.00  0.00     0.163 C 
BRANCH  30  31
ATOM     31  O   UNL     1     -13.046 -27.671 -42.838  1.00  0.00    -0.396 OA
ATOM     32  H   UNL     1     -13.163 -27.697 -43.824  1.00  0.00     0.210 HD
ENDBRANCH  30  31
ENDBRANCH   4  30
BRANCH  13  33
ATOM     33  O   UNL     1     -11.762 -28.942 -31.878  1.00  0.00    -0.393 OA
ATOM     34  H   UNL     1     -12.580 -29.206 -32.365  1.00  0.00     0.210 HD
ENDBRANCH  13  33
TORSDOF 4
ENDMDL
MODEL 5
REMARK VINA RESULT:    -5.128      4.875      8.834
REMARK INTER + INTRA:          -6.464
REMARK INTER:                  -6.001
REMARK INTRA:                  -0.464
REMARK UNBOUND:                -0.437
REMARK SMILES C=C(C)[C@@H]1CC[C@@]2(CO)CC[C@@]3(C)[C@H](CC[C@@H]4[C@]5(C)CC[C@@H](O)C(C)(C)[C@@H]5CC[C@]43C)[C@@H]12
REMARK SMILES IDX 4 1 5 2 6 3 7 4 32 5 14 6 15 7 16 8 17 9 18 10 20 11 21 12
REMARK SMILES IDX 22 13 24 14 27 15 28 16 29 17 30 18 12 19 11 20 10 21 13 22
REMARK SMILES IDX 31 23 25 24 26 25 19 26 2 27 3 28 1 29 8 30 9 31 23 33
REMARK H PARENT 9 32 23 34
REMARK Flexibility Score: inf
ROOT
ATOM      1  C   UNL     1     -15.267 -20.726 -39.734  1.00  0.00     0.018 C 
ATOM      2  C   UNL     1     -16.658 -20.683 -39.101  1.00  0.00     0.009 C 
ATOM      3  C   UNL     1     -17.125 -22.135 -39.029  1.00  0.00     0.010 C 
ATOM      4  C   UNL     1     -15.858 -22.997 -38.856  1.00  0.00    -0.003 C 
ATOM      5  C   UNL     1     -14.696 -22.142 -39.453  1.00  0.00     0.008 C 
ATOM      6  C   UNL     1     -13.949 -22.779 -40.684  1.00  0.00    -0.000 C 
ATOM      7  C   UNL     1     -12.815 -23.685 -40.148  1.00  0.00     0.005 C 
ATOM      8  C   UNL     1     -11.986 -24.332 -41.247  1.00  0.00     0.005 C 
ATOM      9  C   UNL     1     -12.867 -25.171 -42.201  1.00  0.00     0.002 C 
ATOM     10  C   UNL     1     -12.035 -26.208 -43.122  1.00  0.00    -0.026 C 
ATOM     11  C   UNL     1     -10.594 -25.693 -43.439  1.00  0.00     0.010 C 
ATOM     12  C   UNL     1      -9.714 -26.656 -44.269  1.00  0.00     0.033 C 
ATOM     13  C   UNL     1     -10.457 -27.540 -45.296  1.00  0.00     0.120 C 
ATOM     14  C   UNL     1     -11.831 -26.942 -45.746  1.00  0.00    -0.006 C 
ATOM     15  C   UNL     1     -12.775 -26.650 -44.486  1.00  0.00     0.003 C 
ATOM     16  C   UNL     1     -14.009 -25.807 -44.922  1.00  0.00     0.005 C 
ATOM     17  C   UNL     1     -14.804 -25.227 -43.769  1.00  0.00     0.008 C 
ATOM     18  C   UNL     1     -13.950 -24.267 -42.881  1.00  0.00    -0.024 C 
ATOM     19  C   UNL     1     -14.866 -23.511 -41.763  1.00  0.00    -0.024 C 
ATOM     20  C   UNL     1     -15.878 -24.488 -41.049  1.00  0.00     0.008 C 
ATOM     21  C   UNL     1     -16.015 -24.393 -39.521  1.00  0.00     0.010 C 
ATOM     22  C   UNL     1     -15.741 -22.439 -42.493  1.00  0.00     0.012 C 
ATOM     23  C   UNL     1     -13.259 -23.200 -43.794  1.00  0.00     0.012 C 
ATOM     24  C   UNL     1     -11.527 -25.676 -46.610  1.00  0.00     0.014 C 
ATOM     25  C   UNL     1     -12.525 -27.949 -46.708  1.00  0.00     0.014 C 
ATOM     26  C   UNL     1     -11.850 -27.469 -42.205  1.00  0.00     0.012 C 
ENDROOT
BRANCH   1  27
ATOM     27  C   UNL     1     -14.345 -19.586 -39.294  1.00  0.00    -0.077 C 
ATOM     28  C   UNL     1     -14.381 -18.226 -39.942  1.00  0.00     0.039 C 
ATOM     29  C   UNL     1     -13.500 -19.768 -38.265  1.00  0.00     0.008 C 
ENDBRANCH   1  27
BRANCH   4  30
ATOM     30  C   UNL     1     -15.626 -23.276 -37.336  1.00  0.00     0.163 C 
BRANCH  30  31
ATOM     31  O   UNL     1     -15.812 -24.626 -37.015  1.00  0.00    -0.396 OA
ATOM     32  H   UNL     1     -14.980 -24.922 -36.563  1.00  0.00     0.210 HD
ENDBRANCH  30  31
ENDBRANCH   4  30
BRANCH  13  33
ATOM     33  O   UNL     1     -10.520 -28.878 -44.847  1.00  0.00    -0.393 OA
ATOM     34  H   UNL     1     -10.368 -29.499 -45.600  1.00  0.00     0.210 HD
ENDBRANCH  13  33
TORSDOF 4
ENDMDL
MODEL 6
REMARK VINA RESULT:    -4.956      4.579      8.159
REMARK INTER + INTRA:          -6.262
REMARK INTER:                  -5.661
REMARK INTRA:                  -0.601
REMARK UNBOUND:                -0.437
REMARK SMILES C=C(C)[C@@H]1CC[C@@]2(CO)CC[C@@]3(C)[C@H](CC[C@@H]4[C@]5(C)CC[C@@H](O)C(C)(C)[C@@H]5CC[C@]43C)[C@@H]12
REMARK SMILES IDX 4 1 5 2 6 3 7 4 32 5 14 6 15 7 16 8 17 9 18 10 20 11 21 12
REMARK SMILES IDX 22 13 24 14 27 15 28 16 29 17 30 18 12 19 11 20 10 21 13 22
REMARK SMILES IDX 31 23 25 24 26 25 19 26 2 27 3 28 1 29 8 30 9 31 23 33
REMARK H PARENT 9 32 23 34
REMARK Flexibility Score: inf
ROOT
ATOM      1  C   UNL     1     -14.154 -26.182 -49.899  1.00  0.00     0.018 C 
ATOM      2  C   UNL     1     -14.074 -27.322 -50.914  1.00  0.00     0.009 C 
ATOM      3  C   UNL     1     -13.921 -28.599 -50.091  1.00  0.00     0.010 C 
ATOM      4  C   UNL     1     -14.659 -28.355 -48.759  1.00  0.00    -0.003 C 
ATOM      5  C   UNL     1     -14.666 -26.805 -48.572  1.00  0.00     0.008 C 
ATOM      6  C   UNL     1     -13.917 -26.273 -47.293  1.00  0.00    -0.000 C 
ATOM      7  C   UNL     1     -14.915 -26.276 -46.110  1.00  0.00     0.005 C 
ATOM      8  C   UNL     1     -14.322 -25.741 -44.816  1.00  0.00     0.005 C 
ATOM      9  C   UNL     1     -13.068 -26.542 -44.395  1.00  0.00     0.002 C 
ATOM     10  C   UNL     1     -12.634 -26.320 -42.853  1.00  0.00    -0.026 C 
ATOM     11  C   UNL     1     -13.018 -24.898 -42.329  1.00  0.00     0.010 C 
ATOM     12  C   UNL     1     -12.686 -24.627 -40.843  1.00  0.00     0.033 C 
ATOM     13  C   UNL     1     -11.432 -25.338 -40.287  1.00  0.00     0.120 C 
ATOM     14  C   UNL     1     -10.400 -25.726 -41.397  1.00  0.00    -0.006 C 
ATOM     15  C   UNL     1     -11.082 -26.624 -42.533  1.00  0.00     0.003 C 
ATOM     16  C   UNL     1     -10.128 -26.765 -43.754  1.00  0.00     0.005 C 
ATOM     17  C   UNL     1     -10.784 -27.339 -44.994  1.00  0.00     0.008 C 
ATOM     18  C   UNL     1     -11.967 -26.455 -45.504  1.00  0.00    -0.024 C 
ATOM     19  C   UNL     1     -12.537 -26.986 -46.937  1.00  0.00    -0.024 C 
ATOM     20  C   UNL     1     -12.703 -28.553 -46.979  1.00  0.00     0.008 C 
ATOM     21  C   UNL     1     -13.995 -29.125 -47.583  1.00  0.00     0.010 C 
ATOM     22  C   UNL     1     -11.486 -26.631 -48.040  1.00  0.00     0.012 C 
ATOM     23  C   UNL     1     -11.475 -24.976 -45.655  1.00  0.00     0.012 C 
ATOM     24  C   UNL     1      -9.774 -24.400 -41.936  1.00  0.00     0.014 C 
ATOM     25  C   UNL     1      -9.225 -26.505 -40.738  1.00  0.00     0.014 C 
ATOM     26  C   UNL     1     -13.532 -27.330 -42.053  1.00  0.00     0.012 C 
ENDROOT
BRANCH   1  27
ATOM     27  C   UNL     1     -14.971 -24.978 -50.375  1.00  0.00    -0.077 C 
ATOM     28  C   UNL     1     -16.298 -24.613 -49.762  1.00  0.00     0.039 C 
ATOM     29  C   UNL     1     -14.484 -24.178 -51.339  1.00  0.00     0.008 C 
ENDBRANCH   1  27
BRANCH   4  30
ATOM     30  C   UNL     1     -16.115 -28.915 -48.863  1.00  0.00     0.163 C 
BRANCH  30  31
ATOM     31  O   UNL     1     -17.070 -27.969 -48.471  1.00  0.00    -0.396 OA
ATOM     32  H   UNL     1     -17.093 -27.283 -49.188  1.00  0.00     0.210 HD
ENDBRANCH  30  31
ENDBRANCH   4  30
BRANCH  13  33
ATOM     33  O   UNL     1     -11.800 -26.400 -39.433  1.00  0.00    -0.393 OA
ATOM     34  H   UNL     1     -12.158 -26.047 -38.583  1.00  0.00     0.210 HD
ENDBRANCH  13  33
TORSDOF 4
ENDMDL
MODEL 7
REMARK VINA RESULT:    -4.814      4.709     10.807
REMARK INTER + INTRA:          -6.095
REMARK INTER:                  -5.491
REMARK INTRA:                  -0.605
REMARK UNBOUND:                -0.437
REMARK SMILES C=C(C)[C@@H]1CC[C@@]2(CO)CC[C@@]3(C)[C@H](CC[C@@H]4[C@]5(C)CC[C@@H](O)C(C)(C)[C@@H]5CC[C@]43C)[C@@H]12
REMARK SMILES IDX 4 1 5 2 6 3 7 4 32 5 14 6 15 7 16 8 17 9 18 10 20 11 21 12
REMARK SMILES IDX 22 13 24 14 27 15 28 16 29 17 30 18 12 19 11 20 10 21 13 22
REMARK SMILES IDX 31 23 25 24 26 25 19 26 2 27 3 28 1 29 8 30 9 31 23 33
REMARK H PARENT 9 32 23 34
REMARK Flexibility Score: inf
ROOT
ATOM      1  C   UNL     1     -11.267 -26.298 -42.099  1.00  0.00     0.018 C 
ATOM      2  C   UNL     1     -10.770 -27.371 -41.130  1.00  0.00     0.009 C 
ATOM      3  C   UNL     1     -10.563 -28.626 -41.975  1.00  0.00     0.010 C 
ATOM      4  C   UNL     1     -10.174 -28.146 -43.388  1.00  0.00    -0.003 C 
ATOM      5  C   UNL     1     -10.765 -26.707 -43.510  1.00  0.00     0.008 C 
ATOM      6  C   UNL     1     -11.838 -26.508 -44.645  1.00  0.00    -0.000 C 
ATOM      7  C   UNL     1     -11.096 -26.160 -45.958  1.00  0.00     0.005 C 
ATOM      8  C   UNL     1     -12.029 -25.902 -47.130  1.00  0.00     0.005 C 
ATOM      9  C   UNL     1     -12.948 -27.116 -47.400  1.00  0.00     0.002 C 
ATOM     10  C   UNL     1     -13.657 -27.093 -48.854  1.00  0.00    -0.026 C 
ATOM     11  C   UNL     1     -13.905 -25.638 -49.368  1.00  0.00     0.010 C 
ATOM     12  C   UNL     1     -14.530 -25.531 -50.778  1.00  0.00     0.033 C 
ATOM     13  C   UNL     1     -15.503 -26.663 -51.178  1.00  0.00     0.120 C 
ATOM     14  C   UNL     1     -16.143 -27.389 -49.949  1.00  0.00    -0.006 C 
ATOM     15  C   UNL     1     -15.018 -27.953 -48.960  1.00  0.00     0.003 C 
ATOM     16  C   UNL     1     -15.661 -28.420 -47.622  1.00  0.00     0.005 C 
ATOM     17  C   UNL     1     -14.663 -28.692 -46.513  1.00  0.00     0.008 C 
ATOM     18  C   UNL     1     -13.827 -27.426 -46.142  1.00  0.00    -0.024 C 
ATOM     19  C   UNL     1     -12.896 -27.686 -44.828  1.00  0.00    -0.024 C 
ATOM     20  C   UNL     1     -12.161 -29.081 -44.875  1.00  0.00     0.008 C 
ATOM     21  C   UNL     1     -10.675 -29.125 -44.487  1.00  0.00     0.010 C 
ATOM     22  C   UNL     1     -13.827 -27.729 -43.572  1.00  0.00     0.012 C 
ATOM     23  C   UNL     1     -14.799 -26.231 -45.861  1.00  0.00     0.012 C 
ATOM     24  C   UNL     1     -17.125 -26.380 -49.271  1.00  0.00     0.014 C 
ATOM     25  C   UNL     1     -17.033 -28.557 -50.464  1.00  0.00     0.014 C 
ATOM     26  C   UNL     1     -12.580 -27.711 -49.814  1.00  0.00     0.012 C 
ENDROOT
BRANCH   1  27
ATOM     27  C   UNL     1     -10.889 -24.869 -41.696  1.00  0.00    -0.077 C 
ATOM     28  C   UNL     1      -9.522 -24.517 -41.171  1.00  0.00     0.039 C 
ATOM     29  C   UNL     1     -11.777 -23.873 -41.852  1.00  0.00     0.008 C 
ENDBRANCH   1  27
BRANCH   4  30
ATOM     30  C   UNL     1      -8.616 -28.127 -43.516  1.00  0.00     0.163 C 
BRANCH  30  31
ATOM     31  O   UNL     1      -8.112 -26.823 -43.592  1.00  0.00    -0.396 OA
ATOM     32  H   UNL     1      -7.308 -26.868 -44.173  1.00  0.00     0.210 HD
ENDBRANCH  30  31
ENDBRANCH   4  30
BRANCH  13  33
ATOM     33  O   UNL     1     -14.901 -27.527 -52.119  1.00  0.00    -0.393 OA
ATOM     34  H   UNL     1     -15.559 -28.185 -52.449  1.00  0.00     0.210 HD
ENDBRANCH  13  33
TORSDOF 4
ENDMDL
MODEL 8
REMARK VINA RESULT:    -4.584      1.418      8.097
REMARK INTER + INTRA:          -5.825
REMARK INTER:                  -5.449
REMARK INTRA:                  -0.376
REMARK UNBOUND:                -0.437
REMARK SMILES C=C(C)[C@@H]1CC[C@@]2(CO)CC[C@@]3(C)[C@H](CC[C@@H]4[C@]5(C)CC[C@@H](O)C(C)(C)[C@@H]5CC[C@]43C)[C@@H]12
REMARK SMILES IDX 4 1 5 2 6 3 7 4 32 5 14 6 15 7 16 8 17 9 18 10 20 11 21 12
REMARK SMILES IDX 22 13 24 14 27 15 28 16 29 17 30 18 12 19 11 20 10 21 13 22
REMARK SMILES IDX 31 23 25 24 26 25 19 26 2 27 3 28 1 29 8 30 9 31 23 33
REMARK H PARENT 9 32 23 34
REMARK Flexibility Score: inf
ROOT
ATOM      1  C   UNL     1     -10.950 -28.295 -34.158  1.00  0.00     0.018 C 
ATOM      2  C   UNL     1      -9.827 -27.929 -33.187  1.00  0.00     0.009 C 
ATOM      3  C   UNL     1      -9.069 -26.779 -33.846  1.00  0.00     0.010 C 
ATOM      4  C   UNL     1     -10.098 -26.000 -34.690  1.00  0.00    -0.003 C 
ATOM      5  C   UNL     1     -11.227 -27.028 -35.012  1.00  0.00     0.008 C 
ATOM      6  C   UNL     1     -11.450 -27.333 -36.541  1.00  0.00    -0.000 C 
ATOM      7  C   UNL     1     -12.440 -26.286 -37.105  1.00  0.00     0.005 C 
ATOM      8  C   UNL     1     -12.772 -26.497 -38.574  1.00  0.00     0.005 C 
ATOM      9  C   UNL     1     -11.498 -26.481 -39.450  1.00  0.00     0.002 C 
ATOM     10  C   UNL     1     -11.789 -26.278 -41.028  1.00  0.00    -0.026 C 
ATOM     11  C   UNL     1     -13.174 -26.865 -41.455  1.00  0.00     0.010 C 
ATOM     12  C   UNL     1     -13.551 -26.660 -42.940  1.00  0.00     0.033 C 
ATOM     13  C   UNL     1     -12.377 -26.656 -43.945  1.00  0.00     0.120 C 
ATOM     14  C   UNL     1     -11.113 -27.414 -43.420  1.00  0.00    -0.006 C 
ATOM     15  C   UNL     1     -10.633 -26.830 -42.009  1.00  0.00     0.003 C 
ATOM     16  C   UNL     1      -9.561 -27.764 -41.376  1.00  0.00     0.005 C 
ATOM     17  C   UNL     1      -9.258 -27.467 -39.920  1.00  0.00     0.008 C 
ATOM     18  C   UNL     1     -10.517 -27.619 -39.008  1.00  0.00    -0.024 C 
ATOM     19  C   UNL     1     -10.134 -27.480 -37.429  1.00  0.00    -0.024 C 
ATOM     20  C   UNL     1      -9.148 -26.281 -37.150  1.00  0.00     0.008 C 
ATOM     21  C   UNL     1      -9.447 -25.367 -35.951  1.00  0.00     0.010 C 
ATOM     22  C   UNL     1      -9.374 -28.776 -36.996  1.00  0.00     0.012 C 
ATOM     23  C   UNL     1     -11.172 -29.018 -39.263  1.00  0.00     0.012 C 
ATOM     24  C   UNL     1     -11.465 -28.936 -43.382  1.00  0.00     0.014 C 
ATOM     25  C   UNL     1      -9.973 -27.274 -44.469  1.00  0.00     0.014 C 
ATOM     26  C   UNL     1     -11.909 -24.722 -41.198  1.00  0.00     0.012 C 
ENDROOT
BRANCH   1  27
ATOM     27  C   UNL     1     -12.197 -28.872 -33.482  1.00  0.00    -0.077 C 
ATOM     28  C   UNL     1     -12.263 -29.125 -31.998  1.00  0.00     0.039 C 
ATOM     29  C   UNL     1     -13.297 -29.125 -34.211  1.00  0.00     0.008 C 
ENDBRANCH   1  27
BRANCH   4  30
ATOM     30  C   UNL     1     -10.652 -24.802 -33.852  1.00  0.00     0.163 C 
BRANCH  30  31
ATOM     31  O   UNL     1      -9.636 -24.127 -33.165  1.00  0.00    -0.396 OA
ATOM     32  H   UNL     1      -8.811 -24.242 -33.706  1.00  0.00     0.210 HD
ENDBRANCH  30  31
ENDBRANCH   4  30
BRANCH  13  33
ATOM     33  O   UNL     1     -12.123 -25.346 -44.407  1.00  0.00    -0.393 OA
ATOM     34  H   UNL     1     -11.679 -24.815 -43.703  1.00  0.00     0.210 HD
ENDBRANCH  13  33
TORSDOF 4
ENDMDL
