MODEL 1
REMARK VINA RESULT:    -2.535      0.000      0.000
REMARK INTER + INTRA:          -3.603
REMARK INTER:                  -3.721
REMARK INTRA:                   0.118
REMARK UNBOUND:                 0.118
REMARK SMILES C=C1C=C[C@H](C(C)C)CCC(C)=CCC1
REMARK SMILES IDX 3 1 4 2 5 3 9 4 10 5 11 6 12 7 13 8 6 10 7 11 8 12 2 13 1 14
REMARK SMILES IDX 15 15 14 16
REMARK H PARENT
REMARK Flexibility Score: 70.00
ROOT
ATOM      1  C   UNL     1     143.125 145.934 133.504  1.00  0.00    -0.001 C 
ATOM      2  C   UNL     1     143.512 144.663 133.678  1.00  0.00    -0.023 C 
ENDROOT
BRANCH   2   3
ATOM      3  C   UNL     1     144.562 143.966 132.832  1.00  0.00     0.014 C 
BRANCH   3   4
ATOM      4  C   UNL     1     145.709 143.467 133.758  1.00  0.00     0.012 C 
BRANCH   4   5
ATOM      5  C   UNL     1     147.024 144.269 133.599  1.00  0.00     0.031 C 
BRANCH   5   6
ATOM      6  C   UNL     1     147.077 145.055 132.298  1.00  0.00    -0.077 C 
ATOM      7  C   UNL     1     147.614 144.384 131.059  1.00  0.00     0.039 C 
ATOM      8  C   UNL     1     146.634 146.331 132.188  1.00  0.00    -0.028 CG0
ATOM      9  G   UNL     1     146.115 147.168 133.332  1.00  0.00     0.000 G0
ENDBRANCH   5   6
ENDBRANCH   4   5
ENDBRANCH   3   4
BRANCH   3  10
ATOM     10  C   UNL     1     143.908 142.811 132.009  1.00  0.00    -0.010 C 
ATOM     11  C   UNL     1     142.388 142.740 132.255  1.00  0.00     0.008 C 
ATOM     12  C   UNL     1     144.157 142.955 130.498  1.00  0.00     0.008 C 
ENDBRANCH   3  10
ENDBRANCH   2   3
BRANCH   1  13
ATOM     13  C   UNL     1     143.718 146.851 132.511  1.00  0.00    -0.055 C 
ATOM     14  C   UNL     1     143.229 146.879 131.271  1.00  0.00     0.012 C 
BRANCH  13  15
ATOM     15  C   UNL     1     144.766 147.848 132.942  1.00  0.00     0.039 C 
BRANCH  15  16
ATOM     16  C   UNL     1     146.096 147.175 133.329  1.00  0.00     0.032 CG0
ATOM     17  G   UNL     1     146.621 146.318 132.204  1.00  0.00     0.000 G0
ENDBRANCH  15  16
ENDBRANCH  13  15
ENDBRANCH   1  13
TORSDOF 1
ENDMDL
MODEL 2
REMARK VINA RESULT:    -2.522      1.125      3.435
REMARK INTER + INTRA:          -3.583
REMARK INTER:                  -3.767
REMARK INTRA:                   0.184
REMARK UNBOUND:                 0.118
REMARK SMILES C=C1C=C[C@H](C(C)C)CCC(C)=CCC1
REMARK SMILES IDX 3 1 4 2 5 3 9 4 10 5 11 6 12 7 13 8 6 10 7 11 8 12 2 13 1 14
REMARK SMILES IDX 15 15 14 16
REMARK H PARENT
REMARK Flexibility Score: 70.00
ROOT
ATOM      1  C   UNL     1     147.591 144.808 131.665  1.00  0.00    -0.001 C 
ATOM      2  C   UNL     1     146.534 144.250 131.058  1.00  0.00    -0.023 C 
ENDROOT
BRANCH   2   3
ATOM      3  C   UNL     1     145.106 144.359 131.560  1.00  0.00     0.014 C 
BRANCH   3   4
ATOM      4  C   UNL     1     144.242 145.067 130.476  1.00  0.00     0.012 C 
BRANCH   4   5
ATOM      5  C   UNL     1     143.663 146.427 130.937  1.00  0.00     0.031 C 
BRANCH   5   6
ATOM      6  C   UNL     1     143.864 146.673 132.424  1.00  0.00    -0.077 C 
ATOM      7  C   UNL     1     142.772 146.275 133.386  1.00  0.00     0.039 C 
ATOM      8  C   UNL     1     144.996 147.212 132.938  1.00  0.00    -0.028 CG0
ATOM      9  G   UNL     1     146.163 147.714 132.122  1.00  0.00     0.000 G0
ENDBRANCH   5   6
ENDBRANCH   4   5
ENDBRANCH   3   4
BRANCH   3  10
ATOM     10  C   UNL     1     144.559 142.944 131.936  1.00  0.00    -0.010 C 
ATOM     11  C   UNL     1     144.610 142.713 133.459  1.00  0.00     0.008 C 
ATOM     12  C   UNL     1     143.116 142.728 131.451  1.00  0.00     0.008 C 
ENDBRANCH   3  10
ENDBRANCH   2   3
BRANCH   1  13
ATOM     13  C   UNL     1     147.500 145.664 132.864  1.00  0.00    -0.055 C 
ATOM     14  C   UNL     1     147.556 145.104 134.074  1.00  0.00     0.012 C 
BRANCH  13  15
ATOM     15  C   UNL     1     147.496 147.166 132.717  1.00  0.00     0.039 C 
BRANCH  15  16
ATOM     16  C   UNL     1     146.173 147.696 132.133  1.00  0.00     0.032 CG0
ATOM     17  G   UNL     1     144.988 147.192 132.921  1.00  0.00     0.000 G0
ENDBRANCH  15  16
ENDBRANCH  13  15
ENDBRANCH   1  13
TORSDOF 1
ENDMDL
MODEL 3
REMARK VINA RESULT:    -2.498      1.617      3.913
REMARK INTER + INTRA:          -3.547
REMARK INTER:                  -3.599
REMARK INTRA:                   0.052
REMARK UNBOUND:                 0.118
REMARK SMILES C=C1C=C[C@H](C(C)C)CCC(C)=CCC1
REMARK SMILES IDX 3 1 4 2 5 3 9 4 10 5 11 6 12 7 13 8 6 10 7 11 8 12 2 13 1 14
REMARK SMILES IDX 15 15 14 16
REMARK H PARENT
REMARK Flexibility Score: 70.00
ROOT
ATOM      1  C   UNL     1     143.118 145.868 131.714  1.00  0.00    -0.001 C 
ATOM      2  C   UNL     1     144.164 146.495 131.158  1.00  0.00    -0.023 C 
ENDROOT
BRANCH   2   3
ATOM      3  C   UNL     1     145.581 146.435 131.698  1.00  0.00     0.014 C 
BRANCH   3   4
ATOM      4  C   UNL     1     146.521 145.873 130.592  1.00  0.00     0.012 C 
BRANCH   4   5
ATOM      5  C   UNL     1     147.004 144.428 130.868  1.00  0.00     0.031 C 
BRANCH   5   6
ATOM      6  C   UNL     1     146.873 144.036 132.331  1.00  0.00    -0.077 C 
ATOM      7  C   UNL     1     148.001 144.359 133.279  1.00  0.00     0.039 C 
ATOM      8  C   UNL     1     145.771 143.432 132.839  1.00  0.00    -0.028 CG0
ATOM      9  G   UNL     1     144.576 142.992 132.030  1.00  0.00     0.000 G0
ENDBRANCH   5   6
ENDBRANCH   4   5
ENDBRANCH   3   4
BRANCH   3  10
ATOM     10  C   UNL     1     146.023 147.846 132.202  1.00  0.00    -0.010 C 
ATOM     11  C   UNL     1     145.773 148.002 133.715  1.00  0.00     0.008 C 
ATOM     12  C   UNL     1     147.507 148.131 131.915  1.00  0.00     0.008 C 
ENDBRANCH   3  10
ENDBRANCH   2   3
BRANCH   1  13
ATOM     13  C   UNL     1     143.215 144.977 132.887  1.00  0.00    -0.055 C 
ATOM     14  C   UNL     1     143.135 145.497 134.113  1.00  0.00     0.012 C 
BRANCH  13  15
ATOM     15  C   UNL     1     143.255 143.481 132.693  1.00  0.00     0.039 C 
BRANCH  15  16
ATOM     16  C   UNL     1     144.558 143.008 132.022  1.00  0.00     0.032 CG0
ATOM     17  G   UNL     1     145.766 143.430 132.820  1.00  0.00     0.000 G0
ENDBRANCH  15  16
ENDBRANCH  13  15
ENDBRANCH   1  13
TORSDOF 1
ENDMDL
MODEL 4
REMARK VINA RESULT:    -2.441      1.701      4.655
REMARK INTER + INTRA:          -3.465
REMARK INTER:                  -3.654
REMARK INTRA:                   0.190
REMARK UNBOUND:                 0.118
REMARK SMILES C=C1C=C[C@H](C(C)C)CCC(C)=CCC1
REMARK SMILES IDX 3 1 4 2 5 3 9 4 10 5 11 6 12 7 13 8 6 10 7 11 8 12 2 13 1 14
REMARK SMILES IDX 15 15 14 16
REMARK H PARENT
REMARK Flexibility Score: 70.00
ROOT
ATOM      1  C   UNL     1     147.562 144.829 133.335  1.00  0.00    -0.001 C 
ATOM      2  C   UNL     1     147.253 146.121 133.515  1.00  0.00    -0.023 C 
ENDROOT
BRANCH   2   3
ATOM      3  C   UNL     1     146.207 146.869 132.710  1.00  0.00     0.014 C 
BRANCH   3   4
ATOM      4  C   UNL     1     145.081 147.354 133.669  1.00  0.00     0.012 C 
BRANCH   4   5
ATOM      5  C   UNL     1     143.808 146.475 133.621  1.00  0.00     0.031 C 
BRANCH   5   6
ATOM      6  C   UNL     1     143.663 145.724 132.306  1.00  0.00    -0.077 C 
ATOM      7  C   UNL     1     143.124 146.455 131.102  1.00  0.00     0.039 C 
ATOM      8  C   UNL     1     144.025 144.427 132.153  1.00  0.00    -0.028 CG0
ATOM      9  G   UNL     1     144.532 143.534 133.258  1.00  0.00     0.000 G0
ENDBRANCH   5   6
ENDBRANCH   4   5
ENDBRANCH   3   4
BRANCH   3  10
ATOM     10  C   UNL     1     146.874 148.043 131.923  1.00  0.00    -0.010 C 
ATOM     11  C   UNL     1     148.393 148.093 132.177  1.00  0.00     0.008 C 
ATOM     12  C   UNL     1     146.629 147.945 130.408  1.00  0.00     0.008 C 
ENDBRANCH   3  10
ENDBRANCH   2   3
BRANCH   1  13
ATOM     13  C   UNL     1     146.877 143.941 132.375  1.00  0.00    -0.055 C 
ATOM     14  C   UNL     1     147.233 143.967 131.090  1.00  0.00     0.012 C 
BRANCH  13  15
ATOM     15  C   UNL     1     145.892 142.912 132.875  1.00  0.00     0.039 C 
BRANCH  15  16
ATOM     16  C   UNL     1     144.532 143.532 133.248  1.00  0.00     0.032 CG0
ATOM     17  G   UNL     1     144.020 144.426 132.146  1.00  0.00     0.000 G0
ENDBRANCH  15  16
ENDBRANCH  13  15
ENDBRANCH   1  13
TORSDOF 1
ENDMDL
MODEL 5
REMARK VINA RESULT:    -2.114      1.464      3.737
REMARK INTER + INTRA:          -2.985
REMARK INTER:                  -2.799
REMARK INTRA:                  -0.186
REMARK UNBOUND:                 0.118
REMARK SMILES C=C1C=C[C@H](C(C)C)CCC(C)=CCC1
REMARK SMILES IDX 3 1 4 2 5 3 9 4 10 5 11 6 12 7 13 8 6 10 7 11 8 12 2 13 1 14
REMARK SMILES IDX 15 15 14 16
REMARK H PARENT
REMARK Flexibility Score: 70.00
ROOT
ATOM      1  C   UNL     1     145.339 143.519 130.949  1.00  0.00    -0.001 C 
ATOM      2  C   UNL     1     144.359 144.425 131.080  1.00  0.00    -0.023 C 
ENDROOT
BRANCH   2   3
ATOM      3  C   UNL     1     144.466 145.683 131.921  1.00  0.00     0.014 C 
BRANCH   3   4
ATOM      4  C   UNL     1     145.277 146.752 131.132  1.00  0.00     0.012 C 
BRANCH   4   5
ATOM      5  C   UNL     1     146.570 147.203 131.855  1.00  0.00     0.031 C 
BRANCH   5   6
ATOM      6  C   UNL     1     146.460 147.106 133.368  1.00  0.00    -0.077 C 
ATOM      7  C   UNL     1     145.745 148.200 134.122  1.00  0.00     0.039 C 
ATOM      8  C   UNL     1     146.950 146.061 134.079  1.00  0.00    -0.028 CG0
ATOM      9  G   UNL     1     147.734 144.911 133.497  1.00  0.00     0.000 G0
ENDBRANCH   5   6
ENDBRANCH   4   5
ENDBRANCH   3   4
BRANCH   3  10
ATOM     10  C   UNL     1     143.041 146.184 132.321  1.00  0.00    -0.010 C 
ATOM     11  C   UNL     1     142.850 146.160 133.850  1.00  0.00     0.008 C 
ATOM     12  C   UNL     1     142.757 147.607 131.811  1.00  0.00     0.008 C 
ENDBRANCH   3  10
ENDBRANCH   2   3
BRANCH   1  13
ATOM     13  C   UNL     1     146.680 143.659 131.550  1.00  0.00    -0.055 C 
ATOM     14  C   UNL     1     147.736 143.847 130.757  1.00  0.00     0.012 C 
BRANCH  13  15
ATOM     15  C   UNL     1     146.827 143.737 133.050  1.00  0.00     0.039 C 
BRANCH  15  16
ATOM     16  C   UNL     1     147.744 144.893 133.492  1.00  0.00     0.032 CG0
ATOM     17  G   UNL     1     146.943 146.028 134.082  1.00  0.00     0.000 G0
ENDBRANCH  15  16
ENDBRANCH  13  15
ENDBRANCH   1  13
TORSDOF 1
ENDMDL
MODEL 6
REMARK VINA RESULT:    -2.074      1.682      3.545
REMARK INTER + INTRA:          -2.926
REMARK INTER:                  -2.992
REMARK INTRA:                   0.066
REMARK UNBOUND:                 0.118
REMARK SMILES C=C1C=C[C@H](C(C)C)CCC(C)=CCC1
REMARK SMILES IDX 3 1 4 2 5 3 9 4 10 5 11 6 12 7 13 8 6 10 7 11 8 12 2 13 1 14
REMARK SMILES IDX 15 15 14 16
REMARK H PARENT
REMARK Flexibility Score: 70.00
ROOT
ATOM      1  C   UNL     1     145.279 147.413 131.172  1.00  0.00    -0.001 C 
ATOM      2  C   UNL     1     146.320 146.583 131.332  1.00  0.00    -0.023 C 
ENDROOT
BRANCH   2   3
ATOM      3  C   UNL     1     146.242 145.243 132.040  1.00  0.00     0.014 C 
BRANCH   3   4
ATOM      4  C   UNL     1     145.501 144.228 131.120  1.00  0.00     0.012 C 
BRANCH   4   5
ATOM      5  C   UNL     1     144.264 143.579 131.787  1.00  0.00     0.031 C 
BRANCH   5   6
ATOM      6  C   UNL     1     144.297 143.678 133.304  1.00  0.00    -0.077 C 
ATOM      7  C   UNL     1     145.098 142.667 134.086  1.00  0.00     0.039 C 
ATOM      8  C   UNL     1     143.660 144.655 133.995  1.00  0.00    -0.028 CG0
ATOM      9  G   UNL     1     142.776 145.713 133.381  1.00  0.00     0.000 G0
ENDBRANCH   5   6
ENDBRANCH   4   5
ENDBRANCH   3   4
BRANCH   3  10
ATOM     10  C   UNL     1     147.674 144.761 132.437  1.00  0.00    -0.010 C 
ATOM     11  C   UNL     1     147.842 144.715 133.968  1.00  0.00     0.008 C 
ATOM     12  C   UNL     1     148.004 143.373 131.861  1.00  0.00     0.008 C 
ENDBRANCH   3  10
ENDBRANCH   2   3
BRANCH   1  13
ATOM     13  C   UNL     1     143.901 147.104 131.599  1.00  0.00    -0.055 C 
ATOM     14  C   UNL     1     142.982 146.804 130.679  1.00  0.00     0.012 C 
BRANCH  13  15
ATOM     15  C   UNL     1     143.579 146.983 133.068  1.00  0.00     0.039 C 
BRANCH  15  16
ATOM     16  C   UNL     1     142.776 145.709 133.392  1.00  0.00     0.032 CG0
ATOM     17  G   UNL     1     143.664 144.640 133.980  1.00  0.00     0.000 G0
ENDBRANCH  15  16
ENDBRANCH  13  15
ENDBRANCH   1  13
TORSDOF 1
ENDMDL
MODEL 7
REMARK VINA RESULT:    -1.990      1.957      4.066
REMARK INTER + INTRA:          -2.803
REMARK INTER:                  -2.570
REMARK INTRA:                  -0.233
REMARK UNBOUND:                 0.118
REMARK SMILES C=C1C=C[C@H](C(C)C)CCC(C)=CCC1
REMARK SMILES IDX 3 1 4 2 5 3 9 4 10 5 11 6 12 7 13 8 6 10 7 11 8 12 2 13 1 14
REMARK SMILES IDX 15 15 14 16
REMARK H PARENT
REMARK Flexibility Score: 70.00
ROOT
ATOM      1  C   UNL     1     144.486 146.082 130.855  1.00  0.00    -0.001 C 
ATOM      2  C   UNL     1     145.739 146.534 130.705  1.00  0.00    -0.023 C 
ENDROOT
BRANCH   2   3
ATOM      3  C   UNL     1     146.546 147.195 131.808  1.00  0.00     0.014 C 
BRANCH   3   4
ATOM      4  C   UNL     1     147.619 146.191 132.321  1.00  0.00     0.012 C 
BRANCH   4   5
ATOM      5  C   UNL     1     147.124 145.299 133.485  1.00  0.00     0.031 C 
BRANCH   5   6
ATOM      6  C   UNL     1     146.648 143.933 133.015  1.00  0.00    -0.077 C 
ATOM      7  C   UNL     1     147.626 143.015 132.326  1.00  0.00     0.039 C 
ATOM      8  C   UNL     1     145.384 143.484 133.210  1.00  0.00    -0.028 CG0
ATOM      9  G   UNL     1     144.267 144.286 133.832  1.00  0.00     0.000 G0
ENDBRANCH   5   6
ENDBRANCH   4   5
ENDBRANCH   3   4
BRANCH   3  10
ATOM     10  C   UNL     1     147.170 148.530 131.290  1.00  0.00    -0.010 C 
ATOM     11  C   UNL     1     148.572 148.759 131.888  1.00  0.00     0.008 C 
ATOM     12  C   UNL     1     147.275 148.570 129.756  1.00  0.00     0.008 C 
ENDBRANCH   3  10
ENDBRANCH   2   3
BRANCH   1  13
ATOM     13  C   UNL     1     143.746 146.102 132.132  1.00  0.00    -0.055 C 
ATOM     14  C   UNL     1     143.376 147.272 132.656  1.00  0.00     0.012 C 
BRANCH  13  15
ATOM     15  C   UNL     1     143.287 144.806 132.755  1.00  0.00     0.039 C 
BRANCH  15  16
ATOM     16  C   UNL     1     144.263 144.291 133.829  1.00  0.00     0.032 CG0
ATOM     17  G   UNL     1     145.380 143.486 133.209  1.00  0.00     0.000 G0
ENDBRANCH  15  16
ENDBRANCH  13  15
ENDBRANCH   1  13
TORSDOF 1
ENDMDL
MODEL 8
REMARK VINA RESULT:    -1.975      1.075      3.124
REMARK INTER + INTRA:          -2.780
REMARK INTER:                  -2.675
REMARK INTRA:                  -0.106
REMARK UNBOUND:                 0.118
REMARK SMILES C=C1C=C[C@H](C(C)C)CCC(C)=CCC1
REMARK SMILES IDX 3 1 4 2 5 3 9 4 10 5 11 6 12 7 13 8 6 10 7 11 8 12 2 13 1 14
REMARK SMILES IDX 15 15 14 16
REMARK H PARENT
REMARK Flexibility Score: 70.00
ROOT
ATOM      1  C   UNL     1     146.235 144.808 130.879  1.00  0.00    -0.001 C 
ATOM      2  C   UNL     1     145.002 144.308 130.714  1.00  0.00    -0.023 C 
ENDROOT
BRANCH   2   3
ATOM      3  C   UNL     1     144.208 143.617 131.807  1.00  0.00     0.014 C 
BRANCH   3   4
ATOM      4  C   UNL     1     143.124 144.597 132.342  1.00  0.00     0.012 C 
BRANCH   4   5
ATOM      5  C   UNL     1     143.633 145.521 133.476  1.00  0.00     0.031 C 
BRANCH   5   6
ATOM      6  C   UNL     1     144.052 146.892 132.969  1.00  0.00    -0.077 C 
ATOM      7  C   UNL     1     143.040 147.748 132.250  1.00  0.00     0.039 C 
ATOM      8  C   UNL     1     145.294 147.402 133.159  1.00  0.00    -0.028 CG0
ATOM      9  G   UNL     1     146.440 146.667 133.810  1.00  0.00     0.000 G0
ENDBRANCH   5   6
ENDBRANCH   4   5
ENDBRANCH   3   4
BRANCH   3  10
ATOM     10  C   UNL     1     143.599 142.284 131.266  1.00  0.00    -0.010 C 
ATOM     11  C   UNL     1     142.201 142.027 131.862  1.00  0.00     0.008 C 
ATOM     12  C   UNL     1     143.491 142.270 129.732  1.00  0.00     0.008 C 
ENDBRANCH   3  10
ENDBRANCH   2   3
BRANCH   1  13
ATOM     13  C   UNL     1     146.959 144.816 132.165  1.00  0.00    -0.055 C 
ATOM     14  C   UNL     1     147.306 143.658 132.729  1.00  0.00     0.012 C 
BRANCH  13  15
ATOM     15  C   UNL     1     147.430 146.123 132.754  1.00  0.00     0.039 C 
BRANCH  15  16
ATOM     16  C   UNL     1     146.454 146.680 133.808  1.00  0.00     0.032 CG0
ATOM     17  G   UNL     1     145.294 147.391 133.155  1.00  0.00     0.000 G0
ENDBRANCH  15  16
ENDBRANCH  13  15
ENDBRANCH   1  13
TORSDOF 1
ENDMDL
MODEL 9
REMARK VINA RESULT:    -1.598      1.752      4.622
REMARK INTER + INTRA:          -2.227
REMARK INTER:                  -4.561
REMARK INTRA:                   2.333
REMARK UNBOUND:                 0.118
REMARK SMILES C=C1C=C[C@H](C(C)C)CCC(C)=CCC1
REMARK SMILES IDX 3 1 4 2 5 3 9 4 10 5 11 6 12 7 13 8 6 10 7 11 8 12 2 13 1 14
REMARK SMILES IDX 15 15 14 16
REMARK H PARENT
REMARK Flexibility Score: 70.00
ROOT
ATOM      1  C   UNL     1     147.488 144.225 132.073  1.00  0.00    -0.001 C 
ATOM      2  C   UNL     1     147.209 144.968 130.993  1.00  0.00    -0.023 C 
ENDROOT
BRANCH   2   3
ATOM      3  C   UNL     1     146.131 146.035 130.947  1.00  0.00     0.014 C 
BRANCH   3   4
ATOM      4  C   UNL     1     144.735 145.347 131.007  1.00  0.00     0.012 C 
BRANCH   4   5
ATOM      5  C   UNL     1     144.715 143.933 130.377  1.00  0.00     0.031 C 
BRANCH   5   6
ATOM      6  C   UNL     1     143.793 142.976 131.117  1.00  0.00    -0.077 C 
ATOM      7  C   UNL     1     142.993 141.973 130.324  1.00  0.00     0.039 C 
ATOM      8  C   UNL     1     143.675 142.959 132.466  1.00  0.00    -0.028 CG0
ATOM      9  G   UNL     1     144.358 143.921 133.407  1.00  0.00     0.000 G0
ENDBRANCH   5   6
ENDBRANCH   4   5
ENDBRANCH   3   4
BRANCH   3  10
ATOM     10  C   UNL     1     146.344 147.065 132.102  1.00  0.00    -0.010 C 
ATOM     11  C   UNL     1     147.241 148.233 131.649  1.00  0.00     0.008 C 
ATOM     12  C   UNL     1     145.017 147.636 132.628  1.00  0.00     0.008 C 
ENDBRANCH   3  10
ENDBRANCH   2   3
BRANCH   1  13
ATOM     13  C   UNL     1     146.833 144.393 133.385  1.00  0.00    -0.055 C 
ATOM     14  C   UNL     1     147.113 145.468 134.124  1.00  0.00     0.012 C 
BRANCH  13  15
ATOM     15  C   UNL     1     145.749 143.433 133.812  1.00  0.00     0.039 C 
BRANCH  15  16
ATOM     16  C   UNL     1     144.342 143.923 133.422  1.00  0.00     0.032 CG0
ATOM     17  G   UNL     1     143.671 142.956 132.477  1.00  0.00     0.000 G0
ENDBRANCH  15  16
ENDBRANCH  13  15
ENDBRANCH   1  13
TORSDOF 1
ENDMDL
