MODEL 1
REMARK VINA RESULT:    -5.426      0.000      0.000
REMARK INTER + INTRA:          -7.154
REMARK INTER:                  -7.647
REMARK INTRA:                   0.492
REMARK UNBOUND:                 0.492
REMARK SMILES CC1=CCC(=C(C)C)C(=O)CC(C)=CCC1
REMARK SMILES IDX 12 1 14 2 13 3 15 4 16 5 2 6 1 7 3 8 11 10 9 11 10 12 5 13
REMARK SMILES IDX 6 14 7 15 8 16 4 17
REMARK H PARENT
REMARK Flexibility Score: 60.00
ROOT
ATOM      1  C   UNL     1      -3.292 -11.131  28.389  1.00  0.00    -0.070 C 
ATOM      2  C   UNL     1      -2.536 -10.428  29.262  1.00  0.00    -0.027 C 
ATOM      3  C   UNL     1      -2.963 -11.020  26.922  1.00  0.00     0.039 C 
ENDROOT
BRANCH   2   4
ATOM      4  C   UNL     1      -2.769 -10.332  30.754  1.00  0.00     0.032 C 
BRANCH   4   5
ATOM      5  C   UNL     1      -1.594 -10.827  31.626  1.00  0.00     0.034 C 
BRANCH   5   6
ATOM      6  C   UNL     1      -1.179 -12.254  31.314  1.00  0.00    -0.077 C 
ATOM      7  C   UNL     1       0.250 -12.492  30.894  1.00  0.00     0.039 C 
ATOM      8  C   UNL     1      -2.023 -13.313  31.323  1.00  0.00    -0.023 CG0
ATOM      9  G   UNL     1      -3.484 -13.316  31.727  1.00  0.00     0.000 G0
ENDBRANCH   5   6
ENDBRANCH   4   5
ENDBRANCH   2   4
BRANCH   1  10
ATOM     10  C   UNL     1      -4.501 -11.944  28.804  1.00  0.00     0.111 C 
BRANCH  10  11
ATOM     11  C   UNL     1      -4.116 -13.339  29.221  1.00  0.00     0.163 C 
ATOM     12  O   UNL     1      -3.615 -14.102  28.351  1.00  0.00    -0.294 OA
BRANCH  11  13
ATOM     13  C   UNL     1      -4.361 -13.860  30.599  1.00  0.00    -0.002 C 
ATOM     14  C   UNL     1      -5.396 -14.716  30.849  1.00  0.00    -0.069 C 
ATOM     15  C   UNL     1      -5.766 -15.136  32.254  1.00  0.00     0.039 C 
ATOM     16  C   UNL     1      -6.230 -15.289  29.724  1.00  0.00     0.039 C 
BRANCH  13  17
ATOM     17  C   UNL     1      -3.474 -13.324  31.712  1.00  0.00     0.066 CG0
ATOM     18  G   UNL     1      -2.009 -13.310  31.325  1.00  0.00     0.000 G0
ENDBRANCH  13  17
ENDBRANCH  11  13
ENDBRANCH  10  11
ENDBRANCH   1  10
TORSDOF 0
ENDMDL
MODEL 2
REMARK VINA RESULT:    -5.123      1.797      3.557
REMARK INTER + INTRA:          -6.727
REMARK INTER:                  -7.365
REMARK INTRA:                   0.638
REMARK UNBOUND:                 0.492
REMARK SMILES CC1=CCC(=C(C)C)C(=O)CC(C)=CCC1
REMARK SMILES IDX 12 1 14 2 13 3 15 4 16 5 2 6 1 7 3 8 11 10 9 11 10 12 5 13
REMARK SMILES IDX 6 14 7 15 8 16 4 17
REMARK H PARENT
REMARK Flexibility Score: 60.00
ROOT
ATOM      1  C   UNL     1      -1.050 -12.842  30.831  1.00  0.00    -0.070 C 
ATOM      2  C   UNL     1      -0.770 -12.690  29.517  1.00  0.00    -0.027 C 
ATOM      3  C   UNL     1      -0.144 -12.164  31.828  1.00  0.00     0.039 C 
ENDROOT
BRANCH   2   4
ATOM      4  C   UNL     1      -1.498 -13.366  28.375  1.00  0.00     0.032 C 
BRANCH   4   5
ATOM      5  C   UNL     1      -2.178 -12.402  27.379  1.00  0.00     0.034 C 
BRANCH   5   6
ATOM      6  C   UNL     1      -3.133 -11.429  28.047  1.00  0.00    -0.077 C 
ATOM      7  C   UNL     1      -2.799  -9.960  27.979  1.00  0.00     0.039 C 
ATOM      8  C   UNL     1      -4.227 -11.799  28.756  1.00  0.00    -0.023 CG0
ATOM      9  G   UNL     1      -4.765 -13.204  28.942  1.00  0.00     0.000 G0
ENDBRANCH   5   6
ENDBRANCH   4   5
ENDBRANCH   2   4
BRANCH   1  10
ATOM     10  C   UNL     1      -2.166 -13.728  31.347  1.00  0.00     0.111 C 
BRANCH  10  11
ATOM     11  C   UNL     1      -3.511 -13.068  31.203  1.00  0.00     0.163 C 
ATOM     12  O   UNL     1      -3.715 -11.993  31.830  1.00  0.00    -0.294 OA
BRANCH  11  13
ATOM     13  C   UNL     1      -4.618 -13.669  30.400  1.00  0.00    -0.002 C 
ATOM     14  C   UNL     1      -5.392 -14.670  30.917  1.00  0.00    -0.069 C 
ATOM     15  C   UNL     1      -6.414 -15.406  30.078  1.00  0.00     0.039 C 
ATOM     16  C   UNL     1      -5.264 -15.094  32.363  1.00  0.00     0.039 C 
BRANCH  13  17
ATOM     17  C   UNL     1      -4.776 -13.188  28.966  1.00  0.00     0.066 CG0
ATOM     18  G   UNL     1      -4.212 -11.797  28.760  1.00  0.00     0.000 G0
ENDBRANCH  13  17
ENDBRANCH  11  13
ENDBRANCH  10  11
ENDBRANCH   1  10
TORSDOF 0
ENDMDL
MODEL 3
REMARK VINA RESULT:    -4.814      2.202      4.829
REMARK INTER + INTRA:          -6.291
REMARK INTER:                  -6.857
REMARK INTRA:                   0.566
REMARK UNBOUND:                 0.492
REMARK SMILES CC1=CCC(=C(C)C)C(=O)CC(C)=CCC1
REMARK SMILES IDX 12 1 14 2 13 3 15 4 16 5 2 6 1 7 3 8 11 10 9 11 10 12 5 13
REMARK SMILES IDX 6 14 7 15 8 16 4 17
REMARK H PARENT
REMARK Flexibility Score: 60.00
ROOT
ATOM      1  C   UNL     1      -4.330 -13.529  31.235  1.00  0.00    -0.070 C 
ATOM      2  C   UNL     1      -5.003 -14.359  30.406  1.00  0.00    -0.027 C 
ATOM      3  C   UNL     1      -3.739 -14.116  32.492  1.00  0.00     0.039 C 
ENDROOT
BRANCH   2   4
ATOM      4  C   UNL     1      -5.745 -13.944  29.154  1.00  0.00     0.032 C 
BRANCH   4   5
ATOM      5  C   UNL     1      -5.089 -12.791  28.365  1.00  0.00     0.034 C 
BRANCH   5   6
ATOM      6  C   UNL     1      -3.947 -13.250  27.475  1.00  0.00    -0.077 C 
ATOM      7  C   UNL     1      -4.219 -14.379  26.513  1.00  0.00     0.039 C 
ATOM      8  C   UNL     1      -2.686 -12.760  27.539  1.00  0.00    -0.023 CG0
ATOM      9  G   UNL     1      -2.189 -11.622  28.408  1.00  0.00     0.000 G0
ENDBRANCH   5   6
ENDBRANCH   4   5
ENDBRANCH   2   4
BRANCH   1  10
ATOM     10  C   UNL     1      -4.222 -12.035  31.009  1.00  0.00     0.111 C 
BRANCH  10  11
ATOM     11  C   UNL     1      -2.787 -11.591  30.907  1.00  0.00     0.163 C 
ATOM     12  O   UNL     1      -2.370 -10.737  31.735  1.00  0.00    -0.294 OA
BRANCH  11  13
ATOM     13  C   UNL     1      -1.871 -12.079  29.833  1.00  0.00    -0.002 C 
ATOM     14  C   UNL     1      -0.767 -12.823  30.140  1.00  0.00    -0.069 C 
ATOM     15  C   UNL     1       0.262 -13.197  29.096  1.00  0.00     0.039 C 
ATOM     16  C   UNL     1      -0.519 -13.314  31.550  1.00  0.00     0.039 C 
BRANCH  13  17
ATOM     17  C   UNL     1      -2.168 -11.630  28.411  1.00  0.00     0.066 CG0
ATOM     18  G   UNL     1      -2.695 -12.760  27.549  1.00  0.00     0.000 G0
ENDBRANCH  13  17
ENDBRANCH  11  13
ENDBRANCH  10  11
ENDBRANCH   1  10
TORSDOF 0
ENDMDL
MODEL 4
REMARK VINA RESULT:    -4.800      2.114      3.544
REMARK INTER + INTRA:          -6.272
REMARK INTER:                  -7.106
REMARK INTRA:                   0.835
REMARK UNBOUND:                 0.492
REMARK SMILES CC1=CCC(=C(C)C)C(=O)CC(C)=CCC1
REMARK SMILES IDX 12 1 14 2 13 3 15 4 16 5 2 6 1 7 3 8 11 10 9 11 10 12 5 13
REMARK SMILES IDX 6 14 7 15 8 16 4 17
REMARK H PARENT
REMARK Flexibility Score: 60.00
ROOT
ATOM      1  C   UNL     1      -3.324 -13.024  31.375  1.00  0.00    -0.070 C 
ATOM      2  C   UNL     1      -2.090 -13.518  31.619  1.00  0.00    -0.027 C 
ATOM      3  C   UNL     1      -4.488 -13.981  31.415  1.00  0.00     0.039 C 
ENDROOT
BRANCH   2   4
ATOM      4  C   UNL     1      -0.794 -12.741  31.528  1.00  0.00     0.032 C 
BRANCH   4   5
ATOM      5  C   UNL     1      -0.495 -12.140  30.138  1.00  0.00     0.034 C 
BRANCH   5   6
ATOM      6  C   UNL     1      -0.670 -13.138  29.006  1.00  0.00    -0.077 C 
ATOM      7  C   UNL     1       0.254 -14.329  28.973  1.00  0.00     0.039 C 
ATOM      8  C   UNL     1      -1.555 -12.993  27.991  1.00  0.00    -0.023 CG0
ATOM      9  G   UNL     1      -2.588 -11.896  27.827  1.00  0.00     0.000 G0
ENDBRANCH   5   6
ENDBRANCH   4   5
ENDBRANCH   2   4
BRANCH   1  10
ATOM     10  C   UNL     1      -3.580 -11.585  30.974  1.00  0.00     0.111 C 
BRANCH  10  11
ATOM     11  C   UNL     1      -4.331 -11.497  29.672  1.00  0.00     0.163 C 
ATOM     12  O   UNL     1      -5.371 -10.783  29.634  1.00  0.00    -0.294 OA
BRANCH  11  13
ATOM     13  C   UNL     1      -3.925 -12.265  28.457  1.00  0.00    -0.002 C 
ATOM     14  C   UNL     1      -4.686 -13.303  28.000  1.00  0.00    -0.069 C 
ATOM     15  C   UNL     1      -4.223 -14.199  26.871  1.00  0.00     0.039 C 
ATOM     16  C   UNL     1      -6.039 -13.611  28.604  1.00  0.00     0.039 C 
BRANCH  13  17
ATOM     17  C   UNL     1      -2.592 -11.903  27.821  1.00  0.00     0.066 CG0
ATOM     18  G   UNL     1      -1.558 -12.998  27.989  1.00  0.00     0.000 G0
ENDBRANCH  13  17
ENDBRANCH  11  13
ENDBRANCH  10  11
ENDBRANCH   1  10
TORSDOF 0
ENDMDL
MODEL 5
REMARK VINA RESULT:    -4.729      1.664      2.227
REMARK INTER + INTRA:          -6.172
REMARK INTER:                  -7.102
REMARK INTRA:                   0.930
REMARK UNBOUND:                 0.492
REMARK SMILES CC1=CCC(=C(C)C)C(=O)CC(C)=CCC1
REMARK SMILES IDX 12 1 14 2 13 3 15 4 16 5 2 6 1 7 3 8 11 10 9 11 10 12 5 13
REMARK SMILES IDX 6 14 7 15 8 16 4 17
REMARK H PARENT
REMARK Flexibility Score: 60.00
ROOT
ATOM      1  C   UNL     1      -2.608 -12.734  27.554  1.00  0.00    -0.070 C 
ATOM      2  C   UNL     1      -1.790 -13.790  27.761  1.00  0.00    -0.027 C 
ATOM      3  C   UNL     1      -3.425 -12.713  26.286  1.00  0.00     0.039 C 
ENDROOT
BRANCH   2   4
ATOM      4  C   UNL     1      -0.825 -13.945  28.916  1.00  0.00     0.032 C 
BRANCH   4   5
ATOM      5  C   UNL     1      -1.485 -13.980  30.311  1.00  0.00     0.034 C 
BRANCH   5   6
ATOM      6  C   UNL     1      -1.190 -12.743  31.142  1.00  0.00    -0.077 C 
ATOM      7  C   UNL     1       0.254 -12.340  31.311  1.00  0.00     0.039 C 
ATOM      8  C   UNL     1      -2.131 -12.021  31.796  1.00  0.00    -0.023 CG0
ATOM      9  G   UNL     1      -3.632 -12.226  31.757  1.00  0.00     0.000 G0
ENDBRANCH   5   6
ENDBRANCH   4   5
ENDBRANCH   2   4
BRANCH   1  10
ATOM     10  C   UNL     1      -2.673 -11.537  28.480  1.00  0.00     0.111 C 
BRANCH  10  11
ATOM     11  C   UNL     1      -3.932 -11.541  29.305  1.00  0.00     0.163 C 
ATOM     12  O   UNL     1      -4.780 -10.630  29.098  1.00  0.00    -0.294 OA
BRANCH  11  13
ATOM     13  C   UNL     1      -4.179 -12.539  30.388  1.00  0.00    -0.002 C 
ATOM     14  C   UNL     1      -4.928 -13.657  30.150  1.00  0.00    -0.069 C 
ATOM     15  C   UNL     1      -5.328 -14.604  31.260  1.00  0.00     0.039 C 
ATOM     16  C   UNL     1      -5.397 -14.006  28.754  1.00  0.00     0.039 C 
BRANCH  13  17
ATOM     17  C   UNL     1      -3.648 -12.207  31.773  1.00  0.00     0.066 CG0
ATOM     18  G   UNL     1      -2.145 -12.007  31.780  1.00  0.00     0.000 G0
ENDBRANCH  13  17
ENDBRANCH  11  13
ENDBRANCH  10  11
ENDBRANCH   1  10
TORSDOF 0
ENDMDL
MODEL 6
REMARK VINA RESULT:    -4.648      1.855      3.857
REMARK INTER + INTRA:          -6.057
REMARK INTER:                  -7.318
REMARK INTRA:                   1.261
REMARK UNBOUND:                 0.492
REMARK SMILES CC1=CCC(=C(C)C)C(=O)CC(C)=CCC1
REMARK SMILES IDX 12 1 14 2 13 3 15 4 16 5 2 6 1 7 3 8 11 10 9 11 10 12 5 13
REMARK SMILES IDX 6 14 7 15 8 16 4 17
REMARK H PARENT
REMARK Flexibility Score: 60.00
ROOT
ATOM      1  C   UNL     1      -4.841 -13.415  29.056  1.00  0.00    -0.070 C 
ATOM      2  C   UNL     1      -4.880 -14.026  30.261  1.00  0.00    -0.027 C 
ATOM      3  C   UNL     1      -4.999 -14.272  27.825  1.00  0.00     0.039 C 
ENDROOT
BRANCH   2   4
ATOM      4  C   UNL     1      -4.644 -13.356  31.598  1.00  0.00     0.032 C 
BRANCH   4   5
ATOM      5  C   UNL     1      -3.312 -12.585  31.710  1.00  0.00     0.034 C 
BRANCH   5   6
ATOM      6  C   UNL     1      -3.499 -11.080  31.800  1.00  0.00    -0.077 C 
ATOM      7  C   UNL     1      -4.557 -10.561  32.741  1.00  0.00     0.039 C 
ATOM      8  C   UNL     1      -2.826 -10.181  31.042  1.00  0.00    -0.023 CG0
ATOM      9  G   UNL     1      -1.715 -10.468  30.052  1.00  0.00     0.000 G0
ENDBRANCH   5   6
ENDBRANCH   4   5
ENDBRANCH   2   4
BRANCH   1  10
ATOM     10  C   UNL     1      -4.556 -11.937  28.881  1.00  0.00     0.111 C 
BRANCH  10  11
ATOM     11  C   UNL     1      -3.174 -11.700  28.331  1.00  0.00     0.163 C 
ATOM     12  O   UNL     1      -3.049 -11.553  27.085  1.00  0.00    -0.294 OA
BRANCH  11  13
ATOM     13  C   UNL     1      -1.957 -11.693  29.196  1.00  0.00    -0.002 C 
ATOM     14  C   UNL     1      -1.149 -12.793  29.274  1.00  0.00    -0.069 C 
ATOM     15  C   UNL     1      -0.002 -12.875  30.257  1.00  0.00     0.039 C 
ATOM     16  C   UNL     1      -1.364 -13.991  28.375  1.00  0.00     0.039 C 
BRANCH  13  17
ATOM     17  C   UNL     1      -1.717 -10.457  30.048  1.00  0.00     0.066 CG0
ATOM     18  G   UNL     1      -2.844 -10.207  31.030  1.00  0.00     0.000 G0
ENDBRANCH  13  17
ENDBRANCH  11  13
ENDBRANCH  10  11
ENDBRANCH   1  10
TORSDOF 0
ENDMDL
MODEL 7
REMARK VINA RESULT:    -4.568      1.647      4.069
REMARK INTER + INTRA:          -5.946
REMARK INTER:                  -6.214
REMARK INTRA:                   0.268
REMARK UNBOUND:                 0.492
REMARK SMILES CC1=CCC(=C(C)C)C(=O)CC(C)=CCC1
REMARK SMILES IDX 12 1 14 2 13 3 15 4 16 5 2 6 1 7 3 8 11 10 9 11 10 12 5 13
REMARK SMILES IDX 6 14 7 15 8 16 4 17
REMARK H PARENT
REMARK Flexibility Score: 60.00
ROOT
ATOM      1  C   UNL     1      -4.029 -13.899  27.398  1.00  0.00    -0.070 C 
ATOM      2  C   UNL     1      -5.226 -14.099  27.996  1.00  0.00    -0.027 C 
ATOM      3  C   UNL     1      -4.015 -13.669  25.908  1.00  0.00     0.039 C 
ENDROOT
BRANCH   2   4
ATOM      4  C   UNL     1      -5.437 -14.441  29.454  1.00  0.00     0.032 C 
BRANCH   4   5
ATOM      5  C   UNL     1      -5.223 -13.266  30.433  1.00  0.00     0.034 C 
BRANCH   5   6
ATOM      6  C   UNL     1      -4.268 -13.598  31.566  1.00  0.00    -0.077 C 
ATOM      7  C   UNL     1      -4.671 -14.692  32.524  1.00  0.00     0.039 C 
ATOM      8  C   UNL     1      -3.114 -12.933  31.811  1.00  0.00    -0.023 CG0
ATOM      9  G   UNL     1      -2.504 -11.822  30.980  1.00  0.00     0.000 G0
ENDBRANCH   5   6
ENDBRANCH   4   5
ENDBRANCH   2   4
BRANCH   1  10
ATOM     10  C   UNL     1      -2.707 -13.987  28.133  1.00  0.00     0.111 C 
BRANCH  10  11
ATOM     11  C   UNL     1      -2.211 -12.627  28.548  1.00  0.00     0.163 C 
ATOM     12  O   UNL     1      -2.281 -11.689  27.709  1.00  0.00    -0.294 OA
BRANCH  11  13
ATOM     13  C   UNL     1      -1.592 -12.372  29.883  1.00  0.00    -0.002 C 
ATOM     14  C   UNL     1      -0.288 -12.702  30.123  1.00  0.00    -0.069 C 
ATOM     15  C   UNL     1       0.321 -12.604  31.504  1.00  0.00     0.039 C 
ATOM     16  C   UNL     1       0.617 -13.186  29.011  1.00  0.00     0.039 C 
BRANCH  13  17
ATOM     17  C   UNL     1      -2.498 -11.826  30.975  1.00  0.00     0.066 CG0
ATOM     18  G   UNL     1      -3.105 -12.926  31.823  1.00  0.00     0.000 G0
ENDBRANCH  13  17
ENDBRANCH  11  13
ENDBRANCH  10  11
ENDBRANCH   1  10
TORSDOF 0
ENDMDL
MODEL 8
REMARK VINA RESULT:    -4.479      1.887      4.218
REMARK INTER + INTRA:          -5.819
REMARK INTER:                  -6.553
REMARK INTRA:                   0.734
REMARK UNBOUND:                 0.492
REMARK SMILES CC1=CCC(=C(C)C)C(=O)CC(C)=CCC1
REMARK SMILES IDX 12 1 14 2 13 3 15 4 16 5 2 6 1 7 3 8 11 10 9 11 10 12 5 13
REMARK SMILES IDX 6 14 7 15 8 16 4 17
REMARK H PARENT
REMARK Flexibility Score: 60.00
ROOT
ATOM      1  C   UNL     1      -3.920 -13.787  31.199  1.00  0.00    -0.070 C 
ATOM      2  C   UNL     1      -3.146 -12.986  31.965  1.00  0.00    -0.027 C 
ATOM      3  C   UNL     1      -4.962 -14.631  31.888  1.00  0.00     0.039 C 
ENDROOT
BRANCH   2   4
ATOM      4  C   UNL     1      -1.989 -12.143  31.474  1.00  0.00     0.032 C 
BRANCH   4   5
ATOM      5  C   UNL     1      -2.265 -10.625  31.434  1.00  0.00     0.034 C 
BRANCH   5   6
ATOM      6  C   UNL     1      -3.719 -10.290  31.150  1.00  0.00    -0.077 C 
ATOM      7  C   UNL     1      -4.616 -10.004  32.328  1.00  0.00     0.039 C 
ATOM      8  C   UNL     1      -4.276 -10.298  29.915  1.00  0.00    -0.023 CG0
ATOM      9  G   UNL     1      -3.572 -10.537  28.594  1.00  0.00     0.000 G0
ENDBRANCH   5   6
ENDBRANCH   4   5
ENDBRANCH   2   4
BRANCH   1  10
ATOM     10  C   UNL     1      -3.730 -13.944  29.704  1.00  0.00     0.111 C 
BRANCH  10  11
ATOM     11  C   UNL     1      -4.520 -12.920  28.933  1.00  0.00     0.163 C 
ATOM     12  O   UNL     1      -5.778 -12.945  29.030  1.00  0.00    -0.294 OA
BRANCH  11  13
ATOM     13  C   UNL     1      -3.876 -11.928  28.022  1.00  0.00    -0.002 C 
ATOM     14  C   UNL     1      -3.495 -12.284  26.758  1.00  0.00    -0.069 C 
ATOM     15  C   UNL     1      -2.699 -11.353  25.870  1.00  0.00     0.039 C 
ATOM     16  C   UNL     1      -3.851 -13.638  26.183  1.00  0.00     0.039 C 
BRANCH  13  17
ATOM     17  C   UNL     1      -3.579 -10.551  28.593  1.00  0.00     0.066 CG0
ATOM     18  G   UNL     1      -4.274 -10.316  29.919  1.00  0.00     0.000 G0
ENDBRANCH  13  17
ENDBRANCH  11  13
ENDBRANCH  10  11
ENDBRANCH   1  10
TORSDOF 0
ENDMDL
MODEL 9
REMARK VINA RESULT:    -4.305      1.366      4.223
REMARK INTER + INTRA:          -5.575
REMARK INTER:                  -6.317
REMARK INTRA:                   0.742
REMARK UNBOUND:                 0.492
REMARK SMILES CC1=CCC(=C(C)C)C(=O)CC(C)=CCC1
REMARK SMILES IDX 12 1 14 2 13 3 15 4 16 5 2 6 1 7 3 8 11 10 9 11 10 12 5 13
REMARK SMILES IDX 6 14 7 15 8 16 4 17
REMARK H PARENT
REMARK Flexibility Score: 60.00
ROOT
ATOM      1  C   UNL     1      -5.100 -13.661  28.314  1.00  0.00    -0.070 C 
ATOM      2  C   UNL     1      -5.698 -14.745  28.856  1.00  0.00    -0.027 C 
ATOM      3  C   UNL     1      -4.432 -13.821  26.971  1.00  0.00     0.039 C 
ENDROOT
BRANCH   2   4
ATOM      4  C   UNL     1      -6.331 -14.810  30.229  1.00  0.00     0.032 C 
BRANCH   4   5
ATOM      5  C   UNL     1      -5.436 -15.424  31.327  1.00  0.00     0.034 C 
BRANCH   5   6
ATOM      6  C   UNL     1      -4.943 -14.402  32.336  1.00  0.00    -0.077 C 
ATOM      7  C   UNL     1      -5.750 -14.216  33.596  1.00  0.00     0.039 C 
ATOM      8  C   UNL     1      -3.867 -13.600  32.147  1.00  0.00    -0.023 CG0
ATOM      9  G   UNL     1      -2.904 -13.622  30.976  1.00  0.00     0.000 G0
ENDBRANCH   5   6
ENDBRANCH   4   5
ENDBRANCH   2   4
BRANCH   1  10
ATOM     10  C   UNL     1      -4.987 -12.329  29.027  1.00  0.00     0.111 C 
BRANCH  10  11
ATOM     11  C   UNL     1      -3.553 -11.891  29.162  1.00  0.00     0.163 C 
ATOM     12  O   UNL     1      -3.034 -11.257  28.203  1.00  0.00    -0.294 OA
BRANCH  11  13
ATOM     13  C   UNL     1      -2.719 -12.231  30.353  1.00  0.00    -0.002 C 
ATOM     14  C   UNL     1      -1.769 -11.363  30.812  1.00  0.00    -0.069 C 
ATOM     15  C   UNL     1      -0.803 -11.742  31.913  1.00  0.00     0.039 C 
ATOM     16  C   UNL     1      -1.636  -9.969  30.238  1.00  0.00     0.039 C 
BRANCH  13  17
ATOM     17  C   UNL     1      -2.907 -13.612  30.961  1.00  0.00     0.066 CG0
ATOM     18  G   UNL     1      -3.855 -13.597  32.143  1.00  0.00     0.000 G0
ENDBRANCH  13  17
ENDBRANCH  11  13
ENDBRANCH  10  11
ENDBRANCH   1  10
TORSDOF 0
ENDMDL
