MODEL 1
REMARK VINA RESULT:    -2.921      0.000      0.000
REMARK INTER + INTRA:          -3.125
REMARK INTER:                  -3.092
REMARK INTRA:                  -0.033
REMARK UNBOUND:                -0.033
REMARK SMILES COc1ccc2ccc(=O)oc2c1
REMARK SMILES IDX 3 1 13 2 12 3 6 4 5 5 4 6 7 7 8 8 9 9 10 10 11 11 2 12 1 13
REMARK H PARENT
REMARK Flexibility Score: inf
ROOT
ATOM      1  C   UNL     1     -18.779  -6.871  11.967  1.00  0.00     0.122 A 
ATOM      2  C   UNL     1     -18.243  -7.795  11.047  1.00  0.00     0.094 A 
ATOM      3  C   UNL     1     -18.883  -9.019  10.824  1.00  0.00     0.142 A 
ATOM      4  C   UNL     1     -20.070  -9.330  11.523  1.00  0.00     0.018 A 
ATOM      5  C   UNL     1     -20.602  -8.412  12.436  1.00  0.00     0.016 A 
ATOM      6  C   UNL     1     -19.958  -7.191  12.654  1.00  0.00     0.047 A 
ATOM      7  C   UNL     1     -20.686 -10.561  11.277  1.00  0.00     0.019 A 
ATOM      8  C   UNL     1     -20.115 -11.441  10.358  1.00  0.00     0.094 A 
ATOM      9  C   UNL     1     -18.938 -11.066   9.702  1.00  0.00     0.336 A 
ATOM     10  O   UNL     1     -18.407 -11.845   8.868  1.00  0.00    -0.246 OA
ATOM     11  O   UNL     1     -18.372  -9.887   9.954  1.00  0.00    -0.423 OA
ENDROOT
BRANCH   1  12
ATOM     12  O   UNL     1     -18.174  -5.632  12.225  1.00  0.00    -0.497 OA
ATOM     13  C   UNL     1     -17.131  -5.427  13.171  1.00  0.00     0.278 C 
ENDBRANCH   1  12
TORSDOF 1
ENDMDL
MODEL 2
REMARK VINA RESULT:    -2.359      1.517      2.223
REMARK INTER + INTRA:          -2.530
REMARK INTER:                  -2.495
REMARK INTRA:                  -0.035
REMARK UNBOUND:                -0.033
REMARK SMILES COc1ccc2ccc(=O)oc2c1
REMARK SMILES IDX 3 1 13 2 12 3 6 4 5 5 4 6 7 7 8 8 9 9 10 10 11 11 2 12 1 13
REMARK H PARENT
REMARK Flexibility Score: inf
ROOT
ATOM      1  C   UNL     1     -18.414  -6.819  12.023  1.00  0.00     0.122 A 
ATOM      2  C   UNL     1     -19.327  -7.842  12.348  1.00  0.00     0.094 A 
ATOM      3  C   UNL     1     -19.518  -8.919  11.476  1.00  0.00     0.142 A 
ATOM      4  C   UNL     1     -18.793  -8.982  10.266  1.00  0.00     0.018 A 
ATOM      5  C   UNL     1     -17.885  -7.966   9.944  1.00  0.00     0.016 A 
ATOM      6  C   UNL     1     -17.699  -6.892  10.820  1.00  0.00     0.047 A 
ATOM      7  C   UNL     1     -19.005 -10.072   9.416  1.00  0.00     0.019 A 
ATOM      8  C   UNL     1     -19.921 -11.057   9.783  1.00  0.00     0.094 A 
ATOM      9  C   UNL     1     -20.604 -10.930  10.997  1.00  0.00     0.336 A 
ATOM     10  O   UNL     1     -21.435 -11.809  11.347  1.00  0.00    -0.246 OA
ATOM     11  O   UNL     1     -20.382  -9.882  11.788  1.00  0.00    -0.423 OA
ENDROOT
BRANCH   1  12
ATOM     12  O   UNL     1     -18.188  -5.719  12.865  1.00  0.00    -0.497 OA
ATOM     13  C   UNL     1     -16.900  -5.216  13.203  1.00  0.00     0.278 C 
ENDBRANCH   1  12
TORSDOF 1
ENDMDL
MODEL 3
REMARK VINA RESULT:    -1.685     15.154     17.219
REMARK INTER + INTRA:          -1.817
REMARK INTER:                  -1.783
REMARK INTRA:                  -0.033
REMARK UNBOUND:                -0.033
REMARK SMILES COc1ccc2ccc(=O)oc2c1
REMARK SMILES IDX 3 1 13 2 12 3 6 4 5 5 4 6 7 7 8 8 9 9 10 10 11 11 2 12 1 13
REMARK H PARENT
REMARK Flexibility Score: inf
ROOT
ATOM      1  C   UNL     1     -17.396   7.034  20.365  1.00  0.00     0.122 A 
ATOM      2  C   UNL     1     -17.284   5.637  20.211  1.00  0.00     0.094 A 
ATOM      3  C   UNL     1     -18.214   4.785  20.816  1.00  0.00     0.142 A 
ATOM      4  C   UNL     1     -19.269   5.326  21.584  1.00  0.00     0.018 A 
ATOM      5  C   UNL     1     -19.379   6.714  21.735  1.00  0.00     0.016 A 
ATOM      6  C   UNL     1     -18.447   7.559  21.128  1.00  0.00     0.047 A 
ATOM      7  C   UNL     1     -20.182   4.448  22.175  1.00  0.00     0.019 A 
ATOM      8  C   UNL     1     -20.027   3.074  21.994  1.00  0.00     0.094 A 
ATOM      9  C   UNL     1     -18.958   2.610  21.220  1.00  0.00     0.336 A 
ATOM     10  O   UNL     1     -18.801   1.373  21.044  1.00  0.00    -0.246 OA
ATOM     11  O   UNL     1     -18.103   3.467  20.668  1.00  0.00    -0.423 OA
ENDROOT
BRANCH   1  12
ATOM     12  O   UNL     1     -16.488   7.929  19.778  1.00  0.00    -0.497 OA
ATOM     13  C   UNL     1     -15.151   8.125  20.222  1.00  0.00     0.278 C 
ENDBRANCH   1  12
TORSDOF 1
ENDMDL
MODEL 4
REMARK VINA RESULT:    -0.882      1.749      5.154
REMARK INTER + INTRA:          -0.966
REMARK INTER:                  -0.927
REMARK INTRA:                  -0.039
REMARK UNBOUND:                -0.033
REMARK SMILES COc1ccc2ccc(=O)oc2c1
REMARK SMILES IDX 3 1 13 2 12 3 6 4 5 5 4 6 7 7 8 8 9 9 10 10 11 11 2 12 1 13
REMARK H PARENT
REMARK Flexibility Score: inf
ROOT
ATOM      1  C   UNL     1     -20.027 -10.630  10.973  1.00  0.00     0.122 A 
ATOM      2  C   UNL     1     -20.630  -9.424  11.383  1.00  0.00     0.094 A 
ATOM      3  C   UNL     1     -19.891  -8.236  11.398  1.00  0.00     0.142 A 
ATOM      4  C   UNL     1     -18.535  -8.245  11.002  1.00  0.00     0.018 A 
ATOM      5  C   UNL     1     -17.937  -9.444  10.594  1.00  0.00     0.016 A 
ATOM      6  C   UNL     1     -18.681 -10.627  10.581  1.00  0.00     0.047 A 
ATOM      7  C   UNL     1     -17.824  -7.042  11.028  1.00  0.00     0.019 A 
ATOM      8  C   UNL     1     -18.466  -5.876  11.443  1.00  0.00     0.094 A 
ATOM      9  C   UNL     1     -19.811  -5.942  11.822  1.00  0.00     0.336 A 
ATOM     10  O   UNL     1     -20.409  -4.900  12.199  1.00  0.00    -0.246 OA
ATOM     11  O   UNL     1     -20.465  -7.100  11.787  1.00  0.00    -0.423 OA
ENDROOT
BRANCH   1  12
ATOM     12  O   UNL     1     -20.726 -11.846  10.940  1.00  0.00    -0.497 OA
ATOM     13  C   UNL     1     -22.144 -11.960  10.990  1.00  0.00     0.278 C 
ENDBRANCH   1  12
TORSDOF 1
ENDMDL
MODEL 5
REMARK VINA RESULT:    -0.645     15.884     17.238
REMARK INTER + INTRA:          -0.715
REMARK INTER:                  -0.681
REMARK INTRA:                  -0.034
REMARK UNBOUND:                -0.033
REMARK SMILES COc1ccc2ccc(=O)oc2c1
REMARK SMILES IDX 3 1 13 2 12 3 6 4 5 5 4 6 7 7 8 8 9 9 10 10 11 11 2 12 1 13
REMARK H PARENT
REMARK Flexibility Score: inf
ROOT
ATOM      1  C   UNL     1     -17.323   6.548  20.363  1.00  0.00     0.122 A 
ATOM      2  C   UNL     1     -18.269   6.281  21.373  1.00  0.00     0.094 A 
ATOM      3  C   UNL     1     -18.762   4.984  21.552  1.00  0.00     0.142 A 
ATOM      4  C   UNL     1     -18.310   3.938  20.717  1.00  0.00     0.018 A 
ATOM      5  C   UNL     1     -17.370   4.205  19.714  1.00  0.00     0.016 A 
ATOM      6  C   UNL     1     -16.882   5.503  19.541  1.00  0.00     0.047 A 
ATOM      7  C   UNL     1     -18.820   2.653  20.921  1.00  0.00     0.019 A 
ATOM      8  C   UNL     1     -19.755   2.440  21.933  1.00  0.00     0.094 A 
ATOM      9  C   UNL     1     -20.157   3.523  22.722  1.00  0.00     0.336 A 
ATOM     10  O   UNL     1     -21.000   3.352  23.642  1.00  0.00    -0.246 OA
ATOM     11  O   UNL     1     -19.655   4.737  22.507  1.00  0.00    -0.423 OA
ENDROOT
BRANCH   1  12
ATOM     12  O   UNL     1     -16.801   7.832  20.146  1.00  0.00    -0.497 OA
ATOM     13  C   UNL     1     -15.414   8.125  20.018  1.00  0.00     0.278 C 
ENDBRANCH   1  12
TORSDOF 1
ENDMDL
MODEL 6
REMARK VINA RESULT:    -0.474     15.829     17.929
REMARK INTER + INTRA:          -0.535
REMARK INTER:                  -0.496
REMARK INTRA:                  -0.039
REMARK UNBOUND:                -0.033
REMARK SMILES COc1ccc2ccc(=O)oc2c1
REMARK SMILES IDX 3 1 13 2 12 3 6 4 5 5 4 6 7 7 8 8 9 9 10 10 11 11 2 12 1 13
REMARK H PARENT
REMARK Flexibility Score: inf
ROOT
ATOM      1  C   UNL     1     -19.422   3.832  21.655  1.00  0.00     0.122 A 
ATOM      2  C   UNL     1     -18.293   4.166  20.881  1.00  0.00     0.094 A 
ATOM      3  C   UNL     1     -17.903   5.502  20.743  1.00  0.00     0.142 A 
ATOM      4  C   UNL     1     -18.643   6.521  21.382  1.00  0.00     0.018 A 
ATOM      5  C   UNL     1     -19.765   6.188  22.152  1.00  0.00     0.016 A 
ATOM      6  C   UNL     1     -20.149   4.851  22.285  1.00  0.00     0.047 A 
ATOM      7  C   UNL     1     -18.228   7.846  21.227  1.00  0.00     0.019 A 
ATOM      8  C   UNL     1     -17.104   8.125  20.450  1.00  0.00     0.094 A 
ATOM      9  C   UNL     1     -16.419   7.065  19.846  1.00  0.00     0.336 A 
ATOM     10  O   UNL     1     -15.401   7.295  19.141  1.00  0.00    -0.246 OA
ATOM     11  O   UNL     1     -16.835   5.812  20.011  1.00  0.00    -0.423 OA
ENDROOT
BRANCH   1  12
ATOM     12  O   UNL     1     -19.852   2.507  21.822  1.00  0.00    -0.497 OA
ATOM     13  C   UNL     1     -21.149   2.133  22.275  1.00  0.00     0.278 C 
ENDBRANCH   1  12
TORSDOF 1
ENDMDL
