MODEL 1
REMARK VINA RESULT:    -1.908      0.000      0.000
REMARK INTER + INTRA:          -1.908
REMARK INTER:                  -1.908
REMARK INTRA:                   0.000
REMARK UNBOUND:                 0.000
REMARK SMILES CC(=O)[O-]
REMARK SMILES IDX 1 1 2 2 3 3 4 4
REMARK H PARENT
REMARK Flexibility Score: inf
ROOT
ATOM      1  C   UNL     1      57.796  17.098  50.008  1.00  0.00     0.063 C 
ATOM      2  C   UNL     1      58.539  16.255  49.028  1.00  0.00     0.038 C 
ATOM      3  O   UNL     1      59.712  15.876  49.284  1.00  0.00    -0.550 OA
ATOM      4  O   UNL     1      57.959  15.930  47.809  1.00  0.00    -0.550 OA
ENDROOT
TORSDOF 0
ENDMDL
MODEL 2
REMARK VINA RESULT:    -1.878      1.402      1.770
REMARK INTER + INTRA:          -1.878
REMARK INTER:                  -1.878
REMARK INTRA:                   0.000
REMARK UNBOUND:                 0.000
REMARK SMILES CC(=O)[O-]
REMARK SMILES IDX 1 1 2 2 3 3 4 4
REMARK H PARENT
REMARK Flexibility Score: inf
ROOT
ATOM      1  C   UNL     1      58.125  15.875  47.751  1.00  0.00     0.063 C 
ATOM      2  C   UNL     1      58.555  16.283  49.120  1.00  0.00     0.038 C 
ATOM      3  O   UNL     1      59.686  15.943  49.554  1.00  0.00    -0.550 OA
ATOM      4  O   UNL     1      57.687  16.994  49.938  1.00  0.00    -0.550 OA
ENDROOT
TORSDOF 0
ENDMDL
MODEL 3
REMARK VINA RESULT:    -1.848      0.271      1.638
REMARK INTER + INTRA:          -1.848
REMARK INTER:                  -1.848
REMARK INTRA:                   0.000
REMARK UNBOUND:                 0.000
REMARK SMILES CC(=O)[O-]
REMARK SMILES IDX 1 1 2 2 3 3 4 4
REMARK H PARENT
REMARK Flexibility Score: inf
ROOT
ATOM      1  C   UNL     1      57.633  17.204  50.153  1.00  0.00     0.063 C 
ATOM      2  C   UNL     1      58.426  16.410  49.171  1.00  0.00     0.038 C 
ATOM      3  O   UNL     1      57.883  15.984  48.118  1.00  0.00    -0.550 OA
ATOM      4  O   UNL     1      59.751  16.093  49.440  1.00  0.00    -0.550 OA
ENDROOT
TORSDOF 0
ENDMDL
MODEL 4
REMARK VINA RESULT:    -1.782     10.846     11.060
REMARK INTER + INTRA:          -1.782
REMARK INTER:                  -1.782
REMARK INTRA:                   0.000
REMARK UNBOUND:                 0.000
REMARK SMILES CC(=O)[O-]
REMARK SMILES IDX 1 1 2 2 3 3 4 4
REMARK H PARENT
REMARK Flexibility Score: inf
ROOT
ATOM      1  C   UNL     1      58.923  28.433  49.542  1.00  0.00     0.063 C 
ATOM      2  C   UNL     1      59.770  27.206  49.594  1.00  0.00     0.038 C 
ATOM      3  O   UNL     1      61.024  27.304  49.563  1.00  0.00    -0.550 OA
ATOM      4  O   UNL     1      59.176  25.951  49.622  1.00  0.00    -0.550 OA
ENDROOT
TORSDOF 0
ENDMDL
MODEL 5
REMARK VINA RESULT:    -1.778     18.253     18.751
REMARK INTER + INTRA:          -1.778
REMARK INTER:                  -1.778
REMARK INTRA:                   0.000
REMARK UNBOUND:                 0.000
REMARK SMILES CC(=O)[O-]
REMARK SMILES IDX 1 1 2 2 3 3 4 4
REMARK H PARENT
REMARK Flexibility Score: inf
ROOT
ATOM      1  C   UNL     1      61.359  30.479  61.792  1.00  0.00     0.063 C 
ATOM      2  C   UNL     1      62.479  29.499  61.711  1.00  0.00     0.038 C 
ATOM      3  O   UNL     1      63.669  29.905  61.646  1.00  0.00    -0.550 OA
ATOM      4  O   UNL     1      62.211  28.138  61.652  1.00  0.00    -0.550 OA
ENDROOT
TORSDOF 0
ENDMDL
MODEL 6
REMARK VINA RESULT:    -1.719      9.965     10.297
REMARK INTER + INTRA:          -1.719
REMARK INTER:                  -1.719
REMARK INTRA:                   0.000
REMARK UNBOUND:                 0.000
REMARK SMILES CC(=O)[O-]
REMARK SMILES IDX 1 1 2 2 3 3 4 4
REMARK H PARENT
REMARK Flexibility Score: inf
ROOT
ATOM      1  C   UNL     1      54.422  27.195  50.318  1.00  0.00     0.063 C 
ATOM      2  C   UNL     1      54.851  25.803  50.000  1.00  0.00     0.038 C 
ATOM      3  O   UNL     1      55.994  25.402  50.343  1.00  0.00    -0.550 OA
ATOM      4  O   UNL     1      54.014  24.964  49.277  1.00  0.00    -0.550 OA
ENDROOT
TORSDOF 0
ENDMDL
MODEL 7
REMARK VINA RESULT:    -1.706     23.509     23.989
REMARK INTER + INTRA:          -1.706
REMARK INTER:                  -1.706
REMARK INTRA:                   0.000
REMARK UNBOUND:                 0.000
REMARK SMILES CC(=O)[O-]
REMARK SMILES IDX 1 1 2 2 3 3 4 4
REMARK H PARENT
REMARK Flexibility Score: inf
ROOT
ATOM      1  C   UNL     1      71.279  32.606  58.882  1.00  0.00     0.063 C 
ATOM      2  C   UNL     1      71.630  32.833  60.313  1.00  0.00     0.038 C 
ATOM      3  O   UNL     1      72.211  31.930  60.971  1.00  0.00    -0.550 OA
ATOM      4  O   UNL     1      71.269  34.019  60.939  1.00  0.00    -0.550 OA
ENDROOT
TORSDOF 0
ENDMDL
MODEL 8
REMARK VINA RESULT:    -1.680     18.384     18.945
REMARK INTER + INTRA:          -1.680
REMARK INTER:                  -1.680
REMARK INTRA:                   0.000
REMARK UNBOUND:                 0.000
REMARK SMILES CC(=O)[O-]
REMARK SMILES IDX 1 1 2 2 3 3 4 4
REMARK H PARENT
REMARK Flexibility Score: inf
ROOT
ATOM      1  C   UNL     1      63.661  30.274  61.385  1.00  0.00     0.063 C 
ATOM      2  C   UNL     1      62.345  29.668  61.739  1.00  0.00     0.038 C 
ATOM      3  O   UNL     1      61.387  30.403  62.093  1.00  0.00    -0.550 OA
ATOM      4  O   UNL     1      62.190  28.288  61.731  1.00  0.00    -0.550 OA
ENDROOT
TORSDOF 0
ENDMDL
MODEL 9
REMARK VINA RESULT:    -1.663     22.788     23.365
REMARK INTER + INTRA:          -1.663
REMARK INTER:                  -1.663
REMARK INTRA:                   0.000
REMARK UNBOUND:                 0.000
REMARK SMILES CC(=O)[O-]
REMARK SMILES IDX 1 1 2 2 3 3 4 4
REMARK H PARENT
REMARK Flexibility Score: inf
ROOT
ATOM      1  C   UNL     1      72.319  31.445  60.844  1.00  0.00     0.063 C 
ATOM      2  C   UNL     1      72.400  30.189  61.644  1.00  0.00     0.038 C 
ATOM      3  O   UNL     1      73.125  30.142  62.672  1.00  0.00    -0.550 OA
ATOM      4  O   UNL     1      71.718  29.053  61.227  1.00  0.00    -0.550 OA
ENDROOT
TORSDOF 0
ENDMDL
