MODEL 1
REMARK VINA RESULT:     0.049      0.000      0.000
REMARK INTER + INTRA:          -0.033
REMARK INTER:                   0.057
REMARK INTRA:                  -0.090
REMARK UNBOUND:                -0.090
REMARK SMILES COc1cc(C(=O)[O-])ccc1O
REMARK SMILES IDX 5 1 9 2 4 3 10 4 3 5 11 6 6 7 7 8 8 9 2 10 1 11 12 12
REMARK H PARENT 12 13
REMARK Flexibility Score: inf
ROOT
ATOM      1  C   UNL     1      21.636   4.986  17.797  1.00  0.00     0.001 A 
ATOM      2  C   UNL     1      20.897   5.604  16.775  1.00  0.00     0.014 A 
ATOM      3  C   UNL     1      22.876   4.398  17.485  1.00  0.00     0.060 A 
ATOM      4  C   UNL     1      21.388   5.636  15.469  1.00  0.00     0.051 A 
ATOM      5  C   UNL     1      23.374   4.427  16.167  1.00  0.00     0.161 A 
ATOM      6  C   UNL     1      22.621   5.049  15.161  1.00  0.00     0.157 A 
ENDROOT
BRANCH   1   7
ATOM      7  C   UNL     1      21.113   4.956  19.181  1.00  0.00     0.072 C 
ATOM      8  O   UNL     1      20.875   6.026  19.800  1.00  0.00    -0.545 OA
ATOM      9  O   UNL     1      20.876   3.742  19.819  1.00  0.00    -0.545 OA
ENDBRANCH   1   7
BRANCH   5  10
ATOM     10  O   UNL     1      24.606   3.851  15.819  1.00  0.00    -0.493 OA
ATOM     11  C   UNL     1      24.951   2.487  16.039  1.00  0.00     0.278 C 
ENDBRANCH   5  10
BRANCH   6  12
ATOM     12  O   UNL     1      23.109   5.082  13.856  1.00  0.00    -0.504 OA
ATOM     13  H   UNL     1      22.542   4.786  13.070  1.00  0.00     0.293 HD
ENDBRANCH   6  12
TORSDOF 3
ENDMDL
MODEL 2
REMARK VINA RESULT:     0.183     15.521     17.629
REMARK INTER + INTRA:           0.119
REMARK INTER:                   0.206
REMARK INTRA:                  -0.086
REMARK UNBOUND:                -0.090
REMARK SMILES COc1cc(C(=O)[O-])ccc1O
REMARK SMILES IDX 5 1 9 2 4 3 10 4 3 5 11 6 6 7 7 8 8 9 2 10 1 11 12 12
REMARK H PARENT 12 13
REMARK Flexibility Score: inf
ROOT
ATOM      1  C   UNL     1      29.014  15.366   4.080  1.00  0.00     0.001 A 
ATOM      2  C   UNL     1      30.191  16.125   4.185  1.00  0.00     0.014 A 
ATOM      3  C   UNL     1      28.863  14.222   4.885  1.00  0.00     0.060 A 
ATOM      4  C   UNL     1      31.196  15.749   5.078  1.00  0.00     0.051 A 
ATOM      5  C   UNL     1      29.877  13.840   5.787  1.00  0.00     0.161 A 
ATOM      6  C   UNL     1      31.044  14.610   5.877  1.00  0.00     0.157 A 
ENDROOT
BRANCH   1   7
ATOM      7  C   UNL     1      27.950  15.769   3.133  1.00  0.00     0.072 C 
ATOM      8  O   UNL     1      26.746  15.813   3.501  1.00  0.00    -0.545 OA
ATOM      9  O   UNL     1      28.265  16.103   1.820  1.00  0.00    -0.545 OA
ENDBRANCH   1   7
BRANCH   5  10
ATOM     10  O   UNL     1      29.761  12.705   6.606  1.00  0.00    -0.493 OA
ATOM     11  C   UNL     1      28.612  12.383   7.383  1.00  0.00     0.278 C 
ENDBRANCH   5  10
BRANCH   6  12
ATOM     12  O   UNL     1      32.049  14.237   6.768  1.00  0.00    -0.504 OA
ATOM     13  H   UNL     1      32.255  13.263   6.957  1.00  0.00     0.293 HD
ENDBRANCH   6  12
TORSDOF 3
ENDMDL
MODEL 3
REMARK VINA RESULT:     0.207     16.381     18.295
REMARK INTER + INTRA:           0.147
REMARK INTER:                  -0.016
REMARK INTRA:                   0.164
REMARK UNBOUND:                -0.090
REMARK SMILES COc1cc(C(=O)[O-])ccc1O
REMARK SMILES IDX 5 1 9 2 4 3 10 4 3 5 11 6 6 7 7 8 8 9 2 10 1 11 12 12
REMARK H PARENT 12 13
REMARK Flexibility Score: inf
ROOT
ATOM      1  C   UNL     1      28.973  15.362   3.957  1.00  0.00     0.001 A 
ATOM      2  C   UNL     1      28.596  14.262   4.746  1.00  0.00     0.014 A 
ATOM      3  C   UNL     1      30.232  15.954   4.166  1.00  0.00     0.060 A 
ATOM      4  C   UNL     1      29.460  13.765   5.722  1.00  0.00     0.051 A 
ATOM      5  C   UNL     1      31.107  15.455   5.152  1.00  0.00     0.161 A 
ATOM      6  C   UNL     1      30.712  14.357   5.929  1.00  0.00     0.157 A 
ENDROOT
BRANCH   1   7
ATOM      7  C   UNL     1      28.054  15.886   2.921  1.00  0.00     0.072 C 
ATOM      8  O   UNL     1      28.469  16.124   1.757  1.00  0.00    -0.545 OA
ATOM      9  O   UNL     1      26.716  16.123   3.221  1.00  0.00    -0.545 OA
ENDBRANCH   1   7
BRANCH   5  10
ATOM     10  O   UNL     1      32.369  16.021   5.388  1.00  0.00    -0.493 OA
ATOM     11  C   UNL     1      33.608  15.354   5.168  1.00  0.00     0.278 C 
ENDBRANCH   5  10
BRANCH   6  12
ATOM     12  O   UNL     1      31.573  13.858   6.905  1.00  0.00    -0.504 OA
ATOM     13  H   UNL     1      31.716  14.343   7.783  1.00  0.00     0.293 HD
ENDBRANCH   6  12
TORSDOF 3
ENDMDL
MODEL 4
REMARK VINA RESULT:     0.232      1.642      4.386
REMARK INTER + INTRA:           0.176
REMARK INTER:                   0.209
REMARK INTRA:                  -0.034
REMARK UNBOUND:                -0.090
REMARK SMILES COc1cc(C(=O)[O-])ccc1O
REMARK SMILES IDX 5 1 9 2 4 3 10 4 3 5 11 6 6 7 7 8 8 9 2 10 1 11 12 12
REMARK H PARENT 12 13
REMARK Flexibility Score: inf
ROOT
ATOM      1  C   UNL     1      24.286   3.611  15.876  1.00  0.00     0.001 A 
ATOM      2  C   UNL     1      23.696   4.038  14.674  1.00  0.00     0.014 A 
ATOM      3  C   UNL     1      23.720   4.019  17.098  1.00  0.00     0.060 A 
ATOM      4  C   UNL     1      22.564   4.855  14.694  1.00  0.00     0.051 A 
ATOM      5  C   UNL     1      22.578   4.845  17.121  1.00  0.00     0.161 A 
ATOM      6  C   UNL     1      22.005   5.260  15.912  1.00  0.00     0.157 A 
ENDROOT
BRANCH   1   7
ATOM      7  C   UNL     1      25.484   2.744  15.850  1.00  0.00     0.072 C 
ATOM      8  O   UNL     1      25.457   1.596  16.367  1.00  0.00    -0.545 OA
ATOM      9  O   UNL     1      26.661   3.186  15.254  1.00  0.00    -0.545 OA
ENDBRANCH   1   7
BRANCH   5  10
ATOM     10  O   UNL     1      21.988   5.272  18.321  1.00  0.00    -0.493 OA
ATOM     11  C   UNL     1      20.875   4.640  18.945  1.00  0.00     0.278 C 
ENDBRANCH   5  10
BRANCH   6  12
ATOM     12  O   UNL     1      20.875   6.077  15.929  1.00  0.00    -0.504 OA
ATOM     13  H   UNL     1      19.978   5.748  15.590  1.00  0.00     0.293 HD
ENDBRANCH   6  12
TORSDOF 3
ENDMDL
MODEL 5
REMARK VINA RESULT:     0.793      1.581      1.949
REMARK INTER + INTRA:           0.819
REMARK INTER:                   0.914
REMARK INTRA:                  -0.095
REMARK UNBOUND:                -0.090
REMARK SMILES COc1cc(C(=O)[O-])ccc1O
REMARK SMILES IDX 5 1 9 2 4 3 10 4 3 5 11 6 6 7 7 8 8 9 2 10 1 11 12 12
REMARK H PARENT 12 13
REMARK Flexibility Score: inf
ROOT
ATOM      1  C   UNL     1      22.520   4.704  16.367  1.00  0.00     0.001 A 
ATOM      2  C   UNL     1      22.056   4.926  15.059  1.00  0.00     0.014 A 
ATOM      3  C   UNL     1      23.697   3.958  16.557  1.00  0.00     0.060 A 
ATOM      4  C   UNL     1      22.756   4.413  13.965  1.00  0.00     0.051 A 
ATOM      5  C   UNL     1      24.405   3.438  15.455  1.00  0.00     0.161 A 
ATOM      6  C   UNL     1      23.926   3.670  14.159  1.00  0.00     0.157 A 
ENDROOT
BRANCH   1   7
ATOM      7  C   UNL     1      21.776   5.251  17.523  1.00  0.00     0.072 C 
ATOM      8  O   UNL     1      20.875   6.116  17.356  1.00  0.00    -0.545 OA
ATOM      9  O   UNL     1      22.061   4.817  18.814  1.00  0.00    -0.545 OA
ENDBRANCH   1   7
BRANCH   5  10
ATOM     10  O   UNL     1      25.583   2.689  15.608  1.00  0.00    -0.493 OA
ATOM     11  C   UNL     1      25.703   1.529  16.426  1.00  0.00     0.278 C 
ENDBRANCH   5  10
BRANCH   6  12
ATOM     12  O   UNL     1      24.623   3.159  13.065  1.00  0.00    -0.504 OA
ATOM     13  H   UNL     1      24.844   3.735  12.261  1.00  0.00     0.293 HD
ENDBRANCH   6  12
TORSDOF 3
ENDMDL
MODEL 6
REMARK VINA RESULT:     0.994      2.490      4.530
REMARK INTER + INTRA:           1.049
REMARK INTER:                   1.130
REMARK INTRA:                  -0.082
REMARK UNBOUND:                -0.090
REMARK SMILES COc1cc(C(=O)[O-])ccc1O
REMARK SMILES IDX 5 1 9 2 4 3 10 4 3 5 11 6 6 7 7 8 8 9 2 10 1 11 12 12
REMARK H PARENT 12 13
REMARK Flexibility Score: inf
ROOT
ATOM      1  C   UNL     1      24.748   3.135  15.906  1.00  0.00     0.001 A 
ATOM      2  C   UNL     1      24.146   3.746  17.019  1.00  0.00     0.014 A 
ATOM      3  C   UNL     1      24.265   3.433  14.619  1.00  0.00     0.060 A 
ATOM      4  C   UNL     1      23.085   4.637  16.848  1.00  0.00     0.051 A 
ATOM      5  C   UNL     1      23.193   4.332  14.443  1.00  0.00     0.161 A 
ATOM      6  C   UNL     1      22.607   4.930  15.565  1.00  0.00     0.157 A 
ENDROOT
BRANCH   1   7
ATOM      7  C   UNL     1      25.873   2.192  16.092  1.00  0.00     0.072 C 
ATOM      8  O   UNL     1      25.668   1.023  16.513  1.00  0.00    -0.545 OA
ATOM      9  O   UNL     1      27.176   2.585  15.805  1.00  0.00    -0.545 OA
ENDBRANCH   1   7
BRANCH   5  10
ATOM     10  O   UNL     1      22.686   4.651  13.173  1.00  0.00    -0.493 OA
ATOM     11  C   UNL     1      22.484   3.711  12.123  1.00  0.00     0.278 C 
ENDBRANCH   5  10
BRANCH   6  12
ATOM     12  O   UNL     1      21.547   5.820  15.397  1.00  0.00    -0.504 OA
ATOM     13  H   UNL     1      20.701   5.551  14.908  1.00  0.00     0.293 HD
ENDBRANCH   6  12
TORSDOF 3
ENDMDL
MODEL 7
REMARK VINA RESULT:     1.589      1.463      2.595
REMARK INTER + INTRA:           1.731
REMARK INTER:                   1.603
REMARK INTRA:                   0.127
REMARK UNBOUND:                -0.090
REMARK SMILES COc1cc(C(=O)[O-])ccc1O
REMARK SMILES IDX 5 1 9 2 4 3 10 4 3 5 11 6 6 7 7 8 8 9 2 10 1 11 12 12
REMARK H PARENT 12 13
REMARK Flexibility Score: inf
ROOT
ATOM      1  C   UNL     1      22.387   4.627  16.947  1.00  0.00     0.001 A 
ATOM      2  C   UNL     1      23.678   4.137  17.206  1.00  0.00     0.014 A 
ATOM      3  C   UNL     1      22.001   4.864  15.615  1.00  0.00     0.060 A 
ATOM      4  C   UNL     1      24.564   3.890  16.156  1.00  0.00     0.051 A 
ATOM      5  C   UNL     1      22.893   4.615  14.552  1.00  0.00     0.161 A 
ATOM      6  C   UNL     1      24.177   4.128  14.832  1.00  0.00     0.157 A 
ENDROOT
BRANCH   1   7
ATOM      7  C   UNL     1      21.451   4.887  18.063  1.00  0.00     0.072 C 
ATOM      8  O   UNL     1      20.875   6.002  18.171  1.00  0.00    -0.545 OA
ATOM      9  O   UNL     1      21.194   3.902  19.011  1.00  0.00    -0.545 OA
ENDBRANCH   1   7
BRANCH   5  10
ATOM     10  O   UNL     1      22.541   4.841  13.212  1.00  0.00    -0.493 OA
ATOM     11  C   UNL     1      22.374   3.816  12.237  1.00  0.00     0.278 C 
ENDBRANCH   5  10
BRANCH   6  12
ATOM     12  O   UNL     1      25.063   3.880  13.785  1.00  0.00    -0.504 OA
ATOM     13  H   UNL     1      25.272   2.936  13.480  1.00  0.00     0.293 HD
ENDBRANCH   6  12
TORSDOF 3
ENDMDL
MODEL 8
REMARK VINA RESULT:     1.918      1.963      5.106
REMARK INTER + INTRA:           2.108
REMARK INTER:                   1.650
REMARK INTRA:                   0.458
REMARK UNBOUND:                -0.090
REMARK SMILES COc1cc(C(=O)[O-])ccc1O
REMARK SMILES IDX 5 1 9 2 4 3 10 4 3 5 11 6 6 7 7 8 8 9 2 10 1 11 12 12
REMARK H PARENT 12 13
REMARK Flexibility Score: inf
ROOT
ATOM      1  C   UNL     1      22.970   4.129  14.051  1.00  0.00     0.001 A 
ATOM      2  C   UNL     1      24.149   3.659  14.652  1.00  0.00     0.014 A 
ATOM      3  C   UNL     1      22.014   4.788  14.846  1.00  0.00     0.060 A 
ATOM      4  C   UNL     1      24.369   3.843  16.018  1.00  0.00     0.051 A 
ATOM      5  C   UNL     1      22.233   4.976  16.226  1.00  0.00     0.161 A 
ATOM      6  C   UNL     1      23.416   4.498  16.806  1.00  0.00     0.157 A 
ENDROOT
BRANCH   1   7
ATOM      7  C   UNL     1      22.742   3.932  12.602  1.00  0.00     0.072 C 
ATOM      8  O   UNL     1      23.214   2.926  12.009  1.00  0.00    -0.545 OA
ATOM      9  O   UNL     1      22.001   4.858  11.874  1.00  0.00    -0.545 OA
ENDBRANCH   1   7
BRANCH   5  10
ATOM     10  O   UNL     1      21.301   5.628  17.049  1.00  0.00    -0.493 OA
ATOM     11  C   UNL     1      20.875   5.153  18.323  1.00  0.00     0.278 C 
ENDBRANCH   5  10
BRANCH   6  12
ATOM     12  O   UNL     1      23.637   4.681  18.170  1.00  0.00    -0.504 OA
ATOM     13  H   UNL     1      24.374   4.186  18.659  1.00  0.00     0.293 HD
ENDBRANCH   6  12
TORSDOF 3
ENDMDL
