MODEL 1
REMARK VINA RESULT:    -3.806      0.000      0.000
REMARK INTER + INTRA:          -4.697
REMARK INTER:                  -4.362
REMARK INTRA:                  -0.335
REMARK UNBOUND:                -0.335
REMARK SMILES COc1ccc(C(C)=O)c(O)c1
REMARK SMILES IDX 6 1 10 2 12 3 3 4 4 5 5 6 7 7 8 8 9 9 11 10 2 12 1 13
REMARK H PARENT 11 11
REMARK Flexibility Score: inf
ROOT
ATOM      1  C   UNL     1      -4.263  12.755 -13.392  1.00  0.00     0.059 A 
ATOM      2  C   UNL     1      -3.221  13.631 -13.009  1.00  0.00     0.130 A 
ATOM      3  C   UNL     1      -2.049  13.115 -12.436  1.00  0.00     0.093 A 
ATOM      4  C   UNL     1      -1.883  11.740 -12.250  1.00  0.00     0.122 A 
ATOM      5  C   UNL     1      -2.910  10.868 -12.648  1.00  0.00     0.047 A 
ATOM      6  C   UNL     1      -4.083  11.371 -13.214  1.00  0.00     0.019 A 
ENDROOT
BRANCH   1   7
ATOM      7  C   UNL     1      -5.537  13.240 -13.989  1.00  0.00     0.163 C 
ATOM      8  C   UNL     1      -6.040  12.754 -15.315  1.00  0.00     0.093 C 
ATOM      9  O   UNL     1      -6.227  14.091 -13.366  1.00  0.00    -0.294 OA
ENDBRANCH   1   7
BRANCH   2  10
ATOM     10  O   UNL     1      -3.331  15.005 -13.213  1.00  0.00    -0.507 OA
ATOM     11  H   UNL     1      -2.642  15.523 -13.746  1.00  0.00     0.293 HD
ENDBRANCH   2  10
BRANCH   4  12
ATOM     12  O   UNL     1      -0.688  11.283 -11.674  1.00  0.00    -0.497 OA
ATOM     13  C   UNL     1       0.125  12.053 -10.794  1.00  0.00     0.278 C 
ENDBRANCH   4  12
TORSDOF 3
ENDMDL
MODEL 2
REMARK VINA RESULT:    -3.766      9.333      9.817
REMARK INTER + INTRA:          -4.651
REMARK INTER:                  -4.341
REMARK INTRA:                  -0.310
REMARK UNBOUND:                -0.335
REMARK SMILES COc1ccc(C(C)=O)c(O)c1
REMARK SMILES IDX 6 1 10 2 12 3 3 4 4 5 5 6 7 7 8 8 9 9 11 10 2 12 1 13
REMARK H PARENT 11 11
REMARK Flexibility Score: inf
ROOT
ATOM      1  C   UNL     1      -5.727  16.722  -5.031  1.00  0.00     0.059 A 
ATOM      2  C   UNL     1      -6.272  16.460  -3.753  1.00  0.00     0.130 A 
ATOM      3  C   UNL     1      -5.828  15.352  -3.016  1.00  0.00     0.093 A 
ATOM      4  C   UNL     1      -4.837  14.505  -3.518  1.00  0.00     0.122 A 
ATOM      5  C   UNL     1      -4.281  14.774  -4.779  1.00  0.00     0.047 A 
ATOM      6  C   UNL     1      -4.720  15.872  -5.524  1.00  0.00     0.019 A 
ENDROOT
BRANCH   1   7
ATOM      7  C   UNL     1      -6.167  17.869  -5.870  1.00  0.00     0.163 C 
ATOM      8  C   UNL     1      -5.246  18.990  -6.248  1.00  0.00     0.093 C 
ATOM      9  O   UNL     1      -7.358  17.913  -6.282  1.00  0.00    -0.294 OA
ENDBRANCH   1   7
BRANCH   2  10
ATOM     10  O   UNL     1      -7.235  17.303  -3.200  1.00  0.00    -0.507 OA
ATOM     11  H   UNL     1      -7.471  17.271  -2.215  1.00  0.00     0.293 HD
ENDBRANCH   2  10
BRANCH   4  12
ATOM     12  O   UNL     1      -4.432  13.414  -2.734  1.00  0.00    -0.497 OA
ATOM     13  C   UNL     1      -4.305  13.446  -1.316  1.00  0.00     0.278 C 
ENDBRANCH   4  12
TORSDOF 3
ENDMDL
MODEL 3
REMARK VINA RESULT:    -3.709      9.328     10.609
REMARK INTER + INTRA:          -4.585
REMARK INTER:                  -4.248
REMARK INTRA:                  -0.337
REMARK UNBOUND:                -0.335
REMARK SMILES COc1ccc(C(C)=O)c(O)c1
REMARK SMILES IDX 6 1 10 2 12 3 3 4 4 5 5 6 7 7 8 8 9 9 11 10 2 12 1 13
REMARK H PARENT 11 11
REMARK Flexibility Score: inf
ROOT
ATOM      1  C   UNL     1      -5.006  15.300  -3.587  1.00  0.00     0.059 A 
ATOM      2  C   UNL     1      -4.799  15.325  -4.986  1.00  0.00     0.130 A 
ATOM      3  C   UNL     1      -5.467  16.274  -5.775  1.00  0.00     0.093 A 
ATOM      4  C   UNL     1      -6.326  17.213  -5.199  1.00  0.00     0.122 A 
ATOM      5  C   UNL     1      -6.518  17.202  -3.807  1.00  0.00     0.047 A 
ATOM      6  C   UNL     1      -5.862  16.258  -3.013  1.00  0.00     0.019 A 
ENDROOT
BRANCH   1   7
ATOM      7  C   UNL     1      -4.342  14.310  -2.697  1.00  0.00     0.163 C 
ATOM      8  C   UNL     1      -3.672  14.702  -1.415  1.00  0.00     0.093 C 
ATOM      9  O   UNL     1      -4.335  13.092  -3.024  1.00  0.00    -0.294 OA
ENDBRANCH   1   7
BRANCH   2  10
ATOM     10  O   UNL     1      -3.921  14.431  -5.595  1.00  0.00    -0.507 OA
ATOM     11  H   UNL     1      -4.105  14.042  -6.512  1.00  0.00     0.293 HD
ENDBRANCH   2  10
BRANCH   4  12
ATOM     12  O   UNL     1      -6.964  18.138  -6.039  1.00  0.00    -0.497 OA
ATOM     13  C   UNL     1      -6.854  19.552  -5.909  1.00  0.00     0.278 C 
ENDBRANCH   4  12
TORSDOF 3
ENDMDL
MODEL 4
REMARK VINA RESULT:    -3.700     12.686     13.971
REMARK INTER + INTRA:          -4.576
REMARK INTER:                  -4.253
REMARK INTRA:                  -0.323
REMARK UNBOUND:                -0.335
REMARK SMILES COc1ccc(C(C)=O)c(O)c1
REMARK SMILES IDX 6 1 10 2 12 3 3 4 4 5 5 6 7 7 8 8 9 9 11 10 2 12 1 13
REMARK H PARENT 11 11
REMARK Flexibility Score: inf
ROOT
ATOM      1  C   UNL     1     -16.600  15.115  -7.735  1.00  0.00     0.059 A 
ATOM      2  C   UNL     1     -15.510  15.641  -7.004  1.00  0.00     0.130 A 
ATOM      3  C   UNL     1     -14.674  14.780  -6.278  1.00  0.00     0.093 A 
ATOM      4  C   UNL     1     -14.888  13.400  -6.278  1.00  0.00     0.122 A 
ATOM      5  C   UNL     1     -15.959  12.874  -7.019  1.00  0.00     0.047 A 
ATOM      6  C   UNL     1     -16.802  13.723  -7.740  1.00  0.00     0.019 A 
ENDROOT
BRANCH   1   7
ATOM      7  C   UNL     1     -17.534  15.975  -8.511  1.00  0.00     0.163 C 
ATOM      8  C   UNL     1     -18.996  16.071  -8.189  1.00  0.00     0.093 C 
ATOM      9  O   UNL     1     -17.092  16.653  -9.478  1.00  0.00    -0.294 OA
ENDBRANCH   1   7
BRANCH   2  10
ATOM     10  O   UNL     1     -15.239  17.009  -7.010  1.00  0.00    -0.507 OA
ATOM     11  H   UNL     1     -15.962  17.697  -6.840  1.00  0.00     0.293 HD
ENDBRANCH   2  10
BRANCH   4  12
ATOM     12  O   UNL     1     -14.017  12.589  -5.535  1.00  0.00    -0.497 OA
ATOM     13  C   UNL     1     -12.723  12.990  -5.097  1.00  0.00     0.278 C 
ENDBRANCH   4  12
TORSDOF 3
ENDMDL
MODEL 5
REMARK VINA RESULT:    -3.697     13.067     14.704
REMARK INTER + INTRA:          -4.572
REMARK INTER:                  -4.236
REMARK INTRA:                  -0.336
REMARK UNBOUND:                -0.335
REMARK SMILES COc1ccc(C(C)=O)c(O)c1
REMARK SMILES IDX 6 1 10 2 12 3 3 4 4 5 5 6 7 7 8 8 9 9 11 10 2 12 1 13
REMARK H PARENT 11 11
REMARK Flexibility Score: inf
ROOT
ATOM      1  C   UNL     1     -14.954  14.255  -6.340  1.00  0.00     0.059 A 
ATOM      2  C   UNL     1     -15.630  13.096  -6.789  1.00  0.00     0.130 A 
ATOM      3  C   UNL     1     -16.706  13.215  -7.681  1.00  0.00     0.093 A 
ATOM      4  C   UNL     1     -17.116  14.464  -8.152  1.00  0.00     0.122 A 
ATOM      5  C   UNL     1     -16.434  15.615  -7.723  1.00  0.00     0.047 A 
ATOM      6  C   UNL     1     -15.365  15.509  -6.830  1.00  0.00     0.019 A 
ENDROOT
BRANCH   1   7
ATOM      7  C   UNL     1     -13.818  14.200  -5.382  1.00  0.00     0.163 C 
ATOM      8  C   UNL     1     -13.652  15.193  -4.271  1.00  0.00     0.093 C 
ATOM      9  O   UNL     1     -12.954  13.288  -5.499  1.00  0.00    -0.294 OA
ENDBRANCH   1   7
BRANCH   2  10
ATOM     10  O   UNL     1     -15.227  11.828  -6.372  1.00  0.00    -0.507 OA
ATOM     11  H   UNL     1     -15.894  11.084  -6.206  1.00  0.00     0.293 HD
ENDBRANCH   2  10
BRANCH   4  12
ATOM     12  O   UNL     1     -18.197  14.518  -9.045  1.00  0.00    -0.497 OA
ATOM     13  C   UNL     1     -18.944  13.384  -9.473  1.00  0.00     0.278 C 
ENDBRANCH   4  12
TORSDOF 3
ENDMDL
MODEL 6
REMARK VINA RESULT:    -3.597     13.609     14.734
REMARK INTER + INTRA:          -4.458
REMARK INTER:                  -4.121
REMARK INTRA:                  -0.336
REMARK UNBOUND:                -0.335
REMARK SMILES COc1ccc(C(C)=O)c(O)c1
REMARK SMILES IDX 6 1 10 2 12 3 3 4 4 5 5 6 7 7 8 8 9 9 11 10 2 12 1 13
REMARK H PARENT 11 11
REMARK Flexibility Score: inf
ROOT
ATOM      1  C   UNL     1     -17.364  14.029  -7.788  1.00  0.00     0.059 A 
ATOM      2  C   UNL     1     -16.313  13.472  -7.022  1.00  0.00     0.130 A 
ATOM      3  C   UNL     1     -15.228  14.273  -6.637  1.00  0.00     0.093 A 
ATOM      4  C   UNL     1     -15.173  15.626  -6.983  1.00  0.00     0.122 A 
ATOM      5  C   UNL     1     -16.225  16.185  -7.726  1.00  0.00     0.047 A 
ATOM      6  C   UNL     1     -17.308  15.395  -8.120  1.00  0.00     0.019 A 
ENDROOT
BRANCH   1   7
ATOM      7  C   UNL     1     -18.534  13.230  -8.242  1.00  0.00     0.163 C 
ATOM      8  C   UNL     1     -18.986  13.208  -9.671  1.00  0.00     0.093 C 
ATOM      9  O   UNL     1     -19.178  12.544  -7.403  1.00  0.00    -0.294 OA
ENDBRANCH   1   7
BRANCH   2  10
ATOM     10  O   UNL     1     -16.349  12.137  -6.624  1.00  0.00    -0.507 OA
ATOM     11  H   UNL     1     -16.423  11.872  -5.649  1.00  0.00     0.293 HD
ENDBRANCH   2  10
BRANCH   4  12
ATOM     12  O   UNL     1     -14.062  16.376  -6.567  1.00  0.00    -0.497 OA
ATOM     13  C   UNL     1     -14.137  17.522  -5.725  1.00  0.00     0.278 C 
ENDBRANCH   4  12
TORSDOF 3
ENDMDL
MODEL 7
REMARK VINA RESULT:    -3.559     13.558     14.855
REMARK INTER + INTRA:          -4.414
REMARK INTER:                  -4.071
REMARK INTRA:                  -0.343
REMARK UNBOUND:                -0.335
REMARK SMILES COc1ccc(C(C)=O)c(O)c1
REMARK SMILES IDX 6 1 10 2 12 3 3 4 4 5 5 6 7 7 8 8 9 9 11 10 2 12 1 13
REMARK H PARENT 11 11
REMARK Flexibility Score: inf
ROOT
ATOM      1  C   UNL     1     -15.397  15.426  -6.750  1.00  0.00     0.059 A 
ATOM      2  C   UNL     1     -16.517  15.950  -7.437  1.00  0.00     0.130 A 
ATOM      3  C   UNL     1     -17.421  15.082  -8.065  1.00  0.00     0.093 A 
ATOM      4  C   UNL     1     -17.246  13.697  -8.012  1.00  0.00     0.122 A 
ATOM      5  C   UNL     1     -16.145  13.174  -7.314  1.00  0.00     0.047 A 
ATOM      6  C   UNL     1     -15.234  14.029  -6.690  1.00  0.00     0.019 A 
ENDROOT
BRANCH   1   7
ATOM      7  C   UNL     1     -14.392  16.292  -6.078  1.00  0.00     0.163 C 
ATOM      8  C   UNL     1     -13.870  16.002  -4.703  1.00  0.00     0.093 C 
ATOM      9  O   UNL     1     -13.956  17.313  -6.677  1.00  0.00    -0.294 OA
ENDBRANCH   1   7
BRANCH   2  10
ATOM     10  O   UNL     1     -16.749  17.324  -7.481  1.00  0.00    -0.507 OA
ATOM     11  H   UNL     1     -17.577  17.739  -7.070  1.00  0.00     0.293 HD
ENDBRANCH   2  10
BRANCH   4  12
ATOM     12  O   UNL     1     -18.186  12.880  -8.658  1.00  0.00    -0.497 OA
ATOM     13  C   UNL     1     -19.131  13.344  -9.616  1.00  0.00     0.278 C 
ENDBRANCH   4  12
TORSDOF 3
ENDMDL
MODEL 8
REMARK VINA RESULT:    -3.548      1.287      5.089
REMARK INTER + INTRA:          -4.401
REMARK INTER:                  -4.070
REMARK INTRA:                  -0.330
REMARK UNBOUND:                -0.335
REMARK SMILES COc1ccc(C(C)=O)c(O)c1
REMARK SMILES IDX 6 1 10 2 12 3 3 4 4 5 5 6 7 7 8 8 9 9 11 10 2 12 1 13
REMARK H PARENT 11 11
REMARK Flexibility Score: inf
ROOT
ATOM      1  C   UNL     1      -1.733  12.513 -11.914  1.00  0.00     0.059 A 
ATOM      2  C   UNL     1      -2.700  11.488 -12.030  1.00  0.00     0.130 A 
ATOM      3  C   UNL     1      -3.867  11.709 -12.776  1.00  0.00     0.093 A 
ATOM      4  C   UNL     1      -4.087  12.926 -13.427  1.00  0.00     0.122 A 
ATOM      5  C   UNL     1      -3.118  13.938 -13.328  1.00  0.00     0.047 A 
ATOM      6  C   UNL     1      -1.955  13.731 -12.583  1.00  0.00     0.019 A 
ENDROOT
BRANCH   1   7
ATOM      7  C   UNL     1      -0.483  12.349 -11.124  1.00  0.00     0.163 C 
ATOM      8  C   UNL     1       0.093  13.453 -10.289  1.00  0.00     0.093 C 
ATOM      9  O   UNL     1       0.125  11.244 -11.151  1.00  0.00    -0.294 OA
ENDBRANCH   1   7
BRANCH   2  10
ATOM     10  O   UNL     1      -2.502  10.246 -11.429  1.00  0.00    -0.507 OA
ATOM     11  H   UNL     1      -2.154  10.161 -10.482  1.00  0.00     0.293 HD
ENDBRANCH   2  10
BRANCH   4  12
ATOM     12  O   UNL     1      -5.272  13.087 -14.160  1.00  0.00    -0.497 OA
ATOM     13  C   UNL     1      -5.922  14.336 -14.373  1.00  0.00     0.278 C 
ENDBRANCH   4  12
TORSDOF 3
ENDMDL
MODEL 9
REMARK VINA RESULT:    -3.440      1.539      2.276
REMARK INTER + INTRA:          -4.278
REMARK INTER:                  -3.966
REMARK INTRA:                  -0.312
REMARK UNBOUND:                -0.335
REMARK SMILES COc1ccc(C(C)=O)c(O)c1
REMARK SMILES IDX 6 1 10 2 12 3 3 4 4 5 5 6 7 7 8 8 9 9 11 10 2 12 1 13
REMARK H PARENT 11 11
REMARK Flexibility Score: inf
ROOT
ATOM      1  C   UNL     1      -3.944  13.349 -13.594  1.00  0.00     0.059 A 
ATOM      2  C   UNL     1      -4.351  12.012 -13.815  1.00  0.00     0.130 A 
ATOM      3  C   UNL     1      -3.607  10.955 -13.270  1.00  0.00     0.093 A 
ATOM      4  C   UNL     1      -2.472  11.200 -12.493  1.00  0.00     0.122 A 
ATOM      5  C   UNL     1      -2.077  12.527 -12.257  1.00  0.00     0.047 A 
ATOM      6  C   UNL     1      -2.808  13.587 -12.800  1.00  0.00     0.019 A 
ENDROOT
BRANCH   1   7
ATOM      7  C   UNL     1      -4.679  14.513 -14.158  1.00  0.00     0.163 C 
ATOM      8  C   UNL     1      -4.071  15.432 -15.175  1.00  0.00     0.093 C 
ATOM      9  O   UNL     1      -5.857  14.746 -13.774  1.00  0.00    -0.294 OA
ENDBRANCH   1   7
BRANCH   2  10
ATOM     10  O   UNL     1      -5.500  11.727 -14.552  1.00  0.00    -0.507 OA
ATOM     11  H   UNL     1      -6.227  11.120 -14.194  1.00  0.00     0.293 HD
ENDBRANCH   2  10
BRANCH   4  12
ATOM     12  O   UNL     1      -1.770  10.101 -11.973  1.00  0.00    -0.497 OA
ATOM     13  C   UNL     1      -0.478  10.181 -11.380  1.00  0.00     0.278 C 
ENDBRANCH   4  12
TORSDOF 3
ENDMDL
