MODEL 1
REMARK VINA RESULT:    24.786      0.000      0.000
REMARK INTER + INTRA:          30.113
REMARK INTER:                  29.858
REMARK INTRA:                   0.255
REMARK UNBOUND:                 0.255
REMARK SMILES O=c1c(O)c(-c2ccc(O)c(O)c2)oc2cc(O)cc(O)c12
REMARK SMILES IDX 5 1 3 2 2 3 1 4 22 5 20 6 19 7 17 8 16 9 15 10 14 11 6 12
REMARK SMILES IDX 7 13 8 14 9 15 13 16 11 17 10 18 12 20 4 22 21 24 18 26
REMARK H PARENT 10 19 12 21 4 23 21 25 18 27
REMARK Flexibility Score: inf
ROOT
ATOM      1  C   UNL     1     127.226 127.396 131.035  1.00  0.00     0.180 A 
ATOM      2  C   UNL     1     125.882 127.361 130.617  1.00  0.00     0.208 A 
ATOM      3  C   UNL     1     125.599 127.314 129.242  1.00  0.00     0.238 A 
ATOM      4  O   UNL     1     124.398 127.294 128.856  1.00  0.00    -0.285 OA
ATOM      5  C   UNL     1     126.659 127.284 128.314  1.00  0.00     0.111 A 
ATOM      6  C   UNL     1     126.461 127.235 126.913  1.00  0.00     0.134 A 
ATOM      7  C   UNL     1     127.568 127.198 126.054  1.00  0.00     0.093 A 
ATOM      8  C   UNL     1     128.868 127.209 126.566  1.00  0.00     0.123 A 
ATOM      9  C   UNL     1     129.070 127.260 127.949  1.00  0.00     0.094 A 
ATOM     10  C   UNL     1     127.979 127.299 128.821  1.00  0.00     0.146 A 
ATOM     11  O   UNL     1     128.200 127.351 130.131  1.00  0.00    -0.452 OA
ENDROOT
BRANCH   1  12
ATOM     12  C   UNL     1     127.604 127.465 132.465  1.00  0.00     0.025 A 
ATOM     13  C   UNL     1     126.782 128.164 133.362  1.00  0.00     0.016 A 
ATOM     14  C   UNL     1     127.108 128.224 134.720  1.00  0.00     0.051 A 
ATOM     15  C   UNL     1     128.251 127.573 135.202  1.00  0.00     0.157 A 
ATOM     16  C   UNL     1     128.739 126.795 132.956  1.00  0.00     0.062 A 
ATOM     17  C   UNL     1     129.066 126.851 134.315  1.00  0.00     0.158 A 
BRANCH  15  18
ATOM     18  O   UNL     1     128.575 127.637 136.557  1.00  0.00    -0.504 OA
ATOM     19  H   UNL     1     129.538 127.670 136.871  1.00  0.00     0.293 HD
ENDBRANCH  15  18
BRANCH  17  20
ATOM     20  O   UNL     1     130.203 126.180 134.766  1.00  0.00    -0.504 OA
ATOM     21  H   UNL     1     131.106 126.635 134.830  1.00  0.00     0.293 HD
ENDBRANCH  17  20
ENDBRANCH   1  12
BRANCH   2  22
ATOM     22  O   UNL     1     124.850 127.341 131.559  1.00  0.00    -0.502 OA
ATOM     23  H   UNL     1     123.877 127.455 131.301  1.00  0.00     0.293 HD
ENDBRANCH   2  22
BRANCH   6  24
ATOM     24  O   UNL     1     125.175 127.220 126.370  1.00  0.00    -0.507 OA
ATOM     25  H   UNL     1     124.440 127.821 126.723  1.00  0.00     0.293 HD
ENDBRANCH   6  24
BRANCH   8  26
ATOM     26  O   UNL     1     129.951 127.171 125.690  1.00  0.00    -0.508 OA
ATOM     27  H   UNL     1     130.372 126.294 125.407  1.00  0.00     0.293 HD
ENDBRANCH   8  26
TORSDOF 6
ENDMDL
MODEL 2
REMARK VINA RESULT:    24.828     15.938     18.030
REMARK INTER + INTRA:          30.164
REMARK INTER:                  29.930
REMARK INTRA:                   0.234
REMARK UNBOUND:                 0.255
REMARK SMILES O=c1c(O)c(-c2ccc(O)c(O)c2)oc2cc(O)cc(O)c12
REMARK SMILES IDX 5 1 3 2 2 3 1 4 22 5 20 6 19 7 17 8 16 9 15 10 14 11 6 12
REMARK SMILES IDX 7 13 8 14 9 15 13 16 11 17 10 18 12 20 4 22 21 24 18 26
REMARK H PARENT 10 19 12 21 4 23 21 25 18 27
REMARK Flexibility Score: inf
ROOT
ATOM      1  C   UNL     1     139.326 138.532 138.177  1.00  0.00     0.180 A 
ATOM      2  C   UNL     1     140.676 138.517 137.775  1.00  0.00     0.208 A 
ATOM      3  C   UNL     1     140.975 138.548 136.403  1.00  0.00     0.238 A 
ATOM      4  O   UNL     1     142.181 138.524 136.032  1.00  0.00    -0.285 OA
ATOM      5  C   UNL     1     139.929 138.613 135.463  1.00  0.00     0.111 A 
ATOM      6  C   UNL     1     140.145 138.650 134.064  1.00  0.00     0.134 A 
ATOM      7  C   UNL     1     139.049 138.724 133.191  1.00  0.00     0.093 A 
ATOM      8  C   UNL     1     137.744 138.762 133.688  1.00  0.00     0.123 A 
ATOM      9  C   UNL     1     137.524 138.724 135.069  1.00  0.00     0.094 A 
ATOM     10  C   UNL     1     138.603 138.649 135.955  1.00  0.00     0.146 A 
ATOM     11  O   UNL     1     138.365 138.609 137.261  1.00  0.00    -0.452 OA
ENDROOT
BRANCH   1  12
ATOM     12  C   UNL     1     138.929 138.483 139.603  1.00  0.00     0.025 A 
ATOM     13  C   UNL     1     139.692 137.726 140.505  1.00  0.00     0.016 A 
ATOM     14  C   UNL     1     139.349 137.681 141.859  1.00  0.00     0.051 A 
ATOM     15  C   UNL     1     138.248 138.406 142.332  1.00  0.00     0.157 A 
ATOM     16  C   UNL     1     137.837 139.225 140.085  1.00  0.00     0.062 A 
ATOM     17  C   UNL     1     137.492 139.186 141.441  1.00  0.00     0.158 A 
BRANCH  15  18
ATOM     18  O   UNL     1     137.906 138.358 143.683  1.00  0.00    -0.504 OA
ATOM     19  H   UNL     1     136.992 138.044 143.988  1.00  0.00     0.293 HD
ENDBRANCH  15  18
BRANCH  17  20
ATOM     20  O   UNL     1     136.398 139.929 141.884  1.00  0.00    -0.504 OA
ATOM     21  H   UNL     1     136.078 139.896 142.844  1.00  0.00     0.293 HD
ENDBRANCH  17  20
ENDBRANCH   1  12
BRANCH   2  22
ATOM     22  O   UNL     1     141.696 138.502 138.729  1.00  0.00    -0.502 OA
ATOM     23  H   UNL     1     142.622 138.142 138.528  1.00  0.00     0.293 HD
ENDBRANCH   2  22
BRANCH   6  24
ATOM     24  O   UNL     1     141.436 138.616 133.536  1.00  0.00    -0.507 OA
ATOM     25  H   UNL     1     141.800 137.793 133.071  1.00  0.00     0.293 HD
ENDBRANCH   6  24
BRANCH   8  26
ATOM     26  O   UNL     1     136.674 138.836 132.800  1.00  0.00    -0.508 OA
ATOM     27  H   UNL     1     135.975 139.567 132.873  1.00  0.00     0.293 HD
ENDBRANCH   8  26
TORSDOF 6
ENDMDL
MODEL 3
REMARK VINA RESULT:    24.831     15.433     16.673
REMARK INTER + INTRA:          30.167
REMARK INTER:                  29.903
REMARK INTRA:                   0.263
REMARK UNBOUND:                 0.255
REMARK SMILES O=c1c(O)c(-c2ccc(O)c(O)c2)oc2cc(O)cc(O)c12
REMARK SMILES IDX 5 1 3 2 2 3 1 4 22 5 20 6 19 7 17 8 16 9 15 10 14 11 6 12
REMARK SMILES IDX 7 13 8 14 9 15 13 16 11 17 10 18 12 20 4 22 21 24 18 26
REMARK H PARENT 10 19 12 21 4 23 21 25 18 27
REMARK Flexibility Score: inf
ROOT
ATOM      1  C   UNL     1     139.040 138.761 133.369  1.00  0.00     0.180 A 
ATOM      2  C   UNL     1     140.381 138.741 132.939  1.00  0.00     0.208 A 
ATOM      3  C   UNL     1     140.653 138.785 131.562  1.00  0.00     0.238 A 
ATOM      4  O   UNL     1     141.850 138.757 131.165  1.00  0.00    -0.285 OA
ATOM      5  C   UNL     1     139.588 138.867 130.644  1.00  0.00     0.111 A 
ATOM      6  C   UNL     1     139.775 138.918 129.242  1.00  0.00     0.134 A 
ATOM      7  C   UNL     1     138.662 139.008 128.393  1.00  0.00     0.093 A 
ATOM      8  C   UNL     1     137.368 139.049 128.917  1.00  0.00     0.123 A 
ATOM      9  C   UNL     1     137.176 138.998 130.301  1.00  0.00     0.094 A 
ATOM     10  C   UNL     1     138.273 138.906 131.163  1.00  0.00     0.146 A 
ATOM     11  O   UNL     1     138.061 138.854 132.474  1.00  0.00    -0.452 OA
ENDROOT
BRANCH   1  12
ATOM     12  C   UNL     1     138.673 138.699 134.802  1.00  0.00     0.025 A 
ATOM     13  C   UNL     1     139.475 137.964 135.688  1.00  0.00     0.016 A 
ATOM     14  C   UNL     1     139.160 137.908 137.048  1.00  0.00     0.051 A 
ATOM     15  C   UNL     1     138.046 138.600 137.544  1.00  0.00     0.157 A 
ATOM     16  C   UNL     1     137.568 139.408 135.307  1.00  0.00     0.062 A 
ATOM     17  C   UNL     1     137.251 139.357 136.669  1.00  0.00     0.158 A 
BRANCH  15  18
ATOM     18  O   UNL     1     137.732 138.541 138.901  1.00  0.00    -0.504 OA
ATOM     19  H   UNL     1     136.995 137.939 139.249  1.00  0.00     0.293 HD
ENDBRANCH  15  18
BRANCH  17  20
ATOM     20  O   UNL     1     136.144 140.067 137.133  1.00  0.00    -0.504 OA
ATOM     21  H   UNL     1     135.222 139.652 137.187  1.00  0.00     0.293 HD
ENDBRANCH  17  20
ENDBRANCH   1  12
BRANCH   2  22
ATOM     22  O   UNL     1     141.421 138.709 133.872  1.00  0.00    -0.502 OA
ATOM     23  H   UNL     1     142.349 138.374 133.639  1.00  0.00     0.293 HD
ENDBRANCH   2  22
BRANCH   6  24
ATOM     24  O   UNL     1     141.056 138.881 128.687  1.00  0.00    -0.507 OA
ATOM     25  H   UNL     1     141.694 138.116 128.870  1.00  0.00     0.293 HD
ENDBRANCH   6  24
BRANCH   8  26
ATOM     26  O   UNL     1     136.280 139.140 128.052  1.00  0.00    -0.508 OA
ATOM     27  H   UNL     1     136.339 138.819 127.092  1.00  0.00     0.293 HD
ENDBRANCH   8  26
TORSDOF 6
ENDMDL
MODEL 4
REMARK VINA RESULT:    24.855      2.608      4.611
REMARK INTER + INTRA:          30.196
REMARK INTER:                  29.941
REMARK INTRA:                   0.256
REMARK UNBOUND:                 0.255
REMARK SMILES O=c1c(O)c(-c2ccc(O)c(O)c2)oc2cc(O)cc(O)c12
REMARK SMILES IDX 5 1 3 2 2 3 1 4 22 5 20 6 19 7 17 8 16 9 15 10 14 11 6 12
REMARK SMILES IDX 7 13 8 14 9 15 13 16 11 17 10 18 12 20 4 22 21 24 18 26
REMARK H PARENT 10 19 12 21 4 23 21 25 18 27
REMARK Flexibility Score: inf
ROOT
ATOM      1  C   UNL     1     127.047 127.576 135.637  1.00  0.00     0.180 A 
ATOM      2  C   UNL     1     125.703 127.596 135.217  1.00  0.00     0.208 A 
ATOM      3  C   UNL     1     125.422 127.556 133.841  1.00  0.00     0.238 A 
ATOM      4  O   UNL     1     124.222 127.585 133.452  1.00  0.00    -0.285 OA
ATOM      5  C   UNL     1     126.482 127.478 132.916  1.00  0.00     0.111 A 
ATOM      6  C   UNL     1     126.285 127.432 131.515  1.00  0.00     0.134 A 
ATOM      7  C   UNL     1     127.392 127.346 130.658  1.00  0.00     0.093 A 
ATOM      8  C   UNL     1     128.690 127.304 131.173  1.00  0.00     0.123 A 
ATOM      9  C   UNL     1     128.891 127.351 132.557  1.00  0.00     0.094 A 
ATOM     10  C   UNL     1     127.800 127.439 133.426  1.00  0.00     0.146 A 
ATOM     11  O   UNL     1     128.020 127.486 134.736  1.00  0.00    -0.452 OA
ENDROOT
BRANCH   1  12
ATOM     12  C   UNL     1     127.423 127.633 137.068  1.00  0.00     0.025 A 
ATOM     13  C   UNL     1     126.632 128.373 137.961  1.00  0.00     0.016 A 
ATOM     14  C   UNL     1     126.957 128.424 139.319  1.00  0.00     0.051 A 
ATOM     15  C   UNL     1     128.068 127.724 139.807  1.00  0.00     0.157 A 
ATOM     16  C   UNL     1     128.526 126.915 137.565  1.00  0.00     0.062 A 
ATOM     17  C   UNL     1     128.852 126.962 138.925  1.00  0.00     0.158 A 
BRANCH  15  18
ATOM     18  O   UNL     1     128.391 127.779 141.162  1.00  0.00    -0.504 OA
ATOM     19  H   UNL     1     128.457 128.661 141.656  1.00  0.00     0.293 HD
ENDBRANCH  15  18
BRANCH  17  20
ATOM     20  O   UNL     1     129.956 126.242 139.382  1.00  0.00    -0.504 OA
ATOM     21  H   UNL     1     130.024 125.237 139.279  1.00  0.00     0.293 HD
ENDBRANCH  17  20
ENDBRANCH   1  12
BRANCH   2  22
ATOM     22  O   UNL     1     124.669 127.623 136.156  1.00  0.00    -0.502 OA
ATOM     23  H   UNL     1     124.839 127.758 137.146  1.00  0.00     0.293 HD
ENDBRANCH   2  22
BRANCH   6  24
ATOM     24  O   UNL     1     125.001 127.470 130.968  1.00  0.00    -0.507 OA
ATOM     25  H   UNL     1     124.848 127.472 129.967  1.00  0.00     0.293 HD
ENDBRANCH   6  24
BRANCH   8  26
ATOM     26  O   UNL     1     129.772 127.218 130.301  1.00  0.00    -0.508 OA
ATOM     27  H   UNL     1     129.777 126.565 129.526  1.00  0.00     0.293 HD
ENDBRANCH   8  26
TORSDOF 6
ENDMDL
MODEL 5
REMARK VINA RESULT:    25.091     15.488     16.379
REMARK INTER + INTRA:          30.480
REMARK INTER:                  30.094
REMARK INTRA:                   0.386
REMARK UNBOUND:                 0.255
REMARK SMILES O=c1c(O)c(-c2ccc(O)c(O)c2)oc2cc(O)cc(O)c12
REMARK SMILES IDX 5 1 3 2 2 3 1 4 22 5 20 6 19 7 17 8 16 9 15 10 14 11 6 12
REMARK SMILES IDX 7 13 8 14 9 15 13 16 11 17 10 18 12 20 4 22 21 24 18 26
REMARK H PARENT 10 19 12 21 4 23 21 25 18 27
REMARK Flexibility Score: inf
ROOT
ATOM      1  C   UNL     1     138.682 138.988 129.275  1.00  0.00     0.180 A 
ATOM      2  C   UNL     1     137.368 139.311 128.884  1.00  0.00     0.208 A 
ATOM      3  C   UNL     1     137.084 139.461 127.518  1.00  0.00     0.238 A 
ATOM      4  O   UNL     1     135.913 139.761 127.157  1.00  0.00    -0.285 OA
ATOM      5  C   UNL     1     138.107 139.268 126.568  1.00  0.00     0.111 A 
ATOM      6  C   UNL     1     137.904 139.397 125.173  1.00  0.00     0.134 A 
ATOM      7  C   UNL     1     138.972 139.179 124.290  1.00  0.00     0.093 A 
ATOM      8  C   UNL     1     140.236 138.835 124.773  1.00  0.00     0.123 A 
ATOM      9  C   UNL     1     140.444 138.707 126.151  1.00  0.00     0.094 A 
ATOM     10  C   UNL     1     139.392 138.922 127.046  1.00  0.00     0.146 A 
ATOM     11  O   UNL     1     139.618 138.798 128.349  1.00  0.00    -0.452 OA
ENDROOT
BRANCH   1  12
ATOM     12  C   UNL     1     139.064 138.831 130.697  1.00  0.00     0.025 A 
ATOM     13  C   UNL     1     140.409 138.978 131.070  1.00  0.00     0.016 A 
ATOM     14  C   UNL     1     140.790 138.855 132.408  1.00  0.00     0.051 A 
ATOM     15  C   UNL     1     139.829 138.600 133.395  1.00  0.00     0.157 A 
ATOM     16  C   UNL     1     138.100 138.595 131.693  1.00  0.00     0.062 A 
ATOM     17  C   UNL     1     138.477 138.475 133.035  1.00  0.00     0.158 A 
BRANCH  15  18
ATOM     18  O   UNL     1     140.212 138.475 134.730  1.00  0.00    -0.504 OA
ATOM     19  H   UNL     1     140.277 137.570 135.181  1.00  0.00     0.293 HD
ENDBRANCH  15  18
BRANCH  17  20
ATOM     20  O   UNL     1     137.496 138.234 133.996  1.00  0.00    -0.504 OA
ATOM     21  H   UNL     1     137.479 138.722 134.883  1.00  0.00     0.293 HD
ENDBRANCH  17  20
ENDBRANCH   1  12
BRANCH   2  22
ATOM     22  O   UNL     1     136.361 139.449 129.843  1.00  0.00    -0.502 OA
ATOM     23  H   UNL     1     135.889 138.651 130.253  1.00  0.00     0.293 HD
ENDBRANCH   2  22
BRANCH   6  24
ATOM     24  O   UNL     1     136.652 139.738 124.658  1.00  0.00    -0.507 OA
ATOM     25  H   UNL     1     135.957 140.216 125.219  1.00  0.00     0.293 HD
ENDBRANCH   6  24
BRANCH   8  26
ATOM     26  O   UNL     1     141.280 138.623 123.875  1.00  0.00    -0.508 OA
ATOM     27  H   UNL     1     141.104 138.428 122.896  1.00  0.00     0.293 HD
ENDBRANCH   8  26
TORSDOF 6
ENDMDL
MODEL 6
REMARK VINA RESULT:    25.326     16.050     19.285
REMARK INTER + INTRA:          30.764
REMARK INTER:                  30.490
REMARK INTRA:                   0.274
REMARK UNBOUND:                 0.255
REMARK SMILES O=c1c(O)c(-c2ccc(O)c(O)c2)oc2cc(O)cc(O)c12
REMARK SMILES IDX 5 1 3 2 2 3 1 4 22 5 20 6 19 7 17 8 16 9 15 10 14 11 6 12
REMARK SMILES IDX 7 13 8 14 9 15 13 16 11 17 10 18 12 20 4 22 21 24 18 26
REMARK H PARENT 10 19 12 21 4 23 21 25 18 27
REMARK Flexibility Score: inf
ROOT
ATOM      1  C   UNL     1     139.251 138.632 137.563  1.00  0.00     0.180 A 
ATOM      2  C   UNL     1     140.645 138.596 137.755  1.00  0.00     0.208 A 
ATOM      3  C   UNL     1     141.147 138.489 139.063  1.00  0.00     0.238 A 
ATOM      4  O   UNL     1     142.395 138.467 139.248  1.00  0.00    -0.285 OA
ATOM      5  C   UNL     1     140.252 138.401 140.147  1.00  0.00     0.111 A 
ATOM      6  C   UNL     1     140.675 138.288 141.494  1.00  0.00     0.134 A 
ATOM      7  C   UNL     1     139.721 138.196 142.518  1.00  0.00     0.093 A 
ATOM      8  C   UNL     1     138.356 138.213 142.224  1.00  0.00     0.123 A 
ATOM      9  C   UNL     1     137.932 138.326 140.895  1.00  0.00     0.094 A 
ATOM     10  C   UNL     1     138.867 138.420 139.861  1.00  0.00     0.146 A 
ATOM     11  O   UNL     1     138.437 138.531 138.609  1.00  0.00    -0.452 OA
ENDROOT
BRANCH   1  12
ATOM     12  C   UNL     1     138.646 138.762 136.218  1.00  0.00     0.025 A 
ATOM     13  C   UNL     1     137.436 139.458 136.070  1.00  0.00     0.016 A 
ATOM     14  C   UNL     1     136.857 139.611 134.808  1.00  0.00     0.051 A 
ATOM     15  C   UNL     1     137.488 139.085 133.672  1.00  0.00     0.157 A 
ATOM     16  C   UNL     1     139.286 138.254 135.074  1.00  0.00     0.062 A 
ATOM     17  C   UNL     1     138.711 138.408 133.807  1.00  0.00     0.158 A 
BRANCH  15  18
ATOM     18  O   UNL     1     136.907 139.237 132.414  1.00  0.00    -0.504 OA
ATOM     19  H   UNL     1     136.558 140.134 132.096  1.00  0.00     0.293 HD
ENDBRANCH  15  18
BRANCH  17  20
ATOM     20  O   UNL     1     139.371 137.885 132.695  1.00  0.00    -0.504 OA
ATOM     21  H   UNL     1     139.584 138.449 131.881  1.00  0.00     0.293 HD
ENDBRANCH  17  20
ENDBRANCH   1  12
BRANCH   2  22
ATOM     22  O   UNL     1     141.511 138.635 136.659  1.00  0.00    -0.502 OA
ATOM     23  H   UNL     1     141.603 137.861 136.013  1.00  0.00     0.293 HD
ENDBRANCH   2  22
BRANCH   6  24
ATOM     24  O   UNL     1     142.032 138.266 141.821  1.00  0.00    -0.507 OA
ATOM     25  H   UNL     1     142.352 138.036 142.754  1.00  0.00     0.293 HD
ENDBRANCH   6  24
BRANCH   8  26
ATOM     26  O   UNL     1     137.430 138.119 143.260  1.00  0.00    -0.508 OA
ATOM     27  H   UNL     1     137.713 138.183 144.231  1.00  0.00     0.293 HD
ENDBRANCH   8  26
TORSDOF 6
ENDMDL
MODEL 7
REMARK VINA RESULT:    25.366      2.836      8.255
REMARK INTER + INTRA:          30.812
REMARK INTER:                  30.538
REMARK INTRA:                   0.274
REMARK UNBOUND:                 0.255
REMARK SMILES O=c1c(O)c(-c2ccc(O)c(O)c2)oc2cc(O)cc(O)c12
REMARK SMILES IDX 5 1 3 2 2 3 1 4 22 5 20 6 19 7 17 8 16 9 15 10 14 11 6 12
REMARK SMILES IDX 7 13 8 14 9 15 13 16 11 17 10 18 12 20 4 22 21 24 18 26
REMARK H PARENT 10 19 12 21 4 23 21 25 18 27
REMARK Flexibility Score: inf
ROOT
ATOM      1  C   UNL     1     127.135 127.477 134.957  1.00  0.00     0.180 A 
ATOM      2  C   UNL     1     125.744 127.532 135.173  1.00  0.00     0.208 A 
ATOM      3  C   UNL     1     125.266 127.627 136.490  1.00  0.00     0.238 A 
ATOM      4  O   UNL     1     124.022 127.666 136.696  1.00  0.00    -0.285 OA
ATOM      5  C   UNL     1     126.180 127.687 137.561  1.00  0.00     0.111 A 
ATOM      6  C   UNL     1     125.781 127.786 138.915  1.00  0.00     0.134 A 
ATOM      7  C   UNL     1     126.752 127.850 139.925  1.00  0.00     0.093 A 
ATOM      8  C   UNL     1     128.112 127.816 139.608  1.00  0.00     0.123 A 
ATOM      9  C   UNL     1     128.513 127.716 138.271  1.00  0.00     0.094 A 
ATOM     10  C   UNL     1     127.559 127.650 137.252  1.00  0.00     0.146 A 
ATOM     11  O   UNL     1     127.968 127.551 135.991  1.00  0.00    -0.452 OA
ENDROOT
BRANCH   1  12
ATOM     12  C   UNL     1     127.716 127.357 133.600  1.00  0.00     0.025 A 
ATOM     13  C   UNL     1     128.913 126.647 133.423  1.00  0.00     0.016 A 
ATOM     14  C   UNL     1     129.469 126.503 132.149  1.00  0.00     0.051 A 
ATOM     15  C   UNL     1     128.827 127.053 131.032  1.00  0.00     0.157 A 
ATOM     16  C   UNL     1     127.064 127.890 132.474  1.00  0.00     0.062 A 
ATOM     17  C   UNL     1     127.615 127.745 131.196  1.00  0.00     0.158 A 
BRANCH  15  18
ATOM     18  O   UNL     1     129.384 126.910 129.762  1.00  0.00    -0.504 OA
ATOM     19  H   UNL     1     128.805 126.811 128.936  1.00  0.00     0.293 HD
ENDBRANCH  15  18
BRANCH  17  20
ATOM     20  O   UNL     1     126.945 128.293 130.103  1.00  0.00    -0.504 OA
ATOM     21  H   UNL     1     126.494 127.715 129.404  1.00  0.00     0.293 HD
ENDBRANCH  17  20
ENDBRANCH   1  12
BRANCH   2  22
ATOM     22  O   UNL     1     124.861 127.521 134.091  1.00  0.00    -0.502 OA
ATOM     23  H   UNL     1     124.036 128.109 134.058  1.00  0.00     0.293 HD
ENDBRANCH   2  22
BRANCH   6  24
ATOM     24  O   UNL     1     124.430 127.824 139.265  1.00  0.00    -0.507 OA
ATOM     25  H   UNL     1     123.731 128.225 138.651  1.00  0.00     0.293 HD
ENDBRANCH   6  24
BRANCH   8  26
ATOM     26  O   UNL     1     129.057 127.881 140.629  1.00  0.00    -0.508 OA
ATOM     27  H   UNL     1     130.047 127.771 140.443  1.00  0.00     0.293 HD
ENDBRANCH   8  26
TORSDOF 6
ENDMDL
MODEL 8
REMARK VINA RESULT:    25.583      2.873      8.865
REMARK INTER + INTRA:          31.073
REMARK INTER:                  30.672
REMARK INTRA:                   0.401
REMARK UNBOUND:                 0.255
REMARK SMILES O=c1c(O)c(-c2ccc(O)c(O)c2)oc2cc(O)cc(O)c12
REMARK SMILES IDX 5 1 3 2 2 3 1 4 22 5 20 6 19 7 17 8 16 9 15 10 14 11 6 12
REMARK SMILES IDX 7 13 8 14 9 15 13 16 11 17 10 18 12 20 4 22 21 24 18 26
REMARK H PARENT 10 19 12 21 4 23 21 25 18 27
REMARK Flexibility Score: inf
ROOT
ATOM      1  C   UNL     1     127.486 127.395 135.378  1.00  0.00     0.180 A 
ATOM      2  C   UNL     1     128.704 126.961 135.934  1.00  0.00     0.208 A 
ATOM      3  C   UNL     1     128.836 126.922 137.332  1.00  0.00     0.238 A 
ATOM      4  O   UNL     1     129.927 126.546 137.841  1.00  0.00    -0.285 OA
ATOM      5  C   UNL     1     127.748 127.296 138.145  1.00  0.00     0.111 A 
ATOM      6  C   UNL     1     127.797 127.283 139.560  1.00  0.00     0.134 A 
ATOM      7  C   UNL     1     126.668 127.662 140.300  1.00  0.00     0.093 A 
ATOM      8  C   UNL     1     125.491 128.052 139.655  1.00  0.00     0.123 A 
ATOM      9  C   UNL     1     125.437 128.068 138.257  1.00  0.00     0.094 A 
ATOM     10  C   UNL     1     126.553 127.696 137.502  1.00  0.00     0.146 A 
ATOM     11  O   UNL     1     126.475 127.725 136.176  1.00  0.00    -0.452 OA
ENDROOT
BRANCH   1  12
ATOM     12  C   UNL     1     127.276 127.481 133.914  1.00  0.00     0.025 A 
ATOM     13  C   UNL     1     125.978 127.670 133.414  1.00  0.00     0.016 A 
ATOM     14  C   UNL     1     125.759 127.775 132.038  1.00  0.00     0.051 A 
ATOM     15  C   UNL     1     126.836 127.708 131.144  1.00  0.00     0.157 A 
ATOM     16  C   UNL     1     128.356 127.435 133.015  1.00  0.00     0.062 A 
ATOM     17  C   UNL     1     128.141 127.543 131.636  1.00  0.00     0.158 A 
BRANCH  15  18
ATOM     18  O   UNL     1     126.614 127.811 129.771  1.00  0.00    -0.504 OA
ATOM     19  H   UNL     1     127.113 128.486 129.202  1.00  0.00     0.293 HD
ENDBRANCH  15  18
BRANCH  17  20
ATOM     20  O   UNL     1     129.235 127.486 130.773  1.00  0.00    -0.504 OA
ATOM     21  H   UNL     1     129.745 126.628 130.607  1.00  0.00     0.293 HD
ENDBRANCH  17  20
ENDBRANCH   1  12
BRANCH   2  22
ATOM     22  O   UNL     1     129.751 126.548 135.106  1.00  0.00    -0.502 OA
ATOM     23  H   UNL     1     130.142 125.614 135.149  1.00  0.00     0.293 HD
ENDBRANCH   2  22
BRANCH   6  24
ATOM     24  O   UNL     1     128.957 126.897 140.234  1.00  0.00    -0.507 OA
ATOM     25  H   UNL     1     129.214 127.301 141.127  1.00  0.00     0.293 HD
ENDBRANCH   6  24
BRANCH   8  26
ATOM     26  O   UNL     1     124.384 128.422 140.413  1.00  0.00    -0.508 OA
ATOM     27  H   UNL     1     124.374 128.320 141.421  1.00  0.00     0.293 HD
ENDBRANCH   8  26
TORSDOF 6
ENDMDL
MODEL 9
REMARK VINA RESULT:    25.607     15.566     17.804
REMARK INTER + INTRA:          31.102
REMARK INTER:                  30.735
REMARK INTRA:                   0.367
REMARK UNBOUND:                 0.255
REMARK SMILES O=c1c(O)c(-c2ccc(O)c(O)c2)oc2cc(O)cc(O)c12
REMARK SMILES IDX 5 1 3 2 2 3 1 4 22 5 20 6 19 7 17 8 16 9 15 10 14 11 6 12
REMARK SMILES IDX 7 13 8 14 9 15 13 16 11 17 10 18 12 20 4 22 21 24 18 26
REMARK H PARENT 10 19 12 21 4 23 21 25 18 27
REMARK Flexibility Score: inf
ROOT
ATOM      1  C   UNL     1     138.708 138.924 133.257  1.00  0.00     0.180 A 
ATOM      2  C   UNL     1     137.474 139.335 133.795  1.00  0.00     0.208 A 
ATOM      3  C   UNL     1     137.317 139.363 135.190  1.00  0.00     0.238 A 
ATOM      4  O   UNL     1     136.212 139.719 135.684  1.00  0.00    -0.285 OA
ATOM      5  C   UNL     1     138.397 139.001 136.020  1.00  0.00     0.111 A 
ATOM      6  C   UNL     1     138.324 139.004 137.434  1.00  0.00     0.134 A 
ATOM      7  C   UNL     1     139.447 138.639 138.191  1.00  0.00     0.093 A 
ATOM      8  C   UNL     1     140.640 138.271 137.564  1.00  0.00     0.123 A 
ATOM      9  C   UNL     1     140.718 138.264 136.167  1.00  0.00     0.094 A 
ATOM     10  C   UNL     1     139.609 138.623 135.396  1.00  0.00     0.146 A 
ATOM     11  O   UNL     1     139.710 138.604 134.071  1.00  0.00    -0.452 OA
ENDROOT
BRANCH   1  12
ATOM     12  C   UNL     1     138.944 138.850 131.797  1.00  0.00     0.025 A 
ATOM     13  C   UNL     1     140.260 138.769 131.314  1.00  0.00     0.016 A 
ATOM     14  C   UNL     1     140.506 138.678 129.942  1.00  0.00     0.051 A 
ATOM     15  C   UNL     1     139.439 138.649 129.034  1.00  0.00     0.157 A 
ATOM     16  C   UNL     1     137.876 138.801 130.884  1.00  0.00     0.062 A 
ATOM     17  C   UNL     1     138.118 138.706 129.509  1.00  0.00     0.158 A 
BRANCH  15  18
ATOM     18  O   UNL     1     139.687 138.560 127.664  1.00  0.00    -0.504 OA
ATOM     19  H   UNL     1     140.625 138.426 127.303  1.00  0.00     0.293 HD
ENDBRANCH  15  18
BRANCH  17  20
ATOM     20  O   UNL     1     137.035 138.666 128.631  1.00  0.00    -0.504 OA
ATOM     21  H   UNL     1     136.680 139.499 128.176  1.00  0.00     0.293 HD
ENDBRANCH  17  20
ENDBRANCH   1  12
BRANCH   2  22
ATOM     22  O   UNL     1     136.435 139.737 132.952  1.00  0.00    -0.502 OA
ATOM     23  H   UNL     1     135.957 139.092 132.334  1.00  0.00     0.293 HD
ENDBRANCH   2  22
BRANCH   6  24
ATOM     24  O   UNL     1     137.147 139.369 138.091  1.00  0.00    -0.507 OA
ATOM     25  H   UNL     1     137.152 140.004 138.880  1.00  0.00     0.293 HD
ENDBRANCH   6  24
BRANCH   8  26
ATOM     26  O   UNL     1     141.740 137.913 138.339  1.00  0.00    -0.508 OA
ATOM     27  H   UNL     1     141.777 137.026 138.827  1.00  0.00     0.293 HD
ENDBRANCH   8  26
TORSDOF 6
ENDMDL
