MODEL 1
REMARK VINA RESULT:     6.916      0.000      0.000
REMARK INTER + INTRA:          16.350
REMARK INTER:                  18.035
REMARK INTRA:                  -1.685
REMARK UNBOUND:                -1.685
REMARK SMILES CCCCCCCCCCCCCCCCCCCCCCCCCCCCCO
REMARK SMILES IDX 16 1 15 2 14 3 13 4 12 5 11 6 10 7 9 8 8 9 7 10 6 11 5 12
REMARK SMILES IDX 4 13 3 14 2 15 1 16 17 17 18 18 19 19 20 20 21 21 22 22
REMARK SMILES IDX 23 23 24 24 25 25 26 26 27 27 28 28 29 29 30 30
REMARK H PARENT 30 31
REMARK Flexibility Score: inf
ROOT
ATOM      1  C   UNL     1      31.860 -20.580 -30.791  1.00  0.00     0.000 C 
ENDROOT
BRANCH   1   2
ATOM      2  C   UNL     1      33.278 -19.992 -30.692  1.00  0.00     0.000 C 
BRANCH   2   3
ATOM      3  C   UNL     1      33.890 -19.701 -32.079  1.00  0.00     0.000 C 
BRANCH   3   4
ATOM      4  C   UNL     1      32.887 -19.121 -33.091  1.00  0.00     0.000 C 
BRANCH   4   5
ATOM      5  C   UNL     1      33.291 -17.731 -33.606  1.00  0.00     0.000 C 
BRANCH   5   6
ATOM      6  C   UNL     1      32.413 -17.244 -34.769  1.00  0.00     0.000 C 
BRANCH   6   7
ATOM      7  C   UNL     1      32.980 -15.994 -35.467  1.00  0.00     0.000 C 
BRANCH   7   8
ATOM      8  C   UNL     1      33.398 -16.283 -36.920  1.00  0.00    -0.000 C 
BRANCH   8   9
ATOM      9  C   UNL     1      32.369 -15.752 -37.934  1.00  0.00    -0.000 C 
BRANCH   9  10
ATOM     10  C   UNL     1      31.605 -14.507 -37.428  1.00  0.00    -0.000 C 
BRANCH  10  11
ATOM     11  C   UNL     1      30.711 -13.846 -38.494  1.00  0.00    -0.000 C 
BRANCH  11  12
ATOM     12  C   UNL     1      30.332 -12.384 -38.198  1.00  0.00    -0.000 C 
BRANCH  12  13
ATOM     13  C   UNL     1      29.592 -12.198 -36.854  1.00  0.00    -0.000 C 
BRANCH  13  14
ATOM     14  C   UNL     1      29.586 -10.732 -36.385  1.00  0.00    -0.000 C 
BRANCH  14  15
ATOM     15  C   UNL     1      30.407 -10.520 -35.102  1.00  0.00    -0.003 C 
ATOM     16  C   UNL     1      30.754  -9.052 -34.858  1.00  0.00     0.004 C 
ENDBRANCH  14  15
ENDBRANCH  13  14
ENDBRANCH  12  13
ENDBRANCH  11  12
ENDBRANCH  10  11
ENDBRANCH   9  10
ENDBRANCH   8   9
ENDBRANCH   7   8
ENDBRANCH   6   7
ENDBRANCH   5   6
ENDBRANCH   4   5
ENDBRANCH   3   4
ENDBRANCH   2   3
ENDBRANCH   1   2
BRANCH   1  17
ATOM     17  C   UNL     1      30.889 -19.852 -29.851  1.00  0.00     0.000 C 
BRANCH  17  18
ATOM     18  C   UNL     1      31.256 -18.375 -29.626  1.00  0.00     0.000 C 
BRANCH  18  19
ATOM     19  C   UNL     1      31.732 -18.051 -28.195  1.00  0.00     0.000 C 
BRANCH  19  20
ATOM     20  C   UNL     1      32.959 -18.881 -27.772  1.00  0.00     0.000 C 
BRANCH  20  21
ATOM     21  C   UNL     1      34.287 -18.171 -28.078  1.00  0.00     0.000 C 
BRANCH  21  22
ATOM     22  C   UNL     1      34.169 -16.637 -28.017  1.00  0.00     0.000 C 
BRANCH  22  23
ATOM     23  C   UNL     1      35.243 -15.915 -28.852  1.00  0.00     0.000 C 
BRANCH  23  24
ATOM     24  C   UNL     1      36.282 -16.835 -29.520  1.00  0.00     0.000 C 
BRANCH  24  25
ATOM     25  C   UNL     1      36.669 -16.379 -30.937  1.00  0.00     0.000 C 
BRANCH  25  26
ATOM     26  C   UNL     1      36.775 -17.548 -31.934  1.00  0.00     0.000 C 
BRANCH  26  27
ATOM     27  C   UNL     1      37.025 -18.929 -31.301  1.00  0.00     0.002 C 
BRANCH  27  28
ATOM     28  C   UNL     1      38.368 -19.015 -30.557  1.00  0.00     0.028 C 
BRANCH  28  29
ATOM     29  C   UNL     1      38.539 -20.367 -29.854  1.00  0.00     0.156 C 
BRANCH  29  30
ATOM     30  O   UNL     1      39.293 -21.249 -30.642  1.00  0.00    -0.396 OA
ATOM     31  H   UNL     1      40.164 -21.368 -30.179  1.00  0.00     0.210 HD
ENDBRANCH  29  30
ENDBRANCH  28  29
ENDBRANCH  27  28
ENDBRANCH  26  27
ENDBRANCH  25  26
ENDBRANCH  24  25
ENDBRANCH  23  24
ENDBRANCH  22  23
ENDBRANCH  21  22
ENDBRANCH  20  21
ENDBRANCH  19  20
ENDBRANCH  18  19
ENDBRANCH  17  18
ENDBRANCH   1  17
TORSDOF 28
ENDMDL
MODEL 2
REMARK VINA RESULT:     7.086      0.716      1.689
REMARK INTER + INTRA:          16.792
REMARK INTER:                  18.389
REMARK INTRA:                  -1.597
REMARK UNBOUND:                -1.685
REMARK SMILES CCCCCCCCCCCCCCCCCCCCCCCCCCCCCO
REMARK SMILES IDX 16 1 15 2 14 3 13 4 12 5 11 6 10 7 9 8 8 9 7 10 6 11 5 12
REMARK SMILES IDX 4 13 3 14 2 15 1 16 17 17 18 18 19 19 20 20 21 21 22 22
REMARK SMILES IDX 23 23 24 24 25 25 26 26 27 27 28 28 29 29 30 30
REMARK H PARENT 30 31
REMARK Flexibility Score: inf
ROOT
ATOM      1  C   UNL     1      33.537 -19.883 -30.685  1.00  0.00     0.000 C 
ENDROOT
BRANCH   1   2
ATOM      2  C   UNL     1      33.980 -19.662 -32.142  1.00  0.00     0.000 C 
BRANCH   2   3
ATOM      3  C   UNL     1      32.886 -18.977 -32.990  1.00  0.00     0.000 C 
BRANCH   3   4
ATOM      4  C   UNL     1      33.336 -17.652 -33.630  1.00  0.00     0.000 C 
BRANCH   4   5
ATOM      5  C   UNL     1      32.473 -17.246 -34.835  1.00  0.00     0.000 C 
BRANCH   5   6
ATOM      6  C   UNL     1      33.122 -16.151 -35.696  1.00  0.00     0.000 C 
BRANCH   6   7
ATOM      7  C   UNL     1      32.578 -16.119 -37.136  1.00  0.00     0.000 C 
BRANCH   7   8
ATOM      8  C   UNL     1      32.151 -14.702 -37.560  1.00  0.00    -0.000 C 
BRANCH   8   9
ATOM      9  C   UNL     1      31.264 -14.718 -38.819  1.00  0.00    -0.000 C 
BRANCH   9  10
ATOM     10  C   UNL     1      30.172 -13.624 -38.805  1.00  0.00    -0.000 C 
BRANCH  10  11
ATOM     11  C   UNL     1      30.106 -12.822 -37.492  1.00  0.00    -0.000 C 
BRANCH  11  12
ATOM     12  C   UNL     1      30.370 -11.314 -37.645  1.00  0.00    -0.000 C 
BRANCH  12  13
ATOM     13  C   UNL     1      29.144 -10.435 -37.304  1.00  0.00    -0.000 C 
BRANCH  13  14
ATOM     14  C   UNL     1      29.546  -9.041 -36.791  1.00  0.00    -0.000 C 
BRANCH  14  15
ATOM     15  C   UNL     1      30.545  -9.107 -35.623  1.00  0.00    -0.003 C 
ATOM     16  C   UNL     1      30.365 -10.356 -34.760  1.00  0.00     0.004 C 
ENDBRANCH  14  15
ENDBRANCH  13  14
ENDBRANCH  12  13
ENDBRANCH  11  12
ENDBRANCH  10  11
ENDBRANCH   9  10
ENDBRANCH   8   9
ENDBRANCH   7   8
ENDBRANCH   6   7
ENDBRANCH   5   6
ENDBRANCH   4   5
ENDBRANCH   3   4
ENDBRANCH   2   3
ENDBRANCH   1   2
BRANCH   1  17
ATOM     17  C   UNL     1      32.291 -20.777 -30.613  1.00  0.00     0.000 C 
BRANCH  17  18
ATOM     18  C   UNL     1      31.104 -20.108 -29.900  1.00  0.00     0.000 C 
BRANCH  18  19
ATOM     19  C   UNL     1      31.114 -18.567 -29.964  1.00  0.00     0.000 C 
BRANCH  19  20
ATOM     20  C   UNL     1      31.249 -17.911 -28.576  1.00  0.00     0.000 C 
BRANCH  20  21
ATOM     21  C   UNL     1      32.210 -18.676 -27.653  1.00  0.00     0.000 C 
BRANCH  21  22
ATOM     22  C   UNL     1      33.671 -18.210 -27.797  1.00  0.00     0.000 C 
BRANCH  22  23
ATOM     23  C   UNL     1      33.796 -16.710 -28.124  1.00  0.00     0.000 C 
BRANCH  23  24
ATOM     24  C   UNL     1      35.151 -16.279 -28.718  1.00  0.00     0.000 C 
BRANCH  24  25
ATOM     25  C   UNL     1      35.959 -17.454 -29.292  1.00  0.00     0.000 C 
BRANCH  25  26
ATOM     26  C   UNL     1      36.990 -17.012 -30.348  1.00  0.00     0.000 C 
BRANCH  26  27
ATOM     27  C   UNL     1      36.974 -17.821 -31.658  1.00  0.00     0.002 C 
BRANCH  27  28
ATOM     28  C   UNL     1      37.557 -19.235 -31.500  1.00  0.00     0.028 C 
BRANCH  28  29
ATOM     29  C   UNL     1      38.377 -19.368 -30.211  1.00  0.00     0.156 C 
BRANCH  29  30
ATOM     30  O   UNL     1      39.026 -20.611 -30.157  1.00  0.00    -0.396 OA
ATOM     31  H   UNL     1      39.493 -20.647 -29.281  1.00  0.00     0.210 HD
ENDBRANCH  29  30
ENDBRANCH  28  29
ENDBRANCH  27  28
ENDBRANCH  26  27
ENDBRANCH  25  26
ENDBRANCH  24  25
ENDBRANCH  23  24
ENDBRANCH  22  23
ENDBRANCH  21  22
ENDBRANCH  20  21
ENDBRANCH  19  20
ENDBRANCH  18  19
ENDBRANCH  17  18
ENDBRANCH   1  17
TORSDOF 28
ENDMDL
MODEL 3
REMARK VINA RESULT:     7.229      2.696      9.993
REMARK INTER + INTRA:          17.165
REMARK INTER:                  18.775
REMARK INTRA:                  -1.610
REMARK UNBOUND:                -1.685
REMARK SMILES CCCCCCCCCCCCCCCCCCCCCCCCCCCCCO
REMARK SMILES IDX 16 1 15 2 14 3 13 4 12 5 11 6 10 7 9 8 8 9 7 10 6 11 5 12
REMARK SMILES IDX 4 13 3 14 2 15 1 16 17 17 18 18 19 19 20 20 21 21 22 22
REMARK SMILES IDX 23 23 24 24 25 25 26 26 27 27 28 28 29 29 30 30
REMARK H PARENT 30 31
REMARK Flexibility Score: inf
ROOT
ATOM      1  C   UNL     1      33.185 -19.398 -32.938  1.00  0.00     0.000 C 
ENDROOT
BRANCH   1   2
ATOM      2  C   UNL     1      33.783 -19.500 -31.524  1.00  0.00     0.000 C 
BRANCH   2   3
ATOM      3  C   UNL     1      33.060 -20.553 -30.656  1.00  0.00     0.000 C 
BRANCH   3   4
ATOM      4  C   UNL     1      31.578 -20.232 -30.396  1.00  0.00     0.000 C 
BRANCH   4   5
ATOM      5  C   UNL     1      31.317 -18.732 -30.189  1.00  0.00     0.000 C 
BRANCH   5   6
ATOM      6  C   UNL     1      31.406 -18.306 -28.716  1.00  0.00     0.000 C 
BRANCH   6   7
ATOM      7  C   UNL     1      32.430 -19.131 -27.913  1.00  0.00     0.000 C 
BRANCH   7   8
ATOM      8  C   UNL     1      33.731 -18.348 -27.661  1.00  0.00    -0.000 C 
BRANCH   8   9
ATOM      9  C   UNL     1      33.614 -16.876 -28.097  1.00  0.00    -0.000 C 
BRANCH   9  10
ATOM     10  C   UNL     1      34.939 -16.299 -28.645  1.00  0.00    -0.000 C 
BRANCH  10  11
ATOM     11  C   UNL     1      35.978 -17.370 -29.025  1.00  0.00    -0.000 C 
BRANCH  11  12
ATOM     12  C   UNL     1      36.995 -16.930 -30.094  1.00  0.00    -0.000 C 
BRANCH  12  13
ATOM     13  C   UNL     1      36.806 -17.640 -31.454  1.00  0.00    -0.000 C 
BRANCH  13  14
ATOM     14  C   UNL     1      37.538 -18.992 -31.516  1.00  0.00    -0.000 C 
BRANCH  14  15
ATOM     15  C   UNL     1      38.203 -19.366 -30.181  1.00  0.00    -0.003 C 
ATOM     16  C   UNL     1      39.080 -20.613 -30.284  1.00  0.00     0.004 C 
ENDBRANCH  14  15
ENDBRANCH  13  14
ENDBRANCH  12  13
ENDBRANCH  11  12
ENDBRANCH  10  11
ENDBRANCH   9  10
ENDBRANCH   8   9
ENDBRANCH   7   8
ENDBRANCH   6   7
ENDBRANCH   5   6
ENDBRANCH   4   5
ENDBRANCH   3   4
ENDBRANCH   2   3
ENDBRANCH   1   2
BRANCH   1  17
ATOM     17  C   UNL     1      32.810 -17.950 -33.280  1.00  0.00     0.000 C 
BRANCH  17  18
ATOM     18  C   UNL     1      32.569 -17.724 -34.783  1.00  0.00     0.000 C 
BRANCH  18  19
ATOM     19  C   UNL     1      32.668 -16.249 -35.225  1.00  0.00     0.000 C 
BRANCH  19  20
ATOM     20  C   UNL     1      32.937 -16.094 -36.733  1.00  0.00     0.000 C 
BRANCH  20  21
ATOM     21  C   UNL     1      32.379 -14.780 -37.301  1.00  0.00     0.000 C 
BRANCH  21  22
ATOM     22  C   UNL     1      31.555 -14.988 -38.584  1.00  0.00     0.000 C 
BRANCH  22  23
ATOM     23  C   UNL     1      30.443 -13.937 -38.764  1.00  0.00     0.000 C 
BRANCH  23  24
ATOM     24  C   UNL     1      30.310 -12.919 -37.615  1.00  0.00     0.000 C 
BRANCH  24  25
ATOM     25  C   UNL     1      30.132 -11.473 -38.108  1.00  0.00     0.000 C 
BRANCH  25  26
ATOM     26  C   UNL     1      29.287 -10.614 -37.148  1.00  0.00     0.000 C 
BRANCH  26  27
ATOM     27  C   UNL     1      29.849  -9.210 -36.859  1.00  0.00     0.002 C 
BRANCH  27  28
ATOM     28  C   UNL     1      30.235  -9.007 -35.385  1.00  0.00     0.028 C 
BRANCH  28  29
ATOM     29  C   UNL     1      30.926 -10.247 -34.805  1.00  0.00     0.156 C 
BRANCH  29  30
ATOM     30  O   UNL     1      30.039 -10.990 -34.011  1.00  0.00    -0.396 OA
ATOM     31  H   UNL     1      29.281 -10.386 -33.794  1.00  0.00     0.210 HD
ENDBRANCH  29  30
ENDBRANCH  28  29
ENDBRANCH  27  28
ENDBRANCH  26  27
ENDBRANCH  25  26
ENDBRANCH  24  25
ENDBRANCH  23  24
ENDBRANCH  22  23
ENDBRANCH  21  22
ENDBRANCH  20  21
ENDBRANCH  19  20
ENDBRANCH  18  19
ENDBRANCH  17  18
ENDBRANCH   1  17
TORSDOF 28
ENDMDL
MODEL 4
REMARK VINA RESULT:     7.445      3.156      9.380
REMARK INTER + INTRA:          17.729
REMARK INTER:                  19.814
REMARK INTRA:                  -2.085
REMARK UNBOUND:                -1.685
REMARK SMILES CCCCCCCCCCCCCCCCCCCCCCCCCCCCCO
REMARK SMILES IDX 16 1 15 2 14 3 13 4 12 5 11 6 10 7 9 8 8 9 7 10 6 11 5 12
REMARK SMILES IDX 4 13 3 14 2 15 1 16 17 17 18 18 19 19 20 20 21 21 22 22
REMARK SMILES IDX 23 23 24 24 25 25 26 26 27 27 28 28 29 29 30 30
REMARK H PARENT 30 31
REMARK Flexibility Score: inf
ROOT
ATOM      1  C   UNL     1      36.922 -17.769 -32.261  1.00  0.00     0.000 C 
ENDROOT
BRANCH   1   2
ATOM      2  C   UNL     1      37.476 -17.283 -30.911  1.00  0.00     0.000 C 
BRANCH   2   3
ATOM      3  C   UNL     1      37.766 -18.450 -29.942  1.00  0.00     0.000 C 
BRANCH   3   4
ATOM      4  C   UNL     1      36.688 -18.642 -28.861  1.00  0.00     0.000 C 
BRANCH   4   5
ATOM      5  C   UNL     1      35.589 -19.630 -29.279  1.00  0.00     0.000 C 
BRANCH   5   6
ATOM      6  C   UNL     1      34.824 -19.181 -30.534  1.00  0.00     0.000 C 
BRANCH   6   7
ATOM      7  C   UNL     1      33.869 -20.262 -31.075  1.00  0.00     0.000 C 
BRANCH   7   8
ATOM      8  C   UNL     1      32.495 -19.681 -31.454  1.00  0.00    -0.000 C 
BRANCH   8   9
ATOM      9  C   UNL     1      31.370 -20.223 -30.554  1.00  0.00    -0.000 C 
BRANCH   9  10
ATOM     10  C   UNL     1      30.936 -19.225 -29.457  1.00  0.00    -0.000 C 
BRANCH  10  11
ATOM     11  C   UNL     1      31.518 -19.534 -28.065  1.00  0.00    -0.000 C 
BRANCH  11  12
ATOM     12  C   UNL     1      32.805 -18.764 -27.720  1.00  0.00    -0.000 C 
BRANCH  12  13
ATOM     13  C   UNL     1      32.895 -17.378 -28.398  1.00  0.00    -0.000 C 
BRANCH  13  14
ATOM     14  C   UNL     1      34.017 -16.507 -27.804  1.00  0.00    -0.000 C 
BRANCH  14  15
ATOM     15  C   UNL     1      34.872 -15.826 -28.886  1.00  0.00    -0.003 C 
ATOM     16  C   UNL     1      34.545 -14.342 -29.052  1.00  0.00     0.004 C 
ENDBRANCH  14  15
ENDBRANCH  13  14
ENDBRANCH  12  13
ENDBRANCH  11  12
ENDBRANCH  10  11
ENDBRANCH   9  10
ENDBRANCH   8   9
ENDBRANCH   7   8
ENDBRANCH   6   7
ENDBRANCH   5   6
ENDBRANCH   4   5
ENDBRANCH   3   4
ENDBRANCH   2   3
ENDBRANCH   1   2
BRANCH   1  17
ATOM     17  C   UNL     1      36.276 -16.617 -33.044  1.00  0.00     0.000 C 
BRANCH  17  18
ATOM     18  C   UNL     1      34.771 -16.818 -33.288  1.00  0.00     0.000 C 
BRANCH  18  19
ATOM     19  C   UNL     1      34.242 -16.142 -34.570  1.00  0.00     0.000 C 
BRANCH  19  20
ATOM     20  C   UNL     1      32.810 -16.581 -34.930  1.00  0.00     0.000 C 
BRANCH  20  21
ATOM     21  C   UNL     1      32.659 -16.939 -36.417  1.00  0.00     0.000 C 
BRANCH  21  22
ATOM     22  C   UNL     1      32.832 -15.721 -37.343  1.00  0.00     0.000 C 
BRANCH  22  23
ATOM     23  C   UNL     1      31.954 -14.523 -36.935  1.00  0.00     0.000 C 
BRANCH  23  24
ATOM     24  C   UNL     1      31.114 -13.908 -38.071  1.00  0.00     0.000 C 
BRANCH  24  25
ATOM     25  C   UNL     1      29.976 -13.009 -37.561  1.00  0.00     0.000 C 
BRANCH  25  26
ATOM     26  C   UNL     1      30.136 -11.539 -37.990  1.00  0.00     0.000 C 
BRANCH  26  27
ATOM     27  C   UNL     1      29.565 -10.503 -37.005  1.00  0.00     0.002 C 
BRANCH  27  28
ATOM     28  C   UNL     1      29.877 -10.833 -35.536  1.00  0.00     0.028 C 
BRANCH  28  29
ATOM     29  C   UNL     1      30.834  -9.808 -34.917  1.00  0.00     0.156 C 
BRANCH  29  30
ATOM     30  O   UNL     1      30.676  -8.549 -35.515  1.00  0.00    -0.396 OA
ATOM     31  H   UNL     1      29.928  -8.102 -35.038  1.00  0.00     0.210 HD
ENDBRANCH  29  30
ENDBRANCH  28  29
ENDBRANCH  27  28
ENDBRANCH  26  27
ENDBRANCH  25  26
ENDBRANCH  24  25
ENDBRANCH  23  24
ENDBRANCH  22  23
ENDBRANCH  21  22
ENDBRANCH  20  21
ENDBRANCH  19  20
ENDBRANCH  18  19
ENDBRANCH  17  18
ENDBRANCH   1  17
TORSDOF 28
ENDMDL
MODEL 5
REMARK VINA RESULT:     7.679      1.959      4.239
REMARK INTER + INTRA:          18.339
REMARK INTER:                  18.859
REMARK INTRA:                  -0.521
REMARK UNBOUND:                -1.685
REMARK SMILES CCCCCCCCCCCCCCCCCCCCCCCCCCCCCO
REMARK SMILES IDX 16 1 15 2 14 3 13 4 12 5 11 6 10 7 9 8 8 9 7 10 6 11 5 12
REMARK SMILES IDX 4 13 3 14 2 15 1 16 17 17 18 18 19 19 20 20 21 21 22 22
REMARK SMILES IDX 23 23 24 24 25 25 26 26 27 27 28 28 29 29 30 30
REMARK H PARENT 30 31
REMARK Flexibility Score: inf
ROOT
ATOM      1  C   UNL     1      37.246 -17.340 -30.603  1.00  0.00     0.000 C 
ENDROOT
BRANCH   1   2
ATOM      2  C   UNL     1      36.982 -17.830 -32.037  1.00  0.00     0.000 C 
BRANCH   2   3
ATOM      3  C   UNL     1      36.258 -16.769 -32.895  1.00  0.00     0.000 C 
BRANCH   3   4
ATOM      4  C   UNL     1      34.853 -17.194 -33.355  1.00  0.00     0.000 C 
BRANCH   4   5
ATOM      5  C   UNL     1      34.220 -16.201 -34.342  1.00  0.00     0.000 C 
BRANCH   5   6
ATOM      6  C   UNL     1      32.775 -16.566 -34.715  1.00  0.00     0.000 C 
BRANCH   6   7
ATOM      7  C   UNL     1      32.604 -16.893 -36.210  1.00  0.00     0.000 C 
BRANCH   7   8
ATOM      8  C   UNL     1      33.093 -15.746 -37.112  1.00  0.00    -0.000 C 
BRANCH   8   9
ATOM      9  C   UNL     1      32.194 -14.501 -37.003  1.00  0.00    -0.000 C 
BRANCH   9  10
ATOM     10  C   UNL     1      31.239 -14.336 -38.207  1.00  0.00    -0.000 C 
BRANCH  10  11
ATOM     11  C   UNL     1      30.541 -12.964 -38.267  1.00  0.00    -0.000 C 
BRANCH  11  12
ATOM     12  C   UNL     1      29.502 -12.721 -37.159  1.00  0.00    -0.000 C 
BRANCH  12  13
ATOM     13  C   UNL     1      29.542 -11.289 -36.577  1.00  0.00    -0.000 C 
BRANCH  13  14
ATOM     14  C   UNL     1      30.279 -11.226 -35.228  1.00  0.00    -0.000 C 
BRANCH  14  15
ATOM     15  C   UNL     1      30.664  -9.790 -34.832  1.00  0.00    -0.003 C 
ATOM     16  C   UNL     1      30.276  -8.760 -35.892  1.00  0.00     0.004 C 
ENDBRANCH  14  15
ENDBRANCH  13  14
ENDBRANCH  12  13
ENDBRANCH  11  12
ENDBRANCH  10  11
ENDBRANCH   9  10
ENDBRANCH   8   9
ENDBRANCH   7   8
ENDBRANCH   6   7
ENDBRANCH   5   6
ENDBRANCH   4   5
ENDBRANCH   3   4
ENDBRANCH   2   3
ENDBRANCH   1   2
BRANCH   1  17
ATOM     17  C   UNL     1      37.437 -18.520 -29.640  1.00  0.00     0.000 C 
BRANCH  17  18
ATOM     18  C   UNL     1      36.380 -19.625 -29.816  1.00  0.00     0.000 C 
BRANCH  18  19
ATOM     19  C   UNL     1      35.025 -19.124 -30.354  1.00  0.00     0.000 C 
BRANCH  19  20
ATOM     20  C   UNL     1      34.117 -20.267 -30.845  1.00  0.00     0.000 C 
BRANCH  20  21
ATOM     21  C   UNL     1      32.778 -19.761 -31.403  1.00  0.00     0.000 C 
BRANCH  21  22
ATOM     22  C   UNL     1      31.614 -19.938 -30.412  1.00  0.00     0.000 C 
BRANCH  22  23
ATOM     23  C   UNL     1      30.989 -18.602 -29.969  1.00  0.00     0.000 C 
BRANCH  23  24
ATOM     24  C   UNL     1      31.623 -17.964 -28.718  1.00  0.00     0.000 C 
BRANCH  24  25
ATOM     25  C   UNL     1      32.215 -18.999 -27.747  1.00  0.00     0.000 C 
BRANCH  25  26
ATOM     26  C   UNL     1      33.654 -18.659 -27.314  1.00  0.00     0.000 C 
BRANCH  26  27
ATOM     27  C   UNL     1      34.383 -17.638 -28.206  1.00  0.00     0.002 C 
BRANCH  27  28
ATOM     28  C   UNL     1      33.889 -16.197 -28.000  1.00  0.00     0.028 C 
BRANCH  28  29
ATOM     29  C   UNL     1      34.636 -15.208 -28.902  1.00  0.00     0.156 C 
BRANCH  29  30
ATOM     30  O   UNL     1      34.216 -13.892 -28.659  1.00  0.00    -0.396 OA
ATOM     31  H   UNL     1      33.757 -13.585 -29.485  1.00  0.00     0.210 HD
ENDBRANCH  29  30
ENDBRANCH  28  29
ENDBRANCH  27  28
ENDBRANCH  26  27
ENDBRANCH  25  26
ENDBRANCH  24  25
ENDBRANCH  23  24
ENDBRANCH  22  23
ENDBRANCH  21  22
ENDBRANCH  20  21
ENDBRANCH  19  20
ENDBRANCH  18  19
ENDBRANCH  17  18
ENDBRANCH   1  17
TORSDOF 28
ENDMDL
MODEL 6
REMARK VINA RESULT:     7.693      2.807      9.798
REMARK INTER + INTRA:          18.376
REMARK INTER:                  19.165
REMARK INTRA:                  -0.790
REMARK UNBOUND:                -1.685
REMARK SMILES CCCCCCCCCCCCCCCCCCCCCCCCCCCCCO
REMARK SMILES IDX 16 1 15 2 14 3 13 4 12 5 11 6 10 7 9 8 8 9 7 10 6 11 5 12
REMARK SMILES IDX 4 13 3 14 2 15 1 16 17 17 18 18 19 19 20 20 21 21 22 22
REMARK SMILES IDX 23 23 24 24 25 25 26 26 27 27 28 28 29 29 30 30
REMARK H PARENT 30 31
REMARK Flexibility Score: inf
ROOT
ATOM      1  C   UNL     1      36.182 -16.877 -33.309  1.00  0.00     0.000 C 
ENDROOT
BRANCH   1   2
ATOM      2  C   UNL     1      36.704 -17.173 -31.893  1.00  0.00     0.000 C 
BRANCH   2   3
ATOM      3  C   UNL     1      37.271 -18.603 -31.765  1.00  0.00     0.000 C 
BRANCH   3   4
ATOM      4  C   UNL     1      37.768 -18.950 -30.350  1.00  0.00     0.000 C 
BRANCH   4   5
ATOM      5  C   UNL     1      36.691 -19.623 -29.486  1.00  0.00     0.000 C 
BRANCH   5   6
ATOM      6  C   UNL     1      35.618 -18.640 -28.992  1.00  0.00     0.000 C 
BRANCH   6   7
ATOM      7  C   UNL     1      36.167 -17.220 -28.758  1.00  0.00     0.000 C 
BRANCH   7   8
ATOM      8  C   UNL     1      35.071 -16.147 -28.893  1.00  0.00    -0.000 C 
BRANCH   8   9
ATOM      9  C   UNL     1      33.826 -16.483 -28.052  1.00  0.00    -0.000 C 
BRANCH   9  10
ATOM     10  C   UNL     1      33.479 -17.990 -28.058  1.00  0.00    -0.000 C 
BRANCH  10  11
ATOM     11  C   UNL     1      31.983 -18.287 -27.841  1.00  0.00    -0.000 C 
BRANCH  11  12
ATOM     12  C   UNL     1      31.149 -18.371 -29.132  1.00  0.00    -0.000 C 
BRANCH  12  13
ATOM     13  C   UNL     1      30.957 -19.815 -29.649  1.00  0.00    -0.000 C 
BRANCH  13  14
ATOM     14  C   UNL     1      32.213 -20.359 -30.351  1.00  0.00    -0.000 C 
BRANCH  14  15
ATOM     15  C   UNL     1      32.824 -19.348 -31.336  1.00  0.00    -0.003 C 
ATOM     16  C   UNL     1      34.019 -19.914 -32.101  1.00  0.00     0.004 C 
ENDBRANCH  14  15
ENDBRANCH  13  14
ENDBRANCH  12  13
ENDBRANCH  11  12
ENDBRANCH  10  11
ENDBRANCH   9  10
ENDBRANCH   8   9
ENDBRANCH   7   8
ENDBRANCH   6   7
ENDBRANCH   5   6
ENDBRANCH   4   5
ENDBRANCH   3   4
ENDBRANCH   2   3
ENDBRANCH   1   2
BRANCH   1  17
ATOM     17  C   UNL     1      34.995 -15.904 -33.272  1.00  0.00     0.000 C 
BRANCH  17  18
ATOM     18  C   UNL     1      34.273 -15.775 -34.625  1.00  0.00     0.000 C 
BRANCH  18  19
ATOM     19  C   UNL     1      33.011 -16.652 -34.754  1.00  0.00     0.000 C 
BRANCH  19  20
ATOM     20  C   UNL     1      32.662 -16.984 -36.217  1.00  0.00     0.000 C 
BRANCH  20  21
ATOM     21  C   UNL     1      32.973 -15.825 -37.177  1.00  0.00     0.000 C 
BRANCH  21  22
ATOM     22  C   UNL     1      31.878 -14.743 -37.179  1.00  0.00     0.000 C 
BRANCH  22  23
ATOM     23  C   UNL     1      31.396 -14.375 -38.595  1.00  0.00     0.000 C 
BRANCH  23  24
ATOM     24  C   UNL     1      30.121 -13.513 -38.651  1.00  0.00     0.000 C 
BRANCH  24  25
ATOM     25  C   UNL     1      29.920 -12.652 -37.393  1.00  0.00     0.000 C 
BRANCH  25  26
ATOM     26  C   UNL     1      30.039 -11.142 -37.675  1.00  0.00     0.000 C 
BRANCH  26  27
ATOM     27  C   UNL     1      29.300 -10.230 -36.679  1.00  0.00     0.002 C 
BRANCH  27  28
ATOM     28  C   UNL     1      30.114  -8.986 -36.284  1.00  0.00     0.028 C 
BRANCH  28  29
ATOM     29  C   UNL     1      30.808  -9.171 -34.930  1.00  0.00     0.156 C 
BRANCH  29  30
ATOM     30  O   UNL     1      30.709 -10.500 -34.493  1.00  0.00    -0.396 OA
ATOM     31  H   UNL     1      31.635 -10.859 -34.469  1.00  0.00     0.210 HD
ENDBRANCH  29  30
ENDBRANCH  28  29
ENDBRANCH  27  28
ENDBRANCH  26  27
ENDBRANCH  25  26
ENDBRANCH  24  25
ENDBRANCH  23  24
ENDBRANCH  22  23
ENDBRANCH  21  22
ENDBRANCH  20  21
ENDBRANCH  19  20
ENDBRANCH  18  19
ENDBRANCH  17  18
ENDBRANCH   1  17
TORSDOF 28
ENDMDL
MODEL 7
REMARK VINA RESULT:     7.718      2.849      9.806
REMARK INTER + INTRA:          18.441
REMARK INTER:                  19.605
REMARK INTRA:                  -1.164
REMARK UNBOUND:                -1.685
REMARK SMILES CCCCCCCCCCCCCCCCCCCCCCCCCCCCCO
REMARK SMILES IDX 16 1 15 2 14 3 13 4 12 5 11 6 10 7 9 8 8 9 7 10 6 11 5 12
REMARK SMILES IDX 4 13 3 14 2 15 1 16 17 17 18 18 19 19 20 20 21 21 22 22
REMARK SMILES IDX 23 23 24 24 25 25 26 26 27 27 28 28 29 29 30 30
REMARK H PARENT 30 31
REMARK Flexibility Score: inf
ROOT
ATOM      1  C   UNL     1      34.953 -16.951 -33.249  1.00  0.00     0.000 C 
ENDROOT
BRANCH   1   2
ATOM      2  C   UNL     1      36.452 -16.747 -32.971  1.00  0.00     0.000 C 
BRANCH   2   3
ATOM      3  C   UNL     1      37.001 -17.760 -31.943  1.00  0.00     0.000 C 
BRANCH   3   4
ATOM      4  C   UNL     1      37.119 -17.196 -30.516  1.00  0.00     0.000 C 
BRANCH   4   5
ATOM      5  C   UNL     1      37.100 -18.289 -29.437  1.00  0.00     0.000 C 
BRANCH   5   6
ATOM      6  C   UNL     1      36.207 -19.483 -29.808  1.00  0.00     0.000 C 
BRANCH   6   7
ATOM      7  C   UNL     1      34.900 -19.062 -30.505  1.00  0.00     0.000 C 
BRANCH   7   8
ATOM      8  C   UNL     1      34.058 -20.277 -30.936  1.00  0.00    -0.000 C 
BRANCH   8   9
ATOM      9  C   UNL     1      32.639 -19.871 -31.374  1.00  0.00    -0.000 C 
BRANCH   9  10
ATOM     10  C   UNL     1      31.584 -20.052 -30.259  1.00  0.00    -0.000 C 
BRANCH  10  11
ATOM     11  C   UNL     1      30.934 -18.736 -29.793  1.00  0.00    -0.000 C 
BRANCH  11  12
ATOM     12  C   UNL     1      31.357 -18.270 -28.389  1.00  0.00    -0.000 C 
BRANCH  12  13
ATOM     13  C   UNL     1      32.594 -19.017 -27.838  1.00  0.00    -0.000 C 
BRANCH  13  14
ATOM     14  C   UNL     1      33.829 -18.105 -27.730  1.00  0.00    -0.000 C 
BRANCH  14  15
ATOM     15  C   UNL     1      33.648 -16.775 -28.481  1.00  0.00    -0.003 C 
ATOM     16  C   UNL     1      34.745 -15.760 -28.160  1.00  0.00     0.004 C 
ENDBRANCH  14  15
ENDBRANCH  13  14
ENDBRANCH  12  13
ENDBRANCH  11  12
ENDBRANCH  10  11
ENDBRANCH   9  10
ENDBRANCH   8   9
ENDBRANCH   7   8
ENDBRANCH   6   7
ENDBRANCH   5   6
ENDBRANCH   4   5
ENDBRANCH   3   4
ENDBRANCH   2   3
ENDBRANCH   1   2
BRANCH   1  17
ATOM     17  C   UNL     1      34.462 -16.015 -34.362  1.00  0.00     0.000 C 
BRANCH  17  18
ATOM     18  C   UNL     1      32.995 -16.259 -34.758  1.00  0.00     0.000 C 
BRANCH  18  19
ATOM     19  C   UNL     1      32.815 -16.946 -36.127  1.00  0.00     0.000 C 
BRANCH  19  20
ATOM     20  C   UNL     1      33.128 -16.010 -37.310  1.00  0.00     0.000 C 
BRANCH  20  21
ATOM     21  C   UNL     1      32.234 -14.760 -37.327  1.00  0.00     0.000 C 
BRANCH  21  22
ATOM     22  C   UNL     1      31.339 -14.685 -38.577  1.00  0.00     0.000 C 
BRANCH  22  23
ATOM     23  C   UNL     1      30.504 -13.392 -38.644  1.00  0.00     0.000 C 
BRANCH  23  24
ATOM     24  C   UNL     1      29.634 -13.108 -37.404  1.00  0.00     0.000 C 
BRANCH  24  25
ATOM     25  C   UNL     1      29.813 -11.682 -36.856  1.00  0.00     0.000 C 
BRANCH  25  26
ATOM     26  C   UNL     1      29.802 -10.610 -37.963  1.00  0.00     0.000 C 
BRANCH  26  27
ATOM     27  C   UNL     1      29.761  -9.154 -37.463  1.00  0.00     0.002 C 
BRANCH  27  28
ATOM     28  C   UNL     1      29.551  -9.044 -35.944  1.00  0.00     0.028 C 
BRANCH  28  29
ATOM     29  C   UNL     1      30.884  -9.067 -35.186  1.00  0.00     0.156 C 
BRANCH  29  30
ATOM     30  O   UNL     1      30.974 -10.201 -34.365  1.00  0.00    -0.396 OA
ATOM     31  H   UNL     1      31.846 -10.630 -34.572  1.00  0.00     0.210 HD
ENDBRANCH  29  30
ENDBRANCH  28  29
ENDBRANCH  27  28
ENDBRANCH  26  27
ENDBRANCH  25  26
ENDBRANCH  24  25
ENDBRANCH  23  24
ENDBRANCH  22  23
ENDBRANCH  21  22
ENDBRANCH  20  21
ENDBRANCH  19  20
ENDBRANCH  18  19
ENDBRANCH  17  18
ENDBRANCH   1  17
TORSDOF 28
ENDMDL
MODEL 8
REMARK VINA RESULT:     7.919      1.513      3.974
REMARK INTER + INTRA:          18.966
REMARK INTER:                  19.077
REMARK INTRA:                  -0.111
REMARK UNBOUND:                -1.685
REMARK SMILES CCCCCCCCCCCCCCCCCCCCCCCCCCCCCO
REMARK SMILES IDX 16 1 15 2 14 3 13 4 12 5 11 6 10 7 9 8 8 9 7 10 6 11 5 12
REMARK SMILES IDX 4 13 3 14 2 15 1 16 17 17 18 18 19 19 20 20 21 21 22 22
REMARK SMILES IDX 23 23 24 24 25 25 26 26 27 27 28 28 29 29 30 30
REMARK H PARENT 30 31
REMARK Flexibility Score: inf
ROOT
ATOM      1  C   UNL     1      37.765 -17.729 -31.160  1.00  0.00     0.000 C 
ENDROOT
BRANCH   1   2
ATOM      2  C   UNL     1      36.636 -18.061 -32.150  1.00  0.00     0.000 C 
BRANCH   2   3
ATOM      3  C   UNL     1      36.126 -16.811 -32.899  1.00  0.00     0.000 C 
BRANCH   3   4
ATOM      4  C   UNL     1      34.701 -16.960 -33.458  1.00  0.00     0.000 C 
BRANCH   4   5
ATOM      5  C   UNL     1      34.305 -15.814 -34.403  1.00  0.00     0.000 C 
BRANCH   5   6
ATOM      6  C   UNL     1      33.012 -16.099 -35.182  1.00  0.00     0.000 C 
BRANCH   6   7
ATOM      7  C   UNL     1      33.272 -16.616 -36.610  1.00  0.00     0.000 C 
BRANCH   7   8
ATOM      8  C   UNL     1      32.576 -15.749 -37.674  1.00  0.00    -0.000 C 
BRANCH   8   9
ATOM      9  C   UNL     1      31.826 -14.559 -37.050  1.00  0.00    -0.000 C 
BRANCH   9  10
ATOM     10  C   UNL     1      30.893 -13.837 -38.049  1.00  0.00    -0.000 C 
BRANCH  10  11
ATOM     11  C   UNL     1      30.124 -12.649 -37.441  1.00  0.00    -0.000 C 
BRANCH  11  12
ATOM     12  C   UNL     1      30.171 -11.357 -38.276  1.00  0.00    -0.000 C 
BRANCH  12  13
ATOM     13  C   UNL     1      29.272 -10.229 -37.719  1.00  0.00    -0.000 C 
BRANCH  13  14
ATOM     14  C   UNL     1      30.084  -9.118 -37.031  1.00  0.00    -0.000 C 
BRANCH  14  15
ATOM     15  C   UNL     1      29.897  -9.107 -35.505  1.00  0.00    -0.003 C 
ATOM     16  C   UNL     1      30.629 -10.254 -34.810  1.00  0.00     0.004 C 
ENDBRANCH  14  15
ENDBRANCH  13  14
ENDBRANCH  12  13
ENDBRANCH  11  12
ENDBRANCH  10  11
ENDBRANCH   9  10
ENDBRANCH   8   9
ENDBRANCH   7   8
ENDBRANCH   6   7
ENDBRANCH   5   6
ENDBRANCH   4   5
ENDBRANCH   3   4
ENDBRANCH   2   3
ENDBRANCH   1   2
BRANCH   1  17
ATOM     17  C   UNL     1      37.744 -18.678 -29.954  1.00  0.00     0.000 C 
BRANCH  17  18
ATOM     18  C   UNL     1      36.328 -19.149 -29.578  1.00  0.00     0.000 C 
BRANCH  18  19
ATOM     19  C   UNL     1      35.586 -18.211 -28.605  1.00  0.00     0.000 C 
BRANCH  19  20
ATOM     20  C   UNL     1      35.808 -16.721 -28.926  1.00  0.00     0.000 C 
BRANCH  20  21
ATOM     21  C   UNL     1      34.532 -15.883 -28.753  1.00  0.00     0.000 C 
BRANCH  21  22
ATOM     22  C   UNL     1      33.601 -16.435 -27.658  1.00  0.00     0.000 C 
BRANCH  22  23
ATOM     23  C   UNL     1      32.455 -17.298 -28.218  1.00  0.00     0.000 C 
BRANCH  23  24
ATOM     24  C   UNL     1      32.671 -18.820 -28.117  1.00  0.00     0.000 C 
BRANCH  24  25
ATOM     25  C   UNL     1      31.357 -19.608 -27.980  1.00  0.00     0.000 C 
BRANCH  25  26
ATOM     26  C   UNL     1      30.625 -19.788 -29.324  1.00  0.00     0.000 C 
BRANCH  26  27
ATOM     27  C   UNL     1      31.496 -20.315 -30.479  1.00  0.00     0.002 C 
BRANCH  27  28
ATOM     28  C   UNL     1      32.600 -19.329 -30.898  1.00  0.00     0.028 C 
BRANCH  28  29
ATOM     29  C   UNL     1      33.887 -20.059 -31.299  1.00  0.00     0.156 C 
BRANCH  29  30
ATOM     30  O   UNL     1      33.802 -20.539 -32.615  1.00  0.00    -0.396 OA
ATOM     31  H   UNL     1      34.114 -21.481 -32.592  1.00  0.00     0.210 HD
ENDBRANCH  29  30
ENDBRANCH  28  29
ENDBRANCH  27  28
ENDBRANCH  26  27
ENDBRANCH  25  26
ENDBRANCH  24  25
ENDBRANCH  23  24
ENDBRANCH  22  23
ENDBRANCH  21  22
ENDBRANCH  20  21
ENDBRANCH  19  20
ENDBRANCH  18  19
ENDBRANCH  17  18
ENDBRANCH   1  17
TORSDOF 28
ENDMDL
MODEL 9
REMARK VINA RESULT:     8.019      1.213      1.983
REMARK INTER + INTRA:          19.226
REMARK INTER:                  21.224
REMARK INTRA:                  -1.997
REMARK UNBOUND:                -1.685
REMARK SMILES CCCCCCCCCCCCCCCCCCCCCCCCCCCCCO
REMARK SMILES IDX 16 1 15 2 14 3 13 4 12 5 11 6 10 7 9 8 8 9 7 10 6 11 5 12
REMARK SMILES IDX 4 13 3 14 2 15 1 16 17 17 18 18 19 19 20 20 21 21 22 22
REMARK SMILES IDX 23 23 24 24 25 25 26 26 27 27 28 28 29 29 30 30
REMARK H PARENT 30 31
REMARK Flexibility Score: inf
ROOT
ATOM      1  C   UNL     1      33.704 -19.835 -32.892  1.00  0.00     0.000 C 
ENDROOT
BRANCH   1   2
ATOM      2  C   UNL     1      32.920 -20.921 -33.649  1.00  0.00     0.000 C 
BRANCH   2   3
ATOM      3  C   UNL     1      33.220 -20.913 -35.163  1.00  0.00     0.000 C 
BRANCH   3   4
ATOM      4  C   UNL     1      32.259 -20.035 -35.983  1.00  0.00     0.000 C 
BRANCH   4   5
ATOM      5  C   UNL     1      32.884 -18.697 -36.407  1.00  0.00     0.000 C 
BRANCH   5   6
ATOM      6  C   UNL     1      32.401 -17.512 -35.556  1.00  0.00     0.000 C 
BRANCH   6   7
ATOM      7  C   UNL     1      33.222 -16.231 -35.790  1.00  0.00     0.000 C 
BRANCH   7   8
ATOM      8  C   UNL     1      32.833 -15.527 -37.102  1.00  0.00    -0.000 C 
BRANCH   8   9
ATOM      9  C   UNL     1      31.857 -14.360 -36.865  1.00  0.00    -0.000 C 
BRANCH   9  10
ATOM     10  C   UNL     1      31.004 -14.020 -38.109  1.00  0.00    -0.000 C 
BRANCH  10  11
ATOM     11  C   UNL     1      29.875 -13.009 -37.836  1.00  0.00    -0.000 C 
BRANCH  11  12
ATOM     12  C   UNL     1      30.260 -11.536 -38.064  1.00  0.00    -0.000 C 
BRANCH  12  13
ATOM     13  C   UNL     1      29.285 -10.534 -37.405  1.00  0.00    -0.000 C 
BRANCH  13  14
ATOM     14  C   UNL     1      29.977  -9.218 -37.008  1.00  0.00    -0.000 C 
BRANCH  14  15
ATOM     15  C   UNL     1      30.197  -9.101 -35.490  1.00  0.00    -0.003 C 
ATOM     16  C   UNL     1      30.537 -10.439 -34.836  1.00  0.00     0.004 C 
ENDBRANCH  14  15
ENDBRANCH  13  14
ENDBRANCH  12  13
ENDBRANCH  11  12
ENDBRANCH  10  11
ENDBRANCH   9  10
ENDBRANCH   8   9
ENDBRANCH   7   8
ENDBRANCH   6   7
ENDBRANCH   5   6
ENDBRANCH   4   5
ENDBRANCH   3   4
ENDBRANCH   2   3
ENDBRANCH   1   2
BRANCH   1  17
ATOM     17  C   UNL     1      33.460 -19.926 -31.379  1.00  0.00     0.000 C 
BRANCH  17  18
ATOM     18  C   UNL     1      32.013 -20.309 -31.019  1.00  0.00     0.000 C 
BRANCH  18  19
ATOM     19  C   UNL     1      31.341 -19.362 -30.005  1.00  0.00     0.000 C 
BRANCH  19  20
ATOM     20  C   UNL     1      31.349 -19.921 -28.569  1.00  0.00     0.000 C 
BRANCH  20  21
ATOM     21  C   UNL     1      32.329 -19.176 -27.650  1.00  0.00     0.000 C 
BRANCH  21  22
ATOM     22  C   UNL     1      32.846 -17.865 -28.269  1.00  0.00     0.000 C 
BRANCH  22  23
ATOM     23  C   UNL     1      34.382 -17.751 -28.247  1.00  0.00     0.000 C 
BRANCH  23  24
ATOM     24  C   UNL     1      34.934 -16.314 -28.312  1.00  0.00     0.000 C 
BRANCH  24  25
ATOM     25  C   UNL     1      35.624 -15.993 -29.647  1.00  0.00     0.000 C 
BRANCH  25  26
ATOM     26  C   UNL     1      36.866 -16.867 -29.905  1.00  0.00     0.000 C 
BRANCH  26  27
ATOM     27  C   UNL     1      36.649 -18.045 -30.873  1.00  0.00     0.002 C 
BRANCH  27  28
ATOM     28  C   UNL     1      37.910 -18.901 -31.071  1.00  0.00     0.028 C 
BRANCH  28  29
ATOM     29  C   UNL     1      38.087 -19.918 -29.937  1.00  0.00     0.156 C 
BRANCH  29  30
ATOM     30  O   UNL     1      39.098 -20.841 -30.245  1.00  0.00    -0.396 OA
ATOM     31  H   UNL     1      39.363 -20.666 -31.186  1.00  0.00     0.210 HD
ENDBRANCH  29  30
ENDBRANCH  28  29
ENDBRANCH  27  28
ENDBRANCH  26  27
ENDBRANCH  25  26
ENDBRANCH  24  25
ENDBRANCH  23  24
ENDBRANCH  22  23
ENDBRANCH  21  22
ENDBRANCH  20  21
ENDBRANCH  19  20
ENDBRANCH  18  19
ENDBRANCH  17  18
ENDBRANCH   1  17
TORSDOF 28
ENDMDL
