MODEL 1
REMARK VINA RESULT:    -6.143      0.000      0.000
REMARK INTER + INTRA:          -7.685
REMARK INTER:                  -7.400
REMARK INTRA:                  -0.285
REMARK UNBOUND:                -0.285
REMARK SMILES O=c1c(O)c(-c2ccc(O)c(O)c2)oc2cc(O)cc(O)c12
REMARK SMILES IDX 5 1 3 2 2 3 1 4 22 5 20 6 19 7 17 8 16 9 15 10 14 11 6 12
REMARK SMILES IDX 7 13 8 14 9 15 13 16 11 17 10 18 12 20 4 22 21 24 18 26
REMARK H PARENT 10 19 12 21 4 23 21 25 18 27
REMARK Flexibility Score: inf
ROOT
ATOM      1  C   UNL     1      23.838  41.451 129.353  1.00  0.00     0.180 A 
ATOM      2  C   UNL     1      25.064  41.997 129.776  1.00  0.00     0.208 A 
ATOM      3  C   UNL     1      26.211  41.186 129.763  1.00  0.00     0.238 A 
ATOM      4  O   UNL     1      27.292  41.665 130.192  1.00  0.00    -0.285 OA
ATOM      5  C   UNL     1      26.122  39.847 129.312  1.00  0.00     0.111 A 
ATOM      6  C   UNL     1      27.228  38.950 129.219  1.00  0.00     0.134 A 
ATOM      7  C   UNL     1      27.002  37.608 128.884  1.00  0.00     0.093 A 
ATOM      8  C   UNL     1      25.722  37.149 128.577  1.00  0.00     0.123 A 
ATOM      9  C   UNL     1      24.643  38.032 128.607  1.00  0.00     0.094 A 
ATOM     10  C   UNL     1      24.831  39.368 128.973  1.00  0.00     0.146 A 
ATOM     11  O   UNL     1      23.775  40.172 129.000  1.00  0.00    -0.452 OA
ENDROOT
BRANCH   1  12
ATOM     12  C   UNL     1      22.591  42.249 129.316  1.00  0.00     0.025 A 
ATOM     13  C   UNL     1      22.360  43.196 128.303  1.00  0.00     0.016 A 
ATOM     14  C   UNL     1      21.164  43.919 128.273  1.00  0.00     0.051 A 
ATOM     15  C   UNL     1      20.181  43.700 129.246  1.00  0.00     0.157 A 
ATOM     16  C   UNL     1      21.593  42.018 130.276  1.00  0.00     0.062 A 
ATOM     17  C   UNL     1      20.395  42.741 130.250  1.00  0.00     0.158 A 
BRANCH  15  18
ATOM     18  O   UNL     1      18.990  44.426 129.215  1.00  0.00    -0.504 OA
ATOM     19  H   UNL     1      18.981  45.433 129.321  1.00  0.00     0.293 HD
ENDBRANCH  15  18
BRANCH  17  20
ATOM     20  O   UNL     1      19.433  42.494 131.228  1.00  0.00    -0.504 OA
ATOM     21  H   UNL     1      19.678  42.351 132.200  1.00  0.00     0.293 HD
ENDBRANCH  17  20
ENDBRANCH   1  12
BRANCH   2  22
ATOM     22  O   UNL     1      25.123  43.314 130.237  1.00  0.00    -0.502 OA
ATOM     23  H   UNL     1      25.287  44.100 129.618  1.00  0.00     0.293 HD
ENDBRANCH   2  22
BRANCH   6  24
ATOM     24  O   UNL     1      28.559  39.328 129.416  1.00  0.00    -0.507 OA
ATOM     25  H   UNL     1      29.103  39.876 128.766  1.00  0.00     0.293 HD
ENDBRANCH   6  24
BRANCH   8  26
ATOM     26  O   UNL     1      25.537  35.812 128.232  1.00  0.00    -0.508 OA
ATOM     27  H   UNL     1      25.739  35.064 128.886  1.00  0.00     0.293 HD
ENDBRANCH   8  26
TORSDOF 6
ENDMDL
MODEL 2
REMARK VINA RESULT:    -6.122      2.927      7.954
REMARK INTER + INTRA:          -7.659
REMARK INTER:                  -7.342
REMARK INTRA:                  -0.317
REMARK UNBOUND:                -0.285
REMARK SMILES O=c1c(O)c(-c2ccc(O)c(O)c2)oc2cc(O)cc(O)c12
REMARK SMILES IDX 5 1 3 2 2 3 1 4 22 5 20 6 19 7 17 8 16 9 15 10 14 11 6 12
REMARK SMILES IDX 7 13 8 14 9 15 13 16 11 17 10 18 12 20 4 22 21 24 18 26
REMARK H PARENT 10 19 12 21 4 23 21 25 18 27
REMARK Flexibility Score: inf
ROOT
ATOM      1  C   UNL     1      21.544  43.611 130.935  1.00  0.00     0.180 A 
ATOM      2  C   UNL     1      21.712  43.929 132.295  1.00  0.00     0.208 A 
ATOM      3  C   UNL     1      20.607  44.386 133.029  1.00  0.00     0.238 A 
ATOM      4  O   UNL     1      20.777  44.719 134.231  1.00  0.00    -0.285 OA
ATOM      5  C   UNL     1      19.343  44.504 132.402  1.00  0.00     0.111 A 
ATOM      6  C   UNL     1      18.147  44.918 133.061  1.00  0.00     0.134 A 
ATOM      7  C   UNL     1      16.982  45.125 132.312  1.00  0.00     0.093 A 
ATOM      8  C   UNL     1      16.953  44.871 130.941  1.00  0.00     0.123 A 
ATOM      9  C   UNL     1      18.101  44.409 130.297  1.00  0.00     0.094 A 
ATOM     10  C   UNL     1      19.289  44.227 131.011  1.00  0.00     0.146 A 
ATOM     11  O   UNL     1      20.361  43.796 130.359  1.00  0.00    -0.452 OA
ENDROOT
BRANCH   1  12
ATOM     12  C   UNL     1      22.656  43.101 130.101  1.00  0.00     0.025 A 
ATOM     13  C   UNL     1      23.024  41.744 130.125  1.00  0.00     0.016 A 
ATOM     14  C   UNL     1      24.061  41.280 129.310  1.00  0.00     0.051 A 
ATOM     15  C   UNL     1      24.734  42.159 128.453  1.00  0.00     0.157 A 
ATOM     16  C   UNL     1      23.320  43.974 129.224  1.00  0.00     0.062 A 
ATOM     17  C   UNL     1      24.359  43.512 128.408  1.00  0.00     0.158 A 
BRANCH  15  18
ATOM     18  O   UNL     1      25.770  41.694 127.644  1.00  0.00    -0.504 OA
ATOM     19  H   UNL     1      26.190  40.783 127.791  1.00  0.00     0.293 HD
ENDBRANCH  15  18
BRANCH  17  20
ATOM     20  O   UNL     1      25.005  44.412 127.559  1.00  0.00    -0.504 OA
ATOM     21  H   UNL     1      25.536  44.105 126.755  1.00  0.00     0.293 HD
ENDBRANCH  17  20
ENDBRANCH   1  12
BRANCH   2  22
ATOM     22  O   UNL     1      22.973  43.825 132.888  1.00  0.00    -0.502 OA
ATOM     23  H   UNL     1      23.703  43.232 132.512  1.00  0.00     0.293 HD
ENDBRANCH   2  22
BRANCH   6  24
ATOM     24  O   UNL     1      18.043  45.112 134.441  1.00  0.00    -0.507 OA
ATOM     25  H   UNL     1      18.707  45.626 135.001  1.00  0.00     0.293 HD
ENDBRANCH   6  24
BRANCH   8  26
ATOM     26  O   UNL     1      15.772  45.072 130.230  1.00  0.00    -0.508 OA
ATOM     27  H   UNL     1      15.320  44.316 129.729  1.00  0.00     0.293 HD
ENDBRANCH   8  26
TORSDOF 6
ENDMDL
MODEL 3
REMARK VINA RESULT:    -5.948      1.783      2.037
REMARK INTER + INTRA:          -7.450
REMARK INTER:                  -7.503
REMARK INTRA:                   0.053
REMARK UNBOUND:                -0.285
REMARK SMILES O=c1c(O)c(-c2ccc(O)c(O)c2)oc2cc(O)cc(O)c12
REMARK SMILES IDX 5 1 3 2 2 3 1 4 22 5 20 6 19 7 17 8 16 9 15 10 14 11 6 12
REMARK SMILES IDX 7 13 8 14 9 15 13 16 11 17 10 18 12 20 4 22 21 24 18 26
REMARK H PARENT 10 19 12 21 4 23 21 25 18 27
REMARK Flexibility Score: inf
ROOT
ATOM      1  C   UNL     1      24.351  40.648 128.982  1.00  0.00     0.180 A 
ATOM      2  C   UNL     1      25.308  41.539 128.465  1.00  0.00     0.208 A 
ATOM      3  C   UNL     1      26.498  41.024 127.927  1.00  0.00     0.238 A 
ATOM      4  O   UNL     1      27.372  41.829 127.514  1.00  0.00    -0.285 OA
ATOM      5  C   UNL     1      26.710  39.624 127.897  1.00  0.00     0.111 A 
ATOM      6  C   UNL     1      27.861  38.991 127.339  1.00  0.00     0.134 A 
ATOM      7  C   UNL     1      28.025  37.607 127.482  1.00  0.00     0.093 A 
ATOM      8  C   UNL     1      27.052  36.828 128.105  1.00  0.00     0.123 A 
ATOM      9  C   UNL     1      25.895  37.429 128.601  1.00  0.00     0.094 A 
ATOM     10  C   UNL     1      25.719  38.811 128.506  1.00  0.00     0.146 A 
ATOM     11  O   UNL     1      24.609  39.345 129.001  1.00  0.00    -0.452 OA
ENDROOT
BRANCH   1  12
ATOM     12  C   UNL     1      23.062  41.113 129.544  1.00  0.00     0.025 A 
ATOM     13  C   UNL     1      21.845  40.516 129.173  1.00  0.00     0.016 A 
ATOM     14  C   UNL     1      20.643  40.956 129.734  1.00  0.00     0.051 A 
ATOM     15  C   UNL     1      20.640  41.987 130.681  1.00  0.00     0.157 A 
ATOM     16  C   UNL     1      23.056  42.133 130.510  1.00  0.00     0.062 A 
ATOM     17  C   UNL     1      21.854  42.576 131.074  1.00  0.00     0.158 A 
BRANCH  15  18
ATOM     18  O   UNL     1      19.439  42.426 131.238  1.00  0.00    -0.504 OA
ATOM     19  H   UNL     1      18.567  42.374 130.724  1.00  0.00     0.293 HD
ENDBRANCH  15  18
BRANCH  17  20
ATOM     20  O   UNL     1      21.887  43.600 132.020  1.00  0.00    -0.504 OA
ATOM     21  H   UNL     1      22.619  44.298 132.031  1.00  0.00     0.293 HD
ENDBRANCH  17  20
ENDBRANCH   1  12
BRANCH   2  22
ATOM     22  O   UNL     1      25.087  42.917 128.524  1.00  0.00    -0.502 OA
ATOM     23  H   UNL     1      25.729  43.589 128.120  1.00  0.00     0.293 HD
ENDBRANCH   2  22
BRANCH   6  24
ATOM     24  O   UNL     1      28.850  39.665 126.617  1.00  0.00    -0.507 OA
ATOM     25  H   UNL     1      29.039  40.654 126.688  1.00  0.00     0.293 HD
ENDBRANCH   6  24
BRANCH   8  26
ATOM     26  O   UNL     1      27.242  35.452 128.215  1.00  0.00    -0.508 OA
ATOM     27  H   UNL     1      26.587  34.792 127.811  1.00  0.00     0.293 HD
ENDBRANCH   8  26
TORSDOF 6
ENDMDL
MODEL 4
REMARK VINA RESULT:    -5.831     11.244     15.485
REMARK INTER + INTRA:          -7.309
REMARK INTER:                  -7.046
REMARK INTRA:                  -0.263
REMARK UNBOUND:                -0.285
REMARK SMILES O=c1c(O)c(-c2ccc(O)c(O)c2)oc2cc(O)cc(O)c12
REMARK SMILES IDX 5 1 3 2 2 3 1 4 22 5 20 6 19 7 17 8 16 9 15 10 14 11 6 12
REMARK SMILES IDX 7 13 8 14 9 15 13 16 11 17 10 18 12 20 4 22 21 24 18 26
REMARK H PARENT 10 19 12 21 4 23 21 25 18 27
REMARK Flexibility Score: inf
ROOT
ATOM      1  C   UNL     1      25.172  29.463 120.992  1.00  0.00     0.180 A 
ATOM      2  C   UNL     1      23.814  29.186 120.753  1.00  0.00     0.208 A 
ATOM      3  C   UNL     1      22.928  30.254 120.543  1.00  0.00     0.238 A 
ATOM      4  O   UNL     1      21.706  30.001 120.383  1.00  0.00    -0.285 OA
ATOM      5  C   UNL     1      23.412  31.585 120.556  1.00  0.00     0.111 A 
ATOM      6  C   UNL     1      22.609  32.741 120.315  1.00  0.00     0.134 A 
ATOM      7  C   UNL     1      23.167  34.015 120.483  1.00  0.00     0.093 A 
ATOM      8  C   UNL     1      24.511  34.174 120.820  1.00  0.00     0.123 A 
ATOM      9  C   UNL     1      25.318  33.051 121.000  1.00  0.00     0.094 A 
ATOM     10  C   UNL     1      24.782  31.766 120.875  1.00  0.00     0.146 A 
ATOM     11  O   UNL     1      25.583  30.725 121.065  1.00  0.00    -0.452 OA
ENDROOT
BRANCH   1  12
ATOM     12  C   UNL     1      26.172  28.390 121.199  1.00  0.00     0.025 A 
ATOM     13  C   UNL     1      26.615  27.589 120.132  1.00  0.00     0.016 A 
ATOM     14  C   UNL     1      27.578  26.599 120.346  1.00  0.00     0.051 A 
ATOM     15  C   UNL     1      28.118  26.402 121.623  1.00  0.00     0.157 A 
ATOM     16  C   UNL     1      26.732  28.203 122.472  1.00  0.00     0.062 A 
ATOM     17  C   UNL     1      27.695  27.212 122.691  1.00  0.00     0.158 A 
BRANCH  15  18
ATOM     18  O   UNL     1      29.076  25.411 121.834  1.00  0.00    -0.504 OA
ATOM     19  H   UNL     1      29.189  24.967 122.738  1.00  0.00     0.293 HD
ENDBRANCH  15  18
BRANCH  17  20
ATOM     20  O   UNL     1      28.220  27.046 123.973  1.00  0.00    -0.504 OA
ATOM     21  H   UNL     1      28.719  27.787 124.449  1.00  0.00     0.293 HD
ENDBRANCH  17  20
ENDBRANCH   1  12
BRANCH   2  22
ATOM     22  O   UNL     1      23.355  27.866 120.765  1.00  0.00    -0.502 OA
ATOM     23  H   UNL     1      23.973  27.075 120.633  1.00  0.00     0.293 HD
ENDBRANCH   2  22
BRANCH   6  24
ATOM     24  O   UNL     1      21.281  32.693 119.885  1.00  0.00    -0.507 OA
ATOM     25  H   UNL     1      20.634  31.948 120.099  1.00  0.00     0.293 HD
ENDBRANCH   6  24
BRANCH   8  26
ATOM     26  O   UNL     1      25.035  35.457 120.963  1.00  0.00    -0.508 OA
ATOM     27  H   UNL     1      25.045  36.114 120.192  1.00  0.00     0.293 HD
ENDBRANCH   8  26
TORSDOF 6
ENDMDL
MODEL 5
REMARK VINA RESULT:    -5.779     11.549     13.119
REMARK INTER + INTRA:          -7.246
REMARK INTER:                  -7.090
REMARK INTRA:                  -0.156
REMARK UNBOUND:                -0.285
REMARK SMILES O=c1c(O)c(-c2ccc(O)c(O)c2)oc2cc(O)cc(O)c12
REMARK SMILES IDX 5 1 3 2 2 3 1 4 22 5 20 6 19 7 17 8 16 9 15 10 14 11 6 12
REMARK SMILES IDX 7 13 8 14 9 15 13 16 11 17 10 18 12 20 4 22 21 24 18 26
REMARK H PARENT 10 19 12 21 4 23 21 25 18 27
REMARK Flexibility Score: inf
ROOT
ATOM      1  C   UNL     1      14.653  35.779 122.856  1.00  0.00     0.180 A 
ATOM      2  C   UNL     1      15.136  34.930 121.845  1.00  0.00     0.208 A 
ATOM      3  C   UNL     1      16.193  35.370 121.033  1.00  0.00     0.238 A 
ATOM      4  O   UNL     1      16.585  34.627 120.096  1.00  0.00    -0.285 OA
ATOM      5  C   UNL     1      16.765  36.647 121.252  1.00  0.00     0.111 A 
ATOM      6  C   UNL     1      17.866  37.178 120.514  1.00  0.00     0.134 A 
ATOM      7  C   UNL     1      18.266  38.503 120.729  1.00  0.00     0.093 A 
ATOM      8  C   UNL     1      17.647  39.294 121.696  1.00  0.00     0.123 A 
ATOM      9  C   UNL     1      16.609  38.765 122.463  1.00  0.00     0.094 A 
ATOM     10  C   UNL     1      16.164  37.458 122.248  1.00  0.00     0.146 A 
ATOM     11  O   UNL     1      15.166  36.997 122.993  1.00  0.00    -0.452 OA
ENDROOT
BRANCH   1  12
ATOM     12  C   UNL     1      13.558  35.376 123.768  1.00  0.00     0.025 A 
ATOM     13  C   UNL     1      13.771  35.243 125.151  1.00  0.00     0.016 A 
ATOM     14  C   UNL     1      12.716  34.885 125.996  1.00  0.00     0.051 A 
ATOM     15  C   UNL     1      11.435  34.669 125.475  1.00  0.00     0.157 A 
ATOM     16  C   UNL     1      12.267  35.179 123.253  1.00  0.00     0.062 A 
ATOM     17  C   UNL     1      11.209  34.820 124.097  1.00  0.00     0.158 A 
BRANCH  15  18
ATOM     18  O   UNL     1      10.385  34.309 126.320  1.00  0.00    -0.504 OA
ATOM     19  H   UNL     1       9.968  34.975 126.960  1.00  0.00     0.293 HD
ENDBRANCH  15  18
BRANCH  17  20
ATOM     20  O   UNL     1       9.942  34.618 123.547  1.00  0.00    -0.504 OA
ATOM     21  H   UNL     1       9.102  34.647 124.110  1.00  0.00     0.293 HD
ENDBRANCH  17  20
ENDBRANCH   1  12
BRANCH   2  22
ATOM     22  O   UNL     1      14.542  33.683 121.634  1.00  0.00    -0.502 OA
ATOM     23  H   UNL     1      13.569  33.582 121.372  1.00  0.00     0.293 HD
ENDBRANCH   2  22
BRANCH   6  24
ATOM     24  O   UNL     1      18.613  36.443 119.589  1.00  0.00    -0.507 OA
ATOM     25  H   UNL     1      18.576  35.440 119.488  1.00  0.00     0.293 HD
ENDBRANCH   6  24
BRANCH   8  26
ATOM     26  O   UNL     1      18.080  40.603 121.893  1.00  0.00    -0.508 OA
ATOM     27  H   UNL     1      18.729  40.840 122.635  1.00  0.00     0.293 HD
ENDBRANCH   8  26
TORSDOF 6
ENDMDL
MODEL 6
REMARK VINA RESULT:    -5.671     10.313     13.752
REMARK INTER + INTRA:          -7.117
REMARK INTER:                  -6.791
REMARK INTRA:                  -0.326
REMARK UNBOUND:                -0.285
REMARK SMILES O=c1c(O)c(-c2ccc(O)c(O)c2)oc2cc(O)cc(O)c12
REMARK SMILES IDX 5 1 3 2 2 3 1 4 22 5 20 6 19 7 17 8 16 9 15 10 14 11 6 12
REMARK SMILES IDX 7 13 8 14 9 15 13 16 11 17 10 18 12 20 4 22 21 24 18 26
REMARK H PARENT 10 19 12 21 4 23 21 25 18 27
REMARK Flexibility Score: inf
ROOT
ATOM      1  C   UNL     1      13.425  37.321 125.022  1.00  0.00     0.180 A 
ATOM      2  C   UNL     1      12.281  36.526 125.215  1.00  0.00     0.208 A 
ATOM      3  C   UNL     1      11.229  37.024 126.000  1.00  0.00     0.238 A 
ATOM      4  O   UNL     1      10.232  36.286 126.212  1.00  0.00    -0.285 OA
ATOM      5  C   UNL     1      11.325  38.317 126.569  1.00  0.00     0.111 A 
ATOM      6  C   UNL     1      10.303  38.937 127.348  1.00  0.00     0.134 A 
ATOM      7  C   UNL     1      10.559  40.166 127.970  1.00  0.00     0.093 A 
ATOM      8  C   UNL     1      11.774  40.825 127.789  1.00  0.00     0.123 A 
ATOM      9  C   UNL     1      12.758  40.256 126.981  1.00  0.00     0.094 A 
ATOM     10  C   UNL     1      12.546  39.014 126.376  1.00  0.00     0.146 A 
ATOM     11  O   UNL     1      13.513  38.502 125.624  1.00  0.00    -0.452 OA
ENDROOT
BRANCH   1  12
ATOM     12  C   UNL     1      14.564  36.875 124.188  1.00  0.00     0.025 A 
ATOM     13  C   UNL     1      14.557  37.040 122.792  1.00  0.00     0.016 A 
ATOM     14  C   UNL     1      15.654  36.634 122.027  1.00  0.00     0.051 A 
ATOM     15  C   UNL     1      16.776  36.070 122.646  1.00  0.00     0.157 A 
ATOM     16  C   UNL     1      15.701  36.328 124.805  1.00  0.00     0.062 A 
ATOM     17  C   UNL     1      16.801  35.920 124.042  1.00  0.00     0.158 A 
BRANCH  15  18
ATOM     18  O   UNL     1      17.869  35.663 121.880  1.00  0.00    -0.504 OA
ATOM     19  H   UNL     1      18.746  36.170 121.897  1.00  0.00     0.293 HD
ENDBRANCH  15  18
BRANCH  17  20
ATOM     20  O   UNL     1      17.907  35.368 124.689  1.00  0.00    -0.504 OA
ATOM     21  H   UNL     1      17.820  34.592 125.333  1.00  0.00     0.293 HD
ENDBRANCH  17  20
ENDBRANCH   1  12
BRANCH   2  22
ATOM     22  O   UNL     1      12.217  35.244 124.661  1.00  0.00    -0.502 OA
ATOM     23  H   UNL     1      11.338  34.789 124.445  1.00  0.00     0.293 HD
ENDBRANCH   2  22
BRANCH   6  24
ATOM     24  O   UNL     1       9.021  38.407 127.517  1.00  0.00    -0.507 OA
ATOM     25  H   UNL     1       8.784  37.676 128.171  1.00  0.00     0.293 HD
ENDBRANCH   6  24
BRANCH   8  26
ATOM     26  O   UNL     1      11.988  42.054 128.410  1.00  0.00    -0.508 OA
ATOM     27  H   UNL     1      11.237  42.724 128.532  1.00  0.00     0.293 HD
ENDBRANCH   8  26
TORSDOF 6
ENDMDL
MODEL 7
REMARK VINA RESULT:    -5.536      5.382      8.505
REMARK INTER + INTRA:          -6.954
REMARK INTER:                  -6.631
REMARK INTRA:                  -0.323
REMARK UNBOUND:                -0.285
REMARK SMILES O=c1c(O)c(-c2ccc(O)c(O)c2)oc2cc(O)cc(O)c12
REMARK SMILES IDX 5 1 3 2 2 3 1 4 22 5 20 6 19 7 17 8 16 9 15 10 14 11 6 12
REMARK SMILES IDX 7 13 8 14 9 15 13 16 11 17 10 18 12 20 4 22 21 24 18 26
REMARK H PARENT 10 19 12 21 4 23 21 25 18 27
REMARK Flexibility Score: inf
ROOT
ATOM      1  C   UNL     1      26.743  37.131 124.238  1.00  0.00     0.180 A 
ATOM      2  C   UNL     1      27.683  38.140 124.513  1.00  0.00     0.208 A 
ATOM      3  C   UNL     1      27.880  38.542 125.844  1.00  0.00     0.238 A 
ATOM      4  O   UNL     1      28.684  39.482 126.077  1.00  0.00    -0.285 OA
ATOM      5  C   UNL     1      27.150  37.919 126.884  1.00  0.00     0.111 A 
ATOM      6  C   UNL     1      27.300  38.220 128.272  1.00  0.00     0.134 A 
ATOM      7  C   UNL     1      26.432  37.635 129.202  1.00  0.00     0.093 A 
ATOM      8  C   UNL     1      25.464  36.714 128.804  1.00  0.00     0.123 A 
ATOM      9  C   UNL     1      25.348  36.369 127.458  1.00  0.00     0.094 A 
ATOM     10  C   UNL     1      26.176  36.962 126.501  1.00  0.00     0.146 A 
ATOM     11  O   UNL     1      26.025  36.613 125.229  1.00  0.00    -0.452 OA
ENDROOT
BRANCH   1  12
ATOM     12  C   UNL     1      26.496  36.636 122.864  1.00  0.00     0.025 A 
ATOM     13  C   UNL     1      25.539  37.240 122.031  1.00  0.00     0.016 A 
ATOM     14  C   UNL     1      25.340  36.772 120.729  1.00  0.00     0.051 A 
ATOM     15  C   UNL     1      26.102  35.704 120.238  1.00  0.00     0.157 A 
ATOM     16  C   UNL     1      27.272  35.580 122.360  1.00  0.00     0.062 A 
ATOM     17  C   UNL     1      27.076  35.108 121.057  1.00  0.00     0.158 A 
BRANCH  15  18
ATOM     18  O   UNL     1      25.900  35.238 118.939  1.00  0.00    -0.504 OA
ATOM     19  H   UNL     1      25.569  34.297 118.760  1.00  0.00     0.293 HD
ENDBRANCH  15  18
BRANCH  17  20
ATOM     20  O   UNL     1      27.856  34.049 120.595  1.00  0.00    -0.504 OA
ATOM     21  H   UNL     1      27.447  33.214 120.194  1.00  0.00     0.293 HD
ENDBRANCH  17  20
ENDBRANCH   1  12
BRANCH   2  22
ATOM     22  O   UNL     1      28.377  38.756 123.468  1.00  0.00    -0.502 OA
ATOM     23  H   UNL     1      29.047  38.258 122.894  1.00  0.00     0.293 HD
ENDBRANCH   2  22
BRANCH   6  24
ATOM     24  O   UNL     1      28.294  39.057 128.786  1.00  0.00    -0.507 OA
ATOM     25  H   UNL     1      28.700  39.838 128.292  1.00  0.00     0.293 HD
ENDBRANCH   6  24
BRANCH   8  26
ATOM     26  O   UNL     1      24.628  36.141 129.760  1.00  0.00    -0.508 OA
ATOM     27  H   UNL     1      23.969  35.409 129.517  1.00  0.00     0.293 HD
ENDBRANCH   8  26
TORSDOF 6
ENDMDL
MODEL 8
REMARK VINA RESULT:    -5.513      5.585      8.564
REMARK INTER + INTRA:          -6.926
REMARK INTER:                  -6.605
REMARK INTRA:                  -0.321
REMARK UNBOUND:                -0.285
REMARK SMILES O=c1c(O)c(-c2ccc(O)c(O)c2)oc2cc(O)cc(O)c12
REMARK SMILES IDX 5 1 3 2 2 3 1 4 22 5 20 6 19 7 17 8 16 9 15 10 14 11 6 12
REMARK SMILES IDX 7 13 8 14 9 15 13 16 11 17 10 18 12 20 4 22 21 24 18 26
REMARK H PARENT 10 19 12 21 4 23 21 25 18 27
REMARK Flexibility Score: inf
ROOT
ATOM      1  C   UNL     1      27.388  37.535 124.890  1.00  0.00     0.180 A 
ATOM      2  C   UNL     1      27.453  36.563 125.905  1.00  0.00     0.208 A 
ATOM      3  C   UNL     1      27.735  36.969 127.219  1.00  0.00     0.238 A 
ATOM      4  O   UNL     1      27.844  36.089 128.112  1.00  0.00    -0.285 OA
ATOM      5  C   UNL     1      27.930  38.341 127.507  1.00  0.00     0.111 A 
ATOM      6  C   UNL     1      28.181  38.868 128.810  1.00  0.00     0.134 A 
ATOM      7  C   UNL     1      28.490  40.226 128.957  1.00  0.00     0.093 A 
ATOM      8  C   UNL     1      28.493  41.087 127.860  1.00  0.00     0.123 A 
ATOM      9  C   UNL     1      28.191  40.594 126.591  1.00  0.00     0.094 A 
ATOM     10  C   UNL     1      27.914  39.237 126.406  1.00  0.00     0.146 A 
ATOM     11  O   UNL     1      27.643  38.806 125.180  1.00  0.00    -0.452 OA
ENDROOT
BRANCH   1  12
ATOM     12  C   UNL     1      27.072  37.189 123.485  1.00  0.00     0.025 A 
ATOM     13  C   UNL     1      25.759  37.267 122.990  1.00  0.00     0.016 A 
ATOM     14  C   UNL     1      25.489  36.959 121.654  1.00  0.00     0.051 A 
ATOM     15  C   UNL     1      26.526  36.580 120.792  1.00  0.00     0.157 A 
ATOM     16  C   UNL     1      28.112  36.829 122.612  1.00  0.00     0.062 A 
ATOM     17  C   UNL     1      27.844  36.519 121.273  1.00  0.00     0.158 A 
BRANCH  15  18
ATOM     18  O   UNL     1      26.253  36.271 119.460  1.00  0.00    -0.504 OA
ATOM     19  H   UNL     1      25.849  35.380 119.195  1.00  0.00     0.293 HD
ENDBRANCH  15  18
BRANCH  17  20
ATOM     20  O   UNL     1      28.900  36.152 120.439  1.00  0.00    -0.504 OA
ATOM     21  H   UNL     1      28.747  35.794 119.505  1.00  0.00     0.293 HD
ENDBRANCH  17  20
ENDBRANCH   1  12
BRANCH   2  22
ATOM     22  O   UNL     1      27.278  35.212 125.594  1.00  0.00    -0.502 OA
ATOM     23  H   UNL     1      26.437  34.862 125.151  1.00  0.00     0.293 HD
ENDBRANCH   2  22
BRANCH   6  24
ATOM     24  O   UNL     1      28.113  38.113 129.983  1.00  0.00    -0.507 OA
ATOM     25  H   UNL     1      27.264  37.726 130.369  1.00  0.00     0.293 HD
ENDBRANCH   6  24
BRANCH   8  26
ATOM     26  O   UNL     1      28.789  42.436 128.047  1.00  0.00    -0.508 OA
ATOM     27  H   UNL     1      29.738  42.785 127.978  1.00  0.00     0.293 HD
ENDBRANCH   8  26
TORSDOF 6
ENDMDL
MODEL 9
REMARK VINA RESULT:    -5.482     10.651     13.193
REMARK INTER + INTRA:          -6.889
REMARK INTER:                  -6.706
REMARK INTRA:                  -0.183
REMARK UNBOUND:                -0.285
REMARK SMILES O=c1c(O)c(-c2ccc(O)c(O)c2)oc2cc(O)cc(O)c12
REMARK SMILES IDX 5 1 3 2 2 3 1 4 22 5 20 6 19 7 17 8 16 9 15 10 14 11 6 12
REMARK SMILES IDX 7 13 8 14 9 15 13 16 11 17 10 18 12 20 4 22 21 24 18 26
REMARK H PARENT 10 19 12 21 4 23 21 25 18 27
REMARK Flexibility Score: inf
ROOT
ATOM      1  C   UNL     1      14.602  36.790 123.773  1.00  0.00     0.180 A 
ATOM      2  C   UNL     1      14.006  36.169 124.885  1.00  0.00     0.208 A 
ATOM      3  C   UNL     1      13.548  36.967 125.945  1.00  0.00     0.238 A 
ATOM      4  O   UNL     1      13.064  36.402 126.960  1.00  0.00    -0.285 OA
ATOM      5  C   UNL     1      13.675  38.375 125.874  1.00  0.00     0.111 A 
ATOM      6  C   UNL     1      13.208  39.282 126.873  1.00  0.00     0.134 A 
ATOM      7  C   UNL     1      13.504  40.647 126.759  1.00  0.00     0.093 A 
ATOM      8  C   UNL     1      14.192  41.144 125.652  1.00  0.00     0.123 A 
ATOM      9  C   UNL     1      14.601  40.274 124.642  1.00  0.00     0.094 A 
ATOM     10  C   UNL     1      14.352  38.903 124.744  1.00  0.00     0.146 A 
ATOM     11  O   UNL     1      14.767  38.108 123.765  1.00  0.00    -0.452 OA
ENDROOT
BRANCH   1  12
ATOM     12  C   UNL     1      15.088  36.019 122.605  1.00  0.00     0.025 A 
ATOM     13  C   UNL     1      14.205  35.280 121.798  1.00  0.00     0.016 A 
ATOM     14  C   UNL     1      14.682  34.580 120.687  1.00  0.00     0.051 A 
ATOM     15  C   UNL     1      16.043  34.617 120.360  1.00  0.00     0.157 A 
ATOM     16  C   UNL     1      16.448  36.069 122.260  1.00  0.00     0.062 A 
ATOM     17  C   UNL     1      16.930  35.368 121.149  1.00  0.00     0.158 A 
BRANCH  15  18
ATOM     18  O   UNL     1      16.517  33.914 119.252  1.00  0.00    -0.504 OA
ATOM     19  H   UNL     1      16.636  32.908 119.273  1.00  0.00     0.293 HD
ENDBRANCH  15  18
BRANCH  17  20
ATOM     20  O   UNL     1      18.290  35.431 120.845  1.00  0.00    -0.504 OA
ATOM     21  H   UNL     1      18.874  36.200 121.151  1.00  0.00     0.293 HD
ENDBRANCH  17  20
ENDBRANCH   1  12
BRANCH   2  22
ATOM     22  O   UNL     1      13.911  34.777 124.943  1.00  0.00    -0.502 OA
ATOM     23  H   UNL     1      13.042  34.300 125.153  1.00  0.00     0.293 HD
ENDBRANCH   2  22
BRANCH   6  24
ATOM     24  O   UNL     1      12.433  38.902 127.972  1.00  0.00    -0.507 OA
ATOM     25  H   UNL     1      12.163  37.953 128.183  1.00  0.00     0.293 HD
ENDBRANCH   6  24
BRANCH   8  26
ATOM     26  O   UNL     1      14.456  42.509 125.565  1.00  0.00    -0.508 OA
ATOM     27  H   UNL     1      13.818  43.143 125.096  1.00  0.00     0.293 HD
ENDBRANCH   8  26
TORSDOF 6
ENDMDL
