MODEL 1
REMARK VINA RESULT:    -3.884      0.000      0.000
REMARK INTER + INTRA:          -4.611
REMARK INTER:                  -4.565
REMARK INTRA:                  -0.046
REMARK UNBOUND:                -0.046
REMARK SMILES CCCCC(=O)[O-]
REMARK SMILES IDX 4 1 5 2 6 3 7 4 3 5 2 6 1 7
REMARK H PARENT
REMARK Flexibility Score: inf
ROOT
ATOM      1  C   UNL     1       0.488   7.216  20.663  1.00  0.00     0.053 C 
ENDROOT
BRANCH   1   2
ATOM      2  C   UNL     1       1.084   8.193  19.696  1.00  0.00     0.041 C 
ATOM      3  O   UNL     1       0.684   8.228  18.503  1.00  0.00    -0.550 OA
ATOM      4  O   UNL     1       2.105   9.043  20.105  1.00  0.00    -0.550 OA
ENDBRANCH   1   2
BRANCH   1   5
ATOM      5  C   UNL     1       1.475   6.845  21.777  1.00  0.00     0.006 C 
BRANCH   5   6
ATOM      6  C   UNL     1       0.761   6.399  23.062  1.00  0.00    -0.003 C 
ATOM      7  C   UNL     1      -0.747   6.607  22.953  1.00  0.00     0.004 C 
ENDBRANCH   5   6
ENDBRANCH   1   5
TORSDOF 3
ENDMDL
MODEL 2
REMARK VINA RESULT:    -3.843      2.336      4.174
REMARK INTER + INTRA:          -4.562
REMARK INTER:                  -4.543
REMARK INTRA:                  -0.019
REMARK UNBOUND:                -0.046
REMARK SMILES CCCCC(=O)[O-]
REMARK SMILES IDX 4 1 5 2 6 3 7 4 3 5 2 6 1 7
REMARK H PARENT
REMARK Flexibility Score: inf
ROOT
ATOM      1  C   UNL     1       0.198   7.022  19.969  1.00  0.00     0.053 C 
ENDROOT
BRANCH   1   2
ATOM      2  C   UNL     1       0.478   6.842  21.429  1.00  0.00     0.041 C 
ATOM      3  O   UNL     1       1.665   6.806  21.847  1.00  0.00    -0.550 OA
ATOM      4  O   UNL     1      -0.572   6.681  22.325  1.00  0.00    -0.550 OA
ENDBRANCH   1   2
BRANCH   1   5
ATOM      5  C   UNL     1       0.923   8.247  19.397  1.00  0.00     0.006 C 
BRANCH   5   6
ATOM      6  C   UNL     1       0.930   8.253  17.861  1.00  0.00    -0.003 C 
ATOM      7  C   UNL     1       2.148   8.996  17.319  1.00  0.00     0.004 C 
ENDBRANCH   5   6
ENDBRANCH   1   5
TORSDOF 3
ENDMDL
MODEL 3
REMARK VINA RESULT:    -3.799      2.324      4.162
REMARK INTER + INTRA:          -4.511
REMARK INTER:                  -4.493
REMARK INTRA:                  -0.018
REMARK UNBOUND:                -0.046
REMARK SMILES CCCCC(=O)[O-]
REMARK SMILES IDX 4 1 5 2 6 3 7 4 3 5 2 6 1 7
REMARK H PARENT
REMARK Flexibility Score: inf
ROOT
ATOM      1  C   UNL     1       0.224   7.056  19.628  1.00  0.00     0.053 C 
ENDROOT
BRANCH   1   2
ATOM      2  C   UNL     1       0.461   6.907  21.100  1.00  0.00     0.041 C 
ATOM      3  O   UNL     1      -0.510   6.751  21.885  1.00  0.00    -0.550 OA
ATOM      4  O   UNL     1       1.753   6.975  21.607  1.00  0.00    -0.550 OA
ENDBRANCH   1   2
BRANCH   1   5
ATOM      5  C   UNL     1       0.990   8.251  19.046  1.00  0.00     0.006 C 
BRANCH   5   6
ATOM      6  C   UNL     1       1.001   8.241  17.510  1.00  0.00    -0.003 C 
ATOM      7  C   UNL     1       2.117   9.127  16.962  1.00  0.00     0.004 C 
ENDBRANCH   5   6
ENDBRANCH   1   5
TORSDOF 3
ENDMDL
MODEL 4
REMARK VINA RESULT:    -3.667      1.247      1.903
REMARK INTER + INTRA:          -4.355
REMARK INTER:                  -4.335
REMARK INTRA:                  -0.020
REMARK UNBOUND:                -0.046
REMARK SMILES CCCCC(=O)[O-]
REMARK SMILES IDX 4 1 5 2 6 3 7 4 3 5 2 6 1 7
REMARK H PARENT
REMARK Flexibility Score: inf
ROOT
ATOM      1  C   UNL     1       0.705   8.283  19.706  1.00  0.00     0.053 C 
ENDROOT
BRANCH   1   2
ATOM      2  C   UNL     1       1.051   8.165  18.253  1.00  0.00     0.041 C 
ATOM      3  O   UNL     1       1.798   9.019  17.708  1.00  0.00    -0.550 OA
ATOM      4  O   UNL     1       0.520   7.129  17.492  1.00  0.00    -0.550 OA
ENDBRANCH   1   2
BRANCH   1   5
ATOM      5  C   UNL     1       0.269   6.936  20.298  1.00  0.00     0.006 C 
BRANCH   5   6
ATOM      6  C   UNL     1       0.732   6.764  21.752  1.00  0.00    -0.003 C 
ATOM      7  C   UNL     1      -0.459   6.597  22.692  1.00  0.00     0.004 C 
ENDBRANCH   5   6
ENDBRANCH   1   5
TORSDOF 3
ENDMDL
MODEL 5
REMARK VINA RESULT:    -3.635      2.712      3.882
REMARK INTER + INTRA:          -4.318
REMARK INTER:                  -4.277
REMARK INTRA:                  -0.041
REMARK UNBOUND:                -0.046
REMARK SMILES CCCCC(=O)[O-]
REMARK SMILES IDX 4 1 5 2 6 3 7 4 3 5 2 6 1 7
REMARK H PARENT
REMARK Flexibility Score: inf
ROOT
ATOM      1  C   UNL     1      -0.278   6.796  21.122  1.00  0.00     0.053 C 
ENDROOT
BRANCH   1   2
ATOM      2  C   UNL     1       0.089   6.629  22.565  1.00  0.00     0.041 C 
ATOM      3  O   UNL     1       1.298   6.638  22.917  1.00  0.00    -0.550 OA
ATOM      4  O   UNL     1      -0.903   6.429  23.518  1.00  0.00    -0.550 OA
ENDBRANCH   1   2
BRANCH   1   5
ATOM      5  C   UNL     1       0.743   7.661  20.372  1.00  0.00     0.006 C 
BRANCH   5   6
ATOM      6  C   UNL     1       0.587   7.553  18.848  1.00  0.00    -0.003 C 
ATOM      7  C   UNL     1      -0.158   6.279  18.460  1.00  0.00     0.004 C 
ENDBRANCH   5   6
ENDBRANCH   1   5
TORSDOF 3
ENDMDL
MODEL 6
REMARK VINA RESULT:    -3.627      1.343      1.896
REMARK INTER + INTRA:          -4.309
REMARK INTER:                  -4.278
REMARK INTRA:                  -0.031
REMARK UNBOUND:                -0.046
REMARK SMILES CCCCC(=O)[O-]
REMARK SMILES IDX 4 1 5 2 6 3 7 4 3 5 2 6 1 7
REMARK H PARENT
REMARK Flexibility Score: inf
ROOT
ATOM      1  C   UNL     1       0.638   8.292  19.621  1.00  0.00     0.053 C 
ENDROOT
BRANCH   1   2
ATOM      2  C   UNL     1       1.111   8.222  18.201  1.00  0.00     0.041 C 
ATOM      3  O   UNL     1       0.596   7.397  17.402  1.00  0.00    -0.550 OA
ATOM      4  O   UNL     1       2.145   9.045  17.770  1.00  0.00    -0.550 OA
ENDBRANCH   1   2
BRANCH   1   5
ATOM      5  C   UNL     1       0.160   6.927  20.130  1.00  0.00     0.006 C 
BRANCH   5   6
ATOM      6  C   UNL     1       0.209   6.828  21.662  1.00  0.00    -0.003 C 
ATOM      7  C   UNL     1       1.649   6.807  22.166  1.00  0.00     0.004 C 
ENDBRANCH   5   6
ENDBRANCH   1   5
TORSDOF 3
ENDMDL
MODEL 7
REMARK VINA RESULT:    -3.345      2.830      3.578
REMARK INTER + INTRA:          -3.978
REMARK INTER:                  -3.943
REMARK INTRA:                  -0.034
REMARK UNBOUND:                -0.046
REMARK SMILES CCCCC(=O)[O-]
REMARK SMILES IDX 4 1 5 2 6 3 7 4 3 5 2 6 1 7
REMARK H PARENT
REMARK Flexibility Score: inf
ROOT
ATOM      1  C   UNL     1       0.994   7.897  17.314  1.00  0.00     0.053 C 
ENDROOT
BRANCH   1   2
ATOM      2  C   UNL     1       1.294   8.914  16.255  1.00  0.00     0.041 C 
ATOM      3  O   UNL     1       0.569   8.993  15.229  1.00  0.00    -0.550 OA
ATOM      4  O   UNL     1       2.396   9.751  16.387  1.00  0.00    -0.550 OA
ENDBRANCH   1   2
BRANCH   1   5
ATOM      5  C   UNL     1       1.046   8.507  18.720  1.00  0.00     0.006 C 
BRANCH   5   6
ATOM      6  C   UNL     1       0.446   7.573  19.782  1.00  0.00    -0.003 C 
ATOM      7  C   UNL     1      -0.128   6.312  19.143  1.00  0.00     0.004 C 
ENDBRANCH   5   6
ENDBRANCH   1   5
TORSDOF 3
ENDMDL
MODEL 8
REMARK VINA RESULT:    -3.277      2.935      3.938
REMARK INTER + INTRA:          -3.897
REMARK INTER:                  -3.880
REMARK INTRA:                  -0.017
REMARK UNBOUND:                -0.046
REMARK SMILES CCCCC(=O)[O-]
REMARK SMILES IDX 4 1 5 2 6 3 7 4 3 5 2 6 1 7
REMARK H PARENT
REMARK Flexibility Score: inf
ROOT
ATOM      1  C   UNL     1      -0.156   6.340  19.406  1.00  0.00     0.053 C 
ENDROOT
BRANCH   1   2
ATOM      2  C   UNL     1       0.619   7.381  20.154  1.00  0.00     0.041 C 
ATOM      3  O   UNL     1       0.618   8.576  19.760  1.00  0.00    -0.550 OA
ATOM      4  O   UNL     1       1.370   7.023  21.268  1.00  0.00    -0.550 OA
ENDBRANCH   1   2
BRANCH   1   5
ATOM      5  C   UNL     1       0.070   6.440  17.892  1.00  0.00     0.006 C 
BRANCH   5   6
ATOM      6  C   UNL     1      -0.274   5.131  17.165  1.00  0.00    -0.003 C 
ATOM      7  C   UNL     1      -1.724   5.131  16.690  1.00  0.00     0.004 C 
ENDBRANCH   5   6
ENDBRANCH   1   5
TORSDOF 3
ENDMDL
MODEL 9
REMARK VINA RESULT:    -3.225      2.940      5.007
REMARK INTER + INTRA:          -3.836
REMARK INTER:                  -3.762
REMARK INTRA:                  -0.074
REMARK UNBOUND:                -0.046
REMARK SMILES CCCCC(=O)[O-]
REMARK SMILES IDX 4 1 5 2 6 3 7 4 3 5 2 6 1 7
REMARK H PARENT
REMARK Flexibility Score: inf
ROOT
ATOM      1  C   UNL     1       0.932   7.598  17.242  1.00  0.00     0.053 C 
ENDROOT
BRANCH   1   2
ATOM      2  C   UNL     1       0.599   7.580  18.702  1.00  0.00     0.041 C 
ATOM      3  O   UNL     1      -0.182   6.706  19.163  1.00  0.00    -0.550 OA
ATOM      4  O   UNL     1       1.125   8.549  19.548  1.00  0.00    -0.550 OA
ENDBRANCH   1   2
BRANCH   1   5
ATOM      5  C   UNL     1       2.105   8.538  16.937  1.00  0.00     0.006 C 
BRANCH   5   6
ATOM      6  C   UNL     1       1.654   9.815  16.212  1.00  0.00    -0.003 C 
ATOM      7  C   UNL     1       0.583   9.505  15.170  1.00  0.00     0.004 C 
ENDBRANCH   5   6
ENDBRANCH   1   5
TORSDOF 3
ENDMDL
