MODEL 1
REMARK VINA RESULT:    -2.947      0.000      0.000
REMARK INTER + INTRA:          -5.092
REMARK INTER:                  -4.498
REMARK INTRA:                  -0.595
REMARK UNBOUND:                -0.595
REMARK SMILES O=C([O-])CCCCCCCCC(=O)[O-]
REMARK SMILES IDX 7 1 6 2 5 3 4 4 2 5 1 6 3 7 8 8 9 9 10 10 11 11 12 12 13 13
REMARK SMILES IDX 14 14
REMARK H PARENT
REMARK Flexibility Score: inf
ROOT
ATOM      1  C   UNL     1       7.740 -21.131  15.984  1.00  0.00     0.000 C 
ENDROOT
BRANCH   1   2
ATOM      2  C   UNL     1       9.114 -21.651  15.537  1.00  0.00     0.000 C 
BRANCH   2   3
ATOM      3  C   UNL     1       9.124 -22.114  14.072  1.00  0.00     0.006 C 
BRANCH   3   4
ATOM      4  C   UNL     1       7.953 -21.542  13.263  1.00  0.00     0.053 C 
BRANCH   4   5
ATOM      5  C   UNL     1       8.459 -20.672  12.157  1.00  0.00     0.041 C 
ATOM      6  O   UNL     1       8.379 -21.056  10.960  1.00  0.00    -0.550 OA
ATOM      7  O   UNL     1       8.976 -19.415  12.443  1.00  0.00    -0.550 OA
ENDBRANCH   4   5
ENDBRANCH   3   4
ENDBRANCH   2   3
ENDBRANCH   1   2
BRANCH   1   8
ATOM      8  C   UNL     1       7.396 -21.633  17.395  1.00  0.00     0.000 C 
BRANCH   8   9
ATOM      9  C   UNL     1       5.918 -22.030  17.541  1.00  0.00     0.000 C 
BRANCH   9  10
ATOM     10  C   UNL     1       5.380 -22.773  16.307  1.00  0.00     0.006 C 
BRANCH  10  11
ATOM     11  C   UNL     1       3.848 -22.740  16.233  1.00  0.00     0.053 C 
BRANCH  11  12
ATOM     12  C   UNL     1       3.356 -22.779  14.818  1.00  0.00     0.041 C 
ATOM     13  O   UNL     1       4.142 -22.527  13.868  1.00  0.00    -0.550 OA
ATOM     14  O   UNL     1       2.038 -23.124  14.548  1.00  0.00    -0.550 OA
ENDBRANCH  11  12
ENDBRANCH  10  11
ENDBRANCH   9  10
ENDBRANCH   8   9
ENDBRANCH   1   8
TORSDOF 9
ENDMDL
MODEL 2
REMARK VINA RESULT:    -2.651     12.658     15.889
REMARK INTER + INTRA:          -4.641
REMARK INTER:                  -4.223
REMARK INTRA:                  -0.418
REMARK UNBOUND:                -0.595
REMARK SMILES O=C([O-])CCCCCCCCC(=O)[O-]
REMARK SMILES IDX 7 1 6 2 5 3 4 4 2 5 1 6 3 7 8 8 9 9 10 10 11 11 12 12 13 13
REMARK SMILES IDX 14 14
REMARK H PARENT
REMARK Flexibility Score: inf
ROOT
ATOM      1  C   UNL     1      -8.799 -21.968  19.371  1.00  0.00     0.000 C 
ENDROOT
BRANCH   1   2
ATOM      2  C   UNL     1      -8.666 -22.932  18.181  1.00  0.00     0.000 C 
BRANCH   2   3
ATOM      3  C   UNL     1      -7.638 -22.454  17.145  1.00  0.00     0.006 C 
BRANCH   3   4
ATOM      4  C   UNL     1      -6.223 -22.975  17.431  1.00  0.00     0.053 C 
BRANCH   4   5
ATOM      5  C   UNL     1      -5.216 -22.217  16.627  1.00  0.00     0.041 C 
ATOM      6  O   UNL     1      -3.992 -22.501  16.712  1.00  0.00    -0.550 OA
ATOM      7  O   UNL     1      -5.632 -21.227  15.746  1.00  0.00    -0.550 OA
ENDBRANCH   4   5
ENDBRANCH   3   4
ENDBRANCH   2   3
ENDBRANCH   1   2
BRANCH   1   8
ATOM      8  C   UNL     1      -9.838 -20.875  19.078  1.00  0.00     0.000 C 
BRANCH   8   9
ATOM      9  C   UNL     1      -9.979 -19.866  20.228  1.00  0.00     0.000 C 
BRANCH   9  10
ATOM     10  C   UNL     1     -10.588 -20.492  21.494  1.00  0.00     0.006 C 
BRANCH  10  11
ATOM     11  C   UNL     1      -9.632 -20.422  22.692  1.00  0.00     0.053 C 
BRANCH  11  12
ATOM     12  C   UNL     1      -9.284 -21.786  23.208  1.00  0.00     0.041 C 
ATOM     13  O   UNL     1     -10.092 -22.408  23.945  1.00  0.00    -0.550 OA
ATOM     14  O   UNL     1      -8.079 -22.379  22.851  1.00  0.00    -0.550 OA
ENDBRANCH  11  12
ENDBRANCH  10  11
ENDBRANCH   9  10
ENDBRANCH   8   9
ENDBRANCH   1   8
TORSDOF 9
ENDMDL
MODEL 3
REMARK VINA RESULT:    -2.544     13.272     17.203
REMARK INTER + INTRA:          -4.476
REMARK INTER:                  -3.714
REMARK INTRA:                  -0.762
REMARK UNBOUND:                -0.595
REMARK SMILES O=C([O-])CCCCCCCCC(=O)[O-]
REMARK SMILES IDX 7 1 6 2 5 3 4 4 2 5 1 6 3 7 8 8 9 9 10 10 11 11 12 12 13 13
REMARK SMILES IDX 14 14
REMARK H PARENT
REMARK Flexibility Score: inf
ROOT
ATOM      1  C   UNL     1     -10.162 -20.302  19.483  1.00  0.00     0.000 C 
ENDROOT
BRANCH   1   2
ATOM      2  C   UNL     1     -11.016 -19.656  20.584  1.00  0.00     0.000 C 
BRANCH   2   3
ATOM      3  C   UNL     1     -11.015 -20.468  21.888  1.00  0.00     0.006 C 
BRANCH   3   4
ATOM      4  C   UNL     1      -9.634 -20.515  22.555  1.00  0.00     0.053 C 
BRANCH   4   5
ATOM      5  C   UNL     1      -9.255 -21.928  22.869  1.00  0.00     0.041 C 
ATOM      6  O   UNL     1      -8.271 -22.168  23.617  1.00  0.00    -0.550 OA
ATOM      7  O   UNL     1     -10.018 -22.978  22.375  1.00  0.00    -0.550 OA
ENDBRANCH   4   5
ENDBRANCH   3   4
ENDBRANCH   2   3
ENDBRANCH   1   2
BRANCH   1   8
ATOM      8  C   UNL     1     -10.654 -21.724  19.171  1.00  0.00     0.000 C 
BRANCH   8   9
ATOM      9  C   UNL     1      -9.505 -22.697  18.864  1.00  0.00     0.000 C 
BRANCH   9  10
ATOM     10  C   UNL     1      -8.146 -21.987  18.734  1.00  0.00     0.006 C 
BRANCH  10  11
ATOM     11  C   UNL     1      -7.045 -22.930  18.234  1.00  0.00     0.053 C 
BRANCH  11  12
ATOM     12  C   UNL     1      -6.392 -22.415  16.987  1.00  0.00     0.041 C 
ATOM     13  O   UNL     1      -7.097 -22.039  16.014  1.00  0.00    -0.550 OA
ATOM     14  O   UNL     1      -5.008 -22.323  16.912  1.00  0.00    -0.550 OA
ENDBRANCH  11  12
ENDBRANCH  10  11
ENDBRANCH   9  10
ENDBRANCH   8   9
ENDBRANCH   1   8
TORSDOF 9
ENDMDL
MODEL 4
REMARK VINA RESULT:    -2.417     15.370     17.092
REMARK INTER + INTRA:          -4.283
REMARK INTER:                  -3.871
REMARK INTRA:                  -0.413
REMARK UNBOUND:                -0.595
REMARK SMILES O=C([O-])CCCCCCCCC(=O)[O-]
REMARK SMILES IDX 7 1 6 2 5 3 4 4 2 5 1 6 3 7 8 8 9 9 10 10 11 11 12 12 13 13
REMARK SMILES IDX 14 14
REMARK H PARENT
REMARK Flexibility Score: inf
ROOT
ATOM      1  C   UNL     1      -9.259 -21.769  18.802  1.00  0.00     0.000 C 
ENDROOT
BRANCH   1   2
ATOM      2  C   UNL     1     -10.557 -22.433  18.319  1.00  0.00     0.000 C 
BRANCH   2   3
ATOM      3  C   UNL     1     -10.954 -21.995  16.901  1.00  0.00     0.006 C 
BRANCH   3   4
ATOM      4  C   UNL     1     -10.391 -20.617  16.528  1.00  0.00     0.053 C 
BRANCH   4   5
ATOM      5  C   UNL     1      -9.913 -20.616  15.111  1.00  0.00     0.041 C 
ATOM      6  O   UNL     1     -10.716 -20.378  14.170  1.00  0.00    -0.550 OA
ATOM      7  O   UNL     1      -8.569 -20.830  14.831  1.00  0.00    -0.550 OA
ENDBRANCH   4   5
ENDBRANCH   3   4
ENDBRANCH   2   3
ENDBRANCH   1   2
BRANCH   1   8
ATOM      8  C   UNL     1      -8.107 -22.785  18.849  1.00  0.00     0.000 C 
BRANCH   8   9
ATOM      9  C   UNL     1      -7.625 -23.071  20.280  1.00  0.00     0.000 C 
BRANCH   9  10
ATOM     10  C   UNL     1      -8.779 -23.125  21.295  1.00  0.00     0.006 C 
BRANCH  10  11
ATOM     11  C   UNL     1      -8.440 -22.390  22.598  1.00  0.00     0.053 C 
BRANCH  11  12
ATOM     12  C   UNL     1      -9.496 -21.392  22.967  1.00  0.00     0.041 C 
ATOM     13  O   UNL     1     -10.564 -21.775  23.511  1.00  0.00    -0.550 OA
ATOM     14  O   UNL     1      -9.285 -20.038  22.737  1.00  0.00    -0.550 OA
ENDBRANCH  11  12
ENDBRANCH  10  11
ENDBRANCH   9  10
ENDBRANCH   8   9
ENDBRANCH   1   8
TORSDOF 9
ENDMDL
MODEL 5
REMARK VINA RESULT:    -2.206     16.489     17.989
REMARK INTER + INTRA:          -3.962
REMARK INTER:                  -3.440
REMARK INTRA:                  -0.522
REMARK UNBOUND:                -0.595
REMARK SMILES O=C([O-])CCCCCCCCC(=O)[O-]
REMARK SMILES IDX 7 1 6 2 5 3 4 4 2 5 1 6 3 7 8 8 9 9 10 10 11 11 12 12 13 13
REMARK SMILES IDX 14 14
REMARK H PARENT
REMARK Flexibility Score: inf
ROOT
ATOM      1  C   UNL     1     -10.017 -19.742  20.726  1.00  0.00     0.000 C 
ENDROOT
BRANCH   1   2
ATOM      2  C   UNL     1     -10.712 -20.308  21.973  1.00  0.00     0.000 C 
BRANCH   2   3
ATOM      3  C   UNL     1     -11.125 -21.778  21.806  1.00  0.00     0.006 C 
BRANCH   3   4
ATOM      4  C   UNL     1     -10.525 -22.687  22.887  1.00  0.00     0.053 C 
BRANCH   4   5
ATOM      5  C   UNL     1      -9.031 -22.651  22.828  1.00  0.00     0.041 C 
ATOM      6  O   UNL     1      -8.360 -22.457  23.876  1.00  0.00    -0.550 OA
ATOM      7  O   UNL     1      -8.377 -22.879  21.625  1.00  0.00    -0.550 OA
ENDBRANCH   4   5
ENDBRANCH   3   4
ENDBRANCH   2   3
ENDBRANCH   1   2
BRANCH   1   8
ATOM      8  C   UNL     1     -10.673 -20.275  19.443  1.00  0.00     0.000 C 
BRANCH   8   9
ATOM      9  C   UNL     1      -9.729 -21.164  18.618  1.00  0.00     0.000 C 
BRANCH   9  10
ATOM     10  C   UNL     1     -10.413 -21.764  17.378  1.00  0.00     0.006 C 
BRANCH  10  11
ATOM     11  C   UNL     1     -10.907 -20.683  16.409  1.00  0.00     0.053 C 
BRANCH  11  12
ATOM     12  C   UNL     1     -10.049 -20.597  15.183  1.00  0.00     0.041 C 
ATOM     13  O   UNL     1     -10.535 -20.184  14.099  1.00  0.00    -0.550 OA
ATOM     14  O   UNL     1      -8.705 -20.944  15.248  1.00  0.00    -0.550 OA
ENDBRANCH  11  12
ENDBRANCH  10  11
ENDBRANCH   9  10
ENDBRANCH   8   9
ENDBRANCH   1   8
TORSDOF 9
ENDMDL
MODEL 6
REMARK VINA RESULT:    -2.194     15.183     16.818
REMARK INTER + INTRA:          -3.943
REMARK INTER:                  -3.329
REMARK INTRA:                  -0.614
REMARK UNBOUND:                -0.595
REMARK SMILES O=C([O-])CCCCCCCCC(=O)[O-]
REMARK SMILES IDX 7 1 6 2 5 3 4 4 2 5 1 6 3 7 8 8 9 9 10 10 11 11 12 12 13 13
REMARK SMILES IDX 14 14
REMARK H PARENT
REMARK Flexibility Score: inf
ROOT
ATOM      1  C   UNL     1      -6.898 -22.245  16.853  1.00  0.00     0.000 C 
ENDROOT
BRANCH   1   2
ATOM      2  C   UNL     1      -8.008 -23.112  17.467  1.00  0.00     0.000 C 
BRANCH   2   3
ATOM      3  C   UNL     1      -8.325 -22.727  18.920  1.00  0.00     0.006 C 
BRANCH   3   4
ATOM      4  C   UNL     1      -8.763 -21.263  19.062  1.00  0.00     0.053 C 
BRANCH   4   5
ATOM      5  C   UNL     1      -9.955 -21.160  19.959  1.00  0.00     0.041 C 
ATOM      6  O   UNL     1     -10.195 -20.087  20.574  1.00  0.00    -0.550 OA
ATOM      7  O   UNL     1     -10.829 -22.233  20.080  1.00  0.00    -0.550 OA
ENDBRANCH   4   5
ENDBRANCH   3   4
ENDBRANCH   2   3
ENDBRANCH   1   2
BRANCH   1   8
ATOM      8  C   UNL     1      -7.259 -21.824  15.421  1.00  0.00     0.000 C 
BRANCH   8   9
ATOM      9  C   UNL     1      -8.344 -20.735  15.377  1.00  0.00     0.000 C 
BRANCH   9  10
ATOM     10  C   UNL     1      -9.260 -20.862  14.148  1.00  0.00     0.006 C 
BRANCH  10  11
ATOM     11  C   UNL     1     -10.743 -20.721  14.515  1.00  0.00     0.053 C 
BRANCH  11  12
ATOM     12  C   UNL     1     -10.959 -20.772  15.997  1.00  0.00     0.041 C 
ATOM     13  O   UNL     1     -11.019 -19.707  16.665  1.00  0.00    -0.550 OA
ATOM     14  O   UNL     1     -11.125 -21.995  16.635  1.00  0.00    -0.550 OA
ENDBRANCH  11  12
ENDBRANCH  10  11
ENDBRANCH   9  10
ENDBRANCH   8   9
ENDBRANCH   1   8
TORSDOF 9
ENDMDL
MODEL 7
REMARK VINA RESULT:    -2.062     16.349     17.538
REMARK INTER + INTRA:          -3.742
REMARK INTER:                  -3.232
REMARK INTRA:                  -0.510
REMARK UNBOUND:                -0.595
REMARK SMILES O=C([O-])CCCCCCCCC(=O)[O-]
REMARK SMILES IDX 7 1 6 2 5 3 4 4 2 5 1 6 3 7 8 8 9 9 10 10 11 11 12 12 13 13
REMARK SMILES IDX 14 14
REMARK H PARENT
REMARK Flexibility Score: inf
ROOT
ATOM      1  C   UNL     1      -9.713 -21.159  18.865  1.00  0.00     0.000 C 
ENDROOT
BRANCH   1   2
ATOM      2  C   UNL     1     -10.843 -20.140  18.651  1.00  0.00     0.000 C 
BRANCH   2   3
ATOM      3  C   UNL     1     -11.125 -19.871  17.165  1.00  0.00     0.006 C 
BRANCH   3   4
ATOM      4  C   UNL     1     -10.857 -21.096  16.281  1.00  0.00     0.053 C 
BRANCH   4   5
ATOM      5  C   UNL     1      -9.801 -20.787  15.268  1.00  0.00     0.041 C 
ATOM      6  O   UNL     1      -8.629 -21.220  15.423  1.00  0.00    -0.550 OA
ATOM      7  O   UNL     1     -10.123 -20.062  14.128  1.00  0.00    -0.550 OA
ENDBRANCH   4   5
ENDBRANCH   3   4
ENDBRANCH   2   3
ENDBRANCH   1   2
BRANCH   1   8
ATOM      8  C   UNL     1     -10.106 -22.200  19.924  1.00  0.00     0.000 C 
BRANCH   8   9
ATOM      9  C   UNL     1     -11.033 -21.626  21.007  1.00  0.00     0.000 C 
BRANCH   9  10
ATOM     10  C   UNL     1     -10.802 -22.268  22.385  1.00  0.00     0.006 C 
BRANCH  10  11
ATOM     11  C   UNL     1      -9.604 -21.651  23.118  1.00  0.00     0.053 C 
BRANCH  11  12
ATOM     12  C   UNL     1      -8.498 -22.643  23.314  1.00  0.00     0.041 C 
ATOM     13  O   UNL     1      -8.276 -23.125  24.455  1.00  0.00    -0.550 OA
ATOM     14  O   UNL     1      -7.734 -23.058  22.230  1.00  0.00    -0.550 OA
ENDBRANCH  11  12
ENDBRANCH  10  11
ENDBRANCH   9  10
ENDBRANCH   8   9
ENDBRANCH   1   8
TORSDOF 9
ENDMDL
MODEL 8
REMARK VINA RESULT:    -1.970     12.117     16.130
REMARK INTER + INTRA:          -3.600
REMARK INTER:                  -3.221
REMARK INTRA:                  -0.380
REMARK UNBOUND:                -0.595
REMARK SMILES O=C([O-])CCCCCCCCC(=O)[O-]
REMARK SMILES IDX 7 1 6 2 5 3 4 4 2 5 1 6 3 7 8 8 9 9 10 10 11 11 12 12 13 13
REMARK SMILES IDX 14 14
REMARK H PARENT
REMARK Flexibility Score: inf
ROOT
ATOM      1  C   UNL     1      -8.387 -23.125  20.158  1.00  0.00     0.000 C 
ENDROOT
BRANCH   1   2
ATOM      2  C   UNL     1      -7.744 -23.118  21.553  1.00  0.00     0.000 C 
BRANCH   2   3
ATOM      3  C   UNL     1      -8.701 -22.611  22.644  1.00  0.00     0.006 C 
BRANCH   3   4
ATOM      4  C   UNL     1     -10.063 -22.182  22.082  1.00  0.00     0.053 C 
BRANCH   4   5
ATOM      5  C   UNL     1     -10.281 -20.719  22.307  1.00  0.00     0.041 C 
ATOM      6  O   UNL     1      -9.872 -19.880  21.461  1.00  0.00    -0.550 OA
ATOM      7  O   UNL     1     -10.977 -20.284  23.427  1.00  0.00    -0.550 OA
ENDBRANCH   4   5
ENDBRANCH   3   4
ENDBRANCH   2   3
ENDBRANCH   1   2
BRANCH   1   8
ATOM      8  C   UNL     1      -7.312 -23.125  19.059  1.00  0.00     0.000 C 
BRANCH   8   9
ATOM      9  C   UNL     1      -7.900 -22.922  17.654  1.00  0.00     0.000 C 
BRANCH   9  10
ATOM     10  C   UNL     1      -6.875 -22.349  16.661  1.00  0.00     0.006 C 
BRANCH  10  11
ATOM     11  C   UNL     1      -5.431 -22.652  17.078  1.00  0.00     0.053 C 
BRANCH  11  12
ATOM     12  C   UNL     1      -4.437 -22.014  16.156  1.00  0.00     0.041 C 
ATOM     13  O   UNL     1      -3.270 -22.477  16.066  1.00  0.00    -0.550 OA
ATOM     14  O   UNL     1      -4.810 -20.928  15.374  1.00  0.00    -0.550 OA
ENDBRANCH  11  12
ENDBRANCH  10  11
ENDBRANCH   9  10
ENDBRANCH   8   9
ENDBRANCH   1   8
TORSDOF 9
ENDMDL
MODEL 9
REMARK VINA RESULT:    -0.119     15.434     17.642
REMARK INTER + INTRA:          -0.776
REMARK INTER:                  -0.209
REMARK INTRA:                  -0.567
REMARK UNBOUND:                -0.595
REMARK SMILES O=C([O-])CCCCCCCCC(=O)[O-]
REMARK SMILES IDX 7 1 6 2 5 3 4 4 2 5 1 6 3 7 8 8 9 9 10 10 11 11 12 12 13 13
REMARK SMILES IDX 14 14
REMARK H PARENT
REMARK Flexibility Score: inf
ROOT
ATOM      1  C   UNL     1      -8.785 -22.842  19.857  1.00  0.00     0.000 C 
ENDROOT
BRANCH   1   2
ATOM      2  C   UNL     1      -8.089 -22.775  21.225  1.00  0.00     0.000 C 
BRANCH   2   3
ATOM      3  C   UNL     1      -9.052 -22.401  22.362  1.00  0.00     0.006 C 
BRANCH   3   4
ATOM      4  C   UNL     1     -10.466 -22.080  21.858  1.00  0.00     0.053 C 
BRANCH   4   5
ATOM      5  C   UNL     1     -10.804 -20.649  22.132  1.00  0.00     0.041 C 
ATOM      6  O   UNL     1     -11.031 -20.265  23.310  1.00  0.00    -0.550 OA
ATOM      7  O   UNL     1     -10.822 -19.728  21.093  1.00  0.00    -0.550 OA
ENDBRANCH   4   5
ENDBRANCH   3   4
ENDBRANCH   2   3
ENDBRANCH   1   2
BRANCH   1   8
ATOM      8  C   UNL     1      -7.804 -22.502  18.725  1.00  0.00     0.000 C 
BRANCH   8   9
ATOM      9  C   UNL     1      -8.504 -22.305  17.371  1.00  0.00     0.000 C 
BRANCH   9  10
ATOM     10  C   UNL     1     -10.015 -22.057  17.516  1.00  0.00     0.006 C 
BRANCH  10  11
ATOM     11  C   UNL     1     -10.441 -20.713  16.910  1.00  0.00     0.053 C 
BRANCH  11  12
ATOM     12  C   UNL     1     -10.330 -20.713  15.416  1.00  0.00     0.041 C 
ATOM     13  O   UNL     1     -11.125 -21.400  14.723  1.00  0.00    -0.550 OA
ATOM     14  O   UNL     1      -9.367 -19.931  14.789  1.00  0.00    -0.550 OA
ENDBRANCH  11  12
ENDBRANCH  10  11
ENDBRANCH   9  10
ENDBRANCH   8   9
ENDBRANCH   1   8
TORSDOF 9
ENDMDL
