MODEL 1
REMARK VINA RESULT:    -3.757      0.000      0.000
REMARK INTER + INTRA:          -4.748
REMARK INTER:                  -4.526
REMARK INTRA:                  -0.222
REMARK UNBOUND:                -0.222
REMARK SMILES OCC(O)CO
REMARK SMILES IDX 3 1 5 2 6 3 2 5 1 6 4 8
REMARK H PARENT 6 4 1 7 4 9
REMARK Flexibility Score: inf
ROOT
ATOM      1  C   UNL     1     162.824 134.745 118.151  1.00  0.00     0.165 C 
ENDROOT
BRANCH   1   2
ATOM      2  C   UNL     1     163.729 134.902 119.381  1.00  0.00     0.190 C 
BRANCH   2   3
ATOM      3  O   UNL     1     163.212 135.878 120.246  1.00  0.00    -0.394 OA
ATOM      4  H   UNL     1     163.881 136.005 120.968  1.00  0.00     0.210 HD
ENDBRANCH   2   3
ENDBRANCH   1   2
BRANCH   1   5
ATOM      5  C   UNL     1     161.589 133.889 118.472  1.00  0.00     0.190 C 
BRANCH   5   6
ATOM      6  O   UNL     1     161.665 133.376 119.776  1.00  0.00    -0.394 OA
ATOM      7  H   UNL     1     160.795 132.936 119.966  1.00  0.00     0.210 HD
ENDBRANCH   5   6
ENDBRANCH   1   5
BRANCH   1   8
ATOM      8  O   UNL     1     162.412 136.016 117.717  1.00  0.00    -0.388 OA
ATOM      9  H   UNL     1     162.933 136.681 118.238  1.00  0.00     0.211 HD
ENDBRANCH   1   8
TORSDOF 5
ENDMDL
MODEL 2
REMARK VINA RESULT:    -3.731      5.692      6.479
REMARK INTER + INTRA:          -4.716
REMARK INTER:                  -4.502
REMARK INTRA:                  -0.214
REMARK UNBOUND:                -0.222
REMARK SMILES OCC(O)CO
REMARK SMILES IDX 3 1 5 2 6 3 2 5 1 6 4 8
REMARK H PARENT 6 4 1 7 4 9
REMARK Flexibility Score: inf
ROOT
ATOM      1  C   UNL     1     164.791 129.511 118.426  1.00  0.00     0.165 C 
ENDROOT
BRANCH   1   2
ATOM      2  C   UNL     1     163.730 128.792 119.270  1.00  0.00     0.190 C 
BRANCH   2   3
ATOM      3  O   UNL     1     163.865 127.401 119.142  1.00  0.00    -0.394 OA
ATOM      4  H   UNL     1     162.999 127.059 118.797  1.00  0.00     0.210 HD
ENDBRANCH   2   3
ENDBRANCH   1   2
BRANCH   1   5
ATOM      5  C   UNL     1     164.383 129.568 116.945  1.00  0.00     0.190 C 
BRANCH   5   6
ATOM      6  O   UNL     1     164.573 128.322 116.329  1.00  0.00    -0.394 OA
ATOM      7  H   UNL     1     165.330 127.881 116.794  1.00  0.00     0.210 HD
ENDBRANCH   5   6
ENDBRANCH   1   5
BRANCH   1   8
ATOM      8  O   UNL     1     164.961 130.817 118.915  1.00  0.00    -0.388 OA
ATOM      9  H   UNL     1     164.054 131.189 119.065  1.00  0.00     0.211 HD
ENDBRANCH   1   8
TORSDOF 5
ENDMDL
MODEL 3
REMARK VINA RESULT:    -3.719      1.379      2.655
REMARK INTER + INTRA:          -4.702
REMARK INTER:                  -4.700
REMARK INTRA:                  -0.002
REMARK UNBOUND:                -0.222
REMARK SMILES OCC(O)CO
REMARK SMILES IDX 3 1 5 2 6 3 2 5 1 6 4 8
REMARK H PARENT 6 4 1 7 4 9
REMARK Flexibility Score: inf
ROOT
ATOM      1  C   UNL     1     162.801 134.830 118.040  1.00  0.00     0.165 C 
ENDROOT
BRANCH   1   2
ATOM      2  C   UNL     1     163.650 134.277 116.888  1.00  0.00     0.190 C 
BRANCH   2   3
ATOM      3  O   UNL     1     163.478 135.059 115.736  1.00  0.00    -0.394 OA
ATOM      4  H   UNL     1     162.994 134.496 115.076  1.00  0.00     0.210 HD
ENDBRANCH   2   3
ENDBRANCH   1   2
BRANCH   1   5
ATOM      5  C   UNL     1     163.596 134.859 119.356  1.00  0.00     0.190 C 
BRANCH   5   6
ATOM      6  O   UNL     1     163.158 135.909 120.178  1.00  0.00    -0.394 OA
ATOM      7  H   UNL     1     162.167 135.921 120.130  1.00  0.00     0.210 HD
ENDBRANCH   5   6
ENDBRANCH   1   5
BRANCH   1   8
ATOM      8  O   UNL     1     162.380 136.131 117.719  1.00  0.00    -0.388 OA
ATOM      9  H   UNL     1     161.657 136.042 117.046  1.00  0.00     0.211 HD
ENDBRANCH   1   8
TORSDOF 5
ENDMDL
MODEL 4
REMARK VINA RESULT:    -3.693      5.698      6.625
REMARK INTER + INTRA:          -4.670
REMARK INTER:                  -4.668
REMARK INTRA:                  -0.003
REMARK UNBOUND:                -0.222
REMARK SMILES OCC(O)CO
REMARK SMILES IDX 3 1 5 2 6 3 2 5 1 6 4 8
REMARK H PARENT 6 4 1 7 4 9
REMARK Flexibility Score: inf
ROOT
ATOM      1  C   UNL     1     163.535 128.643 118.555  1.00  0.00     0.165 C 
ENDROOT
BRANCH   1   2
ATOM      2  C   UNL     1     163.210 129.753 119.564  1.00  0.00     0.190 C 
BRANCH   2   3
ATOM      3  O   UNL     1     163.534 129.339 120.865  1.00  0.00    -0.394 OA
ATOM      4  H   UNL     1     164.152 128.567 120.775  1.00  0.00     0.210 HD
ENDBRANCH   2   3
ENDBRANCH   1   2
BRANCH   1   5
ATOM      5  C   UNL     1     164.668 129.066 117.606  1.00  0.00     0.190 C 
BRANCH   5   6
ATOM      6  O   UNL     1     164.547 128.417 116.368  1.00  0.00    -0.394 OA
ATOM      7  H   UNL     1     163.577 128.351 116.168  1.00  0.00     0.210 HD
ENDBRANCH   5   6
ENDBRANCH   1   5
BRANCH   1   8
ATOM      8  O   UNL     1     163.916 127.484 119.251  1.00  0.00    -0.388 OA
ATOM      9  H   UNL     1     164.780 127.188 118.865  1.00  0.00     0.211 HD
ENDBRANCH   1   8
TORSDOF 5
ENDMDL
MODEL 5
REMARK VINA RESULT:    -3.687      0.659      2.566
REMARK INTER + INTRA:          -4.663
REMARK INTER:                  -4.446
REMARK INTRA:                  -0.217
REMARK UNBOUND:                -0.222
REMARK SMILES OCC(O)CO
REMARK SMILES IDX 3 1 5 2 6 3 2 5 1 6 4 8
REMARK H PARENT 6 4 1 7 4 9
REMARK Flexibility Score: inf
ROOT
ATOM      1  C   UNL     1     162.467 134.055 118.953  1.00  0.00     0.165 C 
ENDROOT
BRANCH   1   2
ATOM      2  C   UNL     1     162.095 134.666 117.596  1.00  0.00     0.190 C 
BRANCH   2   3
ATOM      3  O   UNL     1     162.382 136.039 117.584  1.00  0.00    -0.394 OA
ATOM      4  H   UNL     1     162.155 136.388 118.486  1.00  0.00     0.210 HD
ENDBRANCH   2   3
ENDBRANCH   1   2
BRANCH   1   5
ATOM      5  C   UNL     1     163.638 134.809 119.603  1.00  0.00     0.190 C 
BRANCH   5   6
ATOM      6  O   UNL     1     163.177 135.928 120.312  1.00  0.00    -0.394 OA
ATOM      7  H   UNL     1     162.506 136.379 119.736  1.00  0.00     0.210 HD
ENDBRANCH   5   6
ENDBRANCH   1   5
BRANCH   1   8
ATOM      8  O   UNL     1     161.350 134.105 119.803  1.00  0.00    -0.388 OA
ATOM      9  H   UNL     1     161.393 134.972 120.284  1.00  0.00     0.211 HD
ENDBRANCH   1   8
TORSDOF 5
ENDMDL
MODEL 6
REMARK VINA RESULT:    -3.640      2.125      2.589
REMARK INTER + INTRA:          -4.608
REMARK INTER:                  -4.604
REMARK INTRA:                  -0.004
REMARK UNBOUND:                -0.222
REMARK SMILES OCC(O)CO
REMARK SMILES IDX 3 1 5 2 6 3 2 5 1 6 4 8
REMARK H PARENT 6 4 1 7 4 9
REMARK Flexibility Score: inf
ROOT
ATOM      1  C   UNL     1     163.184 134.140 116.858  1.00  0.00     0.165 C 
ENDROOT
BRANCH   1   2
ATOM      2  C   UNL     1     163.129 134.893 118.194  1.00  0.00     0.190 C 
BRANCH   2   3
ATOM      3  O   UNL     1     162.594 136.177 118.009  1.00  0.00    -0.394 OA
ATOM      4  H   UNL     1     162.786 136.690 118.838  1.00  0.00     0.210 HD
ENDBRANCH   2   3
ENDBRANCH   1   2
BRANCH   1   5
ATOM      5  C   UNL     1     161.842 133.457 116.547  1.00  0.00     0.190 C 
BRANCH   5   6
ATOM      6  O   UNL     1     161.739 133.165 115.178  1.00  0.00    -0.394 OA
ATOM      7  H   UNL     1     162.662 133.151 114.814  1.00  0.00     0.210 HD
ENDBRANCH   5   6
ENDBRANCH   1   5
BRANCH   1   8
ATOM      8  O   UNL     1     163.496 135.046 115.831  1.00  0.00    -0.388 OA
ATOM      9  H   UNL     1     162.972 134.771 115.035  1.00  0.00     0.211 HD
ENDBRANCH   1   8
TORSDOF 5
ENDMDL
MODEL 7
REMARK VINA RESULT:    -3.571      5.549      6.509
REMARK INTER + INTRA:          -4.524
REMARK INTER:                  -4.522
REMARK INTRA:                  -0.003
REMARK UNBOUND:                -0.222
REMARK SMILES OCC(O)CO
REMARK SMILES IDX 3 1 5 2 6 3 2 5 1 6 4 8
REMARK H PARENT 6 4 1 7 4 9
REMARK Flexibility Score: inf
ROOT
ATOM      1  C   UNL     1     164.332 129.069 118.684  1.00  0.00     0.165 C 
ENDROOT
BRANCH   1   2
ATOM      2  C   UNL     1     164.269 129.479 117.206  1.00  0.00     0.190 C 
BRANCH   2   3
ATOM      3  O   UNL     1     164.600 128.391 116.384  1.00  0.00    -0.394 OA
ATOM      4  H   UNL     1     164.714 128.750 115.465  1.00  0.00     0.210 HD
ENDBRANCH   2   3
ENDBRANCH   1   2
BRANCH   1   5
ATOM      5  C   UNL     1     163.371 129.912 119.538  1.00  0.00     0.190 C 
BRANCH   5   6
ATOM      6  O   UNL     1     163.401 129.494 120.878  1.00  0.00    -0.394 OA
ATOM      7  H   UNL     1     162.865 128.661 120.934  1.00  0.00     0.210 HD
ENDBRANCH   5   6
ENDBRANCH   1   5
BRANCH   1   8
ATOM      8  O   UNL     1     163.993 127.711 118.801  1.00  0.00    -0.388 OA
ATOM      9  H   UNL     1     163.264 127.653 119.471  1.00  0.00     0.211 HD
ENDBRANCH   1   8
TORSDOF 5
ENDMDL
MODEL 8
REMARK VINA RESULT:    -3.571      1.562      2.932
REMARK INTER + INTRA:          -4.524
REMARK INTER:                  -4.365
REMARK INTRA:                  -0.159
REMARK UNBOUND:                -0.222
REMARK SMILES OCC(O)CO
REMARK SMILES IDX 3 1 5 2 6 3 2 5 1 6 4 8
REMARK H PARENT 6 4 1 7 4 9
REMARK Flexibility Score: inf
ROOT
ATOM      1  C   UNL     1     162.801 134.704 118.039  1.00  0.00     0.165 C 
ENDROOT
BRANCH   1   2
ATOM      2  C   UNL     1     161.480 134.002 118.382  1.00  0.00     0.190 C 
BRANCH   2   3
ATOM      3  O   UNL     1     160.409 134.633 117.732  1.00  0.00    -0.394 OA
ATOM      4  H   UNL     1     159.826 133.913 117.374  1.00  0.00     0.210 HD
ENDBRANCH   2   3
ENDBRANCH   1   2
BRANCH   1   5
ATOM      5  C   UNL     1     163.182 134.487 116.565  1.00  0.00     0.190 C 
BRANCH   5   6
ATOM      6  O   UNL     1     162.781 135.581 115.782  1.00  0.00    -0.394 OA
ATOM      7  H   UNL     1     161.934 135.322 115.334  1.00  0.00     0.210 HD
ENDBRANCH   5   6
ENDBRANCH   1   5
BRANCH   1   8
ATOM      8  O   UNL     1     162.672 136.079 118.291  1.00  0.00    -0.388 OA
ATOM      9  H   UNL     1     162.208 136.170 119.163  1.00  0.00     0.211 HD
ENDBRANCH   1   8
TORSDOF 5
ENDMDL
MODEL 9
REMARK VINA RESULT:    -3.517      1.345      2.455
REMARK INTER + INTRA:          -4.459
REMARK INTER:                  -4.240
REMARK INTRA:                  -0.219
REMARK UNBOUND:                -0.222
REMARK SMILES OCC(O)CO
REMARK SMILES IDX 3 1 5 2 6 3 2 5 1 6 4 8
REMARK H PARENT 6 4 1 7 4 9
REMARK Flexibility Score: inf
ROOT
ATOM      1  C   UNL     1     162.871 135.001 119.368  1.00  0.00     0.165 C 
ENDROOT
BRANCH   1   2
ATOM      2  C   UNL     1     162.294 133.679 118.843  1.00  0.00     0.190 C 
BRANCH   2   3
ATOM      3  O   UNL     1     161.875 132.871 119.910  1.00  0.00    -0.394 OA
ATOM      4  H   UNL     1     161.781 131.950 119.552  1.00  0.00     0.210 HD
ENDBRANCH   2   3
ENDBRANCH   1   2
BRANCH   1   5
ATOM      5  C   UNL     1     164.333 134.835 119.813  1.00  0.00     0.190 C 
BRANCH   5   6
ATOM      6  O   UNL     1     164.669 133.476 119.919  1.00  0.00    -0.394 OA
ATOM      7  H   UNL     1     164.062 132.979 119.311  1.00  0.00     0.210 HD
ENDBRANCH   5   6
ENDBRANCH   1   5
BRANCH   1   8
ATOM      8  O   UNL     1     162.798 135.971 118.355  1.00  0.00    -0.388 OA
ATOM      9  H   UNL     1     161.835 136.126 118.173  1.00  0.00     0.211 HD
ENDBRANCH   1   8
TORSDOF 5
ENDMDL
