MODEL 1
REMARK VINA RESULT:    -3.268      0.000      0.000
REMARK INTER + INTRA:          -5.271
REMARK INTER:                  -4.987
REMARK INTRA:                  -0.285
REMARK UNBOUND:                -0.285
REMARK SMILES CC1=CCC[C@@H](C)C(=O)C[C@@H](C(C)C)C(=O)C1
REMARK SMILES IDX 8 1 9 2 6 3 7 4 5 5 4 6 3 7 2 8 1 9 10 11 11 12 15 13 16 14
REMARK SMILES IDX 17 15 12 17 13 18 14 19
REMARK H PARENT
REMARK Flexibility Score: 70.00
ROOT
ATOM      1  C   UNL     1      10.078 -26.055  39.304  1.00  0.00     0.136 C 
ATOM      2  O   UNL     1       9.585 -25.567  38.297  1.00  0.00    -0.299 OA
ENDROOT
BRANCH   1   3
ATOM      3  C   UNL     1       9.609 -25.524  40.656  1.00  0.00     0.053 C 
ATOM      4  C   UNL     1       8.331 -26.180  41.206  1.00  0.00     0.016 C 
BRANCH   3   5
ATOM      5  C   UNL     1       9.506 -23.976  40.681  1.00  0.00     0.015 C 
BRANCH   5   6
ATOM      6  C   UNL     1      10.785 -23.238  41.123  1.00  0.00     0.028 C 
BRANCH   6   7
ATOM      7  C   UNL     1      11.653 -22.883  39.937  1.00  0.00    -0.028 C 
ATOM      8  C   UNL     1      12.824 -23.477  39.616  1.00  0.00    -0.070 CG0
ATOM      9  C   UNL     1      13.548 -22.994  38.384  1.00  0.00     0.039 C 
ATOM     10  G   UNL     1      13.434 -24.599  40.433  1.00  0.00     0.000 G0
ENDBRANCH   6   7
ENDBRANCH   5   6
ENDBRANCH   3   5
ENDBRANCH   1   3
BRANCH   1  11
ATOM     11  C   UNL     1      11.169 -27.095  39.121  1.00  0.00     0.087 C 
BRANCH  11  12
ATOM     12  C   UNL     1      12.281 -26.966  40.191  1.00  0.00     0.066 C 
BRANCH  12  13
ATOM     13  C   UNL     1      13.325 -25.945  39.763  1.00  0.00     0.140 C 
ATOM     14  O   UNL     1      14.128 -26.230  38.888  1.00  0.00    -0.299 OA
BRANCH  13  15
ATOM     15  C   UNL     1      13.434 -24.593  40.427  1.00  0.00     0.106 CG0
ATOM     16  G   UNL     1      12.807 -23.484  39.605  1.00  0.00     0.000 G0
ENDBRANCH  13  15
ENDBRANCH  12  13
BRANCH  12  17
ATOM     17  C   UNL     1      12.902 -28.347  40.564  1.00  0.00    -0.006 C 
ATOM     18  C   UNL     1      11.829 -29.329  41.058  1.00  0.00     0.008 C 
ATOM     19  C   UNL     1      14.053 -28.270  41.583  1.00  0.00     0.008 C 
ENDBRANCH  12  17
ENDBRANCH  11  12
ENDBRANCH   1  11
TORSDOF 1
ENDMDL
MODEL 2
REMARK VINA RESULT:    -3.192      3.110      5.848
REMARK INTER + INTRA:          -5.157
REMARK INTER:                  -5.037
REMARK INTRA:                  -0.120
REMARK UNBOUND:                -0.285
REMARK SMILES CC1=CCC[C@@H](C)C(=O)C[C@@H](C(C)C)C(=O)C1
REMARK SMILES IDX 8 1 9 2 6 3 7 4 5 5 4 6 3 7 2 8 1 9 10 11 11 12 15 13 16 14
REMARK SMILES IDX 17 15 12 17 13 18 14 19
REMARK H PARENT
REMARK Flexibility Score: 70.00
ROOT
ATOM      1  C   UNL     1      10.943 -27.912  38.461  1.00  0.00     0.136 C 
ATOM      2  O   UNL     1      10.763 -26.792  38.006  1.00  0.00    -0.299 OA
ENDROOT
BRANCH   1   3
ATOM      3  C   UNL     1      11.951 -28.816  37.755  1.00  0.00     0.053 C 
ATOM      4  C   UNL     1      11.667 -29.070  36.265  1.00  0.00     0.016 C 
BRANCH   3   5
ATOM      5  C   UNL     1      12.192 -30.144  38.519  1.00  0.00     0.015 C 
BRANCH   5   6
ATOM      6  C   UNL     1      13.358 -30.121  39.528  1.00  0.00     0.028 C 
BRANCH   6   7
ATOM      7  C   UNL     1      13.128 -31.102  40.656  1.00  0.00    -0.028 C 
ATOM      8  C   UNL     1      12.676 -30.787  41.890  1.00  0.00    -0.070 CG0
ATOM      9  C   UNL     1      12.499 -31.905  42.886  1.00  0.00     0.039 C 
ATOM     10  G   UNL     1      12.341 -29.369  42.312  1.00  0.00     0.000 G0
ENDBRANCH   6   7
ENDBRANCH   5   6
ENDBRANCH   3   5
ENDBRANCH   1   3
BRANCH   1  11
ATOM     11  C   UNL     1      10.092 -28.337  39.645  1.00  0.00     0.087 C 
BRANCH  11  12
ATOM     12  C   UNL     1      10.652 -27.801  40.985  1.00  0.00     0.066 C 
BRANCH  12  13
ATOM     13  C   UNL     1      10.923 -28.945  41.952  1.00  0.00     0.140 C 
ATOM     14  O   UNL     1       9.987 -29.528  42.477  1.00  0.00    -0.299 OA
BRANCH  13  15
ATOM     15  C   UNL     1      12.327 -29.355  42.326  1.00  0.00     0.106 CG0
ATOM     16  G   UNL     1      12.666 -30.763  41.876  1.00  0.00     0.000 G0
ENDBRANCH  13  15
ENDBRANCH  12  13
BRANCH  12  17
ATOM     17  C   UNL     1       9.747 -26.690  41.601  1.00  0.00    -0.006 C 
ATOM     18  C   UNL     1       8.276 -26.882  41.202  1.00  0.00     0.008 C 
ATOM     19  C   UNL     1      10.196 -25.254  41.278  1.00  0.00     0.008 C 
ENDBRANCH  12  17
ENDBRANCH  11  12
ENDBRANCH   1  11
TORSDOF 1
ENDMDL
MODEL 3
REMARK VINA RESULT:    -3.166      1.777      3.197
REMARK INTER + INTRA:          -5.117
REMARK INTER:                  -4.936
REMARK INTRA:                  -0.181
REMARK UNBOUND:                -0.285
REMARK SMILES CC1=CCC[C@@H](C)C(=O)C[C@@H](C(C)C)C(=O)C1
REMARK SMILES IDX 8 1 9 2 6 3 7 4 5 5 4 6 3 7 2 8 1 9 10 11 11 12 15 13 16 14
REMARK SMILES IDX 17 15 12 17 13 18 14 19
REMARK H PARENT
REMARK Flexibility Score: 70.00
ROOT
ATOM      1  C   UNL     1      10.222 -23.783  40.132  1.00  0.00     0.136 C 
ATOM      2  O   UNL     1       9.372 -22.923  39.945  1.00  0.00    -0.299 OA
ENDROOT
BRANCH   1   3
ATOM      3  C   UNL     1      11.477 -23.387  40.905  1.00  0.00     0.053 C 
ATOM      4  C   UNL     1      11.237 -22.465  42.112  1.00  0.00     0.016 C 
BRANCH   3   5
ATOM      5  C   UNL     1      12.590 -22.829  39.979  1.00  0.00     0.015 C 
BRANCH   5   6
ATOM      6  C   UNL     1      13.884 -23.666  39.925  1.00  0.00     0.028 C 
BRANCH   6   7
ATOM      7  C   UNL     1      13.930 -24.528  38.684  1.00  0.00    -0.028 C 
ATOM      8  C   UNL     1      13.578 -25.832  38.620  1.00  0.00    -0.070 CG0
ATOM      9  C   UNL     1      13.681 -26.528  37.286  1.00  0.00     0.039 C 
ATOM     10  G   UNL     1      13.088 -26.616  39.822  1.00  0.00     0.000 G0
ENDBRANCH   6   7
ENDBRANCH   5   6
ENDBRANCH   3   5
ENDBRANCH   1   3
BRANCH   1  11
ATOM     11  C   UNL     1       9.988 -25.150  39.515  1.00  0.00     0.087 C 
BRANCH  11  12
ATOM     12  C   UNL     1      10.519 -26.292  40.415  1.00  0.00     0.066 C 
BRANCH  12  13
ATOM     13  C   UNL     1      11.636 -27.054  39.717  1.00  0.00     0.140 C 
ATOM     14  O   UNL     1      11.374 -28.062  39.077  1.00  0.00    -0.299 OA
BRANCH  13  15
ATOM     15  C   UNL     1      13.080 -26.629  39.831  1.00  0.00     0.106 CG0
ATOM     16  G   UNL     1      13.559 -25.849  38.622  1.00  0.00     0.000 G0
ENDBRANCH  13  15
ENDBRANCH  12  13
BRANCH  12  17
ATOM     17  C   UNL     1       9.375 -27.225  40.920  1.00  0.00    -0.006 C 
ATOM     18  C   UNL     1       8.152 -26.415  41.376  1.00  0.00     0.008 C 
ATOM     19  C   UNL     1       9.798 -28.206  42.027  1.00  0.00     0.008 C 
ENDBRANCH  12  17
ENDBRANCH  11  12
ENDBRANCH   1  11
TORSDOF 1
ENDMDL
MODEL 4
REMARK VINA RESULT:    -3.149      1.889      5.085
REMARK INTER + INTRA:          -5.091
REMARK INTER:                  -4.763
REMARK INTRA:                  -0.328
REMARK UNBOUND:                -0.285
REMARK SMILES CC1=CCC[C@@H](C)C(=O)C[C@@H](C(C)C)C(=O)C1
REMARK SMILES IDX 8 1 9 2 6 3 7 4 5 5 4 6 3 7 2 8 1 9 10 11 11 12 15 13 16 14
REMARK SMILES IDX 17 15 12 17 13 18 14 19
REMARK H PARENT
REMARK Flexibility Score: 70.00
ROOT
ATOM      1  C   UNL     1      13.557 -24.257  38.681  1.00  0.00     0.136 C 
ATOM      2  O   UNL     1      13.509 -24.516  37.487  1.00  0.00    -0.299 OA
ENDROOT
BRANCH   1   3
ATOM      3  C   UNL     1      14.314 -25.222  39.590  1.00  0.00     0.053 C 
ATOM      4  C   UNL     1      15.843 -25.052  39.594  1.00  0.00     0.016 C 
BRANCH   3   5
ATOM      5  C   UNL     1      13.912 -26.701  39.348  1.00  0.00     0.015 C 
BRANCH   5   6
ATOM      6  C   UNL     1      12.794 -27.238  40.265  1.00  0.00     0.028 C 
BRANCH   6   7
ATOM      7  C   UNL     1      11.454 -27.224  39.566  1.00  0.00    -0.028 C 
ATOM      8  C   UNL     1      10.434 -26.380  39.839  1.00  0.00    -0.070 CG0
ATOM      9  C   UNL     1       9.171 -26.509  39.026  1.00  0.00     0.039 C 
ATOM     10  G   UNL     1      10.507 -25.317  40.919  1.00  0.00     0.000 G0
ENDBRANCH   6   7
ENDBRANCH   5   6
ENDBRANCH   3   5
ENDBRANCH   1   3
BRANCH   1  11
ATOM     11  C   UNL     1      12.796 -23.037  39.169  1.00  0.00     0.087 C 
BRANCH  11  12
ATOM     12  C   UNL     1      12.143 -23.274  40.552  1.00  0.00     0.066 C 
BRANCH  12  13
ATOM     13  C   UNL     1      10.778 -23.930  40.399  1.00  0.00     0.140 C 
ATOM     14  O   UNL     1       9.863 -23.310  39.878  1.00  0.00    -0.299 OA
BRANCH  13  15
ATOM     15  C   UNL     1      10.501 -25.320  40.920  1.00  0.00     0.106 CG0
ATOM     16  G   UNL     1      10.421 -26.355  39.814  1.00  0.00     0.000 G0
ENDBRANCH  13  15
ENDBRANCH  12  13
BRANCH  12  17
ATOM     17  C   UNL     1      12.095 -21.973  41.412  1.00  0.00    -0.006 C 
ATOM     18  C   UNL     1      13.097 -20.927  40.901  1.00  0.00     0.008 C 
ATOM     19  C   UNL     1      12.298 -22.202  42.921  1.00  0.00     0.008 C 
ENDBRANCH  12  17
ENDBRANCH  11  12
ENDBRANCH   1  11
TORSDOF 1
ENDMDL
MODEL 5
REMARK VINA RESULT:    -3.121      2.631      4.067
REMARK INTER + INTRA:          -5.048
REMARK INTER:                  -4.797
REMARK INTRA:                  -0.251
REMARK UNBOUND:                -0.285
REMARK SMILES CC1=CCC[C@@H](C)C(=O)C[C@@H](C(C)C)C(=O)C1
REMARK SMILES IDX 8 1 9 2 6 3 7 4 5 5 4 6 3 7 2 8 1 9 10 11 11 12 15 13 16 14
REMARK SMILES IDX 17 15 12 17 13 18 14 19
REMARK H PARENT
REMARK Flexibility Score: 70.00
ROOT
ATOM      1  C   UNL     1      11.977 -22.326  40.954  1.00  0.00     0.136 C 
ATOM      2  O   UNL     1      10.881 -21.909  41.300  1.00  0.00    -0.299 OA
ENDROOT
BRANCH   1   3
ATOM      3  C   UNL     1      13.144 -22.153  41.924  1.00  0.00     0.053 C 
ATOM      4  C   UNL     1      12.759 -22.151  43.413  1.00  0.00     0.016 C 
BRANCH   3   5
ATOM      5  C   UNL     1      14.033 -20.933  41.568  1.00  0.00     0.015 C 
BRANCH   5   6
ATOM      6  C   UNL     1      15.425 -21.276  41.000  1.00  0.00     0.028 C 
BRANCH   6   7
ATOM      7  C   UNL     1      15.550 -20.848  39.556  1.00  0.00    -0.028 C 
ATOM      8  C   UNL     1      15.591 -21.681  38.491  1.00  0.00    -0.070 CG0
ATOM      9  C   UNL     1      15.709 -21.069  37.118  1.00  0.00     0.039 C 
ATOM     10  G   UNL     1      15.523 -23.190  38.619  1.00  0.00     0.000 G0
ENDBRANCH   6   7
ENDBRANCH   5   6
ENDBRANCH   3   5
ENDBRANCH   1   3
BRANCH   1  11
ATOM     11  C   UNL     1      12.099 -22.913  39.560  1.00  0.00     0.087 C 
BRANCH  11  12
ATOM     12  C   UNL     1      13.170 -24.029  39.490  1.00  0.00     0.066 C 
BRANCH  12  13
ATOM     13  C   UNL     1      14.150 -23.767  38.356  1.00  0.00     0.140 C 
ATOM     14  O   UNL     1      13.838 -24.050  37.209  1.00  0.00    -0.299 OA
BRANCH  13  15
ATOM     15  C   UNL     1      15.529 -23.207  38.610  1.00  0.00     0.106 CG0
ATOM     16  G   UNL     1      15.581 -21.696  38.487  1.00  0.00     0.000 G0
ENDBRANCH  13  15
ENDBRANCH  12  13
BRANCH  12  17
ATOM     17  C   UNL     1      12.535 -25.452  39.424  1.00  0.00    -0.006 C 
ATOM     18  C   UNL     1      11.461 -25.637  40.506  1.00  0.00     0.008 C 
ATOM     19  C   UNL     1      13.553 -26.605  39.492  1.00  0.00     0.008 C 
ENDBRANCH  12  17
ENDBRANCH  11  12
ENDBRANCH   1  11
TORSDOF 1
ENDMDL
MODEL 6
REMARK VINA RESULT:    -3.061      2.189      2.725
REMARK INTER + INTRA:          -4.956
REMARK INTER:                  -4.674
REMARK INTRA:                  -0.282
REMARK UNBOUND:                -0.285
REMARK SMILES CC1=CCC[C@@H](C)C(=O)C[C@@H](C(C)C)C(=O)C1
REMARK SMILES IDX 8 1 9 2 6 3 7 4 5 5 4 6 3 7 2 8 1 9 10 11 11 12 15 13 16 14
REMARK SMILES IDX 17 15 12 17 13 18 14 19
REMARK H PARENT
REMARK Flexibility Score: 70.00
ROOT
ATOM      1  C   UNL     1      12.102 -24.922  39.696  1.00  0.00     0.136 C 
ATOM      2  O   UNL     1      11.519 -24.650  38.656  1.00  0.00    -0.299 OA
ENDROOT
BRANCH   1   3
ATOM      3  C   UNL     1      11.368 -24.672  41.011  1.00  0.00     0.053 C 
ATOM      4  C   UNL     1      10.306 -25.723  41.375  1.00  0.00     0.016 C 
BRANCH   3   5
ATOM      5  C   UNL     1      10.796 -23.233  41.105  1.00  0.00     0.015 C 
BRANCH   5   6
ATOM      6  C   UNL     1      11.656 -22.233  41.903  1.00  0.00     0.028 C 
BRANCH   6   7
ATOM      7  C   UNL     1      12.410 -21.300  40.984  1.00  0.00    -0.028 C 
ATOM      8  C   UNL     1      13.738 -21.346  40.736  1.00  0.00    -0.070 CG0
ATOM      9  C   UNL     1      14.315 -20.335  39.777  1.00  0.00     0.039 C 
ATOM     10  G   UNL     1      14.664 -22.363  41.374  1.00  0.00     0.000 G0
ENDBRANCH   6   7
ENDBRANCH   5   6
ENDBRANCH   3   5
ENDBRANCH   1   3
BRANCH   1  11
ATOM     11  C   UNL     1      13.534 -25.416  39.592  1.00  0.00     0.087 C 
BRANCH  11  12
ATOM     12  C   UNL     1      14.408 -24.918  40.769  1.00  0.00     0.066 C 
BRANCH  12  13
ATOM     13  C   UNL     1      14.968 -23.534  40.477  1.00  0.00     0.140 C 
ATOM     14  O   UNL     1      15.702 -23.368  39.514  1.00  0.00    -0.299 OA
BRANCH  13  15
ATOM     15  C   UNL     1      14.683 -22.355  41.376  1.00  0.00     0.106 CG0
ATOM     16  G   UNL     1      13.742 -21.348  40.742  1.00  0.00     0.000 G0
ENDBRANCH  13  15
ENDBRANCH  12  13
BRANCH  12  17
ATOM     17  C   UNL     1      15.513 -25.948  41.159  1.00  0.00    -0.006 C 
ATOM     18  C   UNL     1      15.033 -27.392  40.946  1.00  0.00     0.008 C 
ATOM     19  C   UNL     1      16.059 -25.781  42.589  1.00  0.00     0.008 C 
ENDBRANCH  12  17
ENDBRANCH  11  12
ENDBRANCH   1  11
TORSDOF 1
ENDMDL
MODEL 7
REMARK VINA RESULT:    -3.034      1.519      1.682
REMARK INTER + INTRA:          -4.916
REMARK INTER:                  -4.728
REMARK INTRA:                  -0.188
REMARK UNBOUND:                -0.285
REMARK SMILES CC1=CCC[C@@H](C)C(=O)C[C@@H](C(C)C)C(=O)C1
REMARK SMILES IDX 8 1 9 2 6 3 7 4 5 5 4 6 3 7 2 8 1 9 10 11 11 12 15 13 16 14
REMARK SMILES IDX 17 15 12 17 13 18 14 19
REMARK H PARENT
REMARK Flexibility Score: 70.00
ROOT
ATOM      1  C   UNL     1       9.561 -26.868  38.893  1.00  0.00     0.136 C 
ATOM      2  O   UNL     1       9.132 -25.981  38.170  1.00  0.00    -0.299 OA
ENDROOT
BRANCH   1   3
ATOM      3  C   UNL     1       9.300 -26.754  40.393  1.00  0.00     0.053 C 
ATOM      4  C   UNL     1       7.942 -27.300  40.863  1.00  0.00     0.016 C 
BRANCH   3   5
ATOM      5  C   UNL     1       9.547 -25.318  40.929  1.00  0.00     0.015 C 
BRANCH   5   6
ATOM      6  C   UNL     1      11.010 -24.994  41.292  1.00  0.00     0.028 C 
BRANCH   6   7
ATOM      7  C   UNL     1      11.645 -24.087  40.263  1.00  0.00    -0.028 C 
ATOM      8  C   UNL     1      12.627 -24.440  39.404  1.00  0.00    -0.070 CG0
ATOM      9  C   UNL     1      13.131 -23.398  38.437  1.00  0.00     0.039 C 
ATOM     10  G   UNL     1      13.238 -25.827  39.372  1.00  0.00     0.000 G0
ENDBRANCH   6   7
ENDBRANCH   5   6
ENDBRANCH   3   5
ENDBRANCH   1   3
BRANCH   1  11
ATOM     11  C   UNL     1      10.381 -27.970  38.246  1.00  0.00     0.087 C 
BRANCH  11  12
ATOM     12  C   UNL     1      11.834 -28.003  38.778  1.00  0.00     0.066 C 
BRANCH  12  13
ATOM     13  C   UNL     1      12.589 -26.749  38.361  1.00  0.00     0.140 C 
ATOM     14  O   UNL     1      12.715 -26.485  37.174  1.00  0.00    -0.299 OA
BRANCH  13  15
ATOM     15  C   UNL     1      13.238 -25.837  39.374  1.00  0.00     0.106 CG0
ATOM     16  G   UNL     1      12.626 -24.450  39.391  1.00  0.00     0.000 G0
ENDBRANCH  13  15
ENDBRANCH  12  13
BRANCH  12  17
ATOM     17  C   UNL     1      12.577 -29.316  38.383  1.00  0.00    -0.006 C 
ATOM     18  C   UNL     1      12.022 -30.526  39.150  1.00  0.00     0.008 C 
ATOM     19  C   UNL     1      14.107 -29.251  38.538  1.00  0.00     0.008 C 
ENDBRANCH  12  17
ENDBRANCH  11  12
ENDBRANCH   1  11
TORSDOF 1
ENDMDL
MODEL 8
REMARK VINA RESULT:    -3.020      2.384      4.204
REMARK INTER + INTRA:          -4.894
REMARK INTER:                  -4.868
REMARK INTRA:                  -0.027
REMARK UNBOUND:                -0.285
REMARK SMILES CC1=CCC[C@@H](C)C(=O)C[C@@H](C(C)C)C(=O)C1
REMARK SMILES IDX 8 1 9 2 6 3 7 4 5 5 4 6 3 7 2 8 1 9 10 11 11 12 15 13 16 14
REMARK SMILES IDX 17 15 12 17 13 18 14 19
REMARK H PARENT
REMARK Flexibility Score: 70.00
ROOT
ATOM      1  C   UNL     1      11.712 -24.746  39.593  1.00  0.00     0.136 C 
ATOM      2  O   UNL     1      12.092 -24.373  38.491  1.00  0.00    -0.299 OA
ENDROOT
BRANCH   1   3
ATOM      3  C   UNL     1      10.406 -24.166  40.130  1.00  0.00     0.053 C 
ATOM      4  C   UNL     1      10.506 -22.734  40.682  1.00  0.00     0.016 C 
BRANCH   3   5
ATOM      5  C   UNL     1       9.710 -25.115  41.141  1.00  0.00     0.015 C 
BRANCH   5   6
ATOM      6  C   UNL     1       8.958 -26.307  40.516  1.00  0.00     0.028 C 
BRANCH   6   7
ATOM      7  C   UNL     1       9.112 -27.555  41.355  1.00  0.00    -0.028 C 
ATOM      8  C   UNL     1       9.954 -28.579  41.091  1.00  0.00    -0.070 CG0
ATOM      9  C   UNL     1       9.977 -29.742  42.051  1.00  0.00     0.039 C 
ATOM     10  G   UNL     1      10.870 -28.607  39.883  1.00  0.00     0.000 G0
ENDBRANCH   6   7
ENDBRANCH   5   6
ENDBRANCH   3   5
ENDBRANCH   1   3
BRANCH   1  11
ATOM     11  C   UNL     1      12.611 -25.696  40.363  1.00  0.00     0.087 C 
BRANCH  11  12
ATOM     12  C   UNL     1      12.929 -26.978  39.557  1.00  0.00     0.066 C 
BRANCH  12  13
ATOM     13  C   UNL     1      12.288 -28.197  40.206  1.00  0.00     0.140 C 
ATOM     14  O   UNL     1      12.939 -28.884  40.978  1.00  0.00    -0.299 OA
BRANCH  13  15
ATOM     15  C   UNL     1      10.874 -28.617  39.886  1.00  0.00     0.106 CG0
ATOM     16  G   UNL     1       9.961 -28.571  41.095  1.00  0.00     0.000 G0
ENDBRANCH  13  15
ENDBRANCH  12  13
BRANCH  12  17
ATOM     17  C   UNL     1      14.459 -27.158  39.314  1.00  0.00    -0.006 C 
ATOM     18  C   UNL     1      15.286 -26.392  40.358  1.00  0.00     0.008 C 
ATOM     19  C   UNL     1      14.925 -26.781  37.896  1.00  0.00     0.008 C 
ENDBRANCH  12  17
ENDBRANCH  11  12
ENDBRANCH   1  11
TORSDOF 1
ENDMDL
MODEL 9
REMARK VINA RESULT:    -3.020      1.877      4.185
REMARK INTER + INTRA:          -4.893
REMARK INTER:                  -4.978
REMARK INTRA:                   0.085
REMARK UNBOUND:                -0.285
REMARK SMILES CC1=CCC[C@@H](C)C(=O)C[C@@H](C(C)C)C(=O)C1
REMARK SMILES IDX 8 1 9 2 6 3 7 4 5 5 4 6 3 7 2 8 1 9 10 11 11 12 15 13 16 14
REMARK SMILES IDX 17 15 12 17 13 18 14 19
REMARK H PARENT
REMARK Flexibility Score: 70.00
ROOT
ATOM      1  C   UNL     1       9.416 -26.584  40.911  1.00  0.00     0.136 C 
ATOM      2  O   UNL     1       8.278 -26.231  41.185  1.00  0.00    -0.299 OA
ENDROOT
BRANCH   1   3
ATOM      3  C   UNL     1       9.615 -27.999  40.374  1.00  0.00     0.053 C 
ATOM      4  C   UNL     1       8.331 -28.705  39.905  1.00  0.00     0.016 C 
BRANCH   3   5
ATOM      5  C   UNL     1      10.427 -28.893  41.349  1.00  0.00     0.015 C 
BRANCH   5   6
ATOM      6  C   UNL     1      11.954 -28.880  41.137  1.00  0.00     0.028 C 
BRANCH   6   7
ATOM      7  C   UNL     1      12.305 -28.736  39.674  1.00  0.00    -0.028 C 
ATOM      8  C   UNL     1      12.758 -27.608  39.083  1.00  0.00    -0.070 CG0
ATOM      9  C   UNL     1      13.066 -27.656  37.607  1.00  0.00     0.039 C 
ATOM     10  G   UNL     1      12.969 -26.308  39.835  1.00  0.00     0.000 G0
ENDBRANCH   6   7
ENDBRANCH   5   6
ENDBRANCH   3   5
ENDBRANCH   1   3
BRANCH   1  11
ATOM     11  C   UNL     1      10.544 -25.609  41.198  1.00  0.00     0.087 C 
BRANCH  11  12
ATOM     12  C   UNL     1      10.866 -24.715  39.976  1.00  0.00     0.066 C 
BRANCH  12  13
ATOM     13  C   UNL     1      12.164 -25.153  39.313  1.00  0.00     0.140 C 
ATOM     14  O   UNL     1      12.547 -24.589  38.299  1.00  0.00    -0.299 OA
BRANCH  13  15
ATOM     15  C   UNL     1      12.979 -26.307  39.846  1.00  0.00     0.106 CG0
ATOM     16  G   UNL     1      12.748 -27.593  39.075  1.00  0.00     0.000 G0
ENDBRANCH  13  15
ENDBRANCH  12  13
BRANCH  12  17
ATOM     17  C   UNL     1      10.852 -23.197  40.335  1.00  0.00    -0.006 C 
ATOM     18  C   UNL     1      11.948 -22.854  41.355  1.00  0.00     0.008 C 
ATOM     19  C   UNL     1       9.491 -22.674  40.828  1.00  0.00     0.008 C 
ENDBRANCH  12  17
ENDBRANCH  11  12
ENDBRANCH   1  11
TORSDOF 1
ENDMDL
