MODEL 1
REMARK VINA RESULT:    -3.956      0.000      0.000
REMARK INTER + INTRA:         -13.263
REMARK INTER:                  -9.043
REMARK INTRA:                  -4.220
REMARK UNBOUND:                -4.220
REMARK SMILES CCCCCCCCCCCCCCCCCCCCCCCC(=O)[O-]
REMARK SMILES IDX 13 1 14 2 15 3 16 4 17 5 18 6 19 7 20 8 21 9 22 10 23 11
REMARK SMILES IDX 24 12 25 13 26 14 12 15 11 16 10 17 9 18 8 19 7 20 6 21 5 22
REMARK SMILES IDX 4 23 3 24 2 25 1 26
REMARK H PARENT
REMARK Flexibility Score: inf
ROOT
ATOM      1  C   UNL     1     -35.177  84.908 -18.191  1.00  0.00     0.000 C 
ENDROOT
BRANCH   1   2
ATOM      2  C   UNL     1     -36.475  84.208 -17.745  1.00  0.00     0.000 C 
BRANCH   2   3
ATOM      3  C   UNL     1     -36.473  82.673 -17.879  1.00  0.00     0.000 C 
BRANCH   3   4
ATOM      4  C   UNL     1     -37.374  82.170 -19.019  1.00  0.00     0.000 C 
BRANCH   4   5
ATOM      5  C   UNL     1     -36.735  81.015 -19.806  1.00  0.00     0.000 C 
BRANCH   5   6
ATOM      6  C   UNL     1     -35.278  80.750 -19.395  1.00  0.00     0.000 C 
BRANCH   6   7
ATOM      7  C   UNL     1     -34.391  80.549 -20.630  1.00  0.00     0.000 C 
BRANCH   7   8
ATOM      8  C   UNL     1     -32.935  80.271 -20.225  1.00  0.00     0.000 C 
BRANCH   8   9
ATOM      9  C   UNL     1     -32.530  80.975 -18.920  1.00  0.00     0.000 C 
BRANCH   9  10
ATOM     10  C   UNL     1     -31.823  82.333 -19.095  1.00  0.00     0.006 C 
BRANCH  10  11
ATOM     11  C   UNL     1     -31.630  82.756 -20.563  1.00  0.00     0.053 C 
BRANCH  11  12
ATOM     12  C   UNL     1     -30.205  82.643 -21.015  1.00  0.00     0.041 C 
ATOM     13  O   UNL     1     -29.620  83.635 -21.526  1.00  0.00    -0.550 OA
ATOM     14  O   UNL     1     -29.533  81.432 -20.908  1.00  0.00    -0.550 OA
ENDBRANCH  11  12
ENDBRANCH  10  11
ENDBRANCH   9  10
ENDBRANCH   8   9
ENDBRANCH   7   8
ENDBRANCH   6   7
ENDBRANCH   5   6
ENDBRANCH   4   5
ENDBRANCH   3   4
ENDBRANCH   2   3
ENDBRANCH   1   2
BRANCH   1  15
ATOM     15  C   UNL     1     -34.577  84.404 -19.518  1.00  0.00     0.000 C 
BRANCH  15  16
ATOM     16  C   UNL     1     -35.446  84.714 -20.755  1.00  0.00     0.000 C 
BRANCH  16  17
ATOM     17  C   UNL     1     -35.176  83.756 -21.926  1.00  0.00     0.000 C 
BRANCH  17  18
ATOM     18  C   UNL     1     -36.463  83.470 -22.709  1.00  0.00    -0.000 C 
BRANCH  18  19
ATOM     19  C   UNL     1     -37.665  84.187 -22.076  1.00  0.00    -0.000 C 
BRANCH  19  20
ATOM     20  C   UNL     1     -38.682  84.677 -23.119  1.00  0.00    -0.000 C 
BRANCH  20  21
ATOM     21  C   UNL     1     -38.681  83.825 -24.397  1.00  0.00    -0.000 C 
BRANCH  21  22
ATOM     22  C   UNL     1     -38.373  84.684 -25.633  1.00  0.00    -0.000 C 
BRANCH  22  23
ATOM     23  C   UNL     1     -37.680  86.012 -25.261  1.00  0.00    -0.000 C 
BRANCH  23  24
ATOM     24  C   UNL     1     -36.154  85.991 -25.471  1.00  0.00    -0.000 C 
BRANCH  24  25
ATOM     25  C   UNL     1     -35.358  86.861 -24.483  1.00  0.00    -0.003 C 
ATOM     26  C   UNL     1     -36.195  87.317 -23.287  1.00  0.00     0.004 C 
ENDBRANCH  24  25
ENDBRANCH  23  24
ENDBRANCH  22  23
ENDBRANCH  21  22
ENDBRANCH  20  21
ENDBRANCH  19  20
ENDBRANCH  18  19
ENDBRANCH  17  18
ENDBRANCH  16  17
ENDBRANCH  15  16
ENDBRANCH   1  15
TORSDOF 22
ENDMDL
MODEL 2
REMARK VINA RESULT:    -3.908     12.172     14.949
REMARK INTER + INTRA:         -13.153
REMARK INTER:                 -10.268
REMARK INTRA:                  -2.885
REMARK UNBOUND:                -4.220
REMARK SMILES CCCCCCCCCCCCCCCCCCCCCCCC(=O)[O-]
REMARK SMILES IDX 13 1 14 2 15 3 16 4 17 5 18 6 19 7 20 8 21 9 22 10 23 11
REMARK SMILES IDX 24 12 25 13 26 14 12 15 11 16 10 17 9 18 8 19 7 20 6 21 5 22
REMARK SMILES IDX 4 23 3 24 2 25 1 26
REMARK H PARENT
REMARK Flexibility Score: inf
ROOT
ATOM      1  C   UNL     1     -22.743  90.450 -29.047  1.00  0.00     0.000 C 
ENDROOT
BRANCH   1   2
ATOM      2  C   UNL     1     -23.558  89.606 -28.048  1.00  0.00     0.000 C 
BRANCH   2   3
ATOM      3  C   UNL     1     -23.729  88.123 -28.428  1.00  0.00     0.000 C 
BRANCH   3   4
ATOM      4  C   UNL     1     -24.509  87.320 -27.373  1.00  0.00     0.000 C 
BRANCH   4   5
ATOM      5  C   UNL     1     -25.113  88.218 -26.280  1.00  0.00     0.000 C 
BRANCH   5   6
ATOM      6  C   UNL     1     -24.534  87.929 -24.887  1.00  0.00     0.000 C 
BRANCH   6   7
ATOM      7  C   UNL     1     -23.126  88.522 -24.747  1.00  0.00     0.000 C 
BRANCH   7   8
ATOM      8  C   UNL     1     -22.068  87.413 -24.637  1.00  0.00     0.000 C 
BRANCH   8   9
ATOM      9  C   UNL     1     -22.494  86.267 -23.705  1.00  0.00     0.000 C 
BRANCH   9  10
ATOM     10  C   UNL     1     -21.349  85.592 -22.925  1.00  0.00     0.006 C 
BRANCH  10  11
ATOM     11  C   UNL     1     -21.398  84.053 -22.943  1.00  0.00     0.053 C 
BRANCH  11  12
ATOM     12  C   UNL     1     -22.516  83.500 -22.111  1.00  0.00     0.041 C 
ATOM     13  O   UNL     1     -23.312  82.652 -22.598  1.00  0.00    -0.550 OA
ATOM     14  O   UNL     1     -22.703  83.947 -20.809  1.00  0.00    -0.550 OA
ENDBRANCH  11  12
ENDBRANCH  10  11
ENDBRANCH   9  10
ENDBRANCH   8   9
ENDBRANCH   7   8
ENDBRANCH   6   7
ENDBRANCH   5   6
ENDBRANCH   4   5
ENDBRANCH   3   4
ENDBRANCH   2   3
ENDBRANCH   1   2
BRANCH   1  15
ATOM     15  C   UNL     1     -23.232  90.398 -30.508  1.00  0.00     0.000 C 
BRANCH  15  16
ATOM     16  C   UNL     1     -23.236  91.770 -31.215  1.00  0.00     0.000 C 
BRANCH  16  17
ATOM     17  C   UNL     1     -24.511  92.008 -32.041  1.00  0.00     0.000 C 
BRANCH  17  18
ATOM     18  C   UNL     1     -25.755  91.537 -31.280  1.00  0.00    -0.000 C 
BRANCH  18  19
ATOM     19  C   UNL     1     -26.189  92.577 -30.236  1.00  0.00    -0.000 C 
BRANCH  19  20
ATOM     20  C   UNL     1     -26.291  91.992 -28.819  1.00  0.00    -0.000 C 
BRANCH  20  21
ATOM     21  C   UNL     1     -25.514  92.811 -27.778  1.00  0.00    -0.000 C 
BRANCH  21  22
ATOM     22  C   UNL     1     -24.523  93.768 -28.458  1.00  0.00    -0.000 C 
BRANCH  22  23
ATOM     23  C   UNL     1     -24.984  95.240 -28.376  1.00  0.00    -0.000 C 
BRANCH  23  24
ATOM     24  C   UNL     1     -24.291  96.160 -29.398  1.00  0.00    -0.000 C 
BRANCH  24  25
ATOM     25  C   UNL     1     -23.865  95.465 -30.703  1.00  0.00    -0.003 C 
ATOM     26  C   UNL     1     -23.571  96.454 -31.832  1.00  0.00     0.004 C 
ENDBRANCH  24  25
ENDBRANCH  23  24
ENDBRANCH  22  23
ENDBRANCH  21  22
ENDBRANCH  20  21
ENDBRANCH  19  20
ENDBRANCH  18  19
ENDBRANCH  17  18
ENDBRANCH  16  17
ENDBRANCH  15  16
ENDBRANCH   1  15
TORSDOF 22
ENDMDL
MODEL 3
REMARK VINA RESULT:    -3.897     13.137     16.672
REMARK INTER + INTRA:         -13.129
REMARK INTER:                  -9.314
REMARK INTRA:                  -3.814
REMARK UNBOUND:                -4.220
REMARK SMILES CCCCCCCCCCCCCCCCCCCCCCCC(=O)[O-]
REMARK SMILES IDX 13 1 14 2 15 3 16 4 17 5 18 6 19 7 20 8 21 9 22 10 23 11
REMARK SMILES IDX 24 12 25 13 26 14 12 15 11 16 10 17 9 18 8 19 7 20 6 21 5 22
REMARK SMILES IDX 4 23 3 24 2 25 1 26
REMARK H PARENT
REMARK Flexibility Score: inf
ROOT
ATOM      1  C   UNL     1     -26.866  92.687 -31.977  1.00  0.00     0.000 C 
ENDROOT
BRANCH   1   2
ATOM      2  C   UNL     1     -25.679  91.919 -31.366  1.00  0.00     0.000 C 
BRANCH   2   3
ATOM      3  C   UNL     1     -24.857  91.079 -32.362  1.00  0.00     0.000 C 
BRANCH   3   4
ATOM      4  C   UNL     1     -23.350  91.086 -32.052  1.00  0.00     0.000 C 
BRANCH   4   5
ATOM      5  C   UNL     1     -23.049  91.538 -30.614  1.00  0.00     0.000 C 
BRANCH   5   6
ATOM      6  C   UNL     1     -22.650  90.372 -29.696  1.00  0.00     0.000 C 
BRANCH   6   7
ATOM      7  C   UNL     1     -23.322  90.505 -28.323  1.00  0.00     0.000 C 
BRANCH   7   8
ATOM      8  C   UNL     1     -24.741  89.917 -28.343  1.00  0.00     0.000 C 
BRANCH   8   9
ATOM      9  C   UNL     1     -24.774  88.417 -28.002  1.00  0.00     0.000 C 
BRANCH   9  10
ATOM     10  C   UNL     1     -24.770  88.083 -26.498  1.00  0.00     0.006 C 
BRANCH  10  11
ATOM     11  C   UNL     1     -23.575  87.222 -26.048  1.00  0.00     0.053 C 
BRANCH  11  12
ATOM     12  C   UNL     1     -22.686  87.931 -25.071  1.00  0.00     0.041 C 
ATOM     13  O   UNL     1     -21.890  87.277 -24.346  1.00  0.00    -0.550 OA
ATOM     14  O   UNL     1     -22.762  89.311 -24.933  1.00  0.00    -0.550 OA
ENDBRANCH  11  12
ENDBRANCH  10  11
ENDBRANCH   9  10
ENDBRANCH   8   9
ENDBRANCH   7   8
ENDBRANCH   6   7
ENDBRANCH   5   6
ENDBRANCH   4   5
ENDBRANCH   3   4
ENDBRANCH   2   3
ENDBRANCH   1   2
BRANCH   1  15
ATOM     15  C   UNL     1     -26.591  93.349 -33.342  1.00  0.00     0.000 C 
BRANCH  15  16
ATOM     16  C   UNL     1     -26.751  94.884 -33.337  1.00  0.00     0.000 C 
BRANCH  16  17
ATOM     17  C   UNL     1     -25.508  95.613 -33.870  1.00  0.00     0.000 C 
BRANCH  17  18
ATOM     18  C   UNL     1     -24.226  94.865 -33.485  1.00  0.00    -0.000 C 
BRANCH  18  19
ATOM     19  C   UNL     1     -23.486  95.587 -32.349  1.00  0.00    -0.000 C 
BRANCH  19  20
ATOM     20  C   UNL     1     -23.908  95.093 -30.956  1.00  0.00    -0.000 C 
BRANCH  20  21
ATOM     21  C   UNL     1     -24.351  96.234 -30.028  1.00  0.00    -0.000 C 
BRANCH  21  22
ATOM     22  C   UNL     1     -24.746  95.698 -28.644  1.00  0.00    -0.000 C 
BRANCH  22  23
ATOM     23  C   UNL     1     -24.540  94.172 -28.529  1.00  0.00    -0.000 C 
BRANCH  23  24
ATOM     24  C   UNL     1     -25.611  93.467 -27.675  1.00  0.00    -0.000 C 
BRANCH  24  25
ATOM     25  C   UNL     1     -27.034  93.523 -28.256  1.00  0.00    -0.003 C 
ATOM     26  C   UNL     1     -28.104  93.729 -27.183  1.00  0.00     0.004 C 
ENDBRANCH  24  25
ENDBRANCH  23  24
ENDBRANCH  22  23
ENDBRANCH  21  22
ENDBRANCH  20  21
ENDBRANCH  19  20
ENDBRANCH  18  19
ENDBRANCH  17  18
ENDBRANCH  16  17
ENDBRANCH  15  16
ENDBRANCH   1  15
TORSDOF 22
ENDMDL
MODEL 4
REMARK VINA RESULT:    -3.843      2.066      4.477
REMARK INTER + INTRA:         -13.005
REMARK INTER:                  -9.677
REMARK INTRA:                  -3.328
REMARK UNBOUND:                -4.220
REMARK SMILES CCCCCCCCCCCCCCCCCCCCCCCC(=O)[O-]
REMARK SMILES IDX 13 1 14 2 15 3 16 4 17 5 18 6 19 7 20 8 21 9 22 10 23 11
REMARK SMILES IDX 24 12 25 13 26 14 12 15 11 16 10 17 9 18 8 19 7 20 6 21 5 22
REMARK SMILES IDX 4 23 3 24 2 25 1 26
REMARK H PARENT
REMARK Flexibility Score: inf
ROOT
ATOM      1  C   UNL     1     -33.806  82.734 -20.569  1.00  0.00     0.000 C 
ENDROOT
BRANCH   1   2
ATOM      2  C   UNL     1     -33.887  81.252 -20.158  1.00  0.00     0.000 C 
BRANCH   2   3
ATOM      3  C   UNL     1     -33.367  80.933 -18.743  1.00  0.00     0.000 C 
BRANCH   3   4
ATOM      4  C   UNL     1     -31.919  80.414 -18.740  1.00  0.00     0.000 C 
BRANCH   4   5
ATOM      5  C   UNL     1     -31.582  79.604 -20.002  1.00  0.00     0.000 C 
BRANCH   5   6
ATOM      6  C   UNL     1     -30.365  80.159 -20.758  1.00  0.00     0.000 C 
BRANCH   6   7
ATOM      7  C   UNL     1     -30.018  81.571 -20.270  1.00  0.00     0.000 C 
BRANCH   7   8
ATOM      8  C   UNL     1     -30.472  82.633 -21.283  1.00  0.00     0.000 C 
BRANCH   8   9
ATOM      9  C   UNL     1     -29.307  83.221 -22.099  1.00  0.00     0.000 C 
BRANCH   9  10
ATOM     10  C   UNL     1     -29.690  84.351 -23.074  1.00  0.00     0.006 C 
BRANCH  10  11
ATOM     11  C   UNL     1     -28.485  85.089 -23.685  1.00  0.00     0.053 C 
BRANCH  11  12
ATOM     12  C   UNL     1     -28.170  86.370 -22.974  1.00  0.00     0.041 C 
ATOM     13  O   UNL     1     -28.922  86.787 -22.052  1.00  0.00    -0.550 OA
ATOM     14  O   UNL     1     -27.066  87.124 -23.352  1.00  0.00    -0.550 OA
ENDBRANCH  11  12
ENDBRANCH  10  11
ENDBRANCH   9  10
ENDBRANCH   8   9
ENDBRANCH   7   8
ENDBRANCH   6   7
ENDBRANCH   5   6
ENDBRANCH   4   5
ENDBRANCH   3   4
ENDBRANCH   2   3
ENDBRANCH   1   2
BRANCH   1  15
ATOM     15  C   UNL     1     -33.458  83.716 -19.434  1.00  0.00     0.000 C 
BRANCH  15  16
ATOM     16  C   UNL     1     -34.537  84.791 -19.184  1.00  0.00     0.000 C 
BRANCH  16  17
ATOM     17  C   UNL     1     -34.788  85.045 -17.689  1.00  0.00     0.000 C 
BRANCH  17  18
ATOM     18  C   UNL     1     -36.172  84.536 -17.271  1.00  0.00    -0.000 C 
BRANCH  18  19
ATOM     19  C   UNL     1     -36.372  83.072 -17.691  1.00  0.00    -0.000 C 
BRANCH  19  20
ATOM     20  C   UNL     1     -37.542  82.888 -18.670  1.00  0.00    -0.000 C 
BRANCH  20  21
ATOM     21  C   UNL     1     -37.345  81.694 -19.616  1.00  0.00    -0.000 C 
BRANCH  21  22
ATOM     22  C   UNL     1     -37.425  82.135 -21.085  1.00  0.00    -0.000 C 
BRANCH  22  23
ATOM     23  C   UNL     1     -37.390  83.671 -21.235  1.00  0.00    -0.000 C 
BRANCH  23  24
ATOM     24  C   UNL     1     -36.604  84.152 -22.470  1.00  0.00    -0.000 C 
BRANCH  24  25
ATOM     25  C   UNL     1     -35.934  85.527 -22.308  1.00  0.00    -0.003 C 
ATOM     26  C   UNL     1     -36.559  86.600 -23.201  1.00  0.00     0.004 C 
ENDBRANCH  24  25
ENDBRANCH  23  24
ENDBRANCH  22  23
ENDBRANCH  21  22
ENDBRANCH  20  21
ENDBRANCH  19  20
ENDBRANCH  18  19
ENDBRANCH  17  18
ENDBRANCH  16  17
ENDBRANCH  15  16
ENDBRANCH   1  15
TORSDOF 22
ENDMDL
MODEL 5
REMARK VINA RESULT:    -3.803     12.516     15.788
REMARK INTER + INTRA:         -12.913
REMARK INTER:                  -8.879
REMARK INTRA:                  -4.034
REMARK UNBOUND:                -4.220
REMARK SMILES CCCCCCCCCCCCCCCCCCCCCCCC(=O)[O-]
REMARK SMILES IDX 13 1 14 2 15 3 16 4 17 5 18 6 19 7 20 8 21 9 22 10 23 11
REMARK SMILES IDX 24 12 25 13 26 14 12 15 11 16 10 17 9 18 8 19 7 20 6 21 5 22
REMARK SMILES IDX 4 23 3 24 2 25 1 26
REMARK H PARENT
REMARK Flexibility Score: inf
ROOT
ATOM      1  C   UNL     1     -24.423  96.002 -28.733  1.00  0.00     0.000 C 
ENDROOT
BRANCH   1   2
ATOM      2  C   UNL     1     -25.585  95.207 -28.107  1.00  0.00     0.000 C 
BRANCH   2   3
ATOM      3  C   UNL     1     -25.259  93.747 -27.738  1.00  0.00     0.000 C 
BRANCH   3   4
ATOM      4  C   UNL     1     -24.047  93.191 -28.505  1.00  0.00     0.000 C 
BRANCH   4   5
ATOM      5  C   UNL     1     -23.829  91.691 -28.251  1.00  0.00     0.000 C 
BRANCH   5   6
ATOM      6  C   UNL     1     -23.328  90.944 -29.497  1.00  0.00     0.000 C 
BRANCH   6   7
ATOM      7  C   UNL     1     -24.202  89.717 -29.785  1.00  0.00     0.000 C 
BRANCH   7   8
ATOM      8  C   UNL     1     -24.779  89.131 -28.487  1.00  0.00     0.000 C 
BRANCH   8   9
ATOM      9  C   UNL     1     -24.273  87.709 -28.193  1.00  0.00     0.000 C 
BRANCH   9  10
ATOM     10  C   UNL     1     -23.276  87.593 -27.024  1.00  0.00     0.006 C 
BRANCH  10  11
ATOM     11  C   UNL     1     -23.942  87.427 -25.645  1.00  0.00     0.053 C 
BRANCH  11  12
ATOM     12  C   UNL     1     -23.942  88.695 -24.846  1.00  0.00     0.041 C 
ATOM     13  O   UNL     1     -22.854  89.242 -24.521  1.00  0.00    -0.550 OA
ATOM     14  O   UNL     1     -25.143  89.255 -24.428  1.00  0.00    -0.550 OA
ENDBRANCH  11  12
ENDBRANCH  10  11
ENDBRANCH   9  10
ENDBRANCH   8   9
ENDBRANCH   7   8
ENDBRANCH   6   7
ENDBRANCH   5   6
ENDBRANCH   4   5
ENDBRANCH   3   4
ENDBRANCH   2   3
ENDBRANCH   1   2
BRANCH   1  15
ATOM     15  C   UNL     1     -24.603  96.375 -30.217  1.00  0.00     0.000 C 
BRANCH  15  16
ATOM     16  C   UNL     1     -23.387  96.028 -31.102  1.00  0.00     0.000 C 
BRANCH  16  17
ATOM     17  C   UNL     1     -23.745  95.084 -32.260  1.00  0.00     0.000 C 
BRANCH  17  18
ATOM     18  C   UNL     1     -23.085  93.713 -32.075  1.00  0.00    -0.000 C 
BRANCH  18  19
ATOM     19  C   UNL     1     -23.992  92.589 -32.598  1.00  0.00    -0.000 C 
BRANCH  19  20
ATOM     20  C   UNL     1     -25.458  93.027 -32.745  1.00  0.00    -0.000 C 
BRANCH  20  21
ATOM     21  C   UNL     1     -26.423  92.165 -31.918  1.00  0.00    -0.000 C 
BRANCH  21  22
ATOM     22  C   UNL     1     -26.977  92.952 -30.720  1.00  0.00    -0.000 C 
BRANCH  22  23
ATOM     23  C   UNL     1     -28.125  92.202 -30.011  1.00  0.00    -0.000 C 
BRANCH  23  24
ATOM     24  C   UNL     1     -27.645  91.037 -29.124  1.00  0.00    -0.000 C 
BRANCH  24  25
ATOM     25  C   UNL     1     -28.327  90.953 -27.749  1.00  0.00    -0.003 C 
ATOM     26  C   UNL     1     -27.332  91.013 -26.589  1.00  0.00     0.004 C 
ENDBRANCH  24  25
ENDBRANCH  23  24
ENDBRANCH  22  23
ENDBRANCH  21  22
ENDBRANCH  20  21
ENDBRANCH  19  20
ENDBRANCH  18  19
ENDBRANCH  17  18
ENDBRANCH  16  17
ENDBRANCH  15  16
ENDBRANCH   1  15
TORSDOF 22
ENDMDL
MODEL 6
REMARK VINA RESULT:    -3.784      2.410      6.207
REMARK INTER + INTRA:         -12.871
REMARK INTER:                  -8.747
REMARK INTRA:                  -4.124
REMARK UNBOUND:                -4.220
REMARK SMILES CCCCCCCCCCCCCCCCCCCCCCCC(=O)[O-]
REMARK SMILES IDX 13 1 14 2 15 3 16 4 17 5 18 6 19 7 20 8 21 9 22 10 23 11
REMARK SMILES IDX 24 12 25 13 26 14 12 15 11 16 10 17 9 18 8 19 7 20 6 21 5 22
REMARK SMILES IDX 4 23 3 24 2 25 1 26
REMARK H PARENT
REMARK Flexibility Score: inf
ROOT
ATOM      1  C   UNL     1     -33.789  83.471 -19.860  1.00  0.00     0.000 C 
ENDROOT
BRANCH   1   2
ATOM      2  C   UNL     1     -34.837  84.570 -19.600  1.00  0.00     0.000 C 
BRANCH   2   3
ATOM      3  C   UNL     1     -35.363  84.649 -18.154  1.00  0.00     0.000 C 
BRANCH   3   4
ATOM      4  C   UNL     1     -36.619  83.792 -17.926  1.00  0.00     0.000 C 
BRANCH   4   5
ATOM      5  C   UNL     1     -36.280  82.337 -17.564  1.00  0.00     0.000 C 
BRANCH   5   6
ATOM      6  C   UNL     1     -36.393  81.384 -18.764  1.00  0.00     0.000 C 
BRANCH   6   7
ATOM      7  C   UNL     1     -37.753  81.538 -19.456  1.00  0.00     0.000 C 
BRANCH   7   8
ATOM      8  C   UNL     1     -37.673  81.118 -20.932  1.00  0.00     0.000 C 
BRANCH   8   9
ATOM      9  C   UNL     1     -36.775  82.042 -21.771  1.00  0.00     0.000 C 
BRANCH   9  10
ATOM     10  C   UNL     1     -37.244  83.507 -21.867  1.00  0.00     0.006 C 
BRANCH  10  11
ATOM     11  C   UNL     1     -36.889  84.194 -23.199  1.00  0.00     0.053 C 
BRANCH  11  12
ATOM     12  C   UNL     1     -35.923  85.327 -23.026  1.00  0.00     0.041 C 
ATOM     13  O   UNL     1     -34.682  85.121 -23.106  1.00  0.00    -0.550 OA
ATOM     14  O   UNL     1     -36.389  86.604 -22.741  1.00  0.00    -0.550 OA
ENDBRANCH  11  12
ENDBRANCH  10  11
ENDBRANCH   9  10
ENDBRANCH   8   9
ENDBRANCH   7   8
ENDBRANCH   6   7
ENDBRANCH   5   6
ENDBRANCH   4   5
ENDBRANCH   3   4
ENDBRANCH   2   3
ENDBRANCH   1   2
BRANCH   1  15
ATOM     15  C   UNL     1     -32.434  83.671 -19.154  1.00  0.00     0.000 C 
BRANCH  15  16
ATOM     16  C   UNL     1     -31.696  82.355 -18.831  1.00  0.00     0.000 C 
BRANCH  16  17
ATOM     17  C   UNL     1     -32.460  81.112 -19.314  1.00  0.00     0.000 C 
BRANCH  17  18
ATOM     18  C   UNL     1     -31.829  79.830 -18.759  1.00  0.00    -0.000 C 
BRANCH  18  19
ATOM     19  C   UNL     1     -30.656  79.366 -19.636  1.00  0.00    -0.000 C 
BRANCH  19  20
ATOM     20  C   UNL     1     -30.997  79.368 -21.134  1.00  0.00    -0.000 C 
BRANCH  20  21
ATOM     21  C   UNL     1     -29.878  79.969 -21.998  1.00  0.00    -0.000 C 
BRANCH  21  22
ATOM     22  C   UNL     1     -29.395  81.309 -21.422  1.00  0.00    -0.000 C 
BRANCH  22  23
ATOM     23  C   UNL     1     -29.572  82.472 -22.423  1.00  0.00    -0.000 C 
BRANCH  23  24
ATOM     24  C   UNL     1     -30.980  83.096 -22.400  1.00  0.00    -0.000 C 
BRANCH  24  25
ATOM     25  C   UNL     1     -31.919  82.603 -23.515  1.00  0.00    -0.003 C 
ATOM     26  C   UNL     1     -33.121  81.826 -22.977  1.00  0.00     0.004 C 
ENDBRANCH  24  25
ENDBRANCH  23  24
ENDBRANCH  22  23
ENDBRANCH  21  22
ENDBRANCH  20  21
ENDBRANCH  19  20
ENDBRANCH  18  19
ENDBRANCH  17  18
ENDBRANCH  16  17
ENDBRANCH  15  16
ENDBRANCH   1  15
TORSDOF 22
ENDMDL
MODEL 7
REMARK VINA RESULT:    -3.746     13.622     16.212
REMARK INTER + INTRA:         -12.784
REMARK INTER:                  -8.234
REMARK INTRA:                  -4.550
REMARK UNBOUND:                -4.220
REMARK SMILES CCCCCCCCCCCCCCCCCCCCCCCC(=O)[O-]
REMARK SMILES IDX 13 1 14 2 15 3 16 4 17 5 18 6 19 7 20 8 21 9 22 10 23 11
REMARK SMILES IDX 24 12 25 13 26 14 12 15 11 16 10 17 9 18 8 19 7 20 6 21 5 22
REMARK SMILES IDX 4 23 3 24 2 25 1 26
REMARK H PARENT
REMARK Flexibility Score: inf
ROOT
ATOM      1  C   UNL     1     -24.743  96.351 -29.687  1.00  0.00     0.000 C 
ENDROOT
BRANCH   1   2
ATOM      2  C   UNL     1     -24.530  95.366 -28.521  1.00  0.00     0.000 C 
BRANCH   2   3
ATOM      3  C   UNL     1     -25.729  94.452 -28.206  1.00  0.00     0.000 C 
BRANCH   3   4
ATOM      4  C   UNL     1     -25.337  92.970 -28.081  1.00  0.00     0.000 C 
BRANCH   4   5
ATOM      5  C   UNL     1     -23.984  92.664 -28.743  1.00  0.00     0.000 C 
BRANCH   5   6
ATOM      6  C   UNL     1     -24.128  91.858 -30.043  1.00  0.00     0.000 C 
BRANCH   6   7
ATOM      7  C   UNL     1     -22.873  91.016 -30.305  1.00  0.00     0.000 C 
BRANCH   7   8
ATOM      8  C   UNL     1     -22.633  90.012 -29.167  1.00  0.00     0.000 C 
BRANCH   8   9
ATOM      9  C   UNL     1     -23.766  88.981 -29.028  1.00  0.00     0.000 C 
BRANCH   9  10
ATOM     10  C   UNL     1     -24.559  89.047 -27.709  1.00  0.00     0.006 C 
BRANCH  10  11
ATOM     11  C   UNL     1     -23.778  89.668 -26.536  1.00  0.00     0.053 C 
BRANCH  11  12
ATOM     12  C   UNL     1     -23.166  88.636 -25.637  1.00  0.00     0.041 C 
ATOM     13  O   UNL     1     -23.282  87.410 -25.906  1.00  0.00    -0.550 OA
ATOM     14  O   UNL     1     -22.499  89.025 -24.482  1.00  0.00    -0.550 OA
ENDBRANCH  11  12
ENDBRANCH  10  11
ENDBRANCH   9  10
ENDBRANCH   8   9
ENDBRANCH   7   8
ENDBRANCH   6   7
ENDBRANCH   5   6
ENDBRANCH   4   5
ENDBRANCH   3   4
ENDBRANCH   2   3
ENDBRANCH   1   2
BRANCH   1  15
ATOM     15  C   UNL     1     -23.632  96.360 -30.755  1.00  0.00     0.000 C 
BRANCH  15  16
ATOM     16  C   UNL     1     -23.485  95.026 -31.517  1.00  0.00     0.000 C 
BRANCH  16  17
ATOM     17  C   UNL     1     -24.319  94.984 -32.807  1.00  0.00     0.000 C 
BRANCH  17  18
ATOM     18  C   UNL     1     -25.269  93.781 -32.808  1.00  0.00    -0.000 C 
BRANCH  18  19
ATOM     19  C   UNL     1     -26.499  94.048 -31.928  1.00  0.00    -0.000 C 
BRANCH  19  20
ATOM     20  C   UNL     1     -27.819  93.684 -32.625  1.00  0.00    -0.000 C 
BRANCH  20  21
ATOM     21  C   UNL     1     -28.438  92.384 -32.089  1.00  0.00    -0.000 C 
BRANCH  21  22
ATOM     22  C   UNL     1     -27.960  92.095 -30.658  1.00  0.00    -0.000 C 
BRANCH  22  23
ATOM     23  C   UNL     1     -27.417  90.658 -30.504  1.00  0.00    -0.000 C 
BRANCH  23  24
ATOM     24  C   UNL     1     -27.239  89.920 -31.844  1.00  0.00    -0.000 C 
BRANCH  24  25
ATOM     25  C   UNL     1     -25.848  89.297 -32.054  1.00  0.00    -0.003 C 
ATOM     26  C   UNL     1     -25.057  89.977 -33.172  1.00  0.00     0.004 C 
ENDBRANCH  24  25
ENDBRANCH  23  24
ENDBRANCH  22  23
ENDBRANCH  21  22
ENDBRANCH  20  21
ENDBRANCH  19  20
ENDBRANCH  18  19
ENDBRANCH  17  18
ENDBRANCH  16  17
ENDBRANCH  15  16
ENDBRANCH   1  15
TORSDOF 22
ENDMDL
MODEL 8
REMARK VINA RESULT:    -3.734     13.477     17.368
REMARK INTER + INTRA:         -12.757
REMARK INTER:                  -8.736
REMARK INTRA:                  -4.021
REMARK UNBOUND:                -4.220
REMARK SMILES CCCCCCCCCCCCCCCCCCCCCCCC(=O)[O-]
REMARK SMILES IDX 13 1 14 2 15 3 16 4 17 5 18 6 19 7 20 8 21 9 22 10 23 11
REMARK SMILES IDX 24 12 25 13 26 14 12 15 11 16 10 17 9 18 8 19 7 20 6 21 5 22
REMARK SMILES IDX 4 23 3 24 2 25 1 26
REMARK H PARENT
REMARK Flexibility Score: inf
ROOT
ATOM      1  C   UNL     1     -25.409  92.958 -27.886  1.00  0.00     0.000 C 
ENDROOT
BRANCH   1   2
ATOM      2  C   UNL     1     -26.005  94.255 -28.465  1.00  0.00     0.000 C 
BRANCH   2   3
ATOM      3  C   UNL     1     -25.497  95.558 -27.819  1.00  0.00     0.000 C 
BRANCH   3   4
ATOM      4  C   UNL     1     -24.553  96.353 -28.736  1.00  0.00     0.000 C 
BRANCH   4   5
ATOM      5  C   UNL     1     -24.733  95.992 -30.220  1.00  0.00     0.000 C 
BRANCH   5   6
ATOM      6  C   UNL     1     -23.401  95.934 -30.983  1.00  0.00     0.000 C 
BRANCH   6   7
ATOM      7  C   UNL     1     -23.608  95.385 -32.400  1.00  0.00     0.000 C 
BRANCH   7   8
ATOM      8  C   UNL     1     -24.861  95.990 -33.051  1.00  0.00     0.000 C 
BRANCH   8   9
ATOM      9  C   UNL     1     -25.798  94.929 -33.652  1.00  0.00     0.000 C 
BRANCH   9  10
ATOM     10  C   UNL     1     -25.776  93.557 -32.949  1.00  0.00     0.006 C 
BRANCH  10  11
ATOM     11  C   UNL     1     -26.888  93.371 -31.901  1.00  0.00     0.053 C 
BRANCH  11  12
ATOM     12  C   UNL     1     -28.073  92.628 -32.440  1.00  0.00     0.041 C 
ATOM     13  O   UNL     1     -28.775  93.131 -33.358  1.00  0.00    -0.550 OA
ATOM     14  O   UNL     1     -28.426  91.395 -31.904  1.00  0.00    -0.550 OA
ENDBRANCH  11  12
ENDBRANCH  10  11
ENDBRANCH   9  10
ENDBRANCH   8   9
ENDBRANCH   7   8
ENDBRANCH   6   7
ENDBRANCH   5   6
ENDBRANCH   4   5
ENDBRANCH   3   4
ENDBRANCH   2   3
ENDBRANCH   1   2
BRANCH   1  15
ATOM     15  C   UNL     1     -23.990  92.608 -28.375  1.00  0.00     0.000 C 
BRANCH  15  16
ATOM     16  C   UNL     1     -23.878  92.448 -29.906  1.00  0.00     0.000 C 
BRANCH  16  17
ATOM     17  C   UNL     1     -23.017  91.242 -30.316  1.00  0.00     0.000 C 
BRANCH  17  18
ATOM     18  C   UNL     1     -23.734  90.390 -31.370  1.00  0.00    -0.000 C 
BRANCH  18  19
ATOM     19  C   UNL     1     -25.171  90.067 -30.934  1.00  0.00    -0.000 C 
BRANCH  19  20
ATOM     20  C   UNL     1     -25.233  89.001 -29.830  1.00  0.00    -0.000 C 
BRANCH  20  21
ATOM     21  C   UNL     1     -26.098  89.429 -28.635  1.00  0.00    -0.000 C 
BRANCH  21  22
ATOM     22  C   UNL     1     -25.373  89.169 -27.306  1.00  0.00    -0.000 C 
BRANCH  22  23
ATOM     23  C   UNL     1     -23.856  88.959 -27.502  1.00  0.00    -0.000 C 
BRANCH  23  24
ATOM     24  C   UNL     1     -23.301  87.737 -26.746  1.00  0.00    -0.000 C 
BRANCH  24  25
ATOM     25  C   UNL     1     -23.244  87.899 -25.217  1.00  0.00    -0.003 C 
ATOM     26  C   UNL     1     -22.596  89.216 -24.785  1.00  0.00     0.004 C 
ENDBRANCH  24  25
ENDBRANCH  23  24
ENDBRANCH  22  23
ENDBRANCH  21  22
ENDBRANCH  20  21
ENDBRANCH  19  20
ENDBRANCH  18  19
ENDBRANCH  17  18
ENDBRANCH  16  17
ENDBRANCH  15  16
ENDBRANCH   1  15
TORSDOF 22
ENDMDL
MODEL 9
REMARK VINA RESULT:    -3.722     12.827     16.444
REMARK INTER + INTRA:         -12.729
REMARK INTER:                  -8.868
REMARK INTRA:                  -3.861
REMARK UNBOUND:                -4.220
REMARK SMILES CCCCCCCCCCCCCCCCCCCCCCCC(=O)[O-]
REMARK SMILES IDX 13 1 14 2 15 3 16 4 17 5 18 6 19 7 20 8 21 9 22 10 23 11
REMARK SMILES IDX 24 12 25 13 26 14 12 15 11 16 10 17 9 18 8 19 7 20 6 21 5 22
REMARK SMILES IDX 4 23 3 24 2 25 1 26
REMARK H PARENT
REMARK Flexibility Score: inf
ROOT
ATOM      1  C   UNL     1     -26.452  94.279 -33.872  1.00  0.00     0.000 C 
ENDROOT
BRANCH   1   2
ATOM      2  C   UNL     1     -26.874  93.085 -32.995  1.00  0.00     0.000 C 
BRANCH   2   3
ATOM      3  C   UNL     1     -25.876  91.912 -32.956  1.00  0.00     0.000 C 
BRANCH   3   4
ATOM      4  C   UNL     1     -25.533  91.464 -31.526  1.00  0.00     0.000 C 
BRANCH   4   5
ATOM      5  C   UNL     1     -24.234  90.644 -31.463  1.00  0.00     0.000 C 
BRANCH   5   6
ATOM      6  C   UNL     1     -23.156  91.304 -30.590  1.00  0.00     0.000 C 
BRANCH   6   7
ATOM      7  C   UNL     1     -23.771  91.885 -29.310  1.00  0.00     0.000 C 
BRANCH   7   8
ATOM      8  C   UNL     1     -23.410  91.029 -28.086  1.00  0.00     0.000 C 
BRANCH   8   9
ATOM      9  C   UNL     1     -24.645  90.464 -27.365  1.00  0.00     0.000 C 
BRANCH   9  10
ATOM     10  C   UNL     1     -24.776  88.928 -27.388  1.00  0.00     0.006 C 
BRANCH  10  11
ATOM     11  C   UNL     1     -23.558  88.185 -26.808  1.00  0.00     0.053 C 
BRANCH  11  12
ATOM     12  C   UNL     1     -23.398  88.399 -25.333  1.00  0.00     0.041 C 
ATOM     13  O   UNL     1     -22.533  89.206 -24.897  1.00  0.00    -0.550 OA
ATOM     14  O   UNL     1     -24.178  87.680 -24.435  1.00  0.00    -0.550 OA
ENDBRANCH  11  12
ENDBRANCH  10  11
ENDBRANCH   9  10
ENDBRANCH   8   9
ENDBRANCH   7   8
ENDBRANCH   6   7
ENDBRANCH   5   6
ENDBRANCH   4   5
ENDBRANCH   3   4
ENDBRANCH   2   3
ENDBRANCH   1   2
BRANCH   1  15
ATOM     15  C   UNL     1     -25.564  95.329 -33.175  1.00  0.00     0.000 C 
BRANCH  15  16
ATOM     16  C   UNL     1     -24.069  94.951 -33.126  1.00  0.00     0.000 C 
BRANCH  16  17
ATOM     17  C   UNL     1     -23.536  94.820 -31.690  1.00  0.00     0.000 C 
BRANCH  17  18
ATOM     18  C   UNL     1     -24.645  95.088 -30.667  1.00  0.00    -0.000 C 
BRANCH  18  19
ATOM     19  C   UNL     1     -24.316  96.317 -29.806  1.00  0.00    -0.000 C 
BRANCH  19  20
ATOM     20  C   UNL     1     -25.025  96.295 -28.443  1.00  0.00    -0.000 C 
BRANCH  20  21
ATOM     21  C   UNL     1     -25.181  94.876 -27.875  1.00  0.00    -0.000 C 
BRANCH  21  22
ATOM     22  C   UNL     1     -26.301  94.822 -26.825  1.00  0.00    -0.000 C 
BRANCH  22  23
ATOM     23  C   UNL     1     -27.320  93.699 -27.118  1.00  0.00    -0.000 C 
BRANCH  23  24
ATOM     24  C   UNL     1     -27.192  93.104 -28.533  1.00  0.00    -0.000 C 
BRANCH  24  25
ATOM     25  C   UNL     1     -27.820  91.710 -28.703  1.00  0.00    -0.003 C 
ATOM     26  C   UNL     1     -28.616  91.266 -27.475  1.00  0.00     0.004 C 
ENDBRANCH  24  25
ENDBRANCH  23  24
ENDBRANCH  22  23
ENDBRANCH  21  22
ENDBRANCH  20  21
ENDBRANCH  19  20
ENDBRANCH  18  19
ENDBRANCH  17  18
ENDBRANCH  16  17
ENDBRANCH  15  16
ENDBRANCH   1  15
TORSDOF 22
ENDMDL
