MODEL 1
REMARK VINA RESULT:    -5.475      0.000      0.000
REMARK INTER + INTRA:          -6.083
REMARK INTER:                  -5.956
REMARK INTRA:                  -0.127
REMARK UNBOUND:                -0.127
REMARK SMILES C=C(C)[C@H]1CC=C(C)[C@H](O)C1
REMARK SMILES IDX 8 1 7 2 6 3 5 4 4 5 11 6 9 7 10 8 2 10 1 11 3 12
REMARK H PARENT 10 9
REMARK Flexibility Score: inf
ROOT
ATOM      1  C   UNL     1      -1.738  16.238  47.544  1.00  0.00     0.042 C 
ATOM      2  C   UNL     1      -2.561  17.497  47.631  1.00  0.00    -0.049 C 
ATOM      3  C   UNL     1      -3.643  17.552  48.430  1.00  0.00    -0.025 C 
ATOM      4  C   UNL     1      -4.412  18.838  48.549  1.00  0.00     0.035 C 
ATOM      5  C   UNL     1      -3.444  20.027  48.765  1.00  0.00     0.021 C 
ATOM      6  C   UNL     1      -2.161  19.961  47.875  1.00  0.00     0.044 C 
ATOM      7  C   UNL     1      -2.144  18.760  46.902  1.00  0.00     0.140 C 
ENDROOT
BRANCH   7   8
ATOM      8  O   UNL     1      -0.863  18.613  46.345  1.00  0.00    -0.389 OA
ATOM      9  H   UNL     1      -0.664  19.455  45.858  1.00  0.00     0.211 HD
ENDBRANCH   7   8
BRANCH   5  10
ATOM     10  C   UNL     1      -4.175  21.352  48.613  1.00  0.00    -0.077 C 
ATOM     11  C   UNL     1      -3.894  22.394  49.415  1.00  0.00     0.008 C 
ATOM     12  C   UNL     1      -5.233  21.481  47.549  1.00  0.00     0.039 C 
ENDBRANCH   5  10
TORSDOF 2
ENDMDL
MODEL 2
REMARK VINA RESULT:    -5.319      2.328      4.844
REMARK INTER + INTRA:          -5.913
REMARK INTER:                  -5.779
REMARK INTRA:                  -0.134
REMARK UNBOUND:                -0.127
REMARK SMILES C=C(C)[C@H]1CC=C(C)[C@H](O)C1
REMARK SMILES IDX 8 1 7 2 6 3 5 4 4 5 11 6 9 7 10 8 2 10 1 11 3 12
REMARK H PARENT 10 9
REMARK Flexibility Score: inf
ROOT
ATOM      1  C   UNL     1      -3.990  20.753  48.752  1.00  0.00     0.042 C 
ATOM      2  C   UNL     1      -3.762  19.765  47.638  1.00  0.00    -0.049 C 
ATOM      3  C   UNL     1      -3.229  20.164  46.469  1.00  0.00    -0.025 C 
ATOM      4  C   UNL     1      -2.952  19.150  45.395  1.00  0.00     0.035 C 
ATOM      5  C   UNL     1      -2.232  17.916  45.992  1.00  0.00     0.021 C 
ATOM      6  C   UNL     1      -2.811  17.459  47.371  1.00  0.00     0.044 C 
ATOM      7  C   UNL     1      -4.033  18.285  47.833  1.00  0.00     0.140 C 
ENDROOT
BRANCH   7   8
ATOM      8  O   UNL     1      -4.318  18.005  49.180  1.00  0.00    -0.389 OA
ATOM      9  H   UNL     1      -4.126  18.835  49.691  1.00  0.00     0.211 HD
ENDBRANCH   7   8
BRANCH   5  10
ATOM     10  C   UNL     1      -2.193  16.776  44.987  1.00  0.00    -0.077 C 
ATOM     11  C   UNL     1      -3.326  16.273  44.465  1.00  0.00     0.008 C 
ATOM     12  C   UNL     1      -0.858  16.204  44.587  1.00  0.00     0.039 C 
ENDBRANCH   5  10
TORSDOF 2
ENDMDL
MODEL 3
REMARK VINA RESULT:    -5.254      1.865      4.433
REMARK INTER + INTRA:          -5.841
REMARK INTER:                  -5.730
REMARK INTRA:                  -0.112
REMARK UNBOUND:                -0.127
REMARK SMILES C=C(C)[C@H]1CC=C(C)[C@H](O)C1
REMARK SMILES IDX 8 1 7 2 6 3 5 4 4 5 11 6 9 7 10 8 2 10 1 11 3 12
REMARK H PARENT 10 9
REMARK Flexibility Score: inf
ROOT
ATOM      1  C   UNL     1      -5.124  21.551  47.660  1.00  0.00     0.042 C 
ATOM      2  C   UNL     1      -4.193  20.383  47.457  1.00  0.00    -0.049 C 
ATOM      3  C   UNL     1      -4.397  19.226  48.111  1.00  0.00    -0.025 C 
ATOM      4  C   UNL     1      -3.493  18.055  47.845  1.00  0.00     0.035 C 
ATOM      5  C   UNL     1      -3.298  17.858  46.322  1.00  0.00     0.021 C 
ATOM      6  C   UNL     1      -3.099  19.197  45.538  1.00  0.00     0.044 C 
ATOM      7  C   UNL     1      -3.064  20.446  46.446  1.00  0.00     0.140 C 
ENDROOT
BRANCH   7   8
ATOM      8  O   UNL     1      -3.160  21.610  45.664  1.00  0.00    -0.389 OA
ATOM      9  H   UNL     1      -2.301  22.094  45.766  1.00  0.00     0.211 HD
ENDBRANCH   7   8
BRANCH   5  10
ATOM     10  C   UNL     1      -2.181  16.865  46.044  1.00  0.00    -0.077 C 
ATOM     11  C   UNL     1      -1.480  16.313  47.050  1.00  0.00     0.008 C 
ATOM     12  C   UNL     1      -1.860  16.511  44.616  1.00  0.00     0.039 C 
ENDBRANCH   5  10
TORSDOF 2
ENDMDL
MODEL 4
REMARK VINA RESULT:    -5.188      1.478      2.301
REMARK INTER + INTRA:          -5.770
REMARK INTER:                  -5.638
REMARK INTRA:                  -0.132
REMARK UNBOUND:                -0.127
REMARK SMILES C=C(C)[C@H]1CC=C(C)[C@H](O)C1
REMARK SMILES IDX 8 1 7 2 6 3 5 4 4 5 11 6 9 7 10 8 2 10 1 11 3 12
REMARK H PARENT 10 9
REMARK Flexibility Score: inf
ROOT
ATOM      1  C   UNL     1      -1.818  16.242  47.060  1.00  0.00     0.042 C 
ATOM      2  C   UNL     1      -2.232  17.645  47.423  1.00  0.00    -0.049 C 
ATOM      3  C   UNL     1      -2.058  18.655  46.553  1.00  0.00    -0.025 C 
ATOM      4  C   UNL     1      -2.537  20.034  46.912  1.00  0.00     0.035 C 
ATOM      5  C   UNL     1      -3.975  19.974  47.482  1.00  0.00     0.021 C 
ATOM      6  C   UNL     1      -4.210  18.781  48.466  1.00  0.00     0.044 C 
ATOM      7  C   UNL     1      -2.941  17.940  48.732  1.00  0.00     0.140 C 
ENDROOT
BRANCH   7   8
ATOM      8  O   UNL     1      -3.287  16.747  49.390  1.00  0.00    -0.389 OA
ATOM      9  H   UNL     1      -3.668  17.007  50.269  1.00  0.00     0.211 HD
ENDBRANCH   7   8
BRANCH   5  10
ATOM     10  C   UNL     1      -4.366  21.306  48.101  1.00  0.00    -0.077 C 
ATOM     11  C   UNL     1      -5.461  21.968  47.685  1.00  0.00     0.008 C 
ATOM     12  C   UNL     1      -3.501  21.887  49.188  1.00  0.00     0.039 C 
ENDBRANCH   5  10
TORSDOF 2
ENDMDL
MODEL 5
REMARK VINA RESULT:    -5.180      1.965      2.898
REMARK INTER + INTRA:          -5.761
REMARK INTER:                  -5.631
REMARK INTRA:                  -0.130
REMARK UNBOUND:                -0.127
REMARK SMILES C=C(C)[C@H]1CC=C(C)[C@H](O)C1
REMARK SMILES IDX 8 1 7 2 6 3 5 4 4 5 11 6 9 7 10 8 2 10 1 11 3 12
REMARK H PARENT 10 9
REMARK Flexibility Score: inf
ROOT
ATOM      1  C   UNL     1      -0.251  16.068  44.800  1.00  0.00     0.042 C 
ATOM      2  C   UNL     1      -1.297  16.673  45.701  1.00  0.00    -0.049 C 
ATOM      3  C   UNL     1      -0.964  17.137  46.919  1.00  0.00    -0.025 C 
ATOM      4  C   UNL     1      -2.012  17.794  47.774  1.00  0.00     0.035 C 
ATOM      5  C   UNL     1      -2.823  18.817  46.942  1.00  0.00     0.021 C 
ATOM      6  C   UNL     1      -3.186  18.312  45.507  1.00  0.00     0.044 C 
ATOM      7  C   UNL     1      -2.726  16.864  45.227  1.00  0.00     0.140 C 
ENDROOT
BRANCH   7   8
ATOM      8  O   UNL     1      -2.836  16.583  43.855  1.00  0.00    -0.389 OA
ATOM      9  H   UNL     1      -3.676  17.010  43.543  1.00  0.00     0.211 HD
ENDBRANCH   7   8
BRANCH   5  10
ATOM     10  C   UNL     1      -4.051  19.283  47.708  1.00  0.00    -0.077 C 
ATOM     11  C   UNL     1      -4.804  18.412  48.404  1.00  0.00     0.008 C 
ATOM     12  C   UNL     1      -4.423  20.742  47.671  1.00  0.00     0.039 C 
ENDBRANCH   5  10
TORSDOF 2
ENDMDL
MODEL 6
REMARK VINA RESULT:    -5.094      4.356      7.152
REMARK INTER + INTRA:          -5.668
REMARK INTER:                  -5.541
REMARK INTRA:                  -0.126
REMARK UNBOUND:                -0.127
REMARK SMILES C=C(C)[C@H]1CC=C(C)[C@H](O)C1
REMARK SMILES IDX 8 1 7 2 6 3 5 4 4 5 11 6 9 7 10 8 2 10 1 11 3 12
REMARK H PARENT 10 9
REMARK Flexibility Score: inf
ROOT
ATOM      1  C   UNL     1      -3.629  26.473  53.169  1.00  0.00     0.042 C 
ATOM      2  C   UNL     1      -3.649  25.601  51.940  1.00  0.00    -0.049 C 
ATOM      3  C   UNL     1      -2.902  24.483  51.884  1.00  0.00    -0.025 C 
ATOM      4  C   UNL     1      -2.986  23.595  50.674  1.00  0.00     0.035 C 
ATOM      5  C   UNL     1      -4.465  23.350  50.287  1.00  0.00     0.021 C 
ATOM      6  C   UNL     1      -5.359  24.629  50.384  1.00  0.00     0.044 C 
ATOM      7  C   UNL     1      -4.576  25.902  50.778  1.00  0.00     0.140 C 
ENDROOT
BRANCH   7   8
ATOM      8  O   UNL     1      -5.473  26.931  51.112  1.00  0.00    -0.389 OA
ATOM      9  H   UNL     1      -5.885  27.237  50.263  1.00  0.00     0.211 HD
ENDBRANCH   7   8
BRANCH   5  10
ATOM     10  C   UNL     1      -4.562  22.691  48.920  1.00  0.00    -0.077 C 
ATOM     11  C   UNL     1      -5.119  23.335  47.879  1.00  0.00     0.008 C 
ATOM     12  C   UNL     1      -4.032  21.292  48.746  1.00  0.00     0.039 C 
ENDBRANCH   5  10
TORSDOF 2
ENDMDL
MODEL 7
REMARK VINA RESULT:    -5.059      2.601      4.124
REMARK INTER + INTRA:          -5.630
REMARK INTER:                  -5.499
REMARK INTRA:                  -0.131
REMARK UNBOUND:                -0.127
REMARK SMILES C=C(C)[C@H]1CC=C(C)[C@H](O)C1
REMARK SMILES IDX 8 1 7 2 6 3 5 4 4 5 11 6 9 7 10 8 2 10 1 11 3 12
REMARK H PARENT 10 9
REMARK Flexibility Score: inf
ROOT
ATOM      1  C   UNL     1      -3.272  19.596  48.851  1.00  0.00     0.042 C 
ATOM      2  C   UNL     1      -3.774  20.980  48.528  1.00  0.00    -0.049 C 
ATOM      3  C   UNL     1      -4.894  21.147  47.802  1.00  0.00    -0.025 C 
ATOM      4  C   UNL     1      -5.410  22.535  47.546  1.00  0.00     0.035 C 
ATOM      5  C   UNL     1      -5.416  23.360  48.856  1.00  0.00     0.021 C 
ATOM      6  C   UNL     1      -4.140  23.147  49.735  1.00  0.00     0.044 C 
ATOM      7  C   UNL     1      -3.092  22.213  49.089  1.00  0.00     0.140 C 
ENDROOT
BRANCH   7   8
ATOM      8  O   UNL     1      -2.119  21.855  50.038  1.00  0.00    -0.389 OA
ATOM      9  H   UNL     1      -1.252  21.818  49.558  1.00  0.00     0.211 HD
ENDBRANCH   7   8
BRANCH   5  10
ATOM     10  C   UNL     1      -5.669  24.830  48.568  1.00  0.00    -0.077 C 
ATOM     11  C   UNL     1      -5.042  25.456  47.557  1.00  0.00     0.008 C 
ATOM     12  C   UNL     1      -6.633  25.588  49.443  1.00  0.00     0.039 C 
ENDBRANCH   5  10
TORSDOF 2
ENDMDL
MODEL 8
REMARK VINA RESULT:    -5.057      2.524      5.143
REMARK INTER + INTRA:          -5.628
REMARK INTER:                  -5.496
REMARK INTRA:                  -0.132
REMARK UNBOUND:                -0.127
REMARK SMILES C=C(C)[C@H]1CC=C(C)[C@H](O)C1
REMARK SMILES IDX 8 1 7 2 6 3 5 4 4 5 11 6 9 7 10 8 2 10 1 11 3 12
REMARK H PARENT 10 9
REMARK Flexibility Score: inf
ROOT
ATOM      1  C   UNL     1      -5.042  25.045  48.826  1.00  0.00     0.042 C 
ATOM      2  C   UNL     1      -4.475  23.682  48.524  1.00  0.00    -0.049 C 
ATOM      3  C   UNL     1      -3.925  22.938  49.501  1.00  0.00    -0.025 C 
ATOM      4  C   UNL     1      -3.424  21.556  49.188  1.00  0.00     0.035 C 
ATOM      5  C   UNL     1      -4.473  20.777  48.358  1.00  0.00     0.021 C 
ATOM      6  C   UNL     1      -5.154  21.635  47.242  1.00  0.00     0.044 C 
ATOM      7  C   UNL     1      -4.593  23.072  47.140  1.00  0.00     0.140 C 
ENDROOT
BRANCH   7   8
ATOM      8  O   UNL     1      -5.427  23.854  46.322  1.00  0.00    -0.389 OA
ATOM      9  H   UNL     1      -4.886  24.116  45.532  1.00  0.00     0.211 HD
ENDBRANCH   7   8
BRANCH   5  10
ATOM     10  C   UNL     1      -3.877  19.493  47.804  1.00  0.00    -0.077 C 
ATOM     11  C   UNL     1      -4.225  18.294  48.306  1.00  0.00     0.008 C 
ATOM     12  C   UNL     1      -2.877  19.580  46.681  1.00  0.00     0.039 C 
ENDBRANCH   5  10
TORSDOF 2
ENDMDL
MODEL 9
REMARK VINA RESULT:    -5.030      3.243      5.185
REMARK INTER + INTRA:          -5.598
REMARK INTER:                  -5.474
REMARK INTRA:                  -0.124
REMARK UNBOUND:                -0.127
REMARK SMILES C=C(C)[C@H]1CC=C(C)[C@H](O)C1
REMARK SMILES IDX 8 1 7 2 6 3 5 4 4 5 11 6 9 7 10 8 2 10 1 11 3 12
REMARK H PARENT 10 9
REMARK Flexibility Score: inf
ROOT
ATOM      1  C   UNL     1      -3.668  20.685  48.644  1.00  0.00     0.042 C 
ATOM      2  C   UNL     1      -4.082  22.125  48.809  1.00  0.00    -0.049 C 
ATOM      3  C   UNL     1      -5.221  22.575  48.253  1.00  0.00    -0.025 C 
ATOM      4  C   UNL     1      -5.646  23.998  48.484  1.00  0.00     0.035 C 
ATOM      5  C   UNL     1      -5.526  24.361  49.984  1.00  0.00     0.021 C 
ATOM      6  C   UNL     1      -4.226  23.811  50.659  1.00  0.00     0.044 C 
ATOM      7  C   UNL     1      -3.284  23.076  49.680  1.00  0.00     0.140 C 
ENDROOT
BRANCH   7   8
ATOM      8  O   UNL     1      -2.294  22.383  50.397  1.00  0.00    -0.389 OA
ATOM      9  H   UNL     1      -2.597  21.440  50.462  1.00  0.00     0.211 HD
ENDBRANCH   7   8
BRANCH   5  10
ATOM     10  C   UNL     1      -5.684  25.859  50.193  1.00  0.00    -0.077 C 
ATOM     11  C   UNL     1      -4.733  26.576  50.817  1.00  0.00     0.008 C 
ATOM     12  C   UNL     1      -6.935  26.535  49.695  1.00  0.00     0.039 C 
ENDBRANCH   5  10
TORSDOF 2
ENDMDL
