MODEL 1
REMARK VINA RESULT:    -3.596      0.000      0.000
REMARK INTER + INTRA:          -4.354
REMARK INTER:                  -4.121
REMARK INTRA:                  -0.233
REMARK UNBOUND:                -0.233
REMARK SMILES CC=Cc1ccc(O)c(OC)c1
REMARK SMILES IDX 4 1 12 2 9 3 7 4 6 5 5 6 3 7 1 8 2 9 10 10 11 11 8 12
REMARK H PARENT 8 13
REMARK Flexibility Score: inf
ROOT
ATOM      1  C   UNL     1     163.694 171.273 169.354  1.00  0.00    -0.022 A 
ATOM      2  C   UNL     1     164.543 172.179 170.005  1.00  0.00     0.058 A 
ATOM      3  C   UNL     1     164.048 173.411 170.481  1.00  0.00     0.161 A 
ATOM      4  C   UNL     1     162.685 173.713 170.315  1.00  0.00     0.157 A 
ATOM      5  C   UNL     1     161.834 172.794 169.691  1.00  0.00     0.051 A 
ATOM      6  C   UNL     1     162.331 171.578 169.222  1.00  0.00     0.012 A 
ENDROOT
BRANCH   1   7
ATOM      7  C   UNL     1     164.239 169.979 168.891  1.00  0.00     0.003 C 
ATOM      8  C   UNL     1     164.510 170.704 166.505  1.00  0.00     0.035 C 
ATOM      9  C   UNL     1     164.584 169.710 167.624  1.00  0.00    -0.030 C 
ENDBRANCH   1   7
BRANCH   3  10
ATOM     10  O   UNL     1     164.877 174.346 171.120  1.00  0.00    -0.493 OA
ATOM     11  C   UNL     1     165.693 174.063 172.253  1.00  0.00     0.278 C 
ENDBRANCH   3  10
BRANCH   4  12
ATOM     12  O   UNL     1     162.154 174.920 170.769  1.00  0.00    -0.504 OA
ATOM     13  H   UNL     1     161.168 175.142 170.685  1.00  0.00     0.293 HD
ENDBRANCH   4  12
TORSDOF 3
ENDMDL
MODEL 2
REMARK VINA RESULT:    -3.593      9.122     10.366
REMARK INTER + INTRA:          -4.351
REMARK INTER:                  -4.114
REMARK INTRA:                  -0.237
REMARK UNBOUND:                -0.233
REMARK SMILES CC=Cc1ccc(O)c(OC)c1
REMARK SMILES IDX 4 1 12 2 9 3 7 4 6 5 5 6 3 7 1 8 2 9 10 10 11 11 8 12
REMARK H PARENT 8 13
REMARK Flexibility Score: inf
ROOT
ATOM      1  C   UNL     1     159.942 163.672 169.357  1.00  0.00    -0.022 A 
ATOM      2  C   UNL     1     159.036 164.525 170.003  1.00  0.00     0.058 A 
ATOM      3  C   UNL     1     157.803 164.034 170.480  1.00  0.00     0.161 A 
ATOM      4  C   UNL     1     157.500 162.670 170.322  1.00  0.00     0.157 A 
ATOM      5  C   UNL     1     158.419 161.816 169.703  1.00  0.00     0.051 A 
ATOM      6  C   UNL     1     159.636 162.308 169.233  1.00  0.00     0.012 A 
ENDROOT
BRANCH   1   7
ATOM      7  C   UNL     1     161.236 164.214 168.893  1.00  0.00     0.003 C 
ATOM      8  C   UNL     1     160.500 164.512 166.513  1.00  0.00     0.035 C 
ATOM      9  C   UNL     1     161.501 164.570 167.627  1.00  0.00    -0.030 C 
ENDBRANCH   1   7
BRANCH   3  10
ATOM     10  O   UNL     1     156.867 164.867 171.114  1.00  0.00    -0.493 OA
ATOM     11  C   UNL     1     157.146 165.676 172.252  1.00  0.00     0.278 C 
ENDBRANCH   3  10
BRANCH   4  12
ATOM     12  O   UNL     1     156.293 162.142 170.777  1.00  0.00    -0.504 OA
ATOM     13  H   UNL     1     156.224 161.211 171.171  1.00  0.00     0.293 HD
ENDBRANCH   4  12
TORSDOF 3
ENDMDL
MODEL 3
REMARK VINA RESULT:    -3.577      9.099     10.341
REMARK INTER + INTRA:          -4.333
REMARK INTER:                  -4.096
REMARK INTRA:                  -0.236
REMARK UNBOUND:                -0.233
REMARK SMILES CC=Cc1ccc(O)c(OC)c1
REMARK SMILES IDX 4 1 12 2 9 3 7 4 6 5 5 6 3 7 1 8 2 9 10 10 11 11 8 12
REMARK H PARENT 8 13
REMARK Flexibility Score: inf
ROOT
ATOM      1  C   UNL     1     171.302 167.573 169.390  1.00  0.00    -0.022 A 
ATOM      2  C   UNL     1     172.237 166.746 170.029  1.00  0.00     0.058 A 
ATOM      3  C   UNL     1     173.460 167.271 170.494  1.00  0.00     0.161 A 
ATOM      4  C   UNL     1     173.725 168.643 170.331  1.00  0.00     0.157 A 
ATOM      5  C   UNL     1     172.778 169.471 169.720  1.00  0.00     0.051 A 
ATOM      6  C   UNL     1     171.570 168.945 169.261  1.00  0.00     0.012 A 
ENDROOT
BRANCH   1   7
ATOM      7  C   UNL     1     170.019 166.996 168.938  1.00  0.00     0.003 C 
ATOM      8  C   UNL     1     170.744 166.709 166.553  1.00  0.00     0.035 C 
ATOM      9  C   UNL     1     169.754 166.629 167.676  1.00  0.00    -0.030 C 
ENDBRANCH   1   7
BRANCH   3  10
ATOM     10  O   UNL     1     174.423 166.465 171.121  1.00  0.00    -0.493 OA
ATOM     11  C   UNL     1     174.156 165.582 172.206  1.00  0.00     0.278 C 
ENDBRANCH   3  10
BRANCH   4  12
ATOM     12  O   UNL     1     174.922 169.204 170.775  1.00  0.00    -0.504 OA
ATOM     13  H   UNL     1     175.093 170.202 170.750  1.00  0.00     0.293 HD
ENDBRANCH   4  12
TORSDOF 3
ENDMDL
MODEL 4
REMARK VINA RESULT:    -3.574      6.456      8.440
REMARK INTER + INTRA:          -4.329
REMARK INTER:                  -4.191
REMARK INTRA:                  -0.138
REMARK UNBOUND:                -0.233
REMARK SMILES CC=Cc1ccc(O)c(OC)c1
REMARK SMILES IDX 4 1 12 2 9 3 7 4 6 5 5 6 3 7 1 8 2 9 10 10 11 11 8 12
REMARK H PARENT 8 13
REMARK Flexibility Score: inf
ROOT
ATOM      1  C   UNL     1     167.680 166.167 168.095  1.00  0.00    -0.022 A 
ATOM      2  C   UNL     1     168.851 166.431 167.370  1.00  0.00     0.058 A 
ATOM      3  C   UNL     1     170.026 166.847 168.030  1.00  0.00     0.161 A 
ATOM      4  C   UNL     1     170.019 166.971 169.431  1.00  0.00     0.157 A 
ATOM      5  C   UNL     1     168.858 166.678 170.154  1.00  0.00     0.051 A 
ATOM      6  C   UNL     1     167.699 166.269 169.494  1.00  0.00     0.012 A 
ENDROOT
BRANCH   1   7
ATOM      7  C   UNL     1     166.475 165.708 167.375  1.00  0.00     0.003 C 
ATOM      8  C   UNL     1     165.176 167.818 167.769  1.00  0.00     0.035 C 
ATOM      9  C   UNL     1     165.350 166.425 167.243  1.00  0.00    -0.030 C 
ENDBRANCH   1   7
BRANCH   3  10
ATOM     10  O   UNL     1     171.208 167.137 167.330  1.00  0.00    -0.493 OA
ATOM     11  C   UNL     1     172.244 166.196 167.067  1.00  0.00     0.278 C 
ENDBRANCH   3  10
BRANCH   4  12
ATOM     12  O   UNL     1     171.157 167.380 170.124  1.00  0.00    -0.504 OA
ATOM     13  H   UNL     1     171.123 168.082 170.855  1.00  0.00     0.293 HD
ENDBRANCH   4  12
TORSDOF 3
ENDMDL
MODEL 5
REMARK VINA RESULT:    -3.557     12.682     14.720
REMARK INTER + INTRA:          -4.310
REMARK INTER:                  -4.071
REMARK INTRA:                  -0.240
REMARK UNBOUND:                -0.233
REMARK SMILES CC=Cc1ccc(O)c(OC)c1
REMARK SMILES IDX 4 1 12 2 9 3 7 4 6 5 5 6 3 7 1 8 2 9 10 10 11 11 8 12
REMARK H PARENT 8 13
REMARK Flexibility Score: inf
ROOT
ATOM      1  C   UNL     1     167.583 159.897 169.417  1.00  0.00    -0.022 A 
ATOM      2  C   UNL     1     166.753 158.948 170.031  1.00  0.00     0.058 A 
ATOM      3  C   UNL     1     167.280 157.725 170.493  1.00  0.00     0.161 A 
ATOM      4  C   UNL     1     168.657 157.474 170.352  1.00  0.00     0.157 A 
ATOM      5  C   UNL     1     169.488 158.435 169.766  1.00  0.00     0.051 A 
ATOM      6  C   UNL     1     168.959 159.643 169.310  1.00  0.00     0.012 A 
ENDROOT
BRANCH   1   7
ATOM      7  C   UNL     1     167.002 161.180 168.970  1.00  0.00     0.003 C 
ATOM      8  C   UNL     1     166.741 160.471 166.577  1.00  0.00     0.035 C 
ATOM      9  C   UNL     1     166.645 161.452 167.706  1.00  0.00    -0.030 C 
ENDBRANCH   1   7
BRANCH   3  10
ATOM     10  O   UNL     1     166.472 156.747 171.094  1.00  0.00    -0.493 OA
ATOM     11  C   UNL     1     165.588 156.988 172.184  1.00  0.00     0.278 C 
ENDBRANCH   3  10
BRANCH   4  12
ATOM     12  O   UNL     1     169.221 156.277 170.792  1.00  0.00    -0.504 OA
ATOM     13  H   UNL     1     169.202 155.432 170.234  1.00  0.00     0.293 HD
ENDBRANCH   4  12
TORSDOF 3
ENDMDL
MODEL 6
REMARK VINA RESULT:    -3.501      9.014     11.195
REMARK INTER + INTRA:          -4.245
REMARK INTER:                  -4.130
REMARK INTRA:                  -0.116
REMARK UNBOUND:                -0.233
REMARK SMILES CC=Cc1ccc(O)c(OC)c1
REMARK SMILES IDX 4 1 12 2 9 3 7 4 6 5 5 6 3 7 1 8 2 9 10 10 11 11 8 12
REMARK H PARENT 8 13
REMARK Flexibility Score: inf
ROOT
ATOM      1  C   UNL     1     166.182 163.732 168.076  1.00  0.00    -0.022 A 
ATOM      2  C   UNL     1     166.421 162.567 167.333  1.00  0.00     0.058 A 
ATOM      3  C   UNL     1     166.786 161.368 167.978  1.00  0.00     0.161 A 
ATOM      4  C   UNL     1     166.887 161.345 169.380  1.00  0.00     0.157 A 
ATOM      5  C   UNL     1     166.619 162.501 170.120  1.00  0.00     0.051 A 
ATOM      6  C   UNL     1     166.260 163.685 169.476  1.00  0.00     0.012 A 
ENDROOT
BRANCH   1   7
ATOM      7  C   UNL     1     165.775 164.965 167.371  1.00  0.00     0.003 C 
ATOM      8  C   UNL     1     163.385 164.862 168.127  1.00  0.00     0.035 C 
ATOM      9  C   UNL     1     164.530 165.464 167.370  1.00  0.00    -0.030 C 
ENDBRANCH   1   7
BRANCH   3  10
ATOM     10  O   UNL     1     167.050 160.190 167.260  1.00  0.00    -0.493 OA
ATOM     11  C   UNL     1     166.083 159.184 166.975  1.00  0.00     0.278 C 
ENDBRANCH   3  10
BRANCH   4  12
ATOM     12  O   UNL     1     167.247 160.181 170.059  1.00  0.00    -0.504 OA
ATOM     13  H   UNL     1     167.958 159.549 169.709  1.00  0.00     0.293 HD
ENDBRANCH   4  12
TORSDOF 3
ENDMDL
MODEL 7
REMARK VINA RESULT:    -3.460      9.062     10.515
REMARK INTER + INTRA:          -4.198
REMARK INTER:                  -3.993
REMARK INTRA:                  -0.205
REMARK UNBOUND:                -0.233
REMARK SMILES CC=Cc1ccc(O)c(OC)c1
REMARK SMILES IDX 4 1 12 2 9 3 7 4 6 5 5 6 3 7 1 8 2 9 10 10 11 11 8 12
REMARK H PARENT 8 13
REMARK Flexibility Score: inf
ROOT
ATOM      1  C   UNL     1     171.370 167.052 169.490  1.00  0.00    -0.022 A 
ATOM      2  C   UNL     1     172.139 168.220 169.392  1.00  0.00     0.058 A 
ATOM      3  C   UNL     1     173.387 168.316 170.041  1.00  0.00     0.161 A 
ATOM      4  C   UNL     1     173.867 167.213 170.772  1.00  0.00     0.157 A 
ATOM      5  C   UNL     1     173.111 166.039 170.843  1.00  0.00     0.051 A 
ATOM      6  C   UNL     1     171.876 165.952 170.200  1.00  0.00     0.012 A 
ENDROOT
BRANCH   1   7
ATOM      7  C   UNL     1     170.079 166.976 168.775  1.00  0.00     0.003 C 
ATOM      8  C   UNL     1     171.099 166.407 166.555  1.00  0.00     0.035 C 
ATOM      9  C   UNL     1     169.950 166.711 167.467  1.00  0.00    -0.030 C 
ENDBRANCH   1   7
BRANCH   3  10
ATOM     10  O   UNL     1     174.171 169.479 169.976  1.00  0.00    -0.493 OA
ATOM     11  C   UNL     1     175.041 169.808 168.898  1.00  0.00     0.278 C 
ENDBRANCH   3  10
BRANCH   4  12
ATOM     12  O   UNL     1     175.095 167.264 171.430  1.00  0.00    -0.504 OA
ATOM     13  H   UNL     1     175.974 167.319 170.930  1.00  0.00     0.293 HD
ENDBRANCH   4  12
TORSDOF 3
ENDMDL
MODEL 8
REMARK VINA RESULT:    -3.456      9.368     10.690
REMARK INTER + INTRA:          -4.194
REMARK INTER:                  -3.978
REMARK INTRA:                  -0.216
REMARK UNBOUND:                -0.233
REMARK SMILES CC=Cc1ccc(O)c(OC)c1
REMARK SMILES IDX 4 1 12 2 9 3 7 4 6 5 5 6 3 7 1 8 2 9 10 10 11 11 8 12
REMARK H PARENT 8 13
REMARK Flexibility Score: inf
ROOT
ATOM      1  C   UNL     1     159.833 164.084 169.310  1.00  0.00    -0.022 A 
ATOM      2  C   UNL     1     159.077 162.907 169.213  1.00  0.00     0.058 A 
ATOM      3  C   UNL     1     157.837 162.794 169.874  1.00  0.00     0.161 A 
ATOM      4  C   UNL     1     157.351 163.887 170.615  1.00  0.00     0.157 A 
ATOM      5  C   UNL     1     158.094 165.070 170.685  1.00  0.00     0.051 A 
ATOM      6  C   UNL     1     159.321 165.174 170.030  1.00  0.00     0.012 A 
ENDROOT
BRANCH   1   7
ATOM      7  C   UNL     1     161.116 164.178 168.584  1.00  0.00     0.003 C 
ATOM      8  C   UNL     1     160.077 164.858 166.404  1.00  0.00     0.035 C 
ATOM      9  C   UNL     1     161.233 164.500 167.287  1.00  0.00    -0.030 C 
ENDBRANCH   1   7
BRANCH   3  10
ATOM     10  O   UNL     1     157.066 161.622 169.811  1.00  0.00    -0.493 OA
ATOM     11  C   UNL     1     156.126 161.327 168.783  1.00  0.00     0.278 C 
ENDBRANCH   3  10
BRANCH   4  12
ATOM     12  O   UNL     1     156.130 163.819 171.284  1.00  0.00    -0.504 OA
ATOM     13  H   UNL     1     155.377 164.472 171.103  1.00  0.00     0.293 HD
ENDBRANCH   4  12
TORSDOF 3
ENDMDL
MODEL 9
REMARK VINA RESULT:    -3.429      1.039      2.519
REMARK INTER + INTRA:          -4.163
REMARK INTER:                  -3.937
REMARK INTRA:                  -0.226
REMARK UNBOUND:                -0.233
REMARK SMILES CC=Cc1ccc(O)c(OC)c1
REMARK SMILES IDX 4 1 12 2 9 3 7 4 6 5 5 6 3 7 1 8 2 9 10 10 11 11 8 12
REMARK H PARENT 8 13
REMARK Flexibility Score: inf
ROOT
ATOM      1  C   UNL     1     164.044 171.401 169.350  1.00  0.00    -0.022 A 
ATOM      2  C   UNL     1     162.855 172.141 169.279  1.00  0.00     0.058 A 
ATOM      3  C   UNL     1     162.740 173.381 169.941  1.00  0.00     0.161 A 
ATOM      4  C   UNL     1     163.843 173.882 170.657  1.00  0.00     0.157 A 
ATOM      5  C   UNL     1     165.037 173.155 170.701  1.00  0.00     0.051 A 
ATOM      6  C   UNL     1     165.143 171.929 170.045  1.00  0.00     0.012 A 
ENDROOT
BRANCH   1   7
ATOM      7  C   UNL     1     164.139 170.119 168.623  1.00  0.00     0.003 C 
ATOM      8  C   UNL     1     164.810 171.160 166.442  1.00  0.00     0.035 C 
ATOM      9  C   UNL     1     164.458 170.003 167.326  1.00  0.00    -0.030 C 
ENDBRANCH   1   7
BRANCH   3  10
ATOM     10  O   UNL     1     161.557 174.136 169.904  1.00  0.00    -0.493 OA
ATOM     11  C   UNL     1     161.181 174.996 168.833  1.00  0.00     0.278 C 
ENDBRANCH   3  10
BRANCH   4  12
ATOM     12  O   UNL     1     163.773 175.103 171.326  1.00  0.00    -0.504 OA
ATOM     13  H   UNL     1     164.537 175.453 171.894  1.00  0.00     0.293 HD
ENDBRANCH   4  12
TORSDOF 3
ENDMDL
